MODEL 1
REMARK VINA RESULT:    -3.971      0.000      0.000
REMARK INTER + INTRA:          -6.696
REMARK INTER:                  -6.060
REMARK INTRA:                  -0.635
REMARK UNBOUND:                -0.635
REMARK SMILES CCCCCCCCCCC(=O)[O-]
REMARK SMILES IDX 7 1 8 2 9 3 10 4 11 5 12 6 13 7 6 8 5 9 4 10 3 11 2 12 1 13
REMARK H PARENT
REMARK Flexibility Score: inf
ROOT
ATOM      1  C   UNL     1      45.612  26.358   4.799  1.00  0.00     0.000 C 
ENDROOT
BRANCH   1   2
ATOM      2  C   UNL     1      46.347  27.627   5.265  1.00  0.00     0.000 C 
BRANCH   2   3
ATOM      3  C   UNL     1      46.947  27.483   6.675  1.00  0.00     0.006 C 
BRANCH   3   4
ATOM      4  C   UNL     1      46.323  26.356   7.514  1.00  0.00     0.053 C 
BRANCH   4   5
ATOM      5  C   UNL     1      45.580  26.886   8.702  1.00  0.00     0.041 C 
ATOM      6  O   UNL     1      45.347  26.140   9.689  1.00  0.00    -0.550 OA
ATOM      7  O   UNL     1      45.175  28.215   8.734  1.00  0.00    -0.550 OA
ENDBRANCH   4   5
ENDBRANCH   3   4
ENDBRANCH   2   3
ENDBRANCH   1   2
BRANCH   1   8
ATOM      8  C   UNL     1      45.075  26.481   3.365  1.00  0.00     0.000 C 
BRANCH   8   9
ATOM      9  C   UNL     1      45.309  27.879   2.766  1.00  0.00    -0.000 C 
BRANCH   9  10
ATOM     10  C   UNL     1      44.050  28.451   2.093  1.00  0.00    -0.000 C 
BRANCH  10  11
ATOM     11  C   UNL     1      42.862  27.479   2.141  1.00  0.00    -0.000 C 
BRANCH  11  12
ATOM     12  C   UNL     1      41.588  28.194   2.606  1.00  0.00    -0.003 C 
ATOM     13  C   UNL     1      41.808  29.700   2.711  1.00  0.00     0.004 C 
ENDBRANCH  11  12
ENDBRANCH  10  11
ENDBRANCH   9  10
ENDBRANCH   8   9
ENDBRANCH   1   8
TORSDOF 9
ENDMDL
MODEL 2
REMARK VINA RESULT:    -3.971      3.075      5.949
REMARK INTER + INTRA:          -6.695
REMARK INTER:                  -6.107
REMARK INTRA:                  -0.588
REMARK UNBOUND:                -0.635
REMARK SMILES CCCCCCCCCCC(=O)[O-]
REMARK SMILES IDX 7 1 8 2 9 3 10 4 11 5 12 6 13 7 6 8 5 9 4 10 3 11 2 12 1 13
REMARK H PARENT
REMARK Flexibility Score: inf
ROOT
ATOM      1  C   UNL     1      45.474  26.322   3.790  1.00  0.00     0.000 C 
ENDROOT
BRANCH   1   2
ATOM      2  C   UNL     1      45.917  27.458   2.852  1.00  0.00     0.000 C 
BRANCH   2   3
ATOM      3  C   UNL     1      44.906  27.726   1.723  1.00  0.00     0.006 C 
BRANCH   3   4
ATOM      4  C   UNL     1      43.484  27.221   2.017  1.00  0.00     0.053 C 
BRANCH   4   5
ATOM      5  C   UNL     1      42.553  28.339   2.372  1.00  0.00     0.041 C 
ATOM      6  O   UNL     1      42.988  29.516   2.481  1.00  0.00    -0.550 OA
ATOM      7  O   UNL     1      41.198  28.088   2.548  1.00  0.00    -0.550 OA
ENDBRANCH   4   5
ENDBRANCH   3   4
ENDBRANCH   2   3
ENDBRANCH   1   2
BRANCH   1   8
ATOM      8  C   UNL     1      46.153  26.396   5.167  1.00  0.00     0.000 C 
BRANCH   8   9
ATOM      9  C   UNL     1      46.251  27.837   5.699  1.00  0.00    -0.000 C 
BRANCH   9  10
ATOM     10  C   UNL     1      46.329  27.896   7.233  1.00  0.00    -0.000 C 
BRANCH  10  11
ATOM     11  C   UNL     1      46.083  26.529   7.889  1.00  0.00    -0.000 C 
BRANCH  11  12
ATOM     12  C   UNL     1      45.401  26.691   9.253  1.00  0.00    -0.003 C 
ATOM     13  C   UNL     1      45.080  28.155   9.538  1.00  0.00     0.004 C 
ENDBRANCH  11  12
ENDBRANCH  10  11
ENDBRANCH   9  10
ENDBRANCH   8   9
ENDBRANCH   1   8
TORSDOF 9
ENDMDL
MODEL 3
REMARK VINA RESULT:    -3.856      3.090      5.949
REMARK INTER + INTRA:          -6.520
REMARK INTER:                  -5.988
REMARK INTRA:                  -0.532
REMARK UNBOUND:                -0.635
REMARK SMILES CCCCCCCCCCC(=O)[O-]
REMARK SMILES IDX 7 1 8 2 9 3 10 4 11 5 12 6 13 7 6 8 5 9 4 10 3 11 2 12 1 13
REMARK H PARENT
REMARK Flexibility Score: inf
ROOT
ATOM      1  C   UNL     1      46.007  26.647   4.726  1.00  0.00     0.000 C 
ENDROOT
BRANCH   1   2
ATOM      2  C   UNL     1      44.909  26.255   3.721  1.00  0.00     0.000 C 
BRANCH   2   3
ATOM      3  C   UNL     1      44.794  27.248   2.550  1.00  0.00     0.006 C 
BRANCH   3   4
ATOM      4  C   UNL     1      43.428  27.236   1.846  1.00  0.00     0.053 C 
BRANCH   4   5
ATOM      5  C   UNL     1      42.518  28.306   2.367  1.00  0.00     0.041 C 
ATOM      6  O   UNL     1      41.321  28.038   2.650  1.00  0.00    -0.550 OA
ATOM      7  O   UNL     1      43.002  29.592   2.575  1.00  0.00    -0.550 OA
ENDBRANCH   4   5
ENDBRANCH   3   4
ENDBRANCH   2   3
ENDBRANCH   1   2
BRANCH   1   8
ATOM      8  C   UNL     1      46.307  28.154   4.712  1.00  0.00     0.000 C 
BRANCH   8   9
ATOM      9  C   UNL     1      46.918  28.646   6.036  1.00  0.00    -0.000 C 
BRANCH   9  10
ATOM     10  C   UNL     1      46.346  27.912   7.259  1.00  0.00    -0.000 C 
BRANCH  10  11
ATOM     11  C   UNL     1      45.513  28.833   8.163  1.00  0.00    -0.000 C 
BRANCH  11  12
ATOM     12  C   UNL     1      45.143  28.126   9.472  1.00  0.00    -0.003 C 
ATOM     13  C   UNL     1      45.499  26.644   9.418  1.00  0.00     0.004 C 
ENDBRANCH  11  12
ENDBRANCH  10  11
ENDBRANCH   9  10
ENDBRANCH   8   9
ENDBRANCH   1   8
TORSDOF 9
ENDMDL
MODEL 4
REMARK VINA RESULT:    -3.709      3.440      6.268
REMARK INTER + INTRA:          -6.296
REMARK INTER:                  -5.797
REMARK INTRA:                  -0.499
REMARK UNBOUND:                -0.635
REMARK SMILES CCCCCCCCCCC(=O)[O-]
REMARK SMILES IDX 7 1 8 2 9 3 10 4 11 5 12 6 13 7 6 8 5 9 4 10 3 11 2 12 1 13
REMARK H PARENT
REMARK Flexibility Score: inf
ROOT
ATOM      1  C   UNL     1      46.956  27.348   5.425  1.00  0.00     0.000 C 
ENDROOT
BRANCH   1   2
ATOM      2  C   UNL     1      46.027  27.696   4.249  1.00  0.00     0.000 C 
BRANCH   2   3
ATOM      3  C   UNL     1      45.168  26.502   3.797  1.00  0.00     0.006 C 
BRANCH   3   4
ATOM      4  C   UNL     1      44.043  26.869   2.816  1.00  0.00     0.053 C 
BRANCH   4   5
ATOM      5  C   UNL     1      44.526  27.767   1.719  1.00  0.00     0.041 C 
ATOM      6  O   UNL     1      45.217  27.301   0.776  1.00  0.00    -0.550 OA
ATOM      7  O   UNL     1      44.181  29.113   1.718  1.00  0.00    -0.550 OA
ENDBRANCH   4   5
ENDBRANCH   3   4
ENDBRANCH   2   3
ENDBRANCH   1   2
BRANCH   1   8
ATOM      8  C   UNL     1      46.194  26.770   6.627  1.00  0.00     0.000 C 
BRANCH   8   9
ATOM      9  C   UNL     1      47.124  26.417   7.801  1.00  0.00    -0.000 C 
BRANCH   9  10
ATOM     10  C   UNL     1      46.354  25.938   9.042  1.00  0.00    -0.000 C 
BRANCH  10  11
ATOM     11  C   UNL     1      45.234  26.907   9.451  1.00  0.00    -0.000 C 
BRANCH  11  12
ATOM     12  C   UNL     1      45.807  28.275   9.838  1.00  0.00    -0.003 C 
ATOM     13  C   UNL     1      45.069  29.404   9.125  1.00  0.00     0.004 C 
ENDBRANCH  11  12
ENDBRANCH  10  11
ENDBRANCH   9  10
ENDBRANCH   8   9
ENDBRANCH   1   8
TORSDOF 9
ENDMDL
MODEL 5
REMARK VINA RESULT:    -3.709      3.235      6.095
REMARK INTER + INTRA:          -6.295
REMARK INTER:                  -5.657
REMARK INTRA:                  -0.639
REMARK UNBOUND:                -0.635
REMARK SMILES CCCCCCCCCCC(=O)[O-]
REMARK SMILES IDX 7 1 8 2 9 3 10 4 11 5 12 6 13 7 6 8 5 9 4 10 3 11 2 12 1 13
REMARK H PARENT
REMARK Flexibility Score: inf
ROOT
ATOM      1  C   UNL     1      45.919  26.299   4.739  1.00  0.00     0.000 C 
ENDROOT
BRANCH   1   2
ATOM      2  C   UNL     1      46.545  26.351   3.335  1.00  0.00     0.000 C 
BRANCH   2   3
ATOM      3  C   UNL     1      45.923  27.445   2.447  1.00  0.00     0.006 C 
BRANCH   3   4
ATOM      4  C   UNL     1      44.586  27.995   2.967  1.00  0.00     0.053 C 
BRANCH   4   5
ATOM      5  C   UNL     1      43.420  27.464   2.192  1.00  0.00     0.041 C 
ATOM      6  O   UNL     1      42.253  27.860   2.450  1.00  0.00    -0.550 OA
ATOM      7  O   UNL     1      43.625  26.557   1.159  1.00  0.00    -0.550 OA
ENDBRANCH   4   5
ENDBRANCH   3   4
ENDBRANCH   2   3
ENDBRANCH   1   2
BRANCH   1   8
ATOM      8  C   UNL     1      46.859  26.848   5.824  1.00  0.00     0.000 C 
BRANCH   8   9
ATOM      9  C   UNL     1      46.358  28.174   6.422  1.00  0.00    -0.000 C 
BRANCH   9  10
ATOM     10  C   UNL     1      46.626  28.278   7.932  1.00  0.00    -0.000 C 
BRANCH  10  11
ATOM     11  C   UNL     1      45.331  28.346   8.757  1.00  0.00    -0.000 C 
BRANCH  11  12
ATOM     12  C   UNL     1      45.192  27.113   9.658  1.00  0.00    -0.003 C 
ATOM     13  C   UNL     1      46.325  26.121   9.415  1.00  0.00     0.004 C 
ENDBRANCH  11  12
ENDBRANCH  10  11
ENDBRANCH   9  10
ENDBRANCH   8   9
ENDBRANCH   1   8
TORSDOF 9
ENDMDL
MODEL 6
REMARK VINA RESULT:    -3.482      3.784      6.426
REMARK INTER + INTRA:          -5.950
REMARK INTER:                  -5.481
REMARK INTRA:                  -0.469
REMARK UNBOUND:                -0.635
REMARK SMILES CCCCCCCCCCC(=O)[O-]
REMARK SMILES IDX 7 1 8 2 9 3 10 4 11 5 12 6 13 7 6 8 5 9 4 10 3 11 2 12 1 13
REMARK H PARENT
REMARK Flexibility Score: inf
ROOT
ATOM      1  C   UNL     1      44.509  26.444   3.328  1.00  0.00     0.000 C 
ENDROOT
BRANCH   1   2
ATOM      2  C   UNL     1      43.906  27.412   2.296  1.00  0.00     0.000 C 
BRANCH   2   3
ATOM      3  C   UNL     1      44.651  28.758   2.238  1.00  0.00     0.006 C 
BRANCH   3   4
ATOM      4  C   UNL     1      45.072  29.186   0.824  1.00  0.00     0.053 C 
BRANCH   4   5
ATOM      5  C   UNL     1      46.084  28.252   0.232  1.00  0.00     0.041 C 
ATOM      6  O   UNL     1      47.048  27.839   0.928  1.00  0.00    -0.550 OA
ATOM      7  O   UNL     1      45.941  27.809  -1.077  1.00  0.00    -0.550 OA
ENDBRANCH   4   5
ENDBRANCH   3   4
ENDBRANCH   2   3
ENDBRANCH   1   2
BRANCH   1   8
ATOM      8  C   UNL     1      45.779  27.002   3.988  1.00  0.00     0.000 C 
BRANCH   8   9
ATOM      9  C   UNL     1      46.015  26.425   5.395  1.00  0.00    -0.000 C 
BRANCH   9  10
ATOM     10  C   UNL     1      46.654  27.444   6.352  1.00  0.00    -0.000 C 
BRANCH  10  11
ATOM     11  C   UNL     1      46.006  27.432   7.744  1.00  0.00    -0.000 C 
BRANCH  11  12
ATOM     12  C   UNL     1      45.754  28.860   8.244  1.00  0.00    -0.003 C 
ATOM     13  C   UNL     1      44.926  28.858   9.525  1.00  0.00     0.004 C 
ENDBRANCH  11  12
ENDBRANCH  10  11
ENDBRANCH   9  10
ENDBRANCH   8   9
ENDBRANCH   1   8
TORSDOF 9
ENDMDL
MODEL 7
REMARK VINA RESULT:    -3.456      6.036      7.487
REMARK INTER + INTRA:          -5.910
REMARK INTER:                  -5.270
REMARK INTRA:                  -0.641
REMARK UNBOUND:                -0.635
REMARK SMILES CCCCCCCCCCC(=O)[O-]
REMARK SMILES IDX 7 1 8 2 9 3 10 4 11 5 12 6 13 7 6 8 5 9 4 10 3 11 2 12 1 13
REMARK H PARENT
REMARK Flexibility Score: inf
ROOT
ATOM      1  C   UNL     1      45.949  29.061  -2.997  1.00  0.00     0.000 C 
ENDROOT
BRANCH   1   2
ATOM      2  C   UNL     1      46.020  29.577  -1.549  1.00  0.00     0.000 C 
BRANCH   2   3
ATOM      3  C   UNL     1      46.085  28.439  -0.514  1.00  0.00     0.006 C 
BRANCH   3   4
ATOM      4  C   UNL     1      45.316  28.722   0.785  1.00  0.00     0.053 C 
BRANCH   4   5
ATOM      5  C   UNL     1      44.932  27.462   1.497  1.00  0.00     0.041 C 
ATOM      6  O   UNL     1      45.672  26.994   2.403  1.00  0.00    -0.550 OA
ATOM      7  O   UNL     1      43.739  26.822   1.187  1.00  0.00    -0.550 OA
ENDBRANCH   4   5
ENDBRANCH   3   4
ENDBRANCH   2   3
ENDBRANCH   1   2
BRANCH   1   8
ATOM      8  C   UNL     1      46.071  27.531  -3.083  1.00  0.00     0.000 C 
BRANCH   8   9
ATOM      9  C   UNL     1      45.204  26.933  -4.205  1.00  0.00    -0.000 C 
BRANCH   9  10
ATOM     10  C   UNL     1      44.666  28.003  -5.169  1.00  0.00    -0.000 C 
BRANCH  10  11
ATOM     11  C   UNL     1      43.340  27.592  -5.825  1.00  0.00    -0.000 C 
BRANCH  11  12
ATOM     12  C   UNL     1      42.264  28.662  -5.603  1.00  0.00    -0.003 C 
ATOM     13  C   UNL     1      42.844  29.889  -4.906  1.00  0.00     0.004 C 
ENDBRANCH  11  12
ENDBRANCH  10  11
ENDBRANCH   9  10
ENDBRANCH   8   9
ENDBRANCH   1   8
TORSDOF 9
ENDMDL
MODEL 8
REMARK VINA RESULT:    -3.437      7.363      9.560
REMARK INTER + INTRA:          -5.880
REMARK INTER:                  -5.383
REMARK INTRA:                  -0.497
REMARK UNBOUND:                -0.635
REMARK SMILES CCCCCCCCCCC(=O)[O-]
REMARK SMILES IDX 7 1 8 2 9 3 10 4 11 5 12 6 13 7 6 8 5 9 4 10 3 11 2 12 1 13
REMARK H PARENT
REMARK Flexibility Score: inf
ROOT
ATOM      1  C   UNL     1      45.991  28.652  -2.565  1.00  0.00     0.000 C 
ENDROOT
BRANCH   1   2
ATOM      2  C   UNL     1      45.817  27.253  -3.181  1.00  0.00     0.000 C 
BRANCH   2   3
ATOM      3  C   UNL     1      45.173  27.295  -4.579  1.00  0.00     0.006 C 
BRANCH   3   4
ATOM      4  C   UNL     1      44.345  28.560  -4.854  1.00  0.00     0.053 C 
BRANCH   4   5
ATOM      5  C   UNL     1      43.191  28.288  -5.770  1.00  0.00     0.041 C 
ATOM      6  O   UNL     1      43.396  27.970  -6.971  1.00  0.00    -0.550 OA
ATOM      7  O   UNL     1      41.890  28.350  -5.288  1.00  0.00    -0.550 OA
ENDBRANCH   4   5
ENDBRANCH   3   4
ENDBRANCH   2   3
ENDBRANCH   1   2
BRANCH   1   8
ATOM      8  C   UNL     1      46.287  28.598  -1.057  1.00  0.00     0.000 C 
BRANCH   8   9
ATOM      9  C   UNL     1      45.618  29.748  -0.284  1.00  0.00    -0.000 C 
BRANCH   9  10
ATOM     10  C   UNL     1      45.032  29.292   1.062  1.00  0.00    -0.000 C 
BRANCH  10  11
ATOM     11  C   UNL     1      45.052  27.765   1.227  1.00  0.00    -0.000 C 
BRANCH  11  12
ATOM     12  C   UNL     1      43.740  27.264   1.842  1.00  0.00    -0.003 C 
ATOM     13  C   UNL     1      42.840  28.428   2.246  1.00  0.00     0.004 C 
ENDBRANCH  11  12
ENDBRANCH  10  11
ENDBRANCH   9  10
ENDBRANCH   8   9
ENDBRANCH   1   8
TORSDOF 9
ENDMDL
MODEL 9
REMARK VINA RESULT:    -3.264      4.152      6.498
REMARK INTER + INTRA:          -5.616
REMARK INTER:                  -4.772
REMARK INTRA:                  -0.844
REMARK UNBOUND:                -0.635
REMARK SMILES CCCCCCCCCCC(=O)[O-]
REMARK SMILES IDX 7 1 8 2 9 3 10 4 11 5 12 6 13 7 6 8 5 9 4 10 3 11 2 12 1 13
REMARK H PARENT
REMARK Flexibility Score: inf
ROOT
ATOM      1  C   UNL     1      44.268  26.781   2.559  1.00  0.00     0.000 C 
ENDROOT
BRANCH   1   2
ATOM      2  C   UNL     1      44.107  28.297   2.771  1.00  0.00     0.000 C 
BRANCH   2   3
ATOM      3  C   UNL     1      44.564  29.119   1.552  1.00  0.00     0.006 C 
BRANCH   3   4
ATOM      4  C   UNL     1      46.043  28.927   1.181  1.00  0.00     0.053 C 
BRANCH   4   5
ATOM      5  C   UNL     1      46.218  28.587  -0.268  1.00  0.00     0.041 C 
ATOM      6  O   UNL     1      45.702  27.541  -0.741  1.00  0.00    -0.550 OA
ATOM      7  O   UNL     1      46.922  29.446  -1.104  1.00  0.00    -0.550 OA
ENDBRANCH   4   5
ENDBRANCH   3   4
ENDBRANCH   2   3
ENDBRANCH   1   2
BRANCH   1   8
ATOM      8  C   UNL     1      44.886  26.079   3.778  1.00  0.00     0.000 C 
BRANCH   8   9
ATOM      9  C   UNL     1      46.422  26.022   3.710  1.00  0.00    -0.000 C 
BRANCH   9  10
ATOM     10  C   UNL     1      47.090  27.162   4.496  1.00  0.00    -0.000 C 
BRANCH  10  11
ATOM     11  C   UNL     1      46.363  27.475   5.813  1.00  0.00    -0.000 C 
BRANCH  11  12
ATOM     12  C   UNL     1      46.794  26.506   6.920  1.00  0.00    -0.003 C 
ATOM     13  C   UNL     1      45.924  26.668   8.163  1.00  0.00     0.004 C 
ENDBRANCH  11  12
ENDBRANCH  10  11
ENDBRANCH   9  10
ENDBRANCH   8   9
ENDBRANCH   1   8
TORSDOF 9
ENDMDL
