MODEL 1
REMARK VINA RESULT:    -2.502      0.000      0.000
REMARK INTER + INTRA:          -2.502
REMARK INTER:                  -2.502
REMARK INTRA:                   0.000
REMARK UNBOUND:                 0.000
REMARK SMILES CC(=O)[O-]
REMARK SMILES IDX 1 1 2 2 3 3 4 4
REMARK H PARENT
REMARK Flexibility Score: inf
ROOT
ATOM      1  C   UNL     1      53.585  20.599  49.521  1.00  0.00     0.063 C 
ATOM      2  C   UNL     1      54.892  20.521  48.808  1.00  0.00     0.038 C 
ATOM      3  O   UNL     1      55.680  19.567  49.036  1.00  0.00    -0.550 OA
ATOM      4  O   UNL     1      55.220  21.472  47.849  1.00  0.00    -0.550 OA
ENDROOT
TORSDOF 0
ENDMDL
MODEL 2
REMARK VINA RESULT:    -2.450      1.480      1.781
REMARK INTER + INTRA:          -2.450
REMARK INTER:                  -2.450
REMARK INTRA:                   0.000
REMARK UNBOUND:                 0.000
REMARK SMILES CC(=O)[O-]
REMARK SMILES IDX 1 1 2 2 3 3 4 4
REMARK H PARENT
REMARK Flexibility Score: inf
ROOT
ATOM      1  C   UNL     1      55.077  21.349  47.926  1.00  0.00     0.063 C 
ATOM      2  C   UNL     1      54.993  20.256  48.936  1.00  0.00     0.038 C 
ATOM      3  O   UNL     1      55.908  19.394  49.011  1.00  0.00    -0.550 OA
ATOM      4  O   UNL     1      53.932  20.215  49.832  1.00  0.00    -0.550 OA
ENDROOT
TORSDOF 0
ENDMDL
MODEL 3
REMARK VINA RESULT:    -2.301      2.596      2.813
REMARK INTER + INTRA:          -2.301
REMARK INTER:                  -2.301
REMARK INTRA:                   0.000
REMARK UNBOUND:                 0.000
REMARK SMILES CC(=O)[O-]
REMARK SMILES IDX 1 1 2 2 3 3 4 4
REMARK H PARENT
REMARK Flexibility Score: inf
ROOT
ATOM      1  C   UNL     1      54.498  20.259  49.154  1.00  0.00     0.063 C 
ATOM      2  C   UNL     1      53.289  20.645  49.937  1.00  0.00     0.038 C 
ATOM      3  O   UNL     1      52.158  20.200  49.611  1.00  0.00    -0.550 OA
ATOM      4  O   UNL     1      53.414  21.455  51.059  1.00  0.00    -0.550 OA
ENDROOT
TORSDOF 0
ENDMDL
MODEL 4
REMARK VINA RESULT:    -2.230     10.804     11.224
REMARK INTER + INTRA:          -2.230
REMARK INTER:                  -2.230
REMARK INTRA:                   0.000
REMARK UNBOUND:                 0.000
REMARK SMILES CC(=O)[O-]
REMARK SMILES IDX 1 1 2 2 3 3 4 4
REMARK H PARENT
REMARK Flexibility Score: inf
ROOT
ATOM      1  C   UNL     1      44.165  16.228  51.034  1.00  0.00     0.063 C 
ATOM      2  C   UNL     1      44.460  17.669  51.280  1.00  0.00     0.038 C 
ATOM      3  O   UNL     1      43.663  18.555  50.874  1.00  0.00    -0.550 OA
ATOM      4  O   UNL     1      45.586  18.035  52.007  1.00  0.00    -0.550 OA
ENDROOT
TORSDOF 0
ENDMDL
MODEL 5
REMARK VINA RESULT:    -2.162     10.934     11.259
REMARK INTER + INTRA:          -2.162
REMARK INTER:                  -2.162
REMARK INTRA:                   0.000
REMARK UNBOUND:                 0.000
REMARK SMILES CC(=O)[O-]
REMARK SMILES IDX 1 1 2 2 3 3 4 4
REMARK H PARENT
REMARK Flexibility Score: inf
ROOT
ATOM      1  C   UNL     1      43.714  18.434  51.024  1.00  0.00     0.063 C 
ATOM      2  C   UNL     1      44.498  17.222  51.396  1.00  0.00     0.038 C 
ATOM      3  O   UNL     1      44.340  16.147  50.760  1.00  0.00    -0.550 OA
ATOM      4  O   UNL     1      45.446  17.289  52.410  1.00  0.00    -0.550 OA
ENDROOT
TORSDOF 0
ENDMDL
MODEL 6
REMARK VINA RESULT:    -2.076     11.000     11.351
REMARK INTER + INTRA:          -2.076
REMARK INTER:                  -2.076
REMARK INTRA:                   0.000
REMARK UNBOUND:                 0.000
REMARK SMILES CC(=O)[O-]
REMARK SMILES IDX 1 1 2 2 3 3 4 4
REMARK H PARENT
REMARK Flexibility Score: inf
ROOT
ATOM      1  C   UNL     1      45.498  18.349  51.754  1.00  0.00     0.063 C 
ATOM      2  C   UNL     1      44.218  17.777  51.248  1.00  0.00     0.038 C 
ATOM      3  O   UNL     1      44.158  16.566  50.907  1.00  0.00    -0.550 OA
ATOM      4  O   UNL     1      43.073  18.563  51.203  1.00  0.00    -0.550 OA
ENDROOT
TORSDOF 0
ENDMDL
MODEL 7
REMARK VINA RESULT:    -1.943     10.531     10.965
REMARK INTER + INTRA:          -1.943
REMARK INTER:                  -1.943
REMARK INTRA:                   0.000
REMARK UNBOUND:                 0.000
REMARK SMILES CC(=O)[O-]
REMARK SMILES IDX 1 1 2 2 3 3 4 4
REMARK H PARENT
REMARK Flexibility Score: inf
ROOT
ATOM      1  C   UNL     1      44.072  18.067  53.244  1.00  0.00     0.063 C 
ATOM      2  C   UNL     1      44.835  17.854  51.981  1.00  0.00     0.038 C 
ATOM      3  O   UNL     1      45.966  18.387  51.828  1.00  0.00    -0.550 OA
ATOM      4  O   UNL     1      44.326  17.023  50.990  1.00  0.00    -0.550 OA
ENDROOT
TORSDOF 0
ENDMDL
MODEL 8
REMARK VINA RESULT:    -1.938      4.556      4.979
REMARK INTER + INTRA:          -1.938
REMARK INTER:                  -1.938
REMARK INTRA:                   0.000
REMARK UNBOUND:                 0.000
REMARK SMILES CC(=O)[O-]
REMARK SMILES IDX 1 1 2 2 3 3 4 4
REMARK H PARENT
REMARK Flexibility Score: inf
ROOT
ATOM      1  C   UNL     1      51.961  20.620  49.861  1.00  0.00     0.063 C 
ATOM      2  C   UNL     1      50.663  20.153  50.424  1.00  0.00     0.038 C 
ATOM      3  O   UNL     1      50.004  20.899  51.196  1.00  0.00    -0.550 OA
ATOM      4  O   UNL     1      50.148  18.916  50.057  1.00  0.00    -0.550 OA
ENDROOT
TORSDOF 0
ENDMDL
MODEL 9
REMARK VINA RESULT:    -1.895     13.124     13.643
REMARK INTER + INTRA:          -1.895
REMARK INTER:                  -1.895
REMARK INTRA:                   0.000
REMARK UNBOUND:                 0.000
REMARK SMILES CC(=O)[O-]
REMARK SMILES IDX 1 1 2 2 3 3 4 4
REMARK H PARENT
REMARK Flexibility Score: inf
ROOT
ATOM      1  C   UNL     1      42.564  19.696  55.174  1.00  0.00     0.063 C 
ATOM      2  C   UNL     1      43.051  18.298  54.993  1.00  0.00     0.038 C 
ATOM      3  O   UNL     1      43.717  17.989  53.971  1.00  0.00    -0.550 OA
ATOM      4  O   UNL     1      42.817  17.346  55.978  1.00  0.00    -0.550 OA
ENDROOT
TORSDOF 0
ENDMDL
