MODEL 1
REMARK VINA RESULT:    -1.965      0.000      0.000
REMARK INTER + INTRA:          -3.316
REMARK INTER:                  -2.998
REMARK INTRA:                  -0.318
REMARK UNBOUND:                -0.318
REMARK SMILES CC1=CCC[C@H](C)C(=O)C[C@@H](C(C)C)C(=O)C1
REMARK SMILES IDX 8 1 9 2 6 3 7 4 5 5 4 6 3 7 2 8 1 9 10 11 11 12 15 13 16 14
REMARK SMILES IDX 17 15 12 17 13 18 14 19
REMARK H PARENT
REMARK Flexibility Score: 70.00
ROOT
ATOM      1  C   UNL     1     170.217 168.819 147.837  1.00  0.00     0.136 C 
ATOM      2  O   UNL     1     170.987 168.565 146.920  1.00  0.00    -0.299 OA
ENDROOT
BRANCH   1   3
ATOM      3  C   UNL     1     170.752 169.001 149.242  1.00  0.00     0.053 C 
ATOM      4  C   UNL     1     171.691 167.840 149.583  1.00  0.00     0.016 C 
BRANCH   3   5
ATOM      5  C   UNL     1     171.488 170.352 149.406  1.00  0.00     0.015 C 
BRANCH   5   6
ATOM      6  C   UNL     1     170.552 171.514 149.769  1.00  0.00     0.028 C 
BRANCH   6   7
ATOM      7  C   UNL     1     169.430 171.053 150.669  1.00  0.00    -0.028 C 
ATOM      8  C   UNL     1     168.108 171.214 150.428  1.00  0.00    -0.070 CG0
ATOM      9  C   UNL     1     167.134 170.686 151.450  1.00  0.00     0.039 C 
ATOM     10  G   UNL     1     167.566 171.863 149.169  1.00  0.00     0.000 G0
ENDBRANCH   6   7
ENDBRANCH   5   6
ENDBRANCH   3   5
ENDBRANCH   1   3
BRANCH   1  11
ATOM     11  C   UNL     1     168.743 168.924 147.543  1.00  0.00     0.087 C 
BRANCH  11  12
ATOM     12  C   UNL     1     168.332 170.369 147.163  1.00  0.00     0.066 C 
BRANCH  12  13
ATOM     13  C   UNL     1     167.242 170.886 148.088  1.00  0.00     0.140 C 
ATOM     14  O   UNL     1     166.087 170.513 147.935  1.00  0.00    -0.299 OA
BRANCH  13  15
ATOM     15  C   UNL     1     167.543 171.896 149.165  1.00  0.00     0.106 CG0
ATOM     16  G   UNL     1     168.087 171.217 150.407  1.00  0.00     0.000 G0
ENDBRANCH  13  15
ENDBRANCH  12  13
BRANCH  12  17
ATOM     17  C   UNL     1     167.894 170.519 145.672  1.00  0.00    -0.006 C 
ATOM     18  C   UNL     1     167.756 169.180 144.925  1.00  0.00     0.008 C 
ATOM     19  C   UNL     1     168.828 171.461 144.896  1.00  0.00     0.008 C 
ENDBRANCH  12  17
ENDBRANCH  11  12
ENDBRANCH   1  11
TORSDOF 1
ENDMDL
MODEL 2
REMARK VINA RESULT:    -1.848      2.218      4.972
REMARK INTER + INTRA:          -3.138
REMARK INTER:                  -2.971
REMARK INTRA:                  -0.167
REMARK UNBOUND:                -0.318
REMARK SMILES CC1=CCC[C@H](C)C(=O)C[C@@H](C(C)C)C(=O)C1
REMARK SMILES IDX 8 1 9 2 6 3 7 4 5 5 4 6 3 7 2 8 1 9 10 11 11 12 15 13 16 14
REMARK SMILES IDX 17 15 12 17 13 18 14 19
REMARK H PARENT
REMARK Flexibility Score: 70.00
ROOT
ATOM      1  C   UNL     1     168.055 168.604 151.284  1.00  0.00     0.136 C 
ATOM      2  O   UNL     1     168.009 167.701 152.109  1.00  0.00    -0.299 OA
ENDROOT
BRANCH   1   3
ATOM      3  C   UNL     1     166.884 169.554 151.140  1.00  0.00     0.053 C 
ATOM      4  C   UNL     1     167.199 170.862 151.871  1.00  0.00     0.016 C 
BRANCH   3   5
ATOM      5  C   UNL     1     166.552 169.836 149.655  1.00  0.00     0.015 C 
BRANCH   5   6
ATOM      6  C   UNL     1     166.910 171.263 149.213  1.00  0.00     0.028 C 
BRANCH   6   7
ATOM      7  C   UNL     1     167.648 171.260 147.896  1.00  0.00    -0.028 C 
ATOM      8  C   UNL     1     168.958 171.552 147.725  1.00  0.00    -0.070 CG0
ATOM      9  C   UNL     1     169.518 171.497 146.326  1.00  0.00     0.039 C 
ATOM     10  G   UNL     1     169.890 171.893 148.872  1.00  0.00     0.000 G0
ENDBRANCH   6   7
ENDBRANCH   5   6
ENDBRANCH   3   5
ENDBRANCH   1   3
BRANCH   1  11
ATOM     11  C   UNL     1     169.276 168.734 150.412  1.00  0.00     0.087 C 
BRANCH  11  12
ATOM     12  C   UNL     1     170.078 170.021 150.730  1.00  0.00     0.066 C 
BRANCH  12  13
ATOM     13  C   UNL     1     170.570 170.685 149.454  1.00  0.00     0.140 C 
ATOM     14  O   UNL     1     171.562 170.251 148.886  1.00  0.00    -0.299 OA
BRANCH  13  15
ATOM     15  C   UNL     1     169.891 171.910 148.896  1.00  0.00     0.106 CG0
ATOM     16  G   UNL     1     168.992 171.546 147.731  1.00  0.00     0.000 G0
ENDBRANCH  13  15
ENDBRANCH  12  13
BRANCH  12  17
ATOM     17  C   UNL     1     171.268 169.786 151.713  1.00  0.00    -0.006 C 
ATOM     18  C   UNL     1     171.772 168.333 151.745  1.00  0.00     0.008 C 
ATOM     19  C   UNL     1     170.932 170.258 153.137  1.00  0.00     0.008 C 
ENDBRANCH  12  17
ENDBRANCH  11  12
ENDBRANCH   1  11
TORSDOF 1
ENDMDL
MODEL 3
REMARK VINA RESULT:    -1.797     20.153     22.068
REMARK INTER + INTRA:          -3.061
REMARK INTER:                  -2.879
REMARK INTRA:                  -0.182
REMARK UNBOUND:                -0.318
REMARK SMILES CC1=CCC[C@H](C)C(=O)C[C@@H](C(C)C)C(=O)C1
REMARK SMILES IDX 8 1 9 2 6 3 7 4 5 5 4 6 3 7 2 8 1 9 10 11 11 12 15 13 16 14
REMARK SMILES IDX 17 15 12 17 13 18 14 19
REMARK H PARENT
REMARK Flexibility Score: 70.00
ROOT
ATOM      1  C   UNL     1     155.127 156.395 142.968  1.00  0.00     0.136 C 
ATOM      2  O   UNL     1     154.563 157.446 142.692  1.00  0.00    -0.299 OA
ENDROOT
BRANCH   1   3
ATOM      3  C   UNL     1     155.187 155.926 144.407  1.00  0.00     0.053 C 
ATOM      4  C   UNL     1     155.514 157.116 145.315  1.00  0.00     0.016 C 
BRANCH   3   5
ATOM      5  C   UNL     1     153.861 155.263 144.851  1.00  0.00     0.015 C 
BRANCH   5   6
ATOM      6  C   UNL     1     153.979 153.744 145.049  1.00  0.00     0.028 C 
BRANCH   6   7
ATOM      7  C   UNL     1     155.420 153.322 145.210  1.00  0.00    -0.028 C 
ATOM      8  C   UNL     1     156.129 152.580 144.328  1.00  0.00    -0.070 CG0
ATOM      9  C   UNL     1     157.562 152.257 144.668  1.00  0.00     0.039 C 
ATOM     10  G   UNL     1     155.563 152.094 143.008  1.00  0.00     0.000 G0
ENDBRANCH   6   7
ENDBRANCH   5   6
ENDBRANCH   3   5
ENDBRANCH   1   3
BRANCH   1  11
ATOM     11  C   UNL     1     155.768 155.598 141.861  1.00  0.00     0.087 C 
BRANCH  11  12
ATOM     12  C   UNL     1     155.025 154.263 141.605  1.00  0.00     0.066 C 
BRANCH  12  13
ATOM     13  C   UNL     1     155.922 153.074 141.909  1.00  0.00     0.140 C 
ATOM     14  O   UNL     1     156.921 152.877 141.232  1.00  0.00    -0.299 OA
BRANCH  13  15
ATOM     15  C   UNL     1     155.579 152.093 143.001  1.00  0.00     0.106 CG0
ATOM     16  G   UNL     1     156.115 152.563 144.339  1.00  0.00     0.000 G0
ENDBRANCH  13  15
ENDBRANCH  12  13
BRANCH  12  17
ATOM     17  C   UNL     1     154.438 154.144 140.163  1.00  0.00    -0.006 C 
ATOM     18  C   UNL     1     155.048 155.136 139.158  1.00  0.00     0.008 C 
ATOM     19  C   UNL     1     152.905 154.268 140.161  1.00  0.00     0.008 C 
ENDBRANCH  12  17
ENDBRANCH  11  12
ENDBRANCH   1  11
TORSDOF 1
ENDMDL
MODEL 4
REMARK VINA RESULT:    -1.708      3.789      5.271
REMARK INTER + INTRA:          -2.924
REMARK INTER:                  -2.724
REMARK INTRA:                  -0.200
REMARK UNBOUND:                -0.318
REMARK SMILES CC1=CCC[C@H](C)C(=O)C[C@@H](C(C)C)C(=O)C1
REMARK SMILES IDX 8 1 9 2 6 3 7 4 5 5 4 6 3 7 2 8 1 9 10 11 11 12 15 13 16 14
REMARK SMILES IDX 17 15 12 17 13 18 14 19
REMARK H PARENT
REMARK Flexibility Score: 70.00
ROOT
ATOM      1  C   UNL     1     169.518 168.012 142.387  1.00  0.00     0.136 C 
ATOM      2  O   UNL     1     169.769 167.537 141.287  1.00  0.00    -0.299 OA
ENDROOT
BRANCH   1   3
ATOM      3  C   UNL     1     170.628 168.191 143.402  1.00  0.00     0.053 C 
ATOM      4  C   UNL     1     171.512 169.370 142.985  1.00  0.00     0.016 C 
BRANCH   3   5
ATOM      5  C   UNL     1     170.070 168.417 144.828  1.00  0.00     0.015 C 
BRANCH   5   6
ATOM      6  C   UNL     1     170.273 169.851 145.339  1.00  0.00     0.028 C 
BRANCH   6   7
ATOM      7  C   UNL     1     169.025 170.376 146.007  1.00  0.00    -0.028 C 
ATOM      8  C   UNL     1     168.072 171.133 145.416  1.00  0.00    -0.070 CG0
ATOM      9  C   UNL     1     166.893 171.566 146.251  1.00  0.00     0.039 C 
ATOM     10  G   UNL     1     168.116 171.532 143.954  1.00  0.00     0.000 G0
ENDBRANCH   6   7
ENDBRANCH   5   6
ENDBRANCH   3   5
ENDBRANCH   1   3
BRANCH   1  11
ATOM     11  C   UNL     1     168.096 168.392 142.710  1.00  0.00     0.087 C 
BRANCH  11  12
ATOM     12  C   UNL     1     167.698 169.742 142.063  1.00  0.00     0.066 C 
BRANCH  12  13
ATOM     13  C   UNL     1     167.170 170.712 143.107  1.00  0.00     0.140 C 
ATOM     14  O   UNL     1     165.964 170.854 143.251  1.00  0.00    -0.299 OA
BRANCH  13  15
ATOM     15  C   UNL     1     168.105 171.549 143.942  1.00  0.00     0.106 CG0
ATOM     16  G   UNL     1     168.068 171.117 145.395  1.00  0.00     0.000 G0
ENDBRANCH  13  15
ENDBRANCH  12  13
BRANCH  12  17
ATOM     17  C   UNL     1     166.673 169.594 140.894  1.00  0.00    -0.006 C 
ATOM     18  C   UNL     1     166.192 168.150 140.666  1.00  0.00     0.008 C 
ATOM     19  C   UNL     1     167.217 170.181 139.582  1.00  0.00     0.008 C 
ENDBRANCH  12  17
ENDBRANCH  11  12
ENDBRANCH   1  11
TORSDOF 1
ENDMDL
MODEL 5
REMARK VINA RESULT:    -1.693      2.095      4.670
REMARK INTER + INTRA:          -2.901
REMARK INTER:                  -2.867
REMARK INTRA:                  -0.034
REMARK UNBOUND:                -0.318
REMARK SMILES CC1=CCC[C@H](C)C(=O)C[C@@H](C(C)C)C(=O)C1
REMARK SMILES IDX 8 1 9 2 6 3 7 4 5 5 4 6 3 7 2 8 1 9 10 11 11 12 15 13 16 14
REMARK SMILES IDX 17 15 12 17 13 18 14 19
REMARK H PARENT
REMARK Flexibility Score: 70.00
ROOT
ATOM      1  C   UNL     1     169.997 168.268 147.067  1.00  0.00     0.136 C 
ATOM      2  O   UNL     1     170.032 167.329 147.850  1.00  0.00    -0.299 OA
ENDROOT
BRANCH   1   3
ATOM      3  C   UNL     1     169.494 168.054 145.654  1.00  0.00     0.053 C 
ATOM      4  C   UNL     1     170.516 167.223 144.872  1.00  0.00     0.016 C 
BRANCH   3   5
ATOM      5  C   UNL     1     168.112 167.358 145.636  1.00  0.00     0.015 C 
BRANCH   5   6
ATOM      6  C   UNL     1     166.935 168.345 145.680  1.00  0.00     0.028 C 
BRANCH   6   7
ATOM      7  C   UNL     1     167.076 169.413 144.622  1.00  0.00    -0.028 C 
ATOM      8  C   UNL     1     167.267 170.733 144.854  1.00  0.00    -0.070 CG0
ATOM      9  C   UNL     1     167.382 171.650 143.663  1.00  0.00     0.039 C 
ATOM     10  G   UNL     1     167.404 171.321 146.245  1.00  0.00     0.000 G0
ENDBRANCH   6   7
ENDBRANCH   5   6
ENDBRANCH   3   5
ENDBRANCH   1   3
BRANCH   1  11
ATOM     11  C   UNL     1     170.478 169.620 147.526  1.00  0.00     0.087 C 
BRANCH  11  12
ATOM     12  C   UNL     1     169.300 170.555 147.901  1.00  0.00     0.066 C 
BRANCH  12  13
ATOM     13  C   UNL     1     168.841 171.362 146.698  1.00  0.00     0.140 C 
ATOM     14  O   UNL     1     169.635 172.082 146.110  1.00  0.00    -0.299 OA
BRANCH  13  15
ATOM     15  C   UNL     1     167.405 171.337 146.239  1.00  0.00     0.106 CG0
ATOM     16  G   UNL     1     167.290 170.727 144.856  1.00  0.00     0.000 G0
ENDBRANCH  13  15
ENDBRANCH  12  13
BRANCH  12  17
ATOM     17  C   UNL     1     169.615 171.503 149.101  1.00  0.00    -0.006 C 
ATOM     18  C   UNL     1     170.849 171.084 149.919  1.00  0.00     0.008 C 
ATOM     19  C   UNL     1     168.401 171.671 150.029  1.00  0.00     0.008 C 
ENDBRANCH  12  17
ENDBRANCH  11  12
ENDBRANCH   1  11
TORSDOF 1
ENDMDL
MODEL 6
REMARK VINA RESULT:    -1.671     19.399     21.431
REMARK INTER + INTRA:          -2.868
REMARK INTER:                  -2.754
REMARK INTRA:                  -0.113
REMARK UNBOUND:                -0.318
REMARK SMILES CC1=CCC[C@H](C)C(=O)C[C@@H](C(C)C)C(=O)C1
REMARK SMILES IDX 8 1 9 2 6 3 7 4 5 5 4 6 3 7 2 8 1 9 10 11 11 12 15 13 16 14
REMARK SMILES IDX 17 15 12 17 13 18 14 19
REMARK H PARENT
REMARK Flexibility Score: 70.00
ROOT
ATOM      1  C   UNL     1     157.934 155.793 143.875  1.00  0.00     0.136 C 
ATOM      2  O   UNL     1     159.029 156.268 144.144  1.00  0.00    -0.299 OA
ENDROOT
BRANCH   1   3
ATOM      3  C   UNL     1     157.186 156.270 142.647  1.00  0.00     0.053 C 
ATOM      4  C   UNL     1     157.085 157.798 142.676  1.00  0.00     0.016 C 
BRANCH   3   5
ATOM      5  C   UNL     1     157.870 155.803 141.340  1.00  0.00     0.015 C 
BRANCH   5   6
ATOM      6  C   UNL     1     157.257 154.519 140.759  1.00  0.00     0.028 C 
BRANCH   6   7
ATOM      7  C   UNL     1     155.749 154.555 140.823  1.00  0.00    -0.028 C 
ATOM      8  C   UNL     1     154.967 153.684 141.502  1.00  0.00    -0.070 CG0
ATOM      9  C   UNL     1     153.473 153.881 141.444  1.00  0.00     0.039 C 
ATOM     10  G   UNL     1     155.522 152.549 142.341  1.00  0.00     0.000 G0
ENDBRANCH   6   7
ENDBRANCH   5   6
ENDBRANCH   3   5
ENDBRANCH   1   3
BRANCH   1  11
ATOM     11  C   UNL     1     157.345 154.751 144.791  1.00  0.00     0.087 C 
BRANCH  11  12
ATOM     12  C   UNL     1     157.287 153.357 144.117  1.00  0.00     0.066 C 
BRANCH  12  13
ATOM     13  C   UNL     1     155.860 152.995 143.738  1.00  0.00     0.140 C 
ATOM     14  O   UNL     1     154.978 153.032 144.583  1.00  0.00    -0.299 OA
BRANCH  13  15
ATOM     15  C   UNL     1     155.513 152.535 142.345  1.00  0.00     0.106 CG0
ATOM     16  G   UNL     1     154.965 153.682 141.517  1.00  0.00     0.000 G0
ENDBRANCH  13  15
ENDBRANCH  12  13
BRANCH  12  17
ATOM     17  C   UNL     1     157.923 152.221 144.980  1.00  0.00    -0.006 C 
ATOM     18  C   UNL     1     157.660 152.365 146.490  1.00  0.00     0.008 C 
ATOM     19  C   UNL     1     159.432 152.086 144.718  1.00  0.00     0.008 C 
ENDBRANCH  12  17
ENDBRANCH  11  12
ENDBRANCH   1  11
TORSDOF 1
ENDMDL
MODEL 7
REMARK VINA RESULT:    -1.620     20.988     22.190
REMARK INTER + INTRA:          -2.790
REMARK INTER:                  -2.860
REMARK INTRA:                   0.070
REMARK UNBOUND:                -0.318
REMARK SMILES CC1=CCC[C@H](C)C(=O)C[C@@H](C(C)C)C(=O)C1
REMARK SMILES IDX 8 1 9 2 6 3 7 4 5 5 4 6 3 7 2 8 1 9 10 11 11 12 15 13 16 14
REMARK SMILES IDX 17 15 12 17 13 18 14 19
REMARK H PARENT
REMARK Flexibility Score: 70.00
ROOT
ATOM      1  C   UNL     1     156.271 153.358 142.032  1.00  0.00     0.136 C 
ATOM      2  O   UNL     1     156.484 152.255 141.547  1.00  0.00    -0.299 OA
ENDROOT
BRANCH   1   3
ATOM      3  C   UNL     1     155.743 154.477 141.158  1.00  0.00     0.053 C 
ATOM      4  C   UNL     1     156.733 154.742 140.020  1.00  0.00     0.016 C 
BRANCH   3   5
ATOM      5  C   UNL     1     154.344 154.147 140.586  1.00  0.00     0.015 C 
BRANCH   5   6
ATOM      6  C   UNL     1     153.213 154.318 141.611  1.00  0.00     0.028 C 
BRANCH   6   7
ATOM      7  C   UNL     1     153.184 155.723 142.166  1.00  0.00    -0.028 C 
ATOM      8  C   UNL     1     153.193 156.053 143.479  1.00  0.00    -0.070 CG0
ATOM      9  C   UNL     1     153.158 157.516 143.840  1.00  0.00     0.039 C 
ATOM     10  G   UNL     1     153.273 155.027 144.593  1.00  0.00     0.000 G0
ENDBRANCH   6   7
ENDBRANCH   5   6
ENDBRANCH   3   5
ENDBRANCH   1   3
BRANCH   1  11
ATOM     11  C   UNL     1     156.561 153.581 143.494  1.00  0.00     0.087 C 
BRANCH  11  12
ATOM     12  C   UNL     1     155.308 153.342 144.374  1.00  0.00     0.066 C 
BRANCH  12  13
ATOM     13  C   UNL     1     154.727 154.659 144.861  1.00  0.00     0.140 C 
ATOM     14  O   UNL     1     155.418 155.423 145.519  1.00  0.00    -0.299 OA
BRANCH  13  15
ATOM     15  C   UNL     1     153.289 155.027 144.595  1.00  0.00     0.106 CG0
ATOM     16  G   UNL     1     153.190 156.063 143.492  1.00  0.00     0.000 G0
ENDBRANCH  13  15
ENDBRANCH  12  13
BRANCH  12  17
ATOM     17  C   UNL     1     155.569 152.386 145.580  1.00  0.00    -0.006 C 
ATOM     18  C   UNL     1     154.502 152.473 146.687  1.00  0.00     0.008 C 
ATOM     19  C   UNL     1     156.968 152.594 146.181  1.00  0.00     0.008 C 
ENDBRANCH  12  17
ENDBRANCH  11  12
ENDBRANCH   1  11
TORSDOF 1
ENDMDL
MODEL 8
REMARK VINA RESULT:    -1.594     19.762     21.476
REMARK INTER + INTRA:          -2.751
REMARK INTER:                  -2.692
REMARK INTRA:                  -0.059
REMARK UNBOUND:                -0.318
REMARK SMILES CC1=CCC[C@H](C)C(=O)C[C@@H](C(C)C)C(=O)C1
REMARK SMILES IDX 8 1 9 2 6 3 7 4 5 5 4 6 3 7 2 8 1 9 10 11 11 12 15 13 16 14
REMARK SMILES IDX 17 15 12 17 13 18 14 19
REMARK H PARENT
REMARK Flexibility Score: 70.00
ROOT
ATOM      1  C   UNL     1     156.717 153.342 147.833  1.00  0.00     0.136 C 
ATOM      2  O   UNL     1     157.154 154.013 148.758  1.00  0.00    -0.299 OA
ENDROOT
BRANCH   1   3
ATOM      3  C   UNL     1     155.229 153.324 147.552  1.00  0.00     0.053 C 
ATOM      4  C   UNL     1     154.470 153.761 148.809  1.00  0.00     0.016 C 
BRANCH   3   5
ATOM      5  C   UNL     1     154.859 154.236 146.358  1.00  0.00     0.015 C 
BRANCH   5   6
ATOM      6  C   UNL     1     154.122 153.495 145.233  1.00  0.00     0.028 C 
BRANCH   6   7
ATOM      7  C   UNL     1     154.740 153.789 143.887  1.00  0.00    -0.028 C 
ATOM      8  C   UNL     1     155.860 153.214 143.390  1.00  0.00    -0.070 CG0
ATOM      9  C   UNL     1     156.326 153.641 142.021  1.00  0.00     0.039 C 
ATOM     10  G   UNL     1     156.641 152.143 144.126  1.00  0.00     0.000 G0
ENDBRANCH   6   7
ENDBRANCH   5   6
ENDBRANCH   3   5
ENDBRANCH   1   3
BRANCH   1  11
ATOM     11  C   UNL     1     157.677 152.528 147.004  1.00  0.00     0.087 C 
BRANCH  11  12
ATOM     12  C   UNL     1     158.248 153.343 145.816  1.00  0.00     0.066 C 
BRANCH  12  13
ATOM     13  C   UNL     1     158.016 152.621 144.499  1.00  0.00     0.140 C 
ATOM     14  O   UNL     1     158.941 152.478 143.713  1.00  0.00    -0.299 OA
BRANCH  13  15
ATOM     15  C   UNL     1     156.648 152.120 144.112  1.00  0.00     0.106 CG0
ATOM     16  G   UNL     1     155.865 153.195 143.382  1.00  0.00     0.000 G0
ENDBRANCH  13  15
ENDBRANCH  12  13
BRANCH  12  17
ATOM     17  C   UNL     1     159.759 153.703 145.978  1.00  0.00    -0.006 C 
ATOM     18  C   UNL     1     160.373 153.232 147.309  1.00  0.00     0.008 C 
ATOM     19  C   UNL     1     160.009 155.208 145.786  1.00  0.00     0.008 C 
ENDBRANCH  12  17
ENDBRANCH  11  12
ENDBRANCH   1  11
TORSDOF 1
ENDMDL
MODEL 9
REMARK VINA RESULT:    -1.513      3.469      5.033
REMARK INTER + INTRA:          -2.627
REMARK INTER:                  -2.780
REMARK INTRA:                   0.153
REMARK UNBOUND:                -0.318
REMARK SMILES CC1=CCC[C@H](C)C(=O)C[C@@H](C(C)C)C(=O)C1
REMARK SMILES IDX 8 1 9 2 6 3 7 4 5 5 4 6 3 7 2 8 1 9 10 11 11 12 15 13 16 14
REMARK SMILES IDX 17 15 12 17 13 18 14 19
REMARK H PARENT
REMARK Flexibility Score: 70.00
ROOT
ATOM      1  C   UNL     1     169.308 168.253 145.059  1.00  0.00     0.136 C 
ATOM      2  O   UNL     1     170.121 167.379 145.331  1.00  0.00    -0.299 OA
ENDROOT
BRANCH   1   3
ATOM      3  C   UNL     1     168.981 169.322 146.081  1.00  0.00     0.053 C 
ATOM      4  C   UNL     1     168.997 168.706 147.483  1.00  0.00     0.016 C 
BRANCH   3   5
ATOM      5  C   UNL     1     169.970 170.510 146.006  1.00  0.00     0.015 C 
BRANCH   5   6
ATOM      6  C   UNL     1     169.278 171.880 146.066  1.00  0.00     0.028 C 
BRANCH   6   7
ATOM      7  C   UNL     1     167.824 171.778 145.669  1.00  0.00    -0.028 C 
ATOM      8  C   UNL     1     167.354 171.725 144.402  1.00  0.00    -0.070 CG0
ATOM      9  C   UNL     1     165.862 171.626 144.205  1.00  0.00     0.039 C 
ATOM     10  G   UNL     1     168.253 171.722 143.181  1.00  0.00     0.000 G0
ENDBRANCH   6   7
ENDBRANCH   5   6
ENDBRANCH   3   5
ENDBRANCH   1   3
BRANCH   1  11
ATOM     11  C   UNL     1     168.635 168.230 143.711  1.00  0.00     0.087 C 
BRANCH  11  12
ATOM     12  C   UNL     1     169.215 169.304 142.757  1.00  0.00     0.066 C 
BRANCH  12  13
ATOM     13  C   UNL     1     168.188 170.387 142.469  1.00  0.00     0.140 C 
ATOM     14  O   UNL     1     167.322 170.195 141.627  1.00  0.00    -0.299 OA
BRANCH  13  15
ATOM     15  C   UNL     1     168.243 171.724 143.163  1.00  0.00     0.106 CG0
ATOM     16  G   UNL     1     167.362 171.730 144.397  1.00  0.00     0.000 G0
ENDBRANCH  13  15
ENDBRANCH  12  13
BRANCH  12  17
ATOM     17  C   UNL     1     169.772 168.716 141.423  1.00  0.00    -0.006 C 
ATOM     18  C   UNL     1     169.005 167.481 140.917  1.00  0.00     0.008 C 
ATOM     19  C   UNL     1     171.273 168.398 141.524  1.00  0.00     0.008 C 
ENDBRANCH  12  17
ENDBRANCH  11  12
ENDBRANCH   1  11
TORSDOF 1
ENDMDL
