MODEL 1
REMARK VINA RESULT:    -2.383      0.000      0.000
REMARK INTER + INTRA:          -2.115
REMARK INTER:                  -2.592
REMARK INTRA:                   0.477
REMARK UNBOUND:                 0.477
REMARK SMILES C[C@@H]1[C@@H](C)CC[C@@]2(C(=O)[O-])CC[C@]3(C)C(=CC[C@H]4[C@]5(C)CC[C@H](O)C(C)(C)[C@@H]5CC[C@]43C)[C@@H]12
REMARK SMILES IDX 7 1 6 2 11 3 33 4 5 5 12 6 15 7 2 8 3 9 13 10 16 11 1 12
REMARK SMILES IDX 4 13 14 14 31 15 17 16 18 17 30 18 32 19 19 20 29 21 28 22
REMARK SMILES IDX 21 23 20 24 25 25 22 26 23 27 26 28 27 29 8 30 9 31 10 32
REMARK SMILES IDX 24 33
REMARK H PARENT 24 34
REMARK Flexibility Score: inf
ROOT
ATOM      1  C   UNL     1      23.058  28.179  21.096  1.00  0.00     0.017 C 
ATOM      2  C   UNL     1      23.300  28.321  19.555  1.00  0.00     0.014 C 
ATOM      3  C   UNL     1      24.125  29.040  21.813  1.00  0.00     0.014 C 
ATOM      4  C   UNL     1      21.635  28.696  21.525  1.00  0.00     0.030 C 
ATOM      5  C   UNL     1      22.000  28.388  18.763  1.00  0.00     0.004 C 
ATOM      6  C   UNL     1      24.124  28.885  23.329  1.00  0.00     0.013 C 
ATOM      7  C   UNL     1      21.517  28.863  23.057  1.00  0.00    -0.063 C 
ATOM      8  C   UNL     1      21.238  29.972  20.678  1.00  0.00    -0.003 C 
ATOM      9  C   UNL     1      21.189  29.644  19.143  1.00  0.00    -0.011 C 
ATOM     10  C   UNL     1      22.712  28.852  24.043  1.00  0.00    -0.006 C 
ATOM     11  C   UNL     1      20.275  28.962  23.582  1.00  0.00    -0.027 C 
ATOM     12  C   UNL     1      19.898  30.626  21.074  1.00  0.00     0.008 C 
ATOM     13  C   UNL     1      21.639  30.854  18.302  1.00  0.00     0.008 C 
ATOM     14  C   UNL     1      22.667  27.479  24.784  1.00  0.00     0.017 C 
ATOM     15  C   UNL     1      22.516  30.096  25.047  1.00  0.00    -0.020 C 
ATOM     16  C   UNL     1      19.999  29.227  25.035  1.00  0.00     0.032 C 
ATOM     17  C   UNL     1      21.093  30.061  25.780  1.00  0.00     0.006 C 
ATOM     18  C   UNL     1      23.659  30.199  26.108  1.00  0.00     0.008 C 
ATOM     19  C   UNL     1      22.585  31.408  24.186  1.00  0.00     0.012 C 
ATOM     20  C   UNL     1      21.070  29.849  27.368  1.00  0.00    -0.025 C 
ATOM     21  C   UNL     1      23.341  31.197  27.219  1.00  0.00     0.005 C 
ATOM     22  C   UNL     1      22.153  30.754  28.109  1.00  0.00     0.003 C 
ATOM     23  C   UNL     1      19.624  30.188  27.871  1.00  0.00     0.010 C 
ATOM     24  C   UNL     1      21.334  28.364  27.771  1.00  0.00     0.012 C 
ATOM     25  C   UNL     1      21.568  31.935  28.980  1.00  0.00    -0.006 C 
ATOM     26  C   UNL     1      19.493  30.376  29.388  1.00  0.00     0.033 C 
ATOM     27  C   UNL     1      20.568  31.309  30.008  1.00  0.00     0.120 C 
ATOM     28  C   UNL     1      22.715  32.596  29.799  1.00  0.00     0.014 C 
ATOM     29  C   UNL     1      20.893  33.045  28.108  1.00  0.00     0.014 C 
ENDROOT
BRANCH   1  30
ATOM     30  C   UNL     1      23.225  26.703  21.440  1.00  0.00     0.048 C 
ATOM     31  O   UNL     1      24.125  26.019  20.882  1.00  0.00    -0.550 OA
ATOM     32  O   UNL     1      22.324  26.059  22.282  1.00  0.00    -0.550 OA
ENDBRANCH   1  30
BRANCH  27  33
ATOM     33  O   UNL     1      19.996  32.290  30.847  1.00  0.00    -0.393 OA
ATOM     34  H   UNL     1      19.141  31.942  31.209  1.00  0.00     0.210 HD
ENDBRANCH  27  33
TORSDOF 2
ENDMDL
MODEL 2
REMARK VINA RESULT:    -2.095      2.060      7.908
REMARK INTER + INTRA:          -1.802
REMARK INTER:                  -1.733
REMARK INTRA:                  -0.069
REMARK UNBOUND:                 0.477
REMARK SMILES C[C@@H]1[C@@H](C)CC[C@@]2(C(=O)[O-])CC[C@]3(C)C(=CC[C@H]4[C@]5(C)CC[C@H](O)C(C)(C)[C@@H]5CC[C@]43C)[C@@H]12
REMARK SMILES IDX 7 1 6 2 11 3 33 4 5 5 12 6 15 7 2 8 3 9 13 10 16 11 1 12
REMARK SMILES IDX 4 13 14 14 31 15 17 16 18 17 30 18 32 19 19 20 29 21 28 22
REMARK SMILES IDX 21 23 20 24 25 25 22 26 23 27 26 28 27 29 8 30 9 31 10 32
REMARK SMILES IDX 24 33
REMARK H PARENT 24 34
REMARK Flexibility Score: inf
ROOT
ATOM      1  C   UNL     1      21.660  29.255  29.197  1.00  0.00     0.017 C 
ATOM      2  C   UNL     1      21.458  29.915  30.603  1.00  0.00     0.014 C 
ATOM      3  C   UNL     1      20.364  29.488  28.385  1.00  0.00     0.014 C 
ATOM      4  C   UNL     1      22.861  29.895  28.406  1.00  0.00     0.030 C 
ATOM      5  C   UNL     1      22.722  30.593  31.117  1.00  0.00     0.004 C 
ATOM      6  C   UNL     1      20.340  28.768  27.042  1.00  0.00     0.013 C 
ATOM      7  C   UNL     1      22.859  29.484  26.916  1.00  0.00    -0.063 C 
ATOM      8  C   UNL     1      22.923  31.453  28.672  1.00  0.00    -0.003 C 
ATOM      9  C   UNL     1      23.131  31.763  30.197  1.00  0.00    -0.011 C 
ATOM     10  C   UNL     1      21.672  28.805  26.187  1.00  0.00    -0.006 C 
ATOM     11  C   UNL     1      23.998  29.670  26.213  1.00  0.00    -0.027 C 
ATOM     12  C   UNL     1      24.008  32.208  27.875  1.00  0.00     0.008 C 
ATOM     13  C   UNL     1      22.399  33.055  30.607  1.00  0.00     0.008 C 
ATOM     14  C   UNL     1      22.065  27.308  25.989  1.00  0.00     0.017 C 
ATOM     15  C   UNL     1      21.466  29.575  24.788  1.00  0.00    -0.020 C 
ATOM     16  C   UNL     1      24.124  29.415  24.738  1.00  0.00     0.032 C 
ATOM     17  C   UNL     1      22.808  29.607  23.914  1.00  0.00     0.006 C 
ATOM     18  C   UNL     1      20.293  28.983  23.941  1.00  0.00     0.008 C 
ATOM     19  C   UNL     1      21.072  31.059  25.122  1.00  0.00     0.012 C 
ATOM     20  C   UNL     1      22.818  28.813  22.522  1.00  0.00    -0.025 C 
ATOM     21  C   UNL     1      20.269  29.522  22.513  1.00  0.00     0.005 C 
ATOM     22  C   UNL     1      21.492  29.072  21.675  1.00  0.00     0.003 C 
ATOM     23  C   UNL     1      24.087  29.271  21.724  1.00  0.00     0.010 C 
ATOM     24  C   UNL     1      22.962  27.272  22.721  1.00  0.00     0.012 C 
ATOM     25  C   UNL     1      21.684  29.931  20.363  1.00  0.00    -0.006 C 
ATOM     26  C   UNL     1      24.092  28.887  20.238  1.00  0.00     0.033 C 
ATOM     27  C   UNL     1      22.772  29.221  19.491  1.00  0.00     0.120 C 
ATOM     28  C   UNL     1      20.363  29.928  19.541  1.00  0.00     0.014 C 
ATOM     29  C   UNL     1      22.060  31.419  20.671  1.00  0.00     0.014 C 
ENDROOT
BRANCH   1  30
ATOM     30  C   UNL     1      21.898  27.767  29.432  1.00  0.00     0.048 C 
ATOM     31  O   UNL     1      21.048  27.080  30.062  1.00  0.00    -0.550 OA
ATOM     32  O   UNL     1      23.097  27.167  29.061  1.00  0.00    -0.550 OA
ENDBRANCH   1  30
BRANCH  27  33
ATOM     33  O   UNL     1      23.008  29.910  18.283  1.00  0.00    -0.393 OA
ATOM     34  H   UNL     1      23.924  30.289  18.304  1.00  0.00     0.210 HD
ENDBRANCH  27  33
TORSDOF 2
ENDMDL
MODEL 3
REMARK VINA RESULT:    -1.243      1.810      8.126
REMARK INTER + INTRA:          -0.875
REMARK INTER:                  -0.663
REMARK INTRA:                  -0.212
REMARK UNBOUND:                 0.477
REMARK SMILES C[C@@H]1[C@@H](C)CC[C@@]2(C(=O)[O-])CC[C@]3(C)C(=CC[C@H]4[C@]5(C)CC[C@H](O)C(C)(C)[C@@H]5CC[C@]43C)[C@@H]12
REMARK SMILES IDX 7 1 6 2 11 3 33 4 5 5 12 6 15 7 2 8 3 9 13 10 16 11 1 12
REMARK SMILES IDX 4 13 14 14 31 15 17 16 18 17 30 18 32 19 19 20 29 21 28 22
REMARK SMILES IDX 21 23 20 24 25 25 22 26 23 27 26 28 27 29 8 30 9 31 10 32
REMARK SMILES IDX 24 33
REMARK H PARENT 24 34
REMARK Flexibility Score: inf
ROOT
ATOM      1  C   UNL     1      21.648  31.453  29.796  1.00  0.00     0.017 C 
ATOM      2  C   UNL     1      20.883  31.778  31.124  1.00  0.00     0.014 C 
ATOM      3  C   UNL     1      22.348  30.087  29.988  1.00  0.00     0.014 C 
ATOM      4  C   UNL     1      20.678  31.343  28.562  1.00  0.00     0.030 C 
ATOM      5  C   UNL     1      19.534  32.440  30.873  1.00  0.00     0.004 C 
ATOM      6  C   UNL     1      23.268  29.698  28.837  1.00  0.00     0.013 C 
ATOM      7  C   UNL     1      21.371  30.708  27.335  1.00  0.00    -0.063 C 
ATOM      8  C   UNL     1      19.319  30.657  28.994  1.00  0.00    -0.003 C 
ATOM      9  C   UNL     1      18.589  31.490  30.107  1.00  0.00    -0.011 C 
ATOM     10  C   UNL     1      22.731  29.967  27.372  1.00  0.00    -0.006 C 
ATOM     11  C   UNL     1      20.780  30.867  26.130  1.00  0.00    -0.027 C 
ATOM     12  C   UNL     1      18.320  30.409  27.844  1.00  0.00     0.008 C 
ATOM     13  C   UNL     1      17.836  30.569  31.087  1.00  0.00     0.008 C 
ATOM     14  C   UNL     1      23.781  30.926  26.727  1.00  0.00     0.017 C 
ATOM     15  C   UNL     1      22.555  28.601  26.537  1.00  0.00    -0.020 C 
ATOM     16  C   UNL     1      21.274  30.229  24.863  1.00  0.00     0.032 C 
ATOM     17  C   UNL     1      22.022  28.867  25.051  1.00  0.00     0.006 C 
ATOM     18  C   UNL     1      23.867  27.752  26.488  1.00  0.00     0.008 C 
ATOM     19  C   UNL     1      21.485  27.728  27.286  1.00  0.00     0.012 C 
ATOM     20  C   UNL     1      22.995  28.512  23.828  1.00  0.00    -0.025 C 
ATOM     21  C   UNL     1      23.787  26.606  25.482  1.00  0.00     0.005 C 
ATOM     22  C   UNL     1      23.699  27.094  24.015  1.00  0.00     0.003 C 
ATOM     23  C   UNL     1      22.137  28.540  22.515  1.00  0.00     0.010 C 
ATOM     24  C   UNL     1      24.118  29.579  23.636  1.00  0.00     0.012 C 
ATOM     25  C   UNL     1      23.217  25.962  23.022  1.00  0.00    -0.006 C 
ATOM     26  C   UNL     1      22.804  27.896  21.292  1.00  0.00     0.033 C 
ATOM     27  C   UNL     1      23.420  26.498  21.566  1.00  0.00     0.120 C 
ATOM     28  C   UNL     1      24.125  24.709  23.181  1.00  0.00     0.014 C 
ATOM     29  C   UNL     1      21.737  25.526  23.284  1.00  0.00     0.014 C 
ENDROOT
BRANCH   1  30
ATOM     30  C   UNL     1      22.669  32.566  29.585  1.00  0.00     0.048 C 
ATOM     31  O   UNL     1      23.650  32.685  30.368  1.00  0.00    -0.550 OA
ATOM     32  O   UNL     1      22.479  33.533  28.604  1.00  0.00    -0.550 OA
ENDBRANCH   1  30
BRANCH  27  33
ATOM     33  O   UNL     1      23.026  25.549  20.598  1.00  0.00    -0.393 OA
ATOM     34  H   UNL     1      22.589  26.022  19.845  1.00  0.00     0.210 HD
ENDBRANCH  27  33
TORSDOF 2
ENDMDL
MODEL 4
REMARK VINA RESULT:    -1.134      2.294      7.990
REMARK INTER + INTRA:          -0.757
REMARK INTER:                  -0.649
REMARK INTRA:                  -0.108
REMARK UNBOUND:                 0.477
REMARK SMILES C[C@@H]1[C@@H](C)CC[C@@]2(C(=O)[O-])CC[C@]3(C)C(=CC[C@H]4[C@]5(C)CC[C@H](O)C(C)(C)[C@@H]5CC[C@]43C)[C@@H]12
REMARK SMILES IDX 7 1 6 2 11 3 33 4 5 5 12 6 15 7 2 8 3 9 13 10 16 11 1 12
REMARK SMILES IDX 4 13 14 14 31 15 17 16 18 17 30 18 32 19 19 20 29 21 28 22
REMARK SMILES IDX 21 23 20 24 25 25 22 26 23 27 26 28 27 29 8 30 9 31 10 32
REMARK SMILES IDX 24 33
REMARK H PARENT 24 34
REMARK Flexibility Score: inf
ROOT
ATOM      1  C   UNL     1      22.766  30.285  27.019  1.00  0.00     0.017 C 
ATOM      2  C   UNL     1      22.944  29.720  28.469  1.00  0.00     0.014 C 
ATOM      3  C   UNL     1      24.047  29.935  26.227  1.00  0.00     0.014 C 
ATOM      4  C   UNL     1      21.534  29.645  26.278  1.00  0.00     0.030 C 
ATOM      5  C   UNL     1      21.652  29.139  29.032  1.00  0.00     0.004 C 
ATOM      6  C   UNL     1      24.100  30.554  24.834  1.00  0.00     0.013 C 
ATOM      7  C   UNL     1      21.550  29.946  24.762  1.00  0.00    -0.063 C 
ATOM      8  C   UNL     1      21.403  28.114  26.656  1.00  0.00    -0.003 C 
ATOM      9  C   UNL     1      21.186  27.926  28.200  1.00  0.00    -0.011 C 
ATOM     10  C   UNL     1      22.764  30.515  23.985  1.00  0.00    -0.006 C 
ATOM     11  C   UNL     1      20.401  29.762  24.074  1.00  0.00    -0.027 C 
ATOM     12  C   UNL     1      20.282  27.354  25.916  1.00  0.00     0.008 C 
ATOM     13  C   UNL     1      21.861  26.635  28.702  1.00  0.00     0.008 C 
ATOM     14  C   UNL     1      22.438  32.010  23.678  1.00  0.00     0.017 C 
ATOM     15  C   UNL     1      22.929  29.637  22.645  1.00  0.00    -0.020 C 
ATOM     16  C   UNL     1      20.281  29.914  22.585  1.00  0.00     0.032 C 
ATOM     17  C   UNL     1      21.584  29.603  21.777  1.00  0.00     0.006 C 
ATOM     18  C   UNL     1      24.125  30.112  21.758  1.00  0.00     0.008 C 
ATOM     19  C   UNL     1      23.257  28.165  23.087  1.00  0.00     0.012 C 
ATOM     20  C   UNL     1      21.605  30.293  20.331  1.00  0.00    -0.025 C 
ATOM     21  C   UNL     1      24.119  29.470  20.372  1.00  0.00     0.005 C 
ATOM     22  C   UNL     1      22.915  29.913  19.504  1.00  0.00     0.003 C 
ATOM     23  C   UNL     1      20.314  29.837  19.568  1.00  0.00     0.010 C 
ATOM     24  C   UNL     1      21.533  31.850  20.417  1.00  0.00     0.012 C 
ATOM     25  C   UNL     1      22.680  28.971  18.258  1.00  0.00    -0.006 C 
ATOM     26  C   UNL     1      20.321  30.112  18.059  1.00  0.00     0.033 C 
ATOM     27  C   UNL     1      21.621  29.666  17.338  1.00  0.00     0.120 C 
ATOM     28  C   UNL     1      23.997  28.854  17.437  1.00  0.00     0.014 C 
ATOM     29  C   UNL     1      22.237  27.529  18.673  1.00  0.00     0.014 C 
ENDROOT
BRANCH   1  30
ATOM     30  C   UNL     1      22.598  31.795  27.146  1.00  0.00     0.048 C 
ATOM     31  O   UNL     1      23.607  32.551  27.130  1.00  0.00    -0.550 OA
ATOM     32  O   UNL     1      21.349  32.356  27.395  1.00  0.00    -0.550 OA
ENDBRANCH   1  30
BRANCH  27  33
ATOM     33  O   UNL     1      21.350  28.902  16.182  1.00  0.00    -0.393 OA
ATOM     34  H   UNL     1      21.898  28.076  16.208  1.00  0.00     0.210 HD
ENDBRANCH  27  33
TORSDOF 2
ENDMDL
MODEL 5
REMARK VINA RESULT:    -0.785      1.244      1.494
REMARK INTER + INTRA:          -0.376
REMARK INTER:                  -0.410
REMARK INTRA:                   0.034
REMARK UNBOUND:                 0.477
REMARK SMILES C[C@@H]1[C@@H](C)CC[C@@]2(C(=O)[O-])CC[C@]3(C)C(=CC[C@H]4[C@]5(C)CC[C@H](O)C(C)(C)[C@@H]5CC[C@]43C)[C@@H]12
REMARK SMILES IDX 7 1 6 2 11 3 33 4 5 5 12 6 15 7 2 8 3 9 13 10 16 11 1 12
REMARK SMILES IDX 4 13 14 14 31 15 17 16 18 17 30 18 32 19 19 20 29 21 28 22
REMARK SMILES IDX 21 23 20 24 25 25 22 26 23 27 26 28 27 29 8 30 9 31 10 32
REMARK SMILES IDX 24 33
REMARK H PARENT 24 34
REMARK Flexibility Score: inf
ROOT
ATOM      1  C   UNL     1      22.861  28.456  19.534  1.00  0.00     0.017 C 
ATOM      2  C   UNL     1      23.021  28.749  18.003  1.00  0.00     0.014 C 
ATOM      3  C   UNL     1      24.042  29.140  20.262  1.00  0.00     0.014 C 
ATOM      4  C   UNL     1      21.519  29.038  20.114  1.00  0.00     0.030 C 
ATOM      5  C   UNL     1      21.687  29.012  17.316  1.00  0.00     0.004 C 
ATOM      6  C   UNL     1      24.120  28.817  21.750  1.00  0.00     0.013 C 
ATOM      7  C   UNL     1      21.509  29.041  21.659  1.00  0.00    -0.063 C 
ATOM      8  C   UNL     1      21.188  30.429  19.438  1.00  0.00    -0.003 C 
ATOM      9  C   UNL     1      21.017  30.280  17.884  1.00  0.00    -0.011 C 
ATOM     10  C   UNL     1      22.756  28.821  22.553  1.00  0.00    -0.006 C 
ATOM     11  C   UNL     1      20.315  29.183  22.278  1.00  0.00    -0.027 C 
ATOM     12  C   UNL     1      19.939  31.144  19.994  1.00  0.00     0.008 C 
ATOM     13  C   UNL     1      21.523  31.536  17.146  1.00  0.00     0.008 C 
ATOM     14  C   UNL     1      22.632  27.382  23.145  1.00  0.00     0.017 C 
ATOM     15  C   UNL     1      22.734  29.956  23.695  1.00  0.00    -0.020 C 
ATOM     16  C   UNL     1      20.152  29.306  23.766  1.00  0.00     0.032 C 
ATOM     17  C   UNL     1      21.360  29.958  24.517  1.00  0.00     0.006 C 
ATOM     18  C   UNL     1      23.944  29.845  24.678  1.00  0.00     0.008 C 
ATOM     19  C   UNL     1      22.868  31.347  22.975  1.00  0.00     0.012 C 
ATOM     20  C   UNL     1      21.414  29.572  26.072  1.00  0.00    -0.025 C 
ATOM     21  C   UNL     1      23.784  30.735  25.908  1.00  0.00     0.005 C 
ATOM     22  C   UNL     1      22.617  30.295  26.827  1.00  0.00     0.003 C 
ATOM     23  C   UNL     1      20.037  29.970  26.708  1.00  0.00     0.010 C 
ATOM     24  C   UNL     1      21.567  28.034  26.295  1.00  0.00     0.012 C 
ATOM     25  C   UNL     1      22.194  31.415  27.858  1.00  0.00    -0.006 C 
ATOM     26  C   UNL     1      20.016  29.997  28.242  1.00  0.00     0.033 C 
ATOM     27  C   UNL     1      21.206  30.763  28.881  1.00  0.00     0.120 C 
ATOM     28  C   UNL     1      23.443  31.883  28.661  1.00  0.00     0.014 C 
ATOM     29  C   UNL     1      21.571  32.668  27.158  1.00  0.00     0.014 C 
ENDROOT
BRANCH   1  30
ATOM     30  C   UNL     1      22.915  26.942  19.706  1.00  0.00     0.048 C 
ATOM     31  O   UNL     1      23.986  26.381  20.065  1.00  0.00    -0.550 OA
ATOM     32  O   UNL     1      21.827  26.145  19.365  1.00  0.00    -0.550 OA
ENDBRANCH   1  30
BRANCH  27  33
ATOM     33  O   UNL     1      20.776  31.687  29.857  1.00  0.00    -0.393 OA
ATOM     34  H   UNL     1      20.170  31.225  30.491  1.00  0.00     0.210 HD
ENDBRANCH  27  33
TORSDOF 2
ENDMDL
MODEL 6
REMARK VINA RESULT:     0.171      2.235      8.267
REMARK INTER + INTRA:           0.663
REMARK INTER:                   0.888
REMARK INTRA:                  -0.225
REMARK UNBOUND:                 0.477
REMARK SMILES C[C@@H]1[C@@H](C)CC[C@@]2(C(=O)[O-])CC[C@]3(C)C(=CC[C@H]4[C@]5(C)CC[C@H](O)C(C)(C)[C@@H]5CC[C@]43C)[C@@H]12
REMARK SMILES IDX 7 1 6 2 11 3 33 4 5 5 12 6 15 7 2 8 3 9 13 10 16 11 1 12
REMARK SMILES IDX 4 13 14 14 31 15 17 16 18 17 30 18 32 19 19 20 29 21 28 22
REMARK SMILES IDX 21 23 20 24 25 25 22 26 23 27 26 28 27 29 8 30 9 31 10 32
REMARK SMILES IDX 24 33
REMARK H PARENT 24 34
REMARK Flexibility Score: inf
ROOT
ATOM      1  C   UNL     1      20.216  32.842  29.424  1.00  0.00     0.017 C 
ATOM      2  C   UNL     1      20.384  34.279  30.024  1.00  0.00     0.014 C 
ATOM      3  C   UNL     1      19.999  32.999  27.901  1.00  0.00     0.014 C 
ATOM      4  C   UNL     1      21.490  31.948  29.653  1.00  0.00     0.030 C 
ATOM      5  C   UNL     1      21.436  34.333  31.125  1.00  0.00     0.004 C 
ATOM      6  C   UNL     1      19.661  31.695  27.188  1.00  0.00     0.013 C 
ATOM      7  C   UNL     1      21.461  30.665  28.792  1.00  0.00    -0.063 C 
ATOM      8  C   UNL     1      22.803  32.820  29.512  1.00  0.00    -0.003 C 
ATOM      9  C   UNL     1      22.832  33.981  30.570  1.00  0.00    -0.011 C 
ATOM     10  C   UNL     1      20.491  30.414  27.610  1.00  0.00    -0.006 C 
ATOM     11  C   UNL     1      22.298  29.660  29.136  1.00  0.00    -0.027 C 
ATOM     12  C   UNL     1      24.125  32.032  29.625  1.00  0.00     0.008 C 
ATOM     13  C   UNL     1      23.519  35.236  29.999  1.00  0.00     0.008 C 
ATOM     14  C   UNL     1      19.426  29.391  28.114  1.00  0.00     0.017 C 
ATOM     15  C   UNL     1      21.365  29.836  26.388  1.00  0.00    -0.020 C 
ATOM     16  C   UNL     1      22.458  28.395  28.343  1.00  0.00     0.032 C 
ATOM     17  C   UNL     1      22.200  28.534  26.806  1.00  0.00     0.006 C 
ATOM     18  C   UNL     1      20.502  29.531  25.121  1.00  0.00     0.008 C 
ATOM     19  C   UNL     1      22.389  30.954  25.973  1.00  0.00     0.012 C 
ATOM     20  C   UNL     1      21.825  27.143  26.104  1.00  0.00    -0.025 C 
ATOM     21  C   UNL     1      21.268  28.735  24.066  1.00  0.00     0.005 C 
ATOM     22  C   UNL     1      21.624  27.301  24.531  1.00  0.00     0.003 C 
ATOM     23  C   UNL     1      22.976  26.127  26.420  1.00  0.00     0.010 C 
ATOM     24  C   UNL     1      20.520  26.518  26.690  1.00  0.00     0.012 C 
ATOM     25  C   UNL     1      22.739  26.628  23.635  1.00  0.00    -0.006 C 
ATOM     26  C   UNL     1      22.972  24.856  25.561  1.00  0.00     0.033 C 
ATOM     27  C   UNL     1      22.817  25.118  24.039  1.00  0.00     0.120 C 
ATOM     28  C   UNL     1      22.309  26.682  22.140  1.00  0.00     0.014 C 
ATOM     29  C   UNL     1      24.125  27.341  23.768  1.00  0.00     0.014 C 
ENDROOT
BRANCH   1  30
ATOM     30  C   UNL     1      18.992  32.221  30.089  1.00  0.00     0.048 C 
ATOM     31  O   UNL     1      17.836  32.633  29.802  1.00  0.00    -0.550 OA
ATOM     32  O   UNL     1      19.131  31.276  31.101  1.00  0.00    -0.550 OA
ENDBRANCH   1  30
BRANCH  27  33
ATOM     33  O   UNL     1      23.783  24.422  23.281  1.00  0.00    -0.393 OA
ATOM     34  H   UNL     1      24.684  24.646  23.628  1.00  0.00     0.210 HD
ENDBRANCH  27  33
TORSDOF 2
ENDMDL
