MODEL 1
REMARK VINA RESULT:    -7.091      0.000      0.000
REMARK INTER + INTRA:         -10.848
REMARK INTER:                  -9.579
REMARK INTRA:                  -1.270
REMARK UNBOUND:                -1.270
REMARK SMILES O=c1c(-c2ccc(O)cc2)coc2c([C@@H]3O[C@H](CO)[C@H](O)[C@@H](O)[C@@H]3O)c(O)ccc12
REMARK SMILES IDX 3 1 11 2 12 3 13 4 30 5 2 6 1 7 29 8 28 9 26 10 14 11 4 12
REMARK SMILES IDX 5 13 6 14 7 15 10 16 9 17 8 18 15 20 24 21 16 22 22 23 17 24
REMARK SMILES IDX 20 25 25 26 23 28 18 30 19 31 21 33 27 35
REMARK H PARENT 8 19 25 27 23 29 19 32 21 34 27 36
REMARK Flexibility Score: inf
ROOT
ATOM      1  C   UNL     1    -141.003  58.630   4.545  1.00  0.00     0.065 A 
ATOM      2  C   UNL     1    -142.388  58.427   4.416  1.00  0.00     0.208 A 
ATOM      3  O   UNL     1    -142.770  57.497   3.493  1.00  0.00    -0.463 OA
ATOM      4  C   UNL     1    -141.884  56.622   2.862  1.00  0.00     0.147 A 
ATOM      5  C   UNL     1    -140.582  56.560   3.371  1.00  0.00     0.066 A 
ATOM      6  C   UNL     1    -140.117  57.789   3.810  1.00  0.00     0.200 A 
ATOM      7  O   UNL     1    -139.160  58.320   3.185  1.00  0.00    -0.288 OA
ATOM      8  C   UNL     1    -139.729  55.571   2.875  1.00  0.00     0.020 A 
ATOM      9  C   UNL     1    -140.194  54.711   1.891  1.00  0.00     0.047 A 
ATOM     10  C   UNL     1    -141.315  55.056   1.101  1.00  0.00     0.125 A 
ATOM     11  C   UNL     1    -142.173  56.094   1.585  1.00  0.00     0.069 A 
ENDROOT
BRANCH   1  12
ATOM     12  C   UNL     1    -140.629  60.008   4.992  1.00  0.00    -0.011 A 
ATOM     13  C   UNL     1    -139.745  60.157   6.072  1.00  0.00     0.013 A 
ATOM     14  C   UNL     1    -139.440  61.430   6.582  1.00  0.00     0.047 A 
ATOM     15  C   UNL     1    -140.009  62.561   5.988  1.00  0.00     0.115 A 
ATOM     16  C   UNL     1    -141.385  61.126   4.595  1.00  0.00     0.013 A 
ATOM     17  C   UNL     1    -140.981  62.409   4.978  1.00  0.00     0.047 A 
BRANCH  15  18
ATOM     18  O   UNL     1    -139.732  63.832   6.472  1.00  0.00    -0.508 OA
ATOM     19  H   UNL     1    -139.184  63.928   7.320  1.00  0.00     0.293 HD
ENDBRANCH  15  18
ENDBRANCH   1  12
BRANCH  11  20
ATOM     20  C   UNL     1    -142.862  57.093   0.624  1.00  0.00     0.188 C 
ATOM     21  C   UNL     1    -141.844  58.175   0.033  1.00  0.00     0.179 C 
ATOM     22  O   UNL     1    -143.713  56.523  -0.387  1.00  0.00    -0.362 OA
ATOM     23  C   UNL     1    -141.944  58.147  -1.514  1.00  0.00     0.177 C 
ATOM     24  C   UNL     1    -144.378  57.623  -1.086  1.00  0.00     0.176 C 
ATOM     25  C   UNL     1    -143.350  58.582  -1.839  1.00  0.00     0.177 C 
BRANCH  21  26
ATOM     26  O   UNL     1    -140.494  58.085   0.388  1.00  0.00    -0.387 OA
ATOM     27  H   UNL     1    -140.435  58.014   1.378  1.00  0.00     0.211 HD
ENDBRANCH  21  26
BRANCH  23  28
ATOM     28  O   UNL     1    -140.984  58.973  -2.116  1.00  0.00    -0.387 OA
ATOM     29  H   UNL     1    -140.212  58.972  -1.482  1.00  0.00     0.211 HD
ENDBRANCH  23  28
BRANCH  24  30
ATOM     30  C   UNL     1    -145.497  57.132  -1.993  1.00  0.00     0.191 C 
BRANCH  30  31
ATOM     31  O   UNL     1    -146.260  56.169  -1.332  1.00  0.00    -0.394 OA
ATOM     32  H   UNL     1    -146.933  55.848  -1.989  1.00  0.00     0.210 HD
ENDBRANCH  30  31
ENDBRANCH  24  30
BRANCH  25  33
ATOM     33  O   UNL     1    -143.582  58.716  -3.226  1.00  0.00    -0.388 OA
ATOM     34  H   UNL     1    -144.566  58.693  -3.378  1.00  0.00     0.211 HD
ENDBRANCH  25  33
ENDBRANCH  11  20
BRANCH  10  35
ATOM     35  O   UNL     1    -141.511  54.364  -0.095  1.00  0.00    -0.507 OA
ATOM     36  H   UNL     1    -140.744  53.962  -0.629  1.00  0.00     0.293 HD
ENDBRANCH  10  35
TORSDOF 9
ENDMDL
MODEL 2
REMARK VINA RESULT:    -6.251      1.836      2.765
REMARK INTER + INTRA:          -9.714
REMARK INTER:                  -8.894
REMARK INTRA:                  -0.819
REMARK UNBOUND:                -1.270
REMARK SMILES O=c1c(-c2ccc(O)cc2)coc2c([C@@H]3O[C@H](CO)[C@H](O)[C@@H](O)[C@@H]3O)c(O)ccc12
REMARK SMILES IDX 3 1 11 2 12 3 13 4 30 5 2 6 1 7 29 8 28 9 26 10 14 11 4 12
REMARK SMILES IDX 5 13 6 14 7 15 10 16 9 17 8 18 15 20 24 21 16 22 22 23 17 24
REMARK SMILES IDX 20 25 25 26 23 28 18 30 19 31 21 33 27 35
REMARK H PARENT 8 19 25 27 23 29 19 32 21 34 27 36
REMARK Flexibility Score: inf
ROOT
ATOM      1  C   UNL     1    -141.682  57.444   3.037  1.00  0.00     0.065 A 
ATOM      2  C   UNL     1    -142.994  57.938   2.930  1.00  0.00     0.208 A 
ATOM      3  O   UNL     1    -143.662  57.611   1.785  1.00  0.00    -0.463 OA
ATOM      4  C   UNL     1    -143.203  56.668   0.863  1.00  0.00     0.147 A 
ATOM      5  C   UNL     1    -142.119  55.875   1.252  1.00  0.00     0.066 A 
ATOM      6  C   UNL     1    -141.199  56.563   2.026  1.00  0.00     0.200 A 
ATOM      7  O   UNL     1    -140.052  56.766   1.546  1.00  0.00    -0.288 OA
ATOM      8  C   UNL     1    -141.754  54.810   0.423  1.00  0.00     0.020 A 
ATOM      9  C   UNL     1    -142.459  54.598  -0.752  1.00  0.00     0.047 A 
ATOM     10  C   UNL     1    -143.230  55.634  -1.329  1.00  0.00     0.125 A 
ATOM     11  C   UNL     1    -143.576  56.745  -0.497  1.00  0.00     0.069 A 
ENDROOT
BRANCH   1  12
ATOM     12  C   UNL     1    -140.778  58.295   3.871  1.00  0.00    -0.011 A 
ATOM     13  C   UNL     1    -141.306  58.956   4.990  1.00  0.00     0.013 A 
ATOM     14  C   UNL     1    -140.515  59.836   5.747  1.00  0.00     0.047 A 
ATOM     15  C   UNL     1    -139.178  60.036   5.389  1.00  0.00     0.115 A 
ATOM     16  C   UNL     1    -139.528  58.715   3.383  1.00  0.00     0.013 A 
ATOM     17  C   UNL     1    -138.676  59.461   4.203  1.00  0.00     0.047 A 
BRANCH  15  18
ATOM     18  O   UNL     1    -138.371  60.904   6.112  1.00  0.00    -0.508 OA
ATOM     19  H   UNL     1    -137.557  61.310   5.662  1.00  0.00     0.293 HD
ENDBRANCH  15  18
ENDBRANCH   1  12
BRANCH  11  20
ATOM     20  C   UNL     1    -143.656  58.186  -1.056  1.00  0.00     0.188 C 
ATOM     21  C   UNL     1    -142.217  58.786  -1.408  1.00  0.00     0.179 C 
ATOM     22  O   UNL     1    -144.621  58.414  -2.098  1.00  0.00    -0.362 OA
ATOM     23  C   UNL     1    -142.236  59.274  -2.878  1.00  0.00     0.177 C 
ATOM     24  C   UNL     1    -144.645  59.850  -2.380  1.00  0.00     0.176 C 
ATOM     25  C   UNL     1    -143.247  60.392  -2.923  1.00  0.00     0.177 C 
BRANCH  21  26
ATOM     26  O   UNL     1    -141.093  57.972  -1.228  1.00  0.00    -0.387 OA
ATOM     27  H   UNL     1    -140.383  58.512  -0.789  1.00  0.00     0.211 HD
ENDBRANCH  21  26
BRANCH  23  28
ATOM     28  O   UNL     1    -140.969  59.692  -3.309  1.00  0.00    -0.387 OA
ATOM     29  H   UNL     1    -140.979  59.559  -4.299  1.00  0.00     0.211 HD
ENDBRANCH  23  28
BRANCH  24  30
ATOM     30  C   UNL     1    -145.813  60.238  -3.275  1.00  0.00     0.191 C 
BRANCH  30  31
ATOM     31  O   UNL     1    -145.980  61.624  -3.267  1.00  0.00    -0.394 OA
ATOM     32  H   UNL     1    -145.233  61.991  -2.724  1.00  0.00     0.210 HD
ENDBRANCH  30  31
ENDBRANCH  24  30
BRANCH  25  33
ATOM     33  O   UNL     1    -143.314  61.029  -4.183  1.00  0.00    -0.388 OA
ATOM     34  H   UNL     1    -142.854  60.447  -4.847  1.00  0.00     0.211 HD
ENDBRANCH  25  33
ENDBRANCH  11  20
BRANCH  10  35
ATOM     35  O   UNL     1    -143.601  55.506  -2.669  1.00  0.00    -0.507 OA
ATOM     36  H   UNL     1    -142.922  55.465  -3.425  1.00  0.00     0.293 HD
ENDBRANCH  10  35
TORSDOF 9
ENDMDL
MODEL 3
REMARK VINA RESULT:    -6.039      3.035      8.447
REMARK INTER + INTRA:          -9.426
REMARK INTER:                  -8.398
REMARK INTRA:                  -1.028
REMARK UNBOUND:                -1.270
REMARK SMILES O=c1c(-c2ccc(O)cc2)coc2c([C@@H]3O[C@H](CO)[C@H](O)[C@@H](O)[C@@H]3O)c(O)ccc12
REMARK SMILES IDX 3 1 11 2 12 3 13 4 30 5 2 6 1 7 29 8 28 9 26 10 14 11 4 12
REMARK SMILES IDX 5 13 6 14 7 15 10 16 9 17 8 18 15 20 24 21 16 22 22 23 17 24
REMARK SMILES IDX 20 25 25 26 23 28 18 30 19 31 21 33 27 35
REMARK H PARENT 8 19 25 27 23 29 19 32 21 34 27 36
REMARK Flexibility Score: inf
ROOT
ATOM      1  C   UNL     1    -139.629  59.445   4.666  1.00  0.00     0.065 A 
ATOM      2  C   UNL     1    -138.339  60.005   4.646  1.00  0.00     0.208 A 
ATOM      3  O   UNL     1    -138.244  61.295   5.083  1.00  0.00    -0.463 OA
ATOM      4  C   UNL     1    -139.280  61.974   5.726  1.00  0.00     0.147 A 
ATOM      5  C   UNL     1    -140.384  61.215   6.128  1.00  0.00     0.066 A 
ATOM      6  C   UNL     1    -140.694  60.201   5.236  1.00  0.00     0.200 A 
ATOM      7  O   UNL     1    -141.785  60.275   4.609  1.00  0.00    -0.288 OA
ATOM      8  C   UNL     1    -141.351  61.832   6.926  1.00  0.00     0.020 A 
ATOM      9  C   UNL     1    -141.193  63.168   7.265  1.00  0.00     0.047 A 
ATOM     10  C   UNL     1    -140.340  64.008   6.511  1.00  0.00     0.125 A 
ATOM     11  C   UNL     1    -139.371  63.382   5.665  1.00  0.00     0.069 A 
ENDROOT
BRANCH   1  12
ATOM     12  C   UNL     1    -139.848  58.387   3.631  1.00  0.00    -0.011 A 
ATOM     13  C   UNL     1    -139.727  58.727   2.275  1.00  0.00     0.013 A 
ATOM     14  C   UNL     1    -140.014  57.788   1.269  1.00  0.00     0.047 A 
ATOM     15  C   UNL     1    -140.402  56.493   1.630  1.00  0.00     0.115 A 
ATOM     16  C   UNL     1    -140.490  57.179   3.957  1.00  0.00     0.013 A 
ATOM     17  C   UNL     1    -140.631  56.183   2.986  1.00  0.00     0.047 A 
BRANCH  15  18
ATOM     18  O   UNL     1    -140.698  55.544   0.662  1.00  0.00    -0.508 OA
ATOM     19  H   UNL     1    -140.229  54.645   0.694  1.00  0.00     0.293 HD
ENDBRANCH  15  18
ENDBRANCH   1  12
BRANCH  11  20
ATOM     20  C   UNL     1    -138.976  63.987   4.296  1.00  0.00     0.188 C 
ATOM     21  C   UNL     1    -140.213  64.084   3.289  1.00  0.00     0.179 C 
ATOM     22  O   UNL     1    -138.197  65.196   4.335  1.00  0.00    -0.362 OA
ATOM     23  C   UNL     1    -140.323  65.546   2.788  1.00  0.00     0.177 C 
ATOM     24  C   UNL     1    -137.803  65.520   2.963  1.00  0.00     0.176 C 
ATOM     25  C   UNL     1    -139.056  65.810   2.018  1.00  0.00     0.177 C 
BRANCH  21  26
ATOM     26  O   UNL     1    -141.474  63.676   3.740  1.00  0.00    -0.387 OA
ATOM     27  H   UNL     1    -141.846  63.030   3.084  1.00  0.00     0.211 HD
ENDBRANCH  21  26
BRANCH  23  28
ATOM     28  O   UNL     1    -141.468  65.747   2.004  1.00  0.00    -0.387 OA
ATOM     29  H   UNL     1    -141.627  64.870   1.553  1.00  0.00     0.211 HD
ENDBRANCH  23  28
BRANCH  24  30
ATOM     30  C   UNL     1    -136.760  66.626   2.911  1.00  0.00     0.191 C 
BRANCH  30  31
ATOM     31  O   UNL     1    -136.481  67.079   4.201  1.00  0.00    -0.394 OA
ATOM     32  H   UNL     1    -135.820  67.814   4.101  1.00  0.00     0.210 HD
ENDBRANCH  30  31
ENDBRANCH  24  30
BRANCH  25  33
ATOM     33  O   UNL     1    -139.038  67.078   1.394  1.00  0.00    -0.388 OA
ATOM     34  H   UNL     1    -138.679  66.964   0.473  1.00  0.00     0.211 HD
ENDBRANCH  25  33
ENDBRANCH  11  20
BRANCH  10  35
ATOM     35  O   UNL     1    -140.498  65.389   6.643  1.00  0.00    -0.507 OA
ATOM     36  H   UNL     1    -140.570  66.012   5.842  1.00  0.00     0.293 HD
ENDBRANCH  10  35
TORSDOF 9
ENDMDL
MODEL 4
REMARK VINA RESULT:    -5.995      2.420      8.043
REMARK INTER + INTRA:          -9.367
REMARK INTER:                  -8.367
REMARK INTRA:                  -1.000
REMARK UNBOUND:                -1.270
REMARK SMILES O=c1c(-c2ccc(O)cc2)coc2c([C@@H]3O[C@H](CO)[C@H](O)[C@@H](O)[C@@H]3O)c(O)ccc12
REMARK SMILES IDX 3 1 11 2 12 3 13 4 30 5 2 6 1 7 29 8 28 9 26 10 14 11 4 12
REMARK SMILES IDX 5 13 6 14 7 15 10 16 9 17 8 18 15 20 24 21 16 22 22 23 17 24
REMARK SMILES IDX 20 25 25 26 23 28 18 30 19 31 21 33 27 35
REMARK H PARENT 8 19 25 27 23 29 19 32 21 34 27 36
REMARK Flexibility Score: inf
ROOT
ATOM      1  C   UNL     1    -139.536  59.000   1.950  1.00  0.00     0.065 A 
ATOM      2  C   UNL     1    -138.705  60.093   1.648  1.00  0.00     0.208 A 
ATOM      3  O   UNL     1    -138.493  60.980   2.665  1.00  0.00    -0.463 OA
ATOM      4  C   UNL     1    -138.863  60.742   3.989  1.00  0.00     0.147 A 
ATOM      5  C   UNL     1    -139.272  59.444   4.312  1.00  0.00     0.066 A 
ATOM      6  C   UNL     1    -139.987  58.836   3.292  1.00  0.00     0.200 A 
ATOM      7  O   UNL     1    -141.205  58.579   3.493  1.00  0.00    -0.288 OA
ATOM      8  C   UNL     1    -139.479  59.136   5.659  1.00  0.00     0.020 A 
ATOM      9  C   UNL     1    -139.296  60.126   6.613  1.00  0.00     0.047 A 
ATOM     10  C   UNL     1    -139.318  61.493   6.249  1.00  0.00     0.125 A 
ATOM     11  C   UNL     1    -139.144  61.813   4.866  1.00  0.00     0.069 A 
ENDROOT
BRANCH   1  12
ATOM     12  C   UNL     1    -140.280  58.458   0.772  1.00  0.00    -0.011 A 
ATOM     13  C   UNL     1    -140.701  57.119   0.791  1.00  0.00     0.013 A 
ATOM     14  C   UNL     1    -141.322  56.544  -0.331  1.00  0.00     0.047 A 
ATOM     15  C   UNL     1    -141.541  57.326  -1.470  1.00  0.00     0.115 A 
ATOM     16  C   UNL     1    -140.269  59.132  -0.462  1.00  0.00     0.013 A 
ATOM     17  C   UNL     1    -141.020  58.635  -1.532  1.00  0.00     0.047 A 
BRANCH  15  18
ATOM     18  O   UNL     1    -142.145  56.787  -2.597  1.00  0.00    -0.508 OA
ATOM     19  H   UNL     1    -141.935  57.183  -3.506  1.00  0.00     0.293 HD
ENDBRANCH  15  18
ENDBRANCH   1  12
BRANCH  11  20
ATOM     20  C   UNL     1    -139.889  62.999   4.206  1.00  0.00     0.188 C 
ATOM     21  C   UNL     1    -141.477  62.855   4.306  1.00  0.00     0.179 C 
ATOM     22  O   UNL     1    -139.428  64.316   4.556  1.00  0.00    -0.362 OA
ATOM     23  C   UNL     1    -142.046  64.144   4.950  1.00  0.00     0.177 C 
ATOM     24  C   UNL     1    -140.151  65.279   3.724  1.00  0.00     0.176 C 
ATOM     25  C   UNL     1    -141.725  65.257   3.987  1.00  0.00     0.177 C 
BRANCH  21  26
ATOM     26  O   UNL     1    -142.006  61.752   4.987  1.00  0.00    -0.387 OA
ATOM     27  H   UNL     1    -141.806  60.934   4.460  1.00  0.00     0.211 HD
ENDBRANCH  21  26
BRANCH  23  28
ATOM     28  O   UNL     1    -143.422  64.044   5.199  1.00  0.00    -0.387 OA
ATOM     29  H   UNL     1    -143.834  63.895   4.301  1.00  0.00     0.211 HD
ENDBRANCH  23  28
BRANCH  24  30
ATOM     30  C   UNL     1    -139.559  66.678   3.820  1.00  0.00     0.191 C 
BRANCH  30  31
ATOM     31  O   UNL     1    -139.540  67.098   5.151  1.00  0.00    -0.394 OA
ATOM     32  H   UNL     1    -138.616  66.936   5.480  1.00  0.00     0.210 HD
ENDBRANCH  30  31
ENDBRANCH  24  30
BRANCH  25  33
ATOM     33  O   UNL     1    -142.272  66.502   4.373  1.00  0.00    -0.388 OA
ATOM     34  H   UNL     1    -143.208  66.347   4.675  1.00  0.00     0.211 HD
ENDBRANCH  25  33
ENDBRANCH  11  20
BRANCH  10  35
ATOM     35  O   UNL     1    -139.509  62.436   7.260  1.00  0.00    -0.507 OA
ATOM     36  H   UNL     1    -140.219  63.163   7.206  1.00  0.00     0.293 HD
ENDBRANCH  10  35
TORSDOF 9
ENDMDL
MODEL 5
REMARK VINA RESULT:    -5.848      1.958      3.521
REMARK INTER + INTRA:          -9.168
REMARK INTER:                  -8.421
REMARK INTRA:                  -0.747
REMARK UNBOUND:                -1.270
REMARK SMILES O=c1c(-c2ccc(O)cc2)coc2c([C@@H]3O[C@H](CO)[C@H](O)[C@@H](O)[C@@H]3O)c(O)ccc12
REMARK SMILES IDX 3 1 11 2 12 3 13 4 30 5 2 6 1 7 29 8 28 9 26 10 14 11 4 12
REMARK SMILES IDX 5 13 6 14 7 15 10 16 9 17 8 18 15 20 24 21 16 22 22 23 17 24
REMARK SMILES IDX 20 25 25 26 23 28 18 30 19 31 21 33 27 35
REMARK H PARENT 8 19 25 27 23 29 19 32 21 34 27 36
REMARK Flexibility Score: inf
ROOT
ATOM      1  C   UNL     1    -141.598  57.214   2.217  1.00  0.00     0.065 A 
ATOM      2  C   UNL     1    -142.919  57.604   1.932  1.00  0.00     0.208 A 
ATOM      3  O   UNL     1    -143.455  57.094   0.785  1.00  0.00    -0.463 OA
ATOM      4  C   UNL     1    -142.861  56.078   0.036  1.00  0.00     0.147 A 
ATOM      5  C   UNL     1    -141.777  55.411   0.617  1.00  0.00     0.066 A 
ATOM      6  C   UNL     1    -140.974  56.248   1.375  1.00  0.00     0.200 A 
ATOM      7  O   UNL     1    -139.798  56.466   0.975  1.00  0.00    -0.288 OA
ATOM      8  C   UNL     1    -141.277  54.279  -0.031  1.00  0.00     0.020 A 
ATOM      9  C   UNL     1    -141.854  53.877  -1.226  1.00  0.00     0.047 A 
ATOM     10  C   UNL     1    -142.621  54.781  -1.998  1.00  0.00     0.125 A 
ATOM     11  C   UNL     1    -143.105  55.961  -1.350  1.00  0.00     0.069 A 
ENDROOT
BRANCH   1  12
ATOM     12  C   UNL     1    -140.825  58.220   3.010  1.00  0.00    -0.011 A 
ATOM     13  C   UNL     1    -141.278  58.569   4.292  1.00  0.00     0.013 A 
ATOM     14  C   UNL     1    -140.635  59.575   5.033  1.00  0.00     0.047 A 
ATOM     15  C   UNL     1    -139.516  60.216   4.492  1.00  0.00     0.115 A 
ATOM     16  C   UNL     1    -139.879  59.055   2.391  1.00  0.00     0.013 A 
ATOM     17  C   UNL     1    -139.127  59.946   3.164  1.00  0.00     0.047 A 
BRANCH  15  18
ATOM     18  O   UNL     1    -138.862  61.218   5.196  1.00  0.00    -0.508 OA
ATOM     19  H   UNL     1    -139.135  61.405   6.154  1.00  0.00     0.293 HD
ENDBRANCH  15  18
ENDBRANCH   1  12
BRANCH  11  20
ATOM     20  C   UNL     1    -143.209  57.313  -2.095  1.00  0.00     0.188 C 
ATOM     21  C   UNL     1    -144.602  58.051  -1.833  1.00  0.00     0.179 C 
ATOM     22  O   UNL     1    -142.082  58.198  -1.972  1.00  0.00    -0.362 OA
ATOM     23  C   UNL     1    -144.309  59.484  -1.322  1.00  0.00     0.177 C 
ATOM     24  C   UNL     1    -142.308  59.340  -2.858  1.00  0.00     0.176 C 
ATOM     25  C   UNL     1    -143.601  60.183  -2.454  1.00  0.00     0.177 C 
BRANCH  21  26
ATOM     26  O   UNL     1    -145.521  57.453  -0.963  1.00  0.00    -0.387 OA
ATOM     27  H   UNL     1    -146.238  58.111  -0.765  1.00  0.00     0.211 HD
ENDBRANCH  21  26
BRANCH  23  28
ATOM     28  O   UNL     1    -145.479  60.154  -0.938  1.00  0.00    -0.387 OA
ATOM     29  H   UNL     1    -145.240  61.124  -0.967  1.00  0.00     0.211 HD
ENDBRANCH  23  28
BRANCH  24  30
ATOM     30  C   UNL     1    -141.066  60.205  -3.008  1.00  0.00     0.191 C 
BRANCH  30  31
ATOM     31  O   UNL     1    -140.626  60.630  -1.754  1.00  0.00    -0.394 OA
ATOM     32  H   UNL     1    -141.037  61.522  -1.602  1.00  0.00     0.210 HD
ENDBRANCH  30  31
ENDBRANCH  24  30
BRANCH  25  33
ATOM     33  O   UNL     1    -143.351  61.550  -2.193  1.00  0.00    -0.388 OA
ATOM     34  H   UNL     1    -144.158  61.931  -1.750  1.00  0.00     0.211 HD
ENDBRANCH  25  33
ENDBRANCH  11  20
BRANCH  10  35
ATOM     35  O   UNL     1    -142.855  54.464  -3.337  1.00  0.00    -0.507 OA
ATOM     36  H   UNL     1    -143.708  54.008  -3.653  1.00  0.00     0.293 HD
ENDBRANCH  10  35
TORSDOF 9
ENDMDL
MODEL 6
REMARK VINA RESULT:    -5.840      1.967      3.418
REMARK INTER + INTRA:          -9.157
REMARK INTER:                  -8.464
REMARK INTRA:                  -0.693
REMARK UNBOUND:                -1.270
REMARK SMILES O=c1c(-c2ccc(O)cc2)coc2c([C@@H]3O[C@H](CO)[C@H](O)[C@@H](O)[C@@H]3O)c(O)ccc12
REMARK SMILES IDX 3 1 11 2 12 3 13 4 30 5 2 6 1 7 29 8 28 9 26 10 14 11 4 12
REMARK SMILES IDX 5 13 6 14 7 15 10 16 9 17 8 18 15 20 24 21 16 22 22 23 17 24
REMARK SMILES IDX 20 25 25 26 23 28 18 30 19 31 21 33 27 35
REMARK H PARENT 8 19 25 27 23 29 19 32 21 34 27 36
REMARK Flexibility Score: inf
ROOT
ATOM      1  C   UNL     1    -140.508  56.734   2.217  1.00  0.00     0.065 A 
ATOM      2  C   UNL     1    -141.819  56.262   2.037  1.00  0.00     0.208 A 
ATOM      3  O   UNL     1    -142.060  55.608   0.862  1.00  0.00    -0.463 OA
ATOM      4  C   UNL     1    -141.057  55.212  -0.024  1.00  0.00     0.147 A 
ATOM      5  C   UNL     1    -139.737  55.302   0.430  1.00  0.00     0.066 A 
ATOM      6  C   UNL     1    -139.522  56.403   1.243  1.00  0.00     0.200 A 
ATOM      7  O   UNL     1    -138.760  57.314   0.821  1.00  0.00    -0.288 OA
ATOM      8  C   UNL     1    -138.730  54.750  -0.366  1.00  0.00     0.020 A 
ATOM      9  C   UNL     1    -139.072  54.161  -1.574  1.00  0.00     0.047 A 
ATOM     10  C   UNL     1    -140.303  54.463  -2.202  1.00  0.00     0.125 A 
ATOM     11  C   UNL     1    -141.326  55.062  -1.402  1.00  0.00     0.069 A 
ENDROOT
BRANCH   1  12
ATOM     12  C   UNL     1    -140.413  57.948   3.087  1.00  0.00    -0.011 A 
ATOM     13  C   UNL     1    -141.352  58.122   4.116  1.00  0.00     0.013 A 
ATOM     14  C   UNL     1    -141.355  59.290   4.897  1.00  0.00     0.047 A 
ATOM     15  C   UNL     1    -140.394  60.278   4.657  1.00  0.00     0.115 A 
ATOM     16  C   UNL     1    -139.642  59.057   2.698  1.00  0.00     0.013 A 
ATOM     17  C   UNL     1    -139.523  60.156   3.555  1.00  0.00     0.047 A 
BRANCH  15  18
ATOM     18  O   UNL     1    -140.374  61.446   5.406  1.00  0.00    -0.508 OA
ATOM     19  H   UNL     1    -139.695  62.165   5.180  1.00  0.00     0.293 HD
ENDBRANCH  15  18
ENDBRANCH   1  12
BRANCH  11  20
ATOM     20  C   UNL     1    -142.296  56.121  -1.981  1.00  0.00     0.188 C 
ATOM     21  C   UNL     1    -143.823  55.654  -1.913  1.00  0.00     0.179 C 
ATOM     22  O   UNL     1    -142.109  57.473  -1.527  1.00  0.00    -0.362 OA
ATOM     23  C   UNL     1    -144.638  56.750  -1.182  1.00  0.00     0.177 C 
ATOM     24  C   UNL     1    -143.013  58.332  -2.294  1.00  0.00     0.176 C 
ATOM     25  C   UNL     1    -144.549  57.975  -2.055  1.00  0.00     0.177 C 
BRANCH  21  26
ATOM     26  O   UNL     1    -144.117  54.419  -1.324  1.00  0.00    -0.387 OA
ATOM     27  H   UNL     1    -143.262  53.948  -1.141  1.00  0.00     0.211 HD
ENDBRANCH  21  26
BRANCH  23  28
ATOM     28  O   UNL     1    -145.965  56.356  -0.960  1.00  0.00    -0.387 OA
ATOM     29  H   UNL     1    -146.452  56.615  -1.793  1.00  0.00     0.211 HD
ENDBRANCH  23  28
BRANCH  24  30
ATOM     30  C   UNL     1    -142.714  59.810  -2.085  1.00  0.00     0.191 C 
BRANCH  30  31
ATOM     31  O   UNL     1    -143.342  60.568  -3.074  1.00  0.00    -0.394 OA
ATOM     32  H   UNL     1    -143.032  60.202  -3.944  1.00  0.00     0.210 HD
ENDBRANCH  30  31
ENDBRANCH  24  30
BRANCH  25  33
ATOM     33  O   UNL     1    -145.334  59.051  -1.583  1.00  0.00    -0.388 OA
ATOM     34  H   UNL     1    -144.736  59.837  -1.458  1.00  0.00     0.211 HD
ENDBRANCH  25  33
ENDBRANCH  11  20
BRANCH  10  35
ATOM     35  O   UNL     1    -140.438  54.159  -3.558  1.00  0.00    -0.507 OA
ATOM     36  H   UNL     1    -141.334  54.183  -4.040  1.00  0.00     0.293 HD
ENDBRANCH  10  35
TORSDOF 9
ENDMDL
MODEL 7
REMARK VINA RESULT:    -5.819      3.027      8.221
REMARK INTER + INTRA:          -9.130
REMARK INTER:                  -8.179
REMARK INTRA:                  -0.951
REMARK UNBOUND:                -1.270
REMARK SMILES O=c1c(-c2ccc(O)cc2)coc2c([C@@H]3O[C@H](CO)[C@H](O)[C@@H](O)[C@@H]3O)c(O)ccc12
REMARK SMILES IDX 3 1 11 2 12 3 13 4 30 5 2 6 1 7 29 8 28 9 26 10 14 11 4 12
REMARK SMILES IDX 5 13 6 14 7 15 10 16 9 17 8 18 15 20 24 21 16 22 22 23 17 24
REMARK SMILES IDX 20 25 25 26 23 28 18 30 19 31 21 33 27 35
REMARK H PARENT 8 19 25 27 23 29 19 32 21 34 27 36
REMARK Flexibility Score: inf
ROOT
ATOM      1  C   UNL     1    -139.397  59.657   3.618  1.00  0.00     0.065 A 
ATOM      2  C   UNL     1    -138.554  60.588   2.988  1.00  0.00     0.208 A 
ATOM      3  O   UNL     1    -138.516  61.832   3.549  1.00  0.00    -0.463 OA
ATOM      4  C   UNL     1    -139.076  62.140   4.790  1.00  0.00     0.147 A 
ATOM      5  C   UNL     1    -139.500  61.066   5.579  1.00  0.00     0.066 A 
ATOM      6  C   UNL     1    -140.041  60.031   4.834  1.00  0.00     0.200 A 
ATOM      7  O   UNL     1    -141.270  59.781   4.969  1.00  0.00    -0.288 OA
ATOM      8  C   UNL     1    -139.900  61.333   6.891  1.00  0.00     0.020 A 
ATOM      9  C   UNL     1    -139.883  62.642   7.349  1.00  0.00     0.047 A 
ATOM     10  C   UNL     1    -139.880  63.725   6.438  1.00  0.00     0.125 A 
ATOM     11  C   UNL     1    -139.507  63.452   5.084  1.00  0.00     0.069 A 
ENDROOT
BRANCH   1  12
ATOM     12  C   UNL     1    -139.945  58.612   2.699  1.00  0.00    -0.011 A 
ATOM     13  C   UNL     1    -140.245  57.342   3.214  1.00  0.00     0.013 A 
ATOM     14  C   UNL     1    -140.674  56.304   2.369  1.00  0.00     0.047 A 
ATOM     15  C   UNL     1    -140.824  56.553   1.001  1.00  0.00     0.115 A 
ATOM     16  C   UNL     1    -139.847  58.754   1.303  1.00  0.00     0.013 A 
ATOM     17  C   UNL     1    -140.418  57.792   0.464  1.00  0.00     0.047 A 
BRANCH  15  18
ATOM     18  O   UNL     1    -141.240  55.548   0.137  1.00  0.00    -0.508 OA
ATOM     19  H   UNL     1    -140.723  55.392  -0.721  1.00  0.00     0.293 HD
ENDBRANCH  15  18
ENDBRANCH   1  12
BRANCH  11  20
ATOM     20  C   UNL     1    -140.170  64.187   3.895  1.00  0.00     0.188 C 
ATOM     21  C   UNL     1    -141.765  64.074   3.918  1.00  0.00     0.179 C 
ATOM     22  O   UNL     1    -139.714  65.527   3.637  1.00  0.00    -0.362 OA
ATOM     23  C   UNL     1    -142.358  65.505   3.848  1.00  0.00     0.177 C 
ATOM     24  C   UNL     1    -140.345  65.986   2.399  1.00  0.00     0.176 C 
ATOM     25  C   UNL     1    -141.935  66.057   2.511  1.00  0.00     0.177 C 
BRANCH  21  26
ATOM     26  O   UNL     1    -142.371  63.398   4.982  1.00  0.00    -0.387 OA
ATOM     27  H   UNL     1    -142.283  62.421   4.823  1.00  0.00     0.211 HD
ENDBRANCH  21  26
BRANCH  23  28
ATOM     28  O   UNL     1    -143.752  65.503   4.000  1.00  0.00    -0.387 OA
ATOM     29  H   UNL     1    -143.964  64.613   4.402  1.00  0.00     0.211 HD
ENDBRANCH  23  28
BRANCH  24  30
ATOM     30  C   UNL     1    -139.733  67.283   1.891  1.00  0.00     0.191 C 
BRANCH  30  31
ATOM     31  O   UNL     1    -139.832  68.273   2.870  1.00  0.00    -0.394 OA
ATOM     32  H   UNL     1    -138.999  68.216   3.408  1.00  0.00     0.210 HD
ENDBRANCH  30  31
ENDBRANCH  24  30
BRANCH  25  33
ATOM     33  O   UNL     1    -142.486  67.329   2.236  1.00  0.00    -0.388 OA
ATOM     34  H   UNL     1    -143.384  67.374   2.664  1.00  0.00     0.211 HD
ENDBRANCH  25  33
ENDBRANCH  11  20
BRANCH  10  35
ATOM     35  O   UNL     1    -140.241  64.985   6.919  1.00  0.00    -0.507 OA
ATOM     36  H   UNL     1    -140.475  65.154   7.894  1.00  0.00     0.293 HD
ENDBRANCH  10  35
TORSDOF 9
ENDMDL
MODEL 8
REMARK VINA RESULT:    -5.784      3.958      8.620
REMARK INTER + INTRA:          -9.083
REMARK INTER:                  -7.813
REMARK INTRA:                  -1.270
REMARK UNBOUND:                -1.270
REMARK SMILES O=c1c(-c2ccc(O)cc2)coc2c([C@@H]3O[C@H](CO)[C@H](O)[C@@H](O)[C@@H]3O)c(O)ccc12
REMARK SMILES IDX 3 1 11 2 12 3 13 4 30 5 2 6 1 7 29 8 28 9 26 10 14 11 4 12
REMARK SMILES IDX 5 13 6 14 7 15 10 16 9 17 8 18 15 20 24 21 16 22 22 23 17 24
REMARK SMILES IDX 20 25 25 26 23 28 18 30 19 31 21 33 27 35
REMARK H PARENT 8 19 25 27 23 29 19 32 21 34 27 36
REMARK Flexibility Score: inf
ROOT
ATOM      1  C   UNL     1    -139.797  60.851   4.581  1.00  0.00     0.065 A 
ATOM      2  C   UNL     1    -138.523  61.196   4.098  1.00  0.00     0.208 A 
ATOM      3  O   UNL     1    -138.194  62.519   4.178  1.00  0.00    -0.463 OA
ATOM      4  C   UNL     1    -138.940  63.461   4.889  1.00  0.00     0.147 A 
ATOM      5  C   UNL     1    -139.945  62.972   5.730  1.00  0.00     0.066 A 
ATOM      6  C   UNL     1    -140.585  61.857   5.213  1.00  0.00     0.200 A 
ATOM      7  O   UNL     1    -141.799  61.964   4.891  1.00  0.00    -0.288 OA
ATOM      8  C   UNL     1    -140.586  63.874   6.582  1.00  0.00     0.020 A 
ATOM      9  C   UNL     1    -140.222  65.212   6.545  1.00  0.00     0.047 A 
ATOM     10  C   UNL     1    -139.549  65.746   5.421  1.00  0.00     0.125 A 
ATOM     11  C   UNL     1    -138.921  64.825   4.525  1.00  0.00     0.069 A 
ENDROOT
BRANCH   1  12
ATOM     12  C   UNL     1    -140.394  59.651   3.917  1.00  0.00    -0.011 A 
ATOM     13  C   UNL     1    -141.349  58.893   4.612  1.00  0.00     0.013 A 
ATOM     14  C   UNL     1    -141.867  57.708   4.063  1.00  0.00     0.047 A 
ATOM     15  C   UNL     1    -141.440  57.295   2.796  1.00  0.00     0.115 A 
ATOM     16  C   UNL     1    -139.792  59.078   2.783  1.00  0.00     0.013 A 
ATOM     17  C   UNL     1    -140.401  57.992   2.145  1.00  0.00     0.047 A 
BRANCH  15  18
ATOM     18  O   UNL     1    -141.927  56.127   2.228  1.00  0.00    -0.508 OA
ATOM     19  H   UNL     1    -142.305  56.157   1.287  1.00  0.00     0.293 HD
ENDBRANCH  15  18
ENDBRANCH   1  12
BRANCH  11  20
ATOM     20  C   UNL     1    -138.881  65.076   2.998  1.00  0.00     0.188 C 
ATOM     21  C   UNL     1    -140.316  64.909   2.313  1.00  0.00     0.179 C 
ATOM     22  O   UNL     1    -138.194  66.263   2.564  1.00  0.00    -0.362 OA
ATOM     23  C   UNL     1    -140.631  66.201   1.516  1.00  0.00     0.177 C 
ATOM     24  C   UNL     1    -138.139  66.240   1.102  1.00  0.00     0.176 C 
ATOM     25  C   UNL     1    -139.587  66.276   0.432  1.00  0.00     0.177 C 
BRANCH  21  26
ATOM     26  O   UNL     1    -141.415  64.615   3.128  1.00  0.00    -0.387 OA
ATOM     27  H   UNL     1    -141.104  64.583   4.071  1.00  0.00     0.211 HD
ENDBRANCH  21  26
BRANCH  23  28
ATOM     28  O   UNL     1    -141.932  66.192   0.995  1.00  0.00    -0.387 OA
ATOM     29  H   UNL     1    -141.870  65.644   0.162  1.00  0.00     0.211 HD
ENDBRANCH  23  28
BRANCH  24  30
ATOM     30  C   UNL     1    -137.208  67.308   0.546  1.00  0.00     0.191 C 
BRANCH  30  31
ATOM     31  O   UNL     1    -137.528  68.551   1.093  1.00  0.00    -0.394 OA
ATOM     32  H   UNL     1    -137.933  68.369   1.981  1.00  0.00     0.210 HD
ENDBRANCH  30  31
ENDBRANCH  24  30
BRANCH  25  33
ATOM     33  O   UNL     1    -139.792  67.351  -0.463  1.00  0.00    -0.388 OA
ATOM     34  H   UNL     1    -139.607  67.023  -1.385  1.00  0.00     0.211 HD
ENDBRANCH  25  33
ENDBRANCH  11  20
BRANCH  10  35
ATOM     35  O   UNL     1    -139.542  67.133   5.261  1.00  0.00    -0.507 OA
ATOM     36  H   UNL     1    -139.381  67.581   4.361  1.00  0.00     0.293 HD
ENDBRANCH  10  35
TORSDOF 9
ENDMDL
MODEL 9
REMARK VINA RESULT:    -5.695      4.355      7.563
REMARK INTER + INTRA:          -8.962
REMARK INTER:                  -7.589
REMARK INTRA:                  -1.372
REMARK UNBOUND:                -1.270
REMARK SMILES O=c1c(-c2ccc(O)cc2)coc2c([C@@H]3O[C@H](CO)[C@H](O)[C@@H](O)[C@@H]3O)c(O)ccc12
REMARK SMILES IDX 3 1 11 2 12 3 13 4 30 5 2 6 1 7 29 8 28 9 26 10 14 11 4 12
REMARK SMILES IDX 5 13 6 14 7 15 10 16 9 17 8 18 15 20 24 21 16 22 22 23 17 24
REMARK SMILES IDX 20 25 25 26 23 28 18 30 19 31 21 33 27 35
REMARK H PARENT 8 19 25 27 23 29 19 32 21 34 27 36
REMARK Flexibility Score: inf
ROOT
ATOM      1  C   UNL     1    -141.741  62.945  -3.705  1.00  0.00     0.065 A 
ATOM      2  C   UNL     1    -141.187  62.663  -2.444  1.00  0.00     0.208 A 
ATOM      3  O   UNL     1    -140.886  61.353  -2.205  1.00  0.00    -0.463 OA
ATOM      4  C   UNL     1    -140.895  60.364  -3.190  1.00  0.00     0.147 A 
ATOM      5  C   UNL     1    -141.006  60.791  -4.517  1.00  0.00     0.066 A 
ATOM      6  C   UNL     1    -141.834  61.892  -4.661  1.00  0.00     0.200 A 
ATOM      7  O   UNL     1    -142.915  61.744  -5.293  1.00  0.00    -0.288 OA
ATOM      8  C   UNL     1    -140.841  59.841  -5.528  1.00  0.00     0.020 A 
ATOM      9  C   UNL     1    -140.599  58.520  -5.181  1.00  0.00     0.047 A 
ATOM     10  C   UNL     1    -140.922  58.043  -3.888  1.00  0.00     0.125 A 
ATOM     11  C   UNL     1    -141.128  59.012  -2.857  1.00  0.00     0.069 A 
ENDROOT
BRANCH   1  12
ATOM     12  C   UNL     1    -142.644  64.137  -3.720  1.00  0.00    -0.011 A 
ATOM     13  C   UNL     1    -142.147  65.362  -4.192  1.00  0.00     0.013 A 
ATOM     14  C   UNL     1    -142.932  66.526  -4.138  1.00  0.00     0.047 A 
ATOM     15  C   UNL     1    -144.232  66.454  -3.628  1.00  0.00     0.115 A 
ATOM     16  C   UNL     1    -143.838  64.149  -2.976  1.00  0.00     0.013 A 
ATOM     17  C   UNL     1    -144.694  65.252  -3.053  1.00  0.00     0.047 A 
BRANCH  15  18
ATOM     18  O   UNL     1    -145.031  67.586  -3.556  1.00  0.00    -0.508 OA
ATOM     19  H   UNL     1    -145.186  68.134  -4.395  1.00  0.00     0.293 HD
ENDBRANCH  15  18
ENDBRANCH   1  12
BRANCH  11  20
ATOM     20  C   UNL     1    -142.185  58.803  -1.745  1.00  0.00     0.188 C 
ATOM     21  C   UNL     1    -143.669  59.125  -2.244  1.00  0.00     0.179 C 
ATOM     22  O   UNL     1    -142.103  57.569  -1.010  1.00  0.00    -0.362 OA
ATOM     23  C   UNL     1    -144.562  57.893  -1.950  1.00  0.00     0.177 C 
ATOM     24  C   UNL     1    -143.079  57.629   0.078  1.00  0.00     0.176 C 
ATOM     25  C   UNL     1    -144.580  57.750  -0.450  1.00  0.00     0.177 C 
BRANCH  21  26
ATOM     26  O   UNL     1    -143.859  59.498  -3.579  1.00  0.00    -0.387 OA
ATOM     27  H   UNL     1    -143.255  60.261  -3.779  1.00  0.00     0.211 HD
ENDBRANCH  21  26
BRANCH  23  28
ATOM     28  O   UNL     1    -145.852  58.041  -2.480  1.00  0.00    -0.387 OA
ATOM     29  H   UNL     1    -145.757  58.735  -3.192  1.00  0.00     0.211 HD
ENDBRANCH  23  28
BRANCH  24  30
ATOM     30  C   UNL     1    -142.897  56.494   1.076  1.00  0.00     0.191 C 
BRANCH  30  31
ATOM     31  O   UNL     1    -143.211  55.275   0.474  1.00  0.00    -0.394 OA
ATOM     32  H   UNL     1    -143.331  54.623   1.213  1.00  0.00     0.210 HD
ENDBRANCH  30  31
ENDBRANCH  24  30
BRANCH  25  33
ATOM     33  O   UNL     1    -145.444  56.727   0.001  1.00  0.00    -0.388 OA
ATOM     34  H   UNL     1    -145.465  56.013  -0.694  1.00  0.00     0.211 HD
ENDBRANCH  25  33
ENDBRANCH  11  20
BRANCH  10  35
ATOM     35  O   UNL     1    -141.018  56.663  -3.706  1.00  0.00    -0.507 OA
ATOM     36  H   UNL     1    -141.547  56.245  -2.944  1.00  0.00     0.293 HD
ENDBRANCH  10  35
TORSDOF 9
ENDMDL
