MODEL 1
REMARK VINA RESULT:    -1.732      0.000      0.000
REMARK INTER + INTRA:          -1.705
REMARK INTER:                  -2.137
REMARK INTRA:                   0.432
REMARK UNBOUND:                 0.432
REMARK SMILES O=c1c(O)c(-c2cc(O)c(O)c(O)c2)oc2cc(O)cc(O)c12
REMARK SMILES IDX 5 1 3 2 2 3 1 4 23 5 21 6 20 7 18 8 17 9 16 10 15 11 6 12
REMARK SMILES IDX 7 13 8 14 14 15 10 16 12 17 9 18 11 20 13 22 4 24 22 26
REMARK SMILES IDX 19 28
REMARK H PARENT 9 19 11 21 13 23 4 25 22 27 19 29
REMARK Flexibility Score: inf
ROOT
ATOM      1  C   UNL     1      72.355  40.836  20.336  1.00  0.00     0.180 A 
ATOM      2  C   UNL     1      73.129  40.821  19.164  1.00  0.00     0.208 A 
ATOM      3  C   UNL     1      74.529  40.784  19.271  1.00  0.00     0.238 A 
ATOM      4  O   UNL     1      75.212  40.696  18.218  1.00  0.00    -0.285 OA
ATOM      5  C   UNL     1      75.138  40.820  20.548  1.00  0.00     0.111 A 
ATOM      6  C   UNL     1      76.549  40.833  20.775  1.00  0.00     0.134 A 
ATOM      7  C   UNL     1      77.038  40.761  22.086  1.00  0.00     0.093 A 
ATOM      8  C   UNL     1      76.169  40.743  23.179  1.00  0.00     0.123 A 
ATOM      9  C   UNL     1      74.793  40.786  22.970  1.00  0.00     0.094 A 
ATOM     10  C   UNL     1      74.274  40.818  21.674  1.00  0.00     0.146 A 
ATOM     11  O   UNL     1      72.955  40.837  21.521  1.00  0.00    -0.452 OA
ENDROOT
BRANCH   1  12
ATOM     12  C   UNL     1      70.875  40.861  20.304  1.00  0.00     0.029 A 
ATOM     13  C   UNL     1      70.156  40.693  21.497  1.00  0.00     0.062 A 
ATOM     14  C   UNL     1      68.758  40.690  21.494  1.00  0.00     0.162 A 
ATOM     15  C   UNL     1      70.172  40.991  19.095  1.00  0.00     0.062 A 
ATOM     16  C   UNL     1      68.058  40.842  20.284  1.00  0.00     0.200 A 
ATOM     17  C   UNL     1      68.770  40.989  19.082  1.00  0.00     0.162 A 
BRANCH  14  18
ATOM     18  O   UNL     1      68.080  40.534  22.703  1.00  0.00    -0.504 OA
ATOM     19  H   UNL     1      67.340  39.854  22.822  1.00  0.00     0.293 HD
ENDBRANCH  14  18
BRANCH  16  20
ATOM     20  O   UNL     1      66.663  40.841  20.291  1.00  0.00    -0.502 OA
ATOM     21  H   UNL     1      66.119  41.001  19.451  1.00  0.00     0.293 HD
ENDBRANCH  16  20
BRANCH  17  22
ATOM     22  O   UNL     1      68.083  41.125  17.876  1.00  0.00    -0.504 OA
ATOM     23  H   UNL     1      67.170  40.710  17.734  1.00  0.00     0.293 HD
ENDBRANCH  17  22
ENDBRANCH   1  12
BRANCH   2  24
ATOM     24  O   UNL     1      72.509  40.863  17.912  1.00  0.00    -0.502 OA
ATOM     25  H   UNL     1      72.477  41.706  17.348  1.00  0.00     0.293 HD
ENDBRANCH   2  24
BRANCH   6  26
ATOM     26  O   UNL     1      77.504  40.939  19.760  1.00  0.00    -0.507 OA
ATOM     27  H   UNL     1      77.825  41.807  19.357  1.00  0.00     0.293 HD
ENDBRANCH   6  26
BRANCH   8  28
ATOM     28  O   UNL     1      76.666  40.689  24.480  1.00  0.00    -0.508 OA
ATOM     29  H   UNL     1      76.077  40.885  25.281  1.00  0.00     0.293 HD
ENDBRANCH   8  28
TORSDOF 7
ENDMDL
MODEL 2
REMARK VINA RESULT:    -1.609      0.207      1.765
REMARK INTER + INTRA:          -1.553
REMARK INTER:                  -2.074
REMARK INTRA:                   0.521
REMARK UNBOUND:                 0.432
REMARK SMILES O=c1c(O)c(-c2cc(O)c(O)c(O)c2)oc2cc(O)cc(O)c12
REMARK SMILES IDX 5 1 3 2 2 3 1 4 23 5 21 6 20 7 18 8 17 9 16 10 15 11 6 12
REMARK SMILES IDX 7 13 8 14 14 15 10 16 12 17 9 18 11 20 13 22 4 24 22 26
REMARK SMILES IDX 19 28
REMARK H PARENT 9 19 11 21 13 23 4 25 22 27 19 29
REMARK Flexibility Score: inf
ROOT
ATOM      1  C   UNL     1      72.317  40.861  20.490  1.00  0.00     0.180 A 
ATOM      2  C   UNL     1      73.106  40.957  19.331  1.00  0.00     0.208 A 
ATOM      3  C   UNL     1      74.504  40.943  19.454  1.00  0.00     0.238 A 
ATOM      4  O   UNL     1      75.202  40.954  18.407  1.00  0.00    -0.285 OA
ATOM      5  C   UNL     1      75.097  40.890  20.739  1.00  0.00     0.111 A 
ATOM      6  C   UNL     1      76.504  40.916  20.986  1.00  0.00     0.134 A 
ATOM      7  C   UNL     1      76.979  40.752  22.293  1.00  0.00     0.093 A 
ATOM      8  C   UNL     1      76.098  40.627  23.369  1.00  0.00     0.123 A 
ATOM      9  C   UNL     1      74.724  40.656  23.146  1.00  0.00     0.094 A 
ATOM     10  C   UNL     1      74.220  40.780  21.849  1.00  0.00     0.146 A 
ATOM     11  O   UNL     1      72.902  40.781  21.679  1.00  0.00    -0.452 OA
ENDROOT
BRANCH   1  12
ATOM     12  C   UNL     1      70.838  40.855  20.439  1.00  0.00     0.029 A 
ATOM     13  C   UNL     1      70.189  40.987  19.202  1.00  0.00     0.062 A 
ATOM     14  C   UNL     1      68.793  41.006  19.126  1.00  0.00     0.162 A 
ATOM     15  C   UNL     1      70.066  40.779  21.610  1.00  0.00     0.062 A 
ATOM     16  C   UNL     1      68.025  40.907  20.298  1.00  0.00     0.200 A 
ATOM     17  C   UNL     1      68.666  40.798  21.544  1.00  0.00     0.162 A 
BRANCH  14  18
ATOM     18  O   UNL     1      68.187  41.124  17.875  1.00  0.00    -0.504 OA
ATOM     19  H   UNL     1      67.218  40.873  17.720  1.00  0.00     0.293 HD
ENDBRANCH  14  18
BRANCH  16  20
ATOM     20  O   UNL     1      66.632  40.924  20.213  1.00  0.00    -0.502 OA
ATOM     21  H   UNL     1      66.130  41.659  19.731  1.00  0.00     0.293 HD
ENDBRANCH  16  20
BRANCH  17  22
ATOM     22  O   UNL     1      67.910  40.715  22.713  1.00  0.00    -0.504 OA
ATOM     23  H   UNL     1      68.184  41.200  23.559  1.00  0.00     0.293 HD
ENDBRANCH  17  22
ENDBRANCH   1  12
BRANCH   2  24
ATOM     24  O   UNL     1      72.500  41.085  18.078  1.00  0.00    -0.502 OA
ATOM     25  H   UNL     1      72.069  40.302  17.599  1.00  0.00     0.293 HD
ENDBRANCH   2  24
BRANCH   6  26
ATOM     26  O   UNL     1      77.469  41.125  19.996  1.00  0.00    -0.507 OA
ATOM     27  H   UNL     1      77.395  40.811  19.041  1.00  0.00     0.293 HD
ENDBRANCH   6  26
BRANCH   8  28
ATOM     28  O   UNL     1      76.580  40.481  24.669  1.00  0.00    -0.508 OA
ATOM     29  H   UNL     1      77.127  39.674  24.944  1.00  0.00     0.293 HD
ENDBRANCH   8  28
TORSDOF 7
ENDMDL
MODEL 3
REMARK VINA RESULT:     1.023      2.421      3.537
REMARK INTER + INTRA:           1.695
REMARK INTER:                   2.057
REMARK INTRA:                  -0.363
REMARK UNBOUND:                 0.432
REMARK SMILES O=c1c(O)c(-c2cc(O)c(O)c(O)c2)oc2cc(O)cc(O)c12
REMARK SMILES IDX 5 1 3 2 2 3 1 4 23 5 21 6 20 7 18 8 17 9 16 10 15 11 6 12
REMARK SMILES IDX 7 13 8 14 14 15 10 16 12 17 9 18 11 20 13 22 4 24 22 26
REMARK SMILES IDX 19 28
REMARK H PARENT 9 19 11 21 13 23 4 25 22 27 19 29
REMARK Flexibility Score: inf
ROOT
ATOM      1  C   UNL     1      72.351  39.031  19.367  1.00  0.00     0.180 A 
ATOM      2  C   UNL     1      72.562  37.692  18.996  1.00  0.00     0.208 A 
ATOM      3  C   UNL     1      73.866  37.265  18.695  1.00  0.00     0.238 A 
ATOM      4  O   UNL     1      74.057  36.048  18.436  1.00  0.00    -0.285 OA
ATOM      5  C   UNL     1      74.933  38.195  18.714  1.00  0.00     0.111 A 
ATOM      6  C   UNL     1      76.288  37.883  18.383  1.00  0.00     0.134 A 
ATOM      7  C   UNL     1      77.279  38.860  18.540  1.00  0.00     0.093 A 
ATOM      8  C   UNL     1      76.956  40.154  18.954  1.00  0.00     0.123 A 
ATOM      9  C   UNL     1      75.631  40.483  19.226  1.00  0.00     0.094 A 
ATOM     10  C   UNL     1      74.625  39.520  19.116  1.00  0.00     0.146 A 
ATOM     11  O   UNL     1      73.378  39.872  19.407  1.00  0.00    -0.452 OA
ENDROOT
BRANCH   1  12
ATOM     12  C   UNL     1      71.009  39.551  19.712  1.00  0.00     0.029 A 
ATOM     13  C   UNL     1      70.198  40.091  18.702  1.00  0.00     0.062 A 
ATOM     14  C   UNL     1      68.934  40.610  19.002  1.00  0.00     0.162 A 
ATOM     15  C   UNL     1      70.551  39.570  21.040  1.00  0.00     0.062 A 
ATOM     16  C   UNL     1      68.471  40.607  20.329  1.00  0.00     0.200 A 
ATOM     17  C   UNL     1      69.286  40.089  21.350  1.00  0.00     0.162 A 
BRANCH  14  18
ATOM     18  O   UNL     1      68.153  41.124  17.968  1.00  0.00    -0.504 OA
ATOM     19  H   UNL     1      67.599  40.529  17.364  1.00  0.00     0.293 HD
ENDBRANCH  14  18
BRANCH  16  20
ATOM     20  O   UNL     1      67.208  41.124  20.619  1.00  0.00    -0.502 OA
ATOM     21  H   UNL     1      67.060  42.105  20.823  1.00  0.00     0.293 HD
ENDBRANCH  16  20
BRANCH  17  22
ATOM     22  O   UNL     1      68.840  40.097  22.671  1.00  0.00    -0.504 OA
ATOM     23  H   UNL     1      69.095  40.837  23.315  1.00  0.00     0.293 HD
ENDBRANCH  17  22
ENDBRANCH   1  12
BRANCH   2  24
ATOM     24  O   UNL     1      71.483  36.809  18.909  1.00  0.00    -0.502 OA
ATOM     25  H   UNL     1      70.529  37.094  19.103  1.00  0.00     0.293 HD
ENDBRANCH   2  24
BRANCH   6  26
ATOM     26  O   UNL     1      76.706  36.650  17.875  1.00  0.00    -0.507 OA
ATOM     27  H   UNL     1      76.233  35.772  18.026  1.00  0.00     0.293 HD
ENDBRANCH   6  26
BRANCH   8  28
ATOM     28  O   UNL     1      77.947  41.124  19.091  1.00  0.00    -0.508 OA
ATOM     29  H   UNL     1      78.453  41.482  18.289  1.00  0.00     0.293 HD
ENDBRANCH   8  28
TORSDOF 7
ENDMDL
