MODEL 1
REMARK VINA RESULT:    -3.236      0.000      0.000
REMARK INTER + INTRA:          -5.092
REMARK INTER:                  -4.654
REMARK INTRA:                  -0.438
REMARK UNBOUND:                -0.438
REMARK SMILES CCCCCCCCCO
REMARK SMILES IDX 6 1 5 2 4 3 3 4 2 5 1 6 7 7 8 8 9 9 10 10
REMARK H PARENT 10 11
REMARK Flexibility Score: inf
ROOT
ATOM      1  C   UNL     1     177.336 163.232 168.794  1.00  0.00     0.000 C 
ENDROOT
BRANCH   1   2
ATOM      2  C   UNL     1     177.635 163.641 167.341  1.00  0.00     0.000 C 
BRANCH   2   3
ATOM      3  C   UNL     1     178.955 163.049 166.820  1.00  0.00    -0.000 C 
BRANCH   3   4
ATOM      4  C   UNL     1     178.776 162.273 165.504  1.00  0.00    -0.000 C 
BRANCH   4   5
ATOM      5  C   UNL     1     177.347 161.735 165.328  1.00  0.00    -0.003 C 
ATOM      6  C   UNL     1     176.993 161.456 163.868  1.00  0.00     0.004 C 
ENDBRANCH   4   5
ENDBRANCH   3   4
ENDBRANCH   2   3
ENDBRANCH   1   2
BRANCH   1   7
ATOM      7  C   UNL     1     178.513 162.496 169.454  1.00  0.00     0.002 C 
BRANCH   7   8
ATOM      8  C   UNL     1     178.197 161.026 169.762  1.00  0.00     0.028 C 
BRANCH   8   9
ATOM      9  C   UNL     1     178.131 160.782 171.273  1.00  0.00     0.156 C 
BRANCH   9  10
ATOM     10  O   UNL     1     176.797 160.778 171.705  1.00  0.00    -0.396 OA
ATOM     11  H   UNL     1     176.815 160.954 172.682  1.00  0.00     0.210 HD
ENDBRANCH   9  10
ENDBRANCH   8   9
ENDBRANCH   7   8
ENDBRANCH   1   7
TORSDOF 8
ENDMDL
MODEL 2
REMARK VINA RESULT:    -3.139      1.457      1.963
REMARK INTER + INTRA:          -4.953
REMARK INTER:                  -4.641
REMARK INTRA:                  -0.312
REMARK UNBOUND:                -0.438
REMARK SMILES CCCCCCCCCO
REMARK SMILES IDX 6 1 5 2 4 3 3 4 2 5 1 6 7 7 8 8 9 9 10 10
REMARK H PARENT 10 11
REMARK Flexibility Score: inf
ROOT
ATOM      1  C   UNL     1     177.613 163.562 167.639  1.00  0.00     0.000 C 
ENDROOT
BRANCH   1   2
ATOM      2  C   UNL     1     178.128 162.923 166.338  1.00  0.00     0.000 C 
BRANCH   2   3
ATOM      3  C   UNL     1     177.814 161.420 166.254  1.00  0.00    -0.000 C 
BRANCH   3   4
ATOM      4  C   UNL     1     177.939 160.870 164.823  1.00  0.00    -0.000 C 
BRANCH   4   5
ATOM      5  C   UNL     1     177.047 161.622 163.823  1.00  0.00    -0.003 C 
ATOM      6  C   UNL     1     175.927 160.752 163.254  1.00  0.00     0.004 C 
ENDBRANCH   4   5
ENDBRANCH   3   4
ENDBRANCH   2   3
ENDBRANCH   1   2
BRANCH   1   7
ATOM      7  C   UNL     1     178.258 162.951 168.894  1.00  0.00     0.002 C 
BRANCH   7   8
ATOM      8  C   UNL     1     177.251 162.193 169.770  1.00  0.00     0.028 C 
BRANCH   8   9
ATOM      9  C   UNL     1     175.842 162.774 169.616  1.00  0.00     0.156 C 
BRANCH   9  10
ATOM     10  O   UNL     1     174.885 161.752 169.694  1.00  0.00    -0.396 OA
ATOM     11  H   UNL     1     175.080 161.123 168.951  1.00  0.00     0.210 HD
ENDBRANCH   9  10
ENDBRANCH   8   9
ENDBRANCH   7   8
ENDBRANCH   1   7
TORSDOF 8
ENDMDL
MODEL 3
REMARK VINA RESULT:    -3.119      2.889      5.497
REMARK INTER + INTRA:          -4.925
REMARK INTER:                  -4.596
REMARK INTRA:                  -0.328
REMARK UNBOUND:                -0.438
REMARK SMILES CCCCCCCCCO
REMARK SMILES IDX 6 1 5 2 4 3 3 4 2 5 1 6 7 7 8 8 9 9 10 10
REMARK H PARENT 10 11
REMARK Flexibility Score: inf
ROOT
ATOM      1  C   UNL     1     177.662 161.895 166.829  1.00  0.00     0.000 C 
ENDROOT
BRANCH   1   2
ATOM      2  C   UNL     1     178.106 163.107 167.667  1.00  0.00     0.000 C 
BRANCH   2   3
ATOM      3  C   UNL     1     177.141 163.411 168.825  1.00  0.00    -0.000 C 
BRANCH   3   4
ATOM      4  C   UNL     1     176.560 162.136 169.460  1.00  0.00    -0.000 C 
BRANCH   4   5
ATOM      5  C   UNL     1     177.213 161.801 170.810  1.00  0.00    -0.003 C 
ATOM      6  C   UNL     1     178.344 160.779 170.685  1.00  0.00     0.004 C 
ENDBRANCH   4   5
ENDBRANCH   3   4
ENDBRANCH   2   3
ENDBRANCH   1   2
BRANCH   1   7
ATOM      7  C   UNL     1     177.673 162.184 165.320  1.00  0.00     0.002 C 
BRANCH   7   8
ATOM      8  C   UNL     1     177.328 160.949 164.476  1.00  0.00     0.028 C 
BRANCH   8   9
ATOM      9  C   UNL     1     176.647 161.352 163.164  1.00  0.00     0.156 C 
BRANCH   9  10
ATOM     10  O   UNL     1     175.266 161.131 163.247  1.00  0.00    -0.396 OA
ATOM     11  H   UNL     1     175.084 160.281 162.766  1.00  0.00     0.210 HD
ENDBRANCH   9  10
ENDBRANCH   8   9
ENDBRANCH   7   8
ENDBRANCH   1   7
TORSDOF 8
ENDMDL
MODEL 4
REMARK VINA RESULT:    -3.119     21.868     23.114
REMARK INTER + INTRA:          -4.924
REMARK INTER:                  -4.343
REMARK INTRA:                  -0.582
REMARK UNBOUND:                -0.438
REMARK SMILES CCCCCCCCCO
REMARK SMILES IDX 6 1 5 2 4 3 3 4 2 5 1 6 7 7 8 8 9 9 10 10
REMARK H PARENT 10 11
REMARK Flexibility Score: inf
ROOT
ATOM      1  C   UNL     1     160.690 178.081 167.060  1.00  0.00     0.000 C 
ENDROOT
BRANCH   1   2
ATOM      2  C   UNL     1     161.687 178.380 165.926  1.00  0.00     0.000 C 
BRANCH   2   3
ATOM      3  C   UNL     1     163.064 177.740 166.166  1.00  0.00    -0.000 C 
BRANCH   3   4
ATOM      4  C   UNL     1     164.032 178.681 166.903  1.00  0.00    -0.000 C 
BRANCH   4   5
ATOM      5  C   UNL     1     164.489 178.114 168.256  1.00  0.00    -0.003 C 
ATOM      6  C   UNL     1     163.797 178.782 169.444  1.00  0.00     0.004 C 
ENDBRANCH   4   5
ENDBRANCH   3   4
ENDBRANCH   2   3
ENDBRANCH   1   2
BRANCH   1   7
ATOM      7  C   UNL     1     160.275 179.345 167.830  1.00  0.00     0.002 C 
BRANCH   7   8
ATOM      8  C   UNL     1     159.606 179.028 169.175  1.00  0.00     0.028 C 
BRANCH   8   9
ATOM      9  C   UNL     1     160.292 177.846 169.866  1.00  0.00     0.156 C 
BRANCH   9  10
ATOM     10  O   UNL     1     160.715 178.216 171.150  1.00  0.00    -0.396 OA
ATOM     11  H   UNL     1     161.701 178.096 171.170  1.00  0.00     0.210 HD
ENDBRANCH   9  10
ENDBRANCH   8   9
ENDBRANCH   7   8
ENDBRANCH   1   7
TORSDOF 8
ENDMDL
MODEL 5
REMARK VINA RESULT:    -3.104     21.724     22.903
REMARK INTER + INTRA:          -4.903
REMARK INTER:                  -4.418
REMARK INTRA:                  -0.485
REMARK UNBOUND:                -0.438
REMARK SMILES CCCCCCCCCO
REMARK SMILES IDX 6 1 5 2 4 3 3 4 2 5 1 6 7 7 8 8 9 9 10 10
REMARK H PARENT 10 11
REMARK Flexibility Score: inf
ROOT
ATOM      1  C   UNL     1     161.648 178.664 168.901  1.00  0.00     0.000 C 
ENDROOT
BRANCH   1   2
ATOM      2  C   UNL     1     160.687 177.940 169.861  1.00  0.00     0.000 C 
BRANCH   2   3
ATOM      3  C   UNL     1     159.513 177.270 169.129  1.00  0.00    -0.000 C 
BRANCH   3   4
ATOM      4  C   UNL     1     159.446 177.658 167.642  1.00  0.00    -0.000 C 
BRANCH   4   5
ATOM      5  C   UNL     1     159.548 176.439 166.712  1.00  0.00    -0.003 C 
ATOM      6  C   UNL     1     160.016 176.804 165.303  1.00  0.00     0.004 C 
ENDBRANCH   4   5
ENDBRANCH   3   4
ENDBRANCH   2   3
ENDBRANCH   1   2
BRANCH   1   7
ATOM      7  C   UNL     1     163.110 178.605 169.372  1.00  0.00     0.002 C 
BRANCH   7   8
ATOM      8  C   UNL     1     164.084 178.241 168.243  1.00  0.00     0.028 C 
BRANCH   8   9
ATOM      9  C   UNL     1     163.359 178.166 166.895  1.00  0.00     0.156 C 
BRANCH   9  10
ATOM     10  O   UNL     1     163.302 176.838 166.450  1.00  0.00    -0.396 OA
ATOM     11  H   UNL     1     164.238 176.557 166.273  1.00  0.00     0.210 HD
ENDBRANCH   9  10
ENDBRANCH   8   9
ENDBRANCH   7   8
ENDBRANCH   1   7
TORSDOF 8
ENDMDL
MODEL 6
REMARK VINA RESULT:    -3.097     16.783     17.719
REMARK INTER + INTRA:          -4.893
REMARK INTER:                  -4.598
REMARK INTRA:                  -0.294
REMARK UNBOUND:                -0.438
REMARK SMILES CCCCCCCCCO
REMARK SMILES IDX 6 1 5 2 4 3 3 4 2 5 1 6 7 7 8 8 9 9 10 10
REMARK H PARENT 10 11
REMARK Flexibility Score: inf
ROOT
ATOM      1  C   UNL     1     160.474 161.661 166.111  1.00  0.00     0.000 C 
ENDROOT
BRANCH   1   2
ATOM      2  C   UNL     1     160.984 161.335 164.696  1.00  0.00     0.000 C 
BRANCH   2   3
ATOM      3  C   UNL     1     160.146 162.008 163.597  1.00  0.00    -0.000 C 
BRANCH   3   4
ATOM      4  C   UNL     1     159.260 163.142 164.140  1.00  0.00    -0.000 C 
BRANCH   4   5
ATOM      5  C   UNL     1     159.118 164.305 163.145  1.00  0.00    -0.003 C 
ATOM      6  C   UNL     1     159.842 164.048 161.824  1.00  0.00     0.004 C 
ENDBRANCH   4   5
ENDBRANCH   3   4
ENDBRANCH   2   3
ENDBRANCH   1   2
BRANCH   1   7
ATOM      7  C   UNL     1     161.166 160.820 167.197  1.00  0.00     0.002 C 
BRANCH   7   8
ATOM      8  C   UNL     1     161.642 161.664 168.388  1.00  0.00     0.028 C 
BRANCH   8   9
ATOM      9  C   UNL     1     160.626 162.759 168.728  1.00  0.00     0.156 C 
BRANCH   9  10
ATOM     10  O   UNL     1     161.282 163.885 169.243  1.00  0.00    -0.396 OA
ATOM     11  H   UNL     1     162.220 163.840 168.922  1.00  0.00     0.210 HD
ENDBRANCH   9  10
ENDBRANCH   8   9
ENDBRANCH   7   8
ENDBRANCH   1   7
TORSDOF 8
ENDMDL
MODEL 7
REMARK VINA RESULT:    -3.091     17.078     18.412
REMARK INTER + INTRA:          -4.884
REMARK INTER:                  -4.552
REMARK INTRA:                  -0.332
REMARK UNBOUND:                -0.438
REMARK SMILES CCCCCCCCCO
REMARK SMILES IDX 6 1 5 2 4 3 3 4 2 5 1 6 7 7 8 8 9 9 10 10
REMARK H PARENT 10 11
REMARK Flexibility Score: inf
ROOT
ATOM      1  C   UNL     1     160.802 161.719 165.054  1.00  0.00     0.000 C 
ENDROOT
BRANCH   1   2
ATOM      2  C   UNL     1     160.135 160.755 166.052  1.00  0.00     0.000 C 
BRANCH   2   3
ATOM      3  C   UNL     1     161.039 160.430 167.253  1.00  0.00    -0.000 C 
BRANCH   3   4
ATOM      4  C   UNL     1     161.874 161.639 167.708  1.00  0.00    -0.000 C 
BRANCH   4   5
ATOM      5  C   UNL     1     161.233 162.384 168.889  1.00  0.00    -0.003 C 
ATOM      6  C   UNL     1     160.362 161.479 169.761  1.00  0.00     0.004 C 
ENDBRANCH   4   5
ENDBRANCH   3   4
ENDBRANCH   2   3
ENDBRANCH   1   2
BRANCH   1   7
ATOM      7  C   UNL     1     160.374 161.454 163.601  1.00  0.00     0.002 C 
BRANCH   7   8
ATOM      8  C   UNL     1     159.858 162.715 162.895  1.00  0.00     0.028 C 
BRANCH   8   9
ATOM      9  C   UNL     1     158.929 163.518 163.811  1.00  0.00     0.156 C 
BRANCH   9  10
ATOM     10  O   UNL     1     159.047 164.888 163.540  1.00  0.00    -0.396 OA
ATOM     11  H   UNL     1     158.689 165.028 162.625  1.00  0.00     0.210 HD
ENDBRANCH   9  10
ENDBRANCH   8   9
ENDBRANCH   7   8
ENDBRANCH   1   7
TORSDOF 8
ENDMDL
MODEL 8
REMARK VINA RESULT:    -3.055     21.512     22.654
REMARK INTER + INTRA:          -4.832
REMARK INTER:                  -4.513
REMARK INTRA:                  -0.319
REMARK UNBOUND:                -0.438
REMARK SMILES CCCCCCCCCO
REMARK SMILES IDX 6 1 5 2 4 3 3 4 2 5 1 6 7 7 8 8 9 9 10 10
REMARK H PARENT 10 11
REMARK Flexibility Score: inf
ROOT
ATOM      1  C   UNL     1     161.972 178.649 168.983  1.00  0.00     0.000 C 
ENDROOT
BRANCH   1   2
ATOM      2  C   UNL     1     163.478 178.631 169.299  1.00  0.00     0.000 C 
BRANCH   2   3
ATOM      3  C   UNL     1     164.330 178.212 168.090  1.00  0.00    -0.000 C 
BRANCH   3   4
ATOM      4  C   UNL     1     163.518 178.159 166.785  1.00  0.00    -0.000 C 
BRANCH   4   5
ATOM      5  C   UNL     1     163.995 179.193 165.753  1.00  0.00    -0.003 C 
ATOM      6  C   UNL     1     163.811 178.721 164.311  1.00  0.00     0.004 C 
ENDBRANCH   4   5
ENDBRANCH   3   4
ENDBRANCH   2   3
ENDBRANCH   1   2
BRANCH   1   7
ATOM      7  C   UNL     1     161.135 177.931 170.055  1.00  0.00     0.002 C 
BRANCH   7   8
ATOM      8  C   UNL     1     159.695 177.656 169.599  1.00  0.00     0.028 C 
BRANCH   8   9
ATOM      9  C   UNL     1     159.614 177.541 168.074  1.00  0.00     0.156 C 
BRANCH   9  10
ATOM     10  O   UNL     1     159.631 176.194 167.688  1.00  0.00    -0.396 OA
ATOM     11  H   UNL     1     158.697 175.955 167.450  1.00  0.00     0.210 HD
ENDBRANCH   9  10
ENDBRANCH   8   9
ENDBRANCH   7   8
ENDBRANCH   1   7
TORSDOF 8
ENDMDL
MODEL 9
REMARK VINA RESULT:    -3.011     14.665     15.883
REMARK INTER + INTRA:          -4.769
REMARK INTER:                  -4.049
REMARK INTRA:                  -0.721
REMARK UNBOUND:                -0.438
REMARK SMILES CCCCCCCCCO
REMARK SMILES IDX 6 1 5 2 4 3 3 4 2 5 1 6 7 7 8 8 9 9 10 10
REMARK H PARENT 10 11
REMARK Flexibility Score: inf
ROOT
ATOM      1  C   UNL     1     168.578 174.583 162.658  1.00  0.00     0.000 C 
ENDROOT
BRANCH   1   2
ATOM      2  C   UNL     1     167.076 174.782 162.390  1.00  0.00     0.000 C 
BRANCH   2   3
ATOM      3  C   UNL     1     166.199 173.803 163.188  1.00  0.00    -0.000 C 
BRANCH   3   4
ATOM      4  C   UNL     1     165.511 172.760 162.291  1.00  0.00    -0.000 C 
BRANCH   4   5
ATOM      5  C   UNL     1     166.312 171.452 162.190  1.00  0.00    -0.003 C 
ATOM      6  C   UNL     1     167.126 171.353 160.900  1.00  0.00     0.004 C 
ENDBRANCH   4   5
ENDBRANCH   3   4
ENDBRANCH   2   3
ENDBRANCH   1   2
BRANCH   1   7
ATOM      7  C   UNL     1     168.847 173.682 163.874  1.00  0.00     0.002 C 
BRANCH   7   8
ATOM      8  C   UNL     1     169.669 172.435 163.518  1.00  0.00     0.028 C 
BRANCH   8   9
ATOM      9  C   UNL     1     171.120 172.806 163.196  1.00  0.00     0.156 C 
BRANCH   9  10
ATOM     10  O   UNL     1     171.615 173.702 164.154  1.00  0.00    -0.396 OA
ATOM     11  H   UNL     1     170.832 174.021 164.675  1.00  0.00     0.210 HD
ENDBRANCH   9  10
ENDBRANCH   8   9
ENDBRANCH   7   8
ENDBRANCH   1   7
TORSDOF 8
ENDMDL
