MODEL 1
REMARK VINA RESULT:    -4.016      0.000      0.000
REMARK INTER + INTRA:          -5.859
REMARK INTER:                  -5.190
REMARK INTRA:                  -0.669
REMARK UNBOUND:                -0.669
REMARK SMILES CCO[C@@H]1O[C@H](CO)[C@H](O)[C@H](O)[C@H]1O
REMARK SMILES IDX 4 1 13 2 11 3 9 4 6 5 5 6 3 7 2 8 1 9 14 10 12 12 7 14 8 15
REMARK SMILES IDX 10 17
REMARK H PARENT 14 11 12 13 8 16 10 18
REMARK Flexibility Score: inf
ROOT
ATOM      1  C   UNL     1      21.867  26.052  32.749  1.00  0.00     0.281 C 
ATOM      2  C   UNL     1      20.697  25.066  32.923  1.00  0.00     0.202 C 
ATOM      3  C   UNL     1      19.367  25.716  32.523  1.00  0.00     0.179 C 
ATOM      4  C   UNL     1      19.485  26.350  31.126  1.00  0.00     0.177 C 
ATOM      5  C   UNL     1      20.786  27.179  30.932  1.00  0.00     0.178 C 
ATOM      6  O   UNL     1      21.964  26.546  31.419  1.00  0.00    -0.341 OA
ENDROOT
BRANCH   1   7
ATOM      7  O   UNL     1      21.770  27.106  33.691  1.00  0.00    -0.350 OA
BRANCH   7   8
ATOM      8  C   UNL     1      22.971  27.220  34.427  1.00  0.00     0.160 C 
ATOM      9  C   UNL     1      22.644  27.598  35.864  1.00  0.00     0.035 C 
ENDBRANCH   7   8
ENDBRANCH   1   7
BRANCH   2  10
ATOM     10  O   UNL     1      20.910  23.926  32.127  1.00  0.00    -0.385 OA
ATOM     11  H   UNL     1      21.881  23.896  31.919  1.00  0.00     0.211 HD
ENDBRANCH   2  10
BRANCH   3  12
ATOM     12  O   UNL     1      18.976  26.674  33.474  1.00  0.00    -0.387 OA
ATOM     13  H   UNL     1      18.628  27.455  32.970  1.00  0.00     0.211 HD
ENDBRANCH   3  12
BRANCH   5  14
ATOM     14  C   UNL     1      20.715  28.680  31.307  1.00  0.00     0.191 C 
BRANCH  14  15
ATOM     15  O   UNL     1      19.891  28.923  32.415  1.00  0.00    -0.394 OA
ATOM     16  H   UNL     1      19.747  29.904  32.465  1.00  0.00     0.210 HD
ENDBRANCH  14  15
ENDBRANCH   5  14
BRANCH   4  17
ATOM     17  O   UNL     1      18.355  27.133  30.836  1.00  0.00    -0.387 OA
ATOM     18  H   UNL     1      18.674  28.064  30.710  1.00  0.00     0.211 HD
ENDBRANCH   4  17
TORSDOF 7
ENDMDL
MODEL 2
REMARK VINA RESULT:    -3.873     14.749     16.791
REMARK INTER + INTRA:          -5.675
REMARK INTER:                  -5.154
REMARK INTRA:                  -0.520
REMARK UNBOUND:                -0.669
REMARK SMILES CCO[C@@H]1O[C@H](CO)[C@H](O)[C@H](O)[C@H]1O
REMARK SMILES IDX 4 1 13 2 11 3 9 4 6 5 5 6 3 7 2 8 1 9 14 10 12 12 7 14 8 15
REMARK SMILES IDX 10 17
REMARK H PARENT 14 11 12 13 8 16 10 18
REMARK Flexibility Score: inf
ROOT
ATOM      1  C   UNL     1      23.273  24.320  49.028  1.00  0.00     0.281 C 
ATOM      2  C   UNL     1      22.427  23.146  48.501  1.00  0.00     0.202 C 
ATOM      3  C   UNL     1      23.317  22.066  47.876  1.00  0.00     0.179 C 
ATOM      4  C   UNL     1      24.442  21.676  48.850  1.00  0.00     0.177 C 
ATOM      5  C   UNL     1      25.140  22.899  49.509  1.00  0.00     0.178 C 
ATOM      6  O   UNL     1      24.245  23.903  49.977  1.00  0.00    -0.341 OA
ENDROOT
BRANCH   1   7
ATOM      7  O   UNL     1      23.863  25.026  47.951  1.00  0.00    -0.350 OA
BRANCH   7   8
ATOM      8  C   UNL     1      22.864  25.556  47.103  1.00  0.00     0.160 C 
ATOM      9  C   UNL     1      23.356  26.865  46.506  1.00  0.00     0.035 C 
ENDBRANCH   7   8
ENDBRANCH   1   7
BRANCH   2  10
ATOM     10  O   UNL     1      21.687  22.579  49.555  1.00  0.00    -0.385 OA
ATOM     11  H   UNL     1      20.731  22.613  49.288  1.00  0.00     0.211 HD
ENDBRANCH   2  10
BRANCH   3  12
ATOM     12  O   UNL     1      23.847  22.506  46.652  1.00  0.00    -0.387 OA
ATOM     13  H   UNL     1      23.689  23.485  46.604  1.00  0.00     0.211 HD
ENDBRANCH   3  12
BRANCH   5  14
ATOM     14  C   UNL     1      26.362  23.486  48.763  1.00  0.00     0.191 C 
BRANCH  14  15
ATOM     15  O   UNL     1      26.341  23.211  47.388  1.00  0.00    -0.394 OA
ATOM     16  H   UNL     1      25.392  23.226  47.099  1.00  0.00     0.210 HD
ENDBRANCH  14  15
ENDBRANCH   5  14
BRANCH   4  17
ATOM     17  O   UNL     1      25.389  20.853  48.216  1.00  0.00    -0.387 OA
ATOM     18  H   UNL     1      25.862  20.354  48.931  1.00  0.00     0.211 HD
ENDBRANCH   4  17
TORSDOF 7
ENDMDL
MODEL 3
REMARK VINA RESULT:    -3.870      1.389      4.245
REMARK INTER + INTRA:          -5.671
REMARK INTER:                  -4.889
REMARK INTRA:                  -0.782
REMARK UNBOUND:                -0.669
REMARK SMILES CCO[C@@H]1O[C@H](CO)[C@H](O)[C@H](O)[C@H]1O
REMARK SMILES IDX 4 1 13 2 11 3 9 4 6 5 5 6 3 7 2 8 1 9 14 10 12 12 7 14 8 15
REMARK SMILES IDX 10 17
REMARK H PARENT 14 11 12 13 8 16 10 18
REMARK Flexibility Score: inf
ROOT
ATOM      1  C   UNL     1      20.275  27.589  31.186  1.00  0.00     0.281 C 
ATOM      2  C   UNL     1      20.346  28.715  32.235  1.00  0.00     0.202 C 
ATOM      3  C   UNL     1      20.587  28.144  33.637  1.00  0.00     0.179 C 
ATOM      4  C   UNL     1      21.793  27.189  33.621  1.00  0.00     0.177 C 
ATOM      5  C   UNL     1      21.778  26.195  32.425  1.00  0.00     0.178 C 
ATOM      6  O   UNL     1      21.449  26.788  31.174  1.00  0.00    -0.341 OA
ENDROOT
BRANCH   1   7
ATOM      7  O   UNL     1      19.111  26.806  31.379  1.00  0.00    -0.350 OA
BRANCH   7   8
ATOM      8  C   UNL     1      18.586  26.389  30.135  1.00  0.00     0.160 C 
ATOM      9  C   UNL     1      18.242  24.909  30.207  1.00  0.00     0.035 C 
ENDBRANCH   7   8
ENDBRANCH   1   7
BRANCH   2  10
ATOM     10  O   UNL     1      21.388  29.603  31.914  1.00  0.00    -0.385 OA
ATOM     11  H   UNL     1      22.198  29.281  32.390  1.00  0.00     0.211 HD
ENDBRANCH   2  10
BRANCH   3  12
ATOM     12  O   UNL     1      19.438  27.489  34.111  1.00  0.00    -0.387 OA
ATOM     13  H   UNL     1      19.702  26.553  34.311  1.00  0.00     0.211 HD
ENDBRANCH   3  12
BRANCH   5  14
ATOM     14  C   UNL     1      21.059  24.844  32.655  1.00  0.00     0.191 C 
BRANCH  14  15
ATOM     15  O   UNL     1      19.922  24.966  33.465  1.00  0.00    -0.394 OA
ATOM     16  H   UNL     1      19.947  24.224  34.124  1.00  0.00     0.210 HD
ENDBRANCH  14  15
ENDBRANCH   5  14
BRANCH   4  17
ATOM     17  O   UNL     1      21.895  26.493  34.837  1.00  0.00    -0.387 OA
ATOM     18  H   UNL     1      20.993  26.501  35.251  1.00  0.00     0.211 HD
ENDBRANCH   4  17
TORSDOF 7
ENDMDL
MODEL 4
REMARK VINA RESULT:    -3.870      2.000      3.611
REMARK INTER + INTRA:          -5.670
REMARK INTER:                  -5.287
REMARK INTRA:                  -0.383
REMARK UNBOUND:                -0.669
REMARK SMILES CCO[C@@H]1O[C@H](CO)[C@H](O)[C@H](O)[C@H]1O
REMARK SMILES IDX 4 1 13 2 11 3 9 4 6 5 5 6 3 7 2 8 1 9 14 10 12 12 7 14 8 15
REMARK SMILES IDX 10 17
REMARK H PARENT 14 11 12 13 8 16 10 18
REMARK Flexibility Score: inf
ROOT
ATOM      1  C   UNL     1      19.920  27.214  33.055  1.00  0.00     0.281 C 
ATOM      2  C   UNL     1      19.988  27.791  31.629  1.00  0.00     0.202 C 
ATOM      3  C   UNL     1      21.402  28.290  31.306  1.00  0.00     0.179 C 
ATOM      4  C   UNL     1      22.435  27.193  31.618  1.00  0.00     0.177 C 
ATOM      5  C   UNL     1      22.206  26.501  32.991  1.00  0.00     0.178 C 
ATOM      6  O   UNL     1      20.850  26.158  33.256  1.00  0.00    -0.341 OA
ENDROOT
BRANCH   1   7
ATOM      7  O   UNL     1      20.085  28.245  34.013  1.00  0.00    -0.350 OA
BRANCH   7   8
ATOM      8  C   UNL     1      18.827  28.745  34.421  1.00  0.00     0.160 C 
ATOM      9  C   UNL     1      18.883  29.099  35.899  1.00  0.00     0.035 C 
ENDBRANCH   7   8
ENDBRANCH   1   7
BRANCH   2  10
ATOM     10  O   UNL     1      19.624  26.804  30.696  1.00  0.00    -0.385 OA
ATOM     11  H   UNL     1      20.397  26.684  30.085  1.00  0.00     0.211 HD
ENDBRANCH   2  10
BRANCH   3  12
ATOM     12  O   UNL     1      21.690  29.465  32.020  1.00  0.00    -0.387 OA
ATOM     13  H   UNL     1      21.163  30.194  31.601  1.00  0.00     0.211 HD
ENDBRANCH   3  12
BRANCH   5  14
ATOM     14  C   UNL     1      22.913  27.134  34.214  1.00  0.00     0.191 C 
BRANCH  14  15
ATOM     15  O   UNL     1      22.301  26.797  35.429  1.00  0.00    -0.394 OA
ATOM     16  H   UNL     1      23.022  26.543  36.062  1.00  0.00     0.210 HD
ENDBRANCH  14  15
ENDBRANCH   5  14
BRANCH   4  17
ATOM     17  O   UNL     1      23.742  27.702  31.536  1.00  0.00    -0.387 OA
ATOM     18  H   UNL     1      24.349  26.923  31.430  1.00  0.00     0.211 HD
ENDBRANCH   4  17
TORSDOF 7
ENDMDL
MODEL 5
REMARK VINA RESULT:    -3.803     14.767     17.155
REMARK INTER + INTRA:          -5.584
REMARK INTER:                  -4.873
REMARK INTRA:                  -0.712
REMARK UNBOUND:                -0.669
REMARK SMILES CCO[C@@H]1O[C@H](CO)[C@H](O)[C@H](O)[C@H]1O
REMARK SMILES IDX 4 1 13 2 11 3 9 4 6 5 5 6 3 7 2 8 1 9 14 10 12 12 7 14 8 15
REMARK SMILES IDX 10 17
REMARK H PARENT 14 11 12 13 8 16 10 18
REMARK Flexibility Score: inf
ROOT
ATOM      1  C   UNL     1      22.986  22.633  48.677  1.00  0.00     0.281 C 
ATOM      2  C   UNL     1      24.120  21.590  48.674  1.00  0.00     0.202 C 
ATOM      3  C   UNL     1      25.493  22.272  48.716  1.00  0.00     0.179 C 
ATOM      4  C   UNL     1      25.544  23.291  49.868  1.00  0.00     0.177 C 
ATOM      5  C   UNL     1      24.282  24.195  49.949  1.00  0.00     0.178 C 
ATOM      6  O   UNL     1      23.050  23.497  49.803  1.00  0.00    -0.341 OA
ENDROOT
BRANCH   1   7
ATOM      7  O   UNL     1      22.981  23.360  47.461  1.00  0.00    -0.350 OA
BRANCH   7   8
ATOM      8  C   UNL     1      21.697  23.898  47.215  1.00  0.00     0.160 C 
ATOM      9  C   UNL     1      21.826  25.094  46.284  1.00  0.00     0.035 C 
ENDBRANCH   7   8
ENDBRANCH   1   7
BRANCH   2  10
ATOM     10  O   UNL     1      23.993  20.743  49.790  1.00  0.00    -0.385 OA
ATOM     11  H   UNL     1      23.531  21.265  50.498  1.00  0.00     0.211 HD
ENDBRANCH   2  10
BRANCH   3  12
ATOM     12  O   UNL     1      25.777  22.892  47.488  1.00  0.00    -0.387 OA
ATOM     13  H   UNL     1      26.740  23.132  47.502  1.00  0.00     0.211 HD
ENDBRANCH   3  12
BRANCH   5  14
ATOM     14  C   UNL     1      24.321  25.516  49.143  1.00  0.00     0.191 C 
BRANCH  14  15
ATOM     15  O   UNL     1      24.890  25.358  47.871  1.00  0.00    -0.394 OA
ATOM     16  H   UNL     1      24.718  24.423  47.585  1.00  0.00     0.210 HD
ENDBRANCH  14  15
ENDBRANCH   5  14
BRANCH   4  17
ATOM     17  O   UNL     1      26.707  24.076  49.788  1.00  0.00    -0.387 OA
ATOM     18  H   UNL     1      26.792  24.370  48.844  1.00  0.00     0.211 HD
ENDBRANCH   4  17
TORSDOF 7
ENDMDL
MODEL 6
REMARK VINA RESULT:    -3.741      1.419      2.417
REMARK INTER + INTRA:          -5.504
REMARK INTER:                  -4.732
REMARK INTRA:                  -0.772
REMARK UNBOUND:                -0.669
REMARK SMILES CCO[C@@H]1O[C@H](CO)[C@H](O)[C@H](O)[C@H]1O
REMARK SMILES IDX 4 1 13 2 11 3 9 4 6 5 5 6 3 7 2 8 1 9 14 10 12 12 7 14 8 15
REMARK SMILES IDX 10 17
REMARK H PARENT 14 11 12 13 8 16 10 18
REMARK Flexibility Score: inf
ROOT
ATOM      1  C   UNL     1      22.490  27.841  32.465  1.00  0.00     0.281 C 
ATOM      2  C   UNL     1      22.545  27.099  31.116  1.00  0.00     0.202 C 
ATOM      3  C   UNL     1      21.181  26.490  30.769  1.00  0.00     0.179 C 
ATOM      4  C   UNL     1      20.079  27.558  30.883  1.00  0.00     0.177 C 
ATOM      5  C   UNL     1      20.183  28.417  32.174  1.00  0.00     0.178 C 
ATOM      6  O   UNL     1      21.500  28.862  32.480  1.00  0.00    -0.341 OA
ENDROOT
BRANCH   1   7
ATOM      7  O   UNL     1      22.308  26.922  33.527  1.00  0.00    -0.350 OA
BRANCH   7   8
ATOM      8  C   UNL     1      23.169  27.238  34.603  1.00  0.00     0.160 C 
ATOM      9  C   UNL     1      22.335  27.641  35.810  1.00  0.00     0.035 C 
ENDBRANCH   7   8
ENDBRANCH   1   7
BRANCH   2  10
ATOM     10  O   UNL     1      22.925  27.989  30.096  1.00  0.00    -0.385 OA
ATOM     11  H   UNL     1      23.911  28.090  30.153  1.00  0.00     0.211 HD
ENDBRANCH   2  10
BRANCH   3  12
ATOM     12  O   UNL     1      20.900  25.393  31.600  1.00  0.00    -0.387 OA
ATOM     13  H   UNL     1      19.938  25.450  31.837  1.00  0.00     0.211 HD
ENDBRANCH   3  12
BRANCH   5  14
ATOM     14  C   UNL     1      19.424  27.895  33.418  1.00  0.00     0.191 C 
BRANCH  14  15
ATOM     15  O   UNL     1      19.355  26.495  33.462  1.00  0.00    -0.394 OA
ATOM     16  H   UNL     1      19.713  26.155  32.601  1.00  0.00     0.210 HD
ENDBRANCH  14  15
ENDBRANCH   5  14
BRANCH   4  17
ATOM     17  O   UNL     1      18.805  26.974  30.782  1.00  0.00    -0.387 OA
ATOM     18  H   UNL     1      18.309  27.219  31.606  1.00  0.00     0.211 HD
ENDBRANCH   4  17
TORSDOF 7
ENDMDL
MODEL 7
REMARK VINA RESULT:    -3.703      1.898      2.926
REMARK INTER + INTRA:          -5.454
REMARK INTER:                  -4.728
REMARK INTRA:                  -0.726
REMARK UNBOUND:                -0.669
REMARK SMILES CCO[C@@H]1O[C@H](CO)[C@H](O)[C@H](O)[C@H]1O
REMARK SMILES IDX 4 1 13 2 11 3 9 4 6 5 5 6 3 7 2 8 1 9 14 10 12 12 7 14 8 15
REMARK SMILES IDX 10 17
REMARK H PARENT 14 11 12 13 8 16 10 18
REMARK Flexibility Score: inf
ROOT
ATOM      1  C   UNL     1      20.817  28.157  33.541  1.00  0.00     0.281 C 
ATOM      2  C   UNL     1      21.912  27.088  33.717  1.00  0.00     0.202 C 
ATOM      3  C   UNL     1      21.668  25.894  32.787  1.00  0.00     0.179 C 
ATOM      4  C   UNL     1      21.457  26.382  31.343  1.00  0.00     0.177 C 
ATOM      5  C   UNL     1      20.490  27.595  31.236  1.00  0.00     0.178 C 
ATOM      6  O   UNL     1      20.722  28.617  32.199  1.00  0.00    -0.341 OA
ENDROOT
BRANCH   1   7
ATOM      7  O   UNL     1      19.574  27.674  34.017  1.00  0.00    -0.350 OA
BRANCH   7   8
ATOM      8  C   UNL     1      18.765  28.746  34.458  1.00  0.00     0.160 C 
ATOM      9  C   UNL     1      19.090  29.055  35.911  1.00  0.00     0.035 C 
ENDBRANCH   7   8
ENDBRANCH   1   7
BRANCH   2  10
ATOM     10  O   UNL     1      23.173  27.644  33.433  1.00  0.00    -0.385 OA
ATOM     11  H   UNL     1      23.798  26.885  33.293  1.00  0.00     0.211 HD
ENDBRANCH   2  10
BRANCH   3  12
ATOM     12  O   UNL     1      20.567  25.140  33.225  1.00  0.00    -0.387 OA
ATOM     13  H   UNL     1      20.370  25.428  34.154  1.00  0.00     0.211 HD
ENDBRANCH   3  12
BRANCH   5  14
ATOM     14  C   UNL     1      18.987  27.271  31.056  1.00  0.00     0.191 C 
BRANCH  14  15
ATOM     15  O   UNL     1      18.610  26.078  31.689  1.00  0.00    -0.394 OA
ATOM     16  H   UNL     1      18.778  26.195  32.661  1.00  0.00     0.210 HD
ENDBRANCH  14  15
ENDBRANCH   5  14
BRANCH   4  17
ATOM     17  O   UNL     1      21.018  25.330  30.520  1.00  0.00    -0.387 OA
ATOM     18  H   UNL     1      20.845  24.553  31.113  1.00  0.00     0.211 HD
ENDBRANCH   4  17
TORSDOF 7
ENDMDL
MODEL 8
REMARK VINA RESULT:    -3.620      1.420      3.453
REMARK INTER + INTRA:          -5.348
REMARK INTER:                  -4.630
REMARK INTRA:                  -0.719
REMARK UNBOUND:                -0.669
REMARK SMILES CCO[C@@H]1O[C@H](CO)[C@H](O)[C@H](O)[C@H]1O
REMARK SMILES IDX 4 1 13 2 11 3 9 4 6 5 5 6 3 7 2 8 1 9 14 10 12 12 7 14 8 15
REMARK SMILES IDX 10 17
REMARK H PARENT 14 11 12 13 8 16 10 18
REMARK Flexibility Score: inf
ROOT
ATOM      1  C   UNL     1      21.582  28.231  31.603  1.00  0.00     0.281 C 
ATOM      2  C   UNL     1      21.987  28.055  33.079  1.00  0.00     0.202 C 
ATOM      3  C   UNL     1      21.173  26.938  33.742  1.00  0.00     0.179 C 
ATOM      4  C   UNL     1      21.237  25.658  32.890  1.00  0.00     0.177 C 
ATOM      5  C   UNL     1      21.016  25.915  31.373  1.00  0.00     0.178 C 
ATOM      6  O   UNL     1      21.732  27.031  30.856  1.00  0.00    -0.341 OA
ENDROOT
BRANCH   1   7
ATOM      7  O   UNL     1      20.265  28.744  31.509  1.00  0.00    -0.350 OA
BRANCH   7   8
ATOM      8  C   UNL     1      20.194  29.738  30.507  1.00  0.00     0.160 C 
ATOM      9  C   UNL     1      21.324  30.736  30.711  1.00  0.00     0.035 C 
ENDBRANCH   7   8
ENDBRANCH   1   7
BRANCH   2  10
ATOM     10  O   UNL     1      23.355  27.742  33.165  1.00  0.00    -0.385 OA
ATOM     11  H   UNL     1      23.833  28.360  32.553  1.00  0.00     0.211 HD
ENDBRANCH   2  10
BRANCH   3  12
ATOM     12  O   UNL     1      19.841  27.342  33.937  1.00  0.00    -0.387 OA
ATOM     13  H   UNL     1      19.519  26.886  34.757  1.00  0.00     0.211 HD
ENDBRANCH   3  12
BRANCH   5  14
ATOM     14  C   UNL     1      19.555  25.853  30.864  1.00  0.00     0.191 C 
BRANCH  14  15
ATOM     15  O   UNL     1      18.630  26.302  31.816  1.00  0.00    -0.394 OA
ATOM     16  H   UNL     1      19.083  26.283  32.700  1.00  0.00     0.210 HD
ENDBRANCH  14  15
ENDBRANCH   5  14
BRANCH   4  17
ATOM     17  O   UNL     1      20.327  24.698  33.364  1.00  0.00    -0.387 OA
ATOM     18  H   UNL     1      20.667  23.811  33.076  1.00  0.00     0.211 HD
ENDBRANCH   4  17
TORSDOF 7
ENDMDL
MODEL 9
REMARK VINA RESULT:    -3.561      1.672      3.774
REMARK INTER + INTRA:          -5.271
REMARK INTER:                  -4.521
REMARK INTRA:                  -0.751
REMARK UNBOUND:                -0.669
REMARK SMILES CCO[C@@H]1O[C@H](CO)[C@H](O)[C@H](O)[C@H]1O
REMARK SMILES IDX 4 1 13 2 11 3 9 4 6 5 5 6 3 7 2 8 1 9 14 10 12 12 7 14 8 15
REMARK SMILES IDX 10 17
REMARK H PARENT 14 11 12 13 8 16 10 18
REMARK Flexibility Score: inf
ROOT
ATOM      1  C   UNL     1      20.441  27.297  30.822  1.00  0.00     0.281 C 
ATOM      2  C   UNL     1      18.995  27.425  31.337  1.00  0.00     0.202 C 
ATOM      3  C   UNL     1      18.947  27.340  32.867  1.00  0.00     0.179 C 
ATOM      4  C   UNL     1      19.950  28.330  33.484  1.00  0.00     0.177 C 
ATOM      5  C   UNL     1      21.345  28.304  32.798  1.00  0.00     0.178 C 
ATOM      6  O   UNL     1      21.300  28.285  31.376  1.00  0.00    -0.341 OA
ENDROOT
BRANCH   1   7
ATOM      7  O   UNL     1      20.933  25.989  31.050  1.00  0.00    -0.350 OA
BRANCH   7   8
ATOM      8  C   UNL     1      20.501  25.115  30.027  1.00  0.00     0.160 C 
ATOM      9  C   UNL     1      20.173  23.758  30.633  1.00  0.00     0.035 C 
ENDBRANCH   7   8
ENDBRANCH   1   7
BRANCH   2  10
ATOM     10  O   UNL     1      18.448  28.654  30.926  1.00  0.00    -0.385 OA
ATOM     11  H   UNL     1      18.235  29.165  31.751  1.00  0.00     0.211 HD
ENDBRANCH   2  10
BRANCH   3  12
ATOM     12  O   UNL     1      19.209  26.029  33.300  1.00  0.00    -0.387 OA
ATOM     13  H   UNL     1      18.740  25.419  32.673  1.00  0.00     0.211 HD
ENDBRANCH   3  12
BRANCH   5  14
ATOM     14  C   UNL     1      22.385  27.313  33.377  1.00  0.00     0.191 C 
BRANCH  14  15
ATOM     15  O   UNL     1      21.792  26.180  33.951  1.00  0.00    -0.394 OA
ATOM     16  H   UNL     1      21.281  26.484  34.746  1.00  0.00     0.210 HD
ENDBRANCH  14  15
ENDBRANCH   5  14
BRANCH   4  17
ATOM     17  O   UNL     1      20.078  28.114  34.867  1.00  0.00    -0.387 OA
ATOM     18  H   UNL     1      20.076  29.007  35.300  1.00  0.00     0.211 HD
ENDBRANCH   4  17
TORSDOF 7
ENDMDL
