MODEL 1
REMARK VINA RESULT:    -5.142      0.000      0.000
REMARK INTER + INTRA:          -5.719
REMARK INTER:                  -5.593
REMARK INTRA:                  -0.126
REMARK UNBOUND:                -0.126
REMARK SMILES Cc1ccc(C(C)C)cc1O
REMARK SMILES IDX 1 1 2 2 10 3 9 4 5 5 4 6 3 7 11 8 6 10 7 11 8 12
REMARK H PARENT 11 9
REMARK Flexibility Score: inf
ROOT
ATOM      1  C   UNL     1       3.032  -7.471  26.329  1.00  0.00     0.048 C 
ATOM      2  C   UNL     1       2.597  -6.513  25.257  1.00  0.00    -0.009 A 
ATOM      3  C   UNL     1       1.429  -5.749  25.421  1.00  0.00     0.118 A 
ATOM      4  C   UNL     1       1.029  -4.856  24.416  1.00  0.00     0.050 A 
ATOM      5  C   UNL     1       1.785  -4.714  23.239  1.00  0.00    -0.042 A 
ATOM      6  C   UNL     1       2.952  -5.483  23.085  1.00  0.00     0.004 A 
ATOM      7  C   UNL     1       3.353  -6.372  24.083  1.00  0.00     0.007 A 
ENDROOT
BRANCH   3   8
ATOM      8  O   UNL     1       0.667  -5.878  26.582  1.00  0.00    -0.508 OA
ATOM      9  H   UNL     1      -0.254  -6.299  26.569  1.00  0.00     0.293 HD
ENDBRANCH   3   8
BRANCH   5  10
ATOM     10  C   UNL     1       1.337  -3.743  22.162  1.00  0.00     0.013 C 
ATOM     11  C   UNL     1       2.317  -3.737  20.982  1.00  0.00     0.012 C 
ATOM     12  C   UNL     1      -0.088  -4.057  21.693  1.00  0.00     0.012 C 
ENDBRANCH   5  10
TORSDOF 2
ENDMDL
MODEL 2
REMARK VINA RESULT:    -5.119      1.700      2.397
REMARK INTER + INTRA:          -5.694
REMARK INTER:                  -5.569
REMARK INTRA:                  -0.125
REMARK UNBOUND:                -0.126
REMARK SMILES Cc1ccc(C(C)C)cc1O
REMARK SMILES IDX 1 1 2 2 10 3 9 4 5 5 4 6 3 7 11 8 6 10 7 11 8 12
REMARK H PARENT 11 9
REMARK Flexibility Score: inf
ROOT
ATOM      1  C   UNL     1       3.174  -7.931  26.613  1.00  0.00     0.048 C 
ATOM      2  C   UNL     1       2.629  -6.891  25.677  1.00  0.00    -0.009 A 
ATOM      3  C   UNL     1       3.392  -6.455  24.579  1.00  0.00     0.118 A 
ATOM      4  C   UNL     1       2.877  -5.483  23.710  1.00  0.00     0.050 A 
ATOM      5  C   UNL     1       1.601  -4.934  23.921  1.00  0.00    -0.042 A 
ATOM      6  C   UNL     1       0.845  -5.376  25.023  1.00  0.00     0.004 A 
ATOM      7  C   UNL     1       1.354  -6.344  25.890  1.00  0.00     0.007 A 
ENDROOT
BRANCH   3   8
ATOM      8  O   UNL     1       4.661  -6.990  24.355  1.00  0.00    -0.508 OA
ATOM      9  H   UNL     1       4.787  -7.949  24.053  1.00  0.00     0.293 HD
ENDBRANCH   3   8
BRANCH   5  10
ATOM     10  C   UNL     1       1.059  -3.883  22.971  1.00  0.00     0.013 C 
ATOM     11  C   UNL     1      -0.091  -4.443  22.124  1.00  0.00     0.012 C 
ATOM     12  C   UNL     1       0.623  -2.624  23.729  1.00  0.00     0.012 C 
ENDBRANCH   5  10
TORSDOF 2
ENDMDL
MODEL 3
REMARK VINA RESULT:    -4.999     15.664     16.414
REMARK INTER + INTRA:          -5.564
REMARK INTER:                  -5.438
REMARK INTRA:                  -0.126
REMARK UNBOUND:                -0.126
REMARK SMILES Cc1ccc(C(C)C)cc1O
REMARK SMILES IDX 1 1 2 2 10 3 9 4 5 5 4 6 3 7 11 8 6 10 7 11 8 12
REMARK H PARENT 11 9
REMARK Flexibility Score: inf
ROOT
ATOM      1  C   UNL     1      16.069  -2.216  33.871  1.00  0.00     0.048 C 
ATOM      2  C   UNL     1      16.174  -2.645  32.435  1.00  0.00    -0.009 A 
ATOM      3  C   UNL     1      16.431  -1.697  31.429  1.00  0.00     0.118 A 
ATOM      4  C   UNL     1      16.527  -2.105  30.090  1.00  0.00     0.050 A 
ATOM      5  C   UNL     1      16.369  -3.456  29.738  1.00  0.00    -0.042 A 
ATOM      6  C   UNL     1      16.112  -4.396  30.752  1.00  0.00     0.004 A 
ATOM      7  C   UNL     1      16.016  -3.995  32.085  1.00  0.00     0.007 A 
ENDROOT
BRANCH   3   8
ATOM      8  O   UNL     1      16.590  -0.352  31.762  1.00  0.00    -0.508 OA
ATOM      9  H   UNL     1      16.800   0.348  31.060  1.00  0.00     0.293 HD
ENDBRANCH   3   8
BRANCH   5  10
ATOM     10  C   UNL     1      16.476  -3.879  28.285  1.00  0.00     0.013 C 
ATOM     11  C   UNL     1      17.483  -3.004  27.527  1.00  0.00     0.012 C 
ATOM     12  C   UNL     1      16.838  -5.364  28.167  1.00  0.00     0.012 C 
ENDBRANCH   5  10
TORSDOF 2
ENDMDL
MODEL 4
REMARK VINA RESULT:    -4.977      2.028      4.666
REMARK INTER + INTRA:          -5.540
REMARK INTER:                  -5.424
REMARK INTRA:                  -0.117
REMARK UNBOUND:                -0.126
REMARK SMILES Cc1ccc(C(C)C)cc1O
REMARK SMILES IDX 1 1 2 2 10 3 9 4 5 5 4 6 3 7 11 8 6 10 7 11 8 12
REMARK H PARENT 11 9
REMARK Flexibility Score: inf
ROOT
ATOM      1  C   UNL     1      -0.125  -3.760  21.539  1.00  0.00     0.048 C 
ATOM      2  C   UNL     1       0.746  -4.400  22.582  1.00  0.00    -0.009 A 
ATOM      3  C   UNL     1       2.071  -4.755  22.278  1.00  0.00     0.118 A 
ATOM      4  C   UNL     1       2.878  -5.353  23.257  1.00  0.00     0.050 A 
ATOM      5  C   UNL     1       2.378  -5.603  24.546  1.00  0.00    -0.042 A 
ATOM      6  C   UNL     1       1.050  -5.244  24.840  1.00  0.00     0.004 A 
ATOM      7  C   UNL     1       0.244  -4.649  23.869  1.00  0.00     0.007 A 
ENDROOT
BRANCH   3   8
ATOM      8  O   UNL     1       2.584  -4.514  21.003  1.00  0.00    -0.508 OA
ATOM      9  H   UNL     1       1.977  -4.320  20.215  1.00  0.00     0.293 HD
ENDBRANCH   3   8
BRANCH   5  10
ATOM     10  C   UNL     1       3.265  -6.251  25.592  1.00  0.00     0.013 C 
ATOM     11  C   UNL     1       2.668  -7.577  26.079  1.00  0.00     0.012 C 
ATOM     12  C   UNL     1       4.690  -6.449  25.063  1.00  0.00     0.012 C 
ENDBRANCH   5  10
TORSDOF 2
ENDMDL
MODEL 5
REMARK VINA RESULT:    -4.948     13.883     15.050
REMARK INTER + INTRA:          -5.509
REMARK INTER:                  -5.387
REMARK INTRA:                  -0.121
REMARK UNBOUND:                -0.126
REMARK SMILES Cc1ccc(C(C)C)cc1O
REMARK SMILES IDX 1 1 2 2 10 3 9 4 5 5 4 6 3 7 11 8 6 10 7 11 8 12
REMARK H PARENT 11 9
REMARK Flexibility Score: inf
ROOT
ATOM      1  C   UNL     1      15.580  -7.512  28.421  1.00  0.00     0.048 C 
ATOM      2  C   UNL     1      15.905  -7.355  26.963  1.00  0.00    -0.009 A 
ATOM      3  C   UNL     1      17.240  -7.205  26.547  1.00  0.00     0.118 A 
ATOM      4  C   UNL     1      17.536  -7.059  25.184  1.00  0.00     0.050 A 
ATOM      5  C   UNL     1      16.511  -7.059  24.222  1.00  0.00    -0.042 A 
ATOM      6  C   UNL     1      15.179  -7.210  24.649  1.00  0.00     0.004 A 
ATOM      7  C   UNL     1      14.880  -7.356  26.004  1.00  0.00     0.007 A 
ENDROOT
BRANCH   3   8
ATOM      8  O   UNL     1      18.268  -7.202  27.489  1.00  0.00    -0.508 OA
ATOM      9  H   UNL     1      19.162  -6.765  27.298  1.00  0.00     0.293 HD
ENDBRANCH   3   8
BRANCH   5  10
ATOM     10  C   UNL     1      16.850  -6.900  22.752  1.00  0.00     0.013 C 
ATOM     11  C   UNL     1      15.966  -5.833  22.094  1.00  0.00     0.012 C 
ATOM     12  C   UNL     1      18.337  -6.579  22.559  1.00  0.00     0.012 C 
ENDBRANCH   5  10
TORSDOF 2
ENDMDL
MODEL 6
REMARK VINA RESULT:    -4.904     14.800     15.910
REMARK INTER + INTRA:          -5.461
REMARK INTER:                  -5.335
REMARK INTRA:                  -0.126
REMARK UNBOUND:                -0.126
REMARK SMILES Cc1ccc(C(C)C)cc1O
REMARK SMILES IDX 1 1 2 2 10 3 9 4 5 5 4 6 3 7 11 8 6 10 7 11 8 12
REMARK H PARENT 11 9
REMARK Flexibility Score: inf
ROOT
ATOM      1  C   UNL     1      17.952  -6.021  23.339  1.00  0.00     0.048 C 
ATOM      2  C   UNL     1      17.554  -5.995  24.787  1.00  0.00    -0.009 A 
ATOM      3  C   UNL     1      17.539  -7.183  25.539  1.00  0.00     0.118 A 
ATOM      4  C   UNL     1      17.166  -7.151  26.891  1.00  0.00     0.050 A 
ATOM      5  C   UNL     1      16.804  -5.941  27.507  1.00  0.00    -0.042 A 
ATOM      6  C   UNL     1      16.821  -4.759  26.746  1.00  0.00     0.004 A 
ATOM      7  C   UNL     1      17.192  -4.786  25.400  1.00  0.00     0.007 A 
ENDROOT
BRANCH   3   8
ATOM      8  O   UNL     1      17.896  -8.392  24.942  1.00  0.00    -0.508 OA
ATOM      9  H   UNL     1      18.676  -8.942  25.280  1.00  0.00     0.293 HD
ENDBRANCH   3   8
BRANCH   5  10
ATOM     10  C   UNL     1      16.402  -5.925  28.970  1.00  0.00     0.013 C 
ATOM     11  C   UNL     1      16.272  -4.489  29.492  1.00  0.00     0.012 C 
ATOM     12  C   UNL     1      15.107  -6.714  29.197  1.00  0.00     0.012 C 
ENDBRANCH   5  10
TORSDOF 2
ENDMDL
MODEL 7
REMARK VINA RESULT:    -4.883     13.256     14.463
REMARK INTER + INTRA:          -5.437
REMARK INTER:                  -5.311
REMARK INTRA:                  -0.127
REMARK UNBOUND:                -0.126
REMARK SMILES Cc1ccc(C(C)C)cc1O
REMARK SMILES IDX 1 1 2 2 10 3 9 4 5 5 4 6 3 7 11 8 6 10 7 11 8 12
REMARK H PARENT 11 9
REMARK Flexibility Score: inf
ROOT
ATOM      1  C   UNL     1      17.579  -7.159  25.746  1.00  0.00     0.048 C 
ATOM      2  C   UNL     1      16.789  -7.108  24.470  1.00  0.00    -0.009 A 
ATOM      3  C   UNL     1      17.425  -6.803  23.254  1.00  0.00     0.118 A 
ATOM      4  C   UNL     1      16.681  -6.756  22.066  1.00  0.00     0.050 A 
ATOM      5  C   UNL     1      15.299  -7.011  22.074  1.00  0.00    -0.042 A 
ATOM      6  C   UNL     1      14.671  -7.315  23.296  1.00  0.00     0.004 A 
ATOM      7  C   UNL     1      15.409  -7.363  24.480  1.00  0.00     0.007 A 
ENDROOT
BRANCH   3   8
ATOM      8  O   UNL     1      18.796  -6.547  23.229  1.00  0.00    -0.508 OA
ATOM      9  H   UNL     1      19.280  -6.326  22.366  1.00  0.00     0.293 HD
ENDBRANCH   3   8
BRANCH   5  10
ATOM     10  C   UNL     1      14.509  -6.956  20.780  1.00  0.00     0.013 C 
ATOM     11  C   UNL     1      15.181  -7.796  19.687  1.00  0.00     0.012 C 
ATOM     12  C   UNL     1      13.057  -7.396  20.999  1.00  0.00     0.012 C 
ENDBRANCH   5  10
TORSDOF 2
ENDMDL
MODEL 8
REMARK VINA RESULT:    -4.869      4.525      6.453
REMARK INTER + INTRA:          -5.422
REMARK INTER:                  -5.296
REMARK INTRA:                  -0.127
REMARK UNBOUND:                -0.126
REMARK SMILES Cc1ccc(C(C)C)cc1O
REMARK SMILES IDX 1 1 2 2 10 3 9 4 5 5 4 6 3 7 11 8 6 10 7 11 8 12
REMARK H PARENT 11 9
REMARK Flexibility Score: inf
ROOT
ATOM      1  C   UNL     1       0.379  -3.756  21.318  1.00  0.00     0.048 C 
ATOM      2  C   UNL     1       1.076  -2.500  20.880  1.00  0.00    -0.009 A 
ATOM      3  C   UNL     1       1.461  -2.334  19.538  1.00  0.00     0.118 A 
ATOM      4  C   UNL     1       2.111  -1.159  19.136  1.00  0.00     0.050 A 
ATOM      5  C   UNL     1       2.386  -0.138  20.061  1.00  0.00    -0.042 A 
ATOM      6  C   UNL     1       1.998  -0.313  21.402  1.00  0.00     0.004 A 
ATOM      7  C   UNL     1       1.350  -1.481  21.806  1.00  0.00     0.007 A 
ENDROOT
BRANCH   3   8
ATOM      8  O   UNL     1       1.195  -3.339  18.607  1.00  0.00    -0.508 OA
ATOM      9  H   UNL     1       1.889  -3.631  17.928  1.00  0.00     0.293 HD
ENDBRANCH   3   8
BRANCH   5  10
ATOM     10  C   UNL     1       3.092   1.127  19.609  1.00  0.00     0.013 C 
ATOM     11  C   UNL     1       2.369   1.766  18.416  1.00  0.00     0.012 C 
ATOM     12  C   UNL     1       3.235   2.124  20.765  1.00  0.00     0.012 C 
ENDBRANCH   5  10
TORSDOF 2
ENDMDL
MODEL 9
REMARK VINA RESULT:    -4.848      1.201      4.468
REMARK INTER + INTRA:          -5.400
REMARK INTER:                  -5.273
REMARK INTRA:                  -0.127
REMARK UNBOUND:                -0.126
REMARK SMILES Cc1ccc(C(C)C)cc1O
REMARK SMILES IDX 1 1 2 2 10 3 9 4 5 5 4 6 3 7 11 8 6 10 7 11 8 12
REMARK H PARENT 11 9
REMARK Flexibility Score: inf
ROOT
ATOM      1  C   UNL     1       1.729  -4.281  22.370  1.00  0.00     0.048 C 
ATOM      2  C   UNL     1       2.091  -5.165  23.529  1.00  0.00    -0.009 A 
ATOM      3  C   UNL     1       1.205  -5.314  24.611  1.00  0.00     0.118 A 
ATOM      4  C   UNL     1       1.550  -6.141  25.690  1.00  0.00     0.050 A 
ATOM      5  C   UNL     1       2.776  -6.828  25.705  1.00  0.00    -0.042 A 
ATOM      6  C   UNL     1       3.655  -6.673  24.618  1.00  0.00     0.004 A 
ATOM      7  C   UNL     1       3.316  -5.850  23.543  1.00  0.00     0.007 A 
ENDROOT
BRANCH   3   8
ATOM      8  O   UNL     1      -0.015  -4.639  24.611  1.00  0.00    -0.508 OA
ATOM      9  H   UNL     1      -0.421  -4.274  23.757  1.00  0.00     0.293 HD
ENDBRANCH   3   8
BRANCH   5  10
ATOM     10  C   UNL     1       3.132  -7.719  26.880  1.00  0.00     0.013 C 
ATOM     11  C   UNL     1       4.560  -8.263  26.749  1.00  0.00     0.012 C 
ATOM     12  C   UNL     1       2.944  -6.980  28.211  1.00  0.00     0.012 C 
ENDBRANCH   5  10
TORSDOF 2
ENDMDL
