MODEL 1
REMARK VINA RESULT:    -3.785      0.000      0.000
REMARK INTER + INTRA:          -6.308
REMARK INTER:                  -5.777
REMARK INTRA:                  -0.532
REMARK UNBOUND:                -0.532
REMARK SMILES CCCCCCCCCCC(=O)[O-]
REMARK SMILES IDX 7 1 8 2 9 3 10 4 11 5 12 6 13 7 6 8 5 9 4 10 3 11 2 12 1 13
REMARK H PARENT
REMARK Flexibility Score: inf
ROOT
ATOM      1  C   UNL     1       5.938  43.778  10.018  1.00  0.00     0.000 C 
ENDROOT
BRANCH   1   2
ATOM      2  C   UNL     1       7.449  44.087   9.994  1.00  0.00     0.000 C 
BRANCH   2   3
ATOM      3  C   UNL     1       8.256  43.504  11.172  1.00  0.00     0.006 C 
BRANCH   3   4
ATOM      4  C   UNL     1       7.704  42.182  11.727  1.00  0.00     0.053 C 
BRANCH   4   5
ATOM      5  C   UNL     1       7.204  42.329  13.130  1.00  0.00     0.041 C 
ATOM      6  O   UNL     1       7.607  41.548  14.032  1.00  0.00    -0.550 OA
ATOM      7  O   UNL     1       6.267  43.308  13.437  1.00  0.00    -0.550 OA
ENDBRANCH   4   5
ENDBRANCH   3   4
ENDBRANCH   2   3
ENDBRANCH   1   2
BRANCH   1   8
ATOM      8  C   UNL     1       5.022  45.014  10.023  1.00  0.00     0.000 C 
BRANCH   8   9
ATOM      9  C   UNL     1       4.180  45.125  11.305  1.00  0.00    -0.000 C 
BRANCH   9  10
ATOM     10  C   UNL     1       3.592  43.774  11.753  1.00  0.00    -0.000 C 
BRANCH  10  11
ATOM     11  C   UNL     1       2.056  43.694  11.719  1.00  0.00    -0.000 C 
BRANCH  11  12
ATOM     12  C   UNL     1       1.514  43.126  10.401  1.00  0.00    -0.003 C 
ATOM     13  C   UNL     1       0.316  42.213  10.646  1.00  0.00     0.004 C 
ENDBRANCH  11  12
ENDBRANCH  10  11
ENDBRANCH   9  10
ENDBRANCH   8   9
ENDBRANCH   1   8
TORSDOF 9
ENDMDL
MODEL 2
REMARK VINA RESULT:    -3.736      2.610      5.394
REMARK INTER + INTRA:          -6.234
REMARK INTER:                  -5.879
REMARK INTRA:                  -0.355
REMARK UNBOUND:                -0.532
REMARK SMILES CCCCCCCCCCC(=O)[O-]
REMARK SMILES IDX 7 1 8 2 9 3 10 4 11 5 12 6 13 7 6 8 5 9 4 10 3 11 2 12 1 13
REMARK H PARENT
REMARK Flexibility Score: inf
ROOT
ATOM      1  C   UNL     1       4.848  44.405  11.865  1.00  0.00     0.000 C 
ENDROOT
BRANCH   1   2
ATOM      2  C   UNL     1       3.676  45.124  11.166  1.00  0.00     0.000 C 
BRANCH   2   3
ATOM      3  C   UNL     1       3.169  44.450   9.875  1.00  0.00     0.006 C 
BRANCH   3   4
ATOM      4  C   UNL     1       2.663  43.012  10.068  1.00  0.00     0.053 C 
BRANCH   4   5
ATOM      5  C   UNL     1       1.402  42.964  10.873  1.00  0.00     0.041 C 
ATOM      6  O   UNL     1       1.337  43.553  11.985  1.00  0.00    -0.550 OA
ATOM      7  O   UNL     1       0.308  42.242  10.412  1.00  0.00    -0.550 OA
ENDBRANCH   4   5
ENDBRANCH   3   4
ENDBRANCH   2   3
ENDBRANCH   1   2
BRANCH   1   8
ATOM      8  C   UNL     1       6.204  45.124  11.763  1.00  0.00     0.000 C 
BRANCH   8   9
ATOM      9  C   UNL     1       7.140  44.483  10.723  1.00  0.00    -0.000 C 
BRANCH   9  10
ATOM     10  C   UNL     1       6.761  43.027  10.396  1.00  0.00    -0.000 C 
BRANCH  10  11
ATOM     11  C   UNL     1       7.530  41.963  11.199  1.00  0.00    -0.000 C 
BRANCH  11  12
ATOM     12  C   UNL     1       8.100  42.503  12.518  1.00  0.00    -0.003 C 
ATOM     13  C   UNL     1       7.348  41.934  13.717  1.00  0.00     0.004 C 
ENDBRANCH  11  12
ENDBRANCH  10  11
ENDBRANCH   9  10
ENDBRANCH   8   9
ENDBRANCH   1   8
TORSDOF 9
ENDMDL
MODEL 3
REMARK VINA RESULT:    -3.578      2.510      5.275
REMARK INTER + INTRA:          -5.992
REMARK INTER:                  -5.457
REMARK INTRA:                  -0.535
REMARK UNBOUND:                -0.532
REMARK SMILES CCCCCCCCCCC(=O)[O-]
REMARK SMILES IDX 7 1 8 2 9 3 10 4 11 5 12 6 13 7 6 8 5 9 4 10 3 11 2 12 1 13
REMARK H PARENT
REMARK Flexibility Score: inf
ROOT
ATOM      1  C   UNL     1       5.622  44.219  10.327  1.00  0.00     0.000 C 
ENDROOT
BRANCH   1   2
ATOM      2  C   UNL     1       4.344  45.045  10.580  1.00  0.00     0.000 C 
BRANCH   2   3
ATOM      3  C   UNL     1       3.075  44.524   9.875  1.00  0.00     0.006 C 
BRANCH   3   4
ATOM      4  C   UNL     1       2.675  43.093  10.267  1.00  0.00     0.053 C 
BRANCH   4   5
ATOM      5  C   UNL     1       1.437  43.068  11.108  1.00  0.00     0.041 C 
ATOM      6  O   UNL     1       0.411  42.456  10.709  1.00  0.00    -0.550 OA
ATOM      7  O   UNL     1       1.403  43.750  12.319  1.00  0.00    -0.550 OA
ENDBRANCH   4   5
ENDBRANCH   3   4
ENDBRANCH   2   3
ENDBRANCH   1   2
BRANCH   1   8
ATOM      8  C   UNL     1       6.939  44.941  10.662  1.00  0.00     0.000 C 
BRANCH   8   9
ATOM      9  C   UNL     1       8.178  44.067  10.401  1.00  0.00    -0.000 C 
BRANCH   9  10
ATOM     10  C   UNL     1       8.624  43.276  11.644  1.00  0.00    -0.000 C 
BRANCH  10  11
ATOM     11  C   UNL     1       7.650  42.171  12.091  1.00  0.00    -0.000 C 
BRANCH  11  12
ATOM     12  C   UNL     1       7.231  42.300  13.562  1.00  0.00    -0.003 C 
ATOM     13  C   UNL     1       5.912  43.057  13.694  1.00  0.00     0.004 C 
ENDBRANCH  11  12
ENDBRANCH  10  11
ENDBRANCH   9  10
ENDBRANCH   8   9
ENDBRANCH   1   8
TORSDOF 9
ENDMDL
MODEL 4
REMARK VINA RESULT:    -3.543      1.854      2.565
REMARK INTER + INTRA:          -5.938
REMARK INTER:                  -5.313
REMARK INTRA:                  -0.626
REMARK UNBOUND:                -0.532
REMARK SMILES CCCCCCCCCCC(=O)[O-]
REMARK SMILES IDX 7 1 8 2 9 3 10 4 11 5 12 6 13 7 6 8 5 9 4 10 3 11 2 12 1 13
REMARK H PARENT
REMARK Flexibility Score: inf
ROOT
ATOM      1  C   UNL     1       5.268  43.423  13.053  1.00  0.00     0.000 C 
ENDROOT
BRANCH   1   2
ATOM      2  C   UNL     1       6.549  42.906  13.739  1.00  0.00     0.000 C 
BRANCH   2   3
ATOM      3  C   UNL     1       7.508  42.114  12.827  1.00  0.00     0.006 C 
BRANCH   3   4
ATOM      4  C   UNL     1       8.375  42.988  11.907  1.00  0.00     0.053 C 
BRANCH   4   5
ATOM      5  C   UNL     1       7.740  43.190  10.565  1.00  0.00     0.041 C 
ATOM      6  O   UNL     1       7.052  42.273  10.045  1.00  0.00    -0.550 OA
ATOM      7  O   UNL     1       7.936  44.380   9.875  1.00  0.00    -0.550 OA
ENDBRANCH   4   5
ENDBRANCH   3   4
ENDBRANCH   2   3
ENDBRANCH   1   2
BRANCH   1   8
ATOM      8  C   UNL     1       5.370  44.844  12.472  1.00  0.00     0.000 C 
BRANCH   8   9
ATOM      9  C   UNL     1       4.306  45.125  11.398  1.00  0.00    -0.000 C 
BRANCH   9  10
ATOM     10  C   UNL     1       4.099  43.939  10.437  1.00  0.00    -0.000 C 
BRANCH  10  11
ATOM     11  C   UNL     1       2.637  43.688  10.025  1.00  0.00    -0.000 C 
BRANCH  11  12
ATOM     12  C   UNL     1       1.761  43.205  11.189  1.00  0.00    -0.003 C 
ATOM     13  C   UNL     1       0.544  42.438  10.681  1.00  0.00     0.004 C 
ENDBRANCH  11  12
ENDBRANCH  10  11
ENDBRANCH   9  10
ENDBRANCH   8   9
ENDBRANCH   1   8
TORSDOF 9
ENDMDL
MODEL 5
REMARK VINA RESULT:    -3.434      2.630      5.562
REMARK INTER + INTRA:          -5.772
REMARK INTER:                  -5.142
REMARK INTRA:                  -0.630
REMARK UNBOUND:                -0.532
REMARK SMILES CCCCCCCCCCC(=O)[O-]
REMARK SMILES IDX 7 1 8 2 9 3 10 4 11 5 12 6 13 7 6 8 5 9 4 10 3 11 2 12 1 13
REMARK H PARENT
REMARK Flexibility Score: inf
ROOT
ATOM      1  C   UNL     1       4.728  43.640  11.800  1.00  0.00     0.000 C 
ENDROOT
BRANCH   1   2
ATOM      2  C   UNL     1       4.044  44.827  11.091  1.00  0.00     0.000 C 
BRANCH   2   3
ATOM      3  C   UNL     1       3.070  44.442   9.958  1.00  0.00     0.006 C 
BRANCH   3   4
ATOM      4  C   UNL     1       2.512  43.014  10.061  1.00  0.00     0.053 C 
BRANCH   4   5
ATOM      5  C   UNL     1       1.284  42.952  10.917  1.00  0.00     0.041 C 
ATOM      6  O   UNL     1       0.275  42.306  10.531  1.00  0.00    -0.550 OA
ATOM      7  O   UNL     1       1.243  43.637  12.125  1.00  0.00    -0.550 OA
ENDBRANCH   4   5
ENDBRANCH   3   4
ENDBRANCH   2   3
ENDBRANCH   1   2
BRANCH   1   8
ATOM      8  C   UNL     1       5.662  44.028  12.959  1.00  0.00     0.000 C 
BRANCH   8   9
ATOM      9  C   UNL     1       6.487  42.838  13.481  1.00  0.00    -0.000 C 
BRANCH   9  10
ATOM     10  C   UNL     1       7.537  42.348  12.467  1.00  0.00    -0.000 C 
BRANCH  10  11
ATOM     11  C   UNL     1       8.400  43.458  11.841  1.00  0.00    -0.000 C 
BRANCH  11  12
ATOM     12  C   UNL     1       8.135  43.649  10.342  1.00  0.00    -0.003 C 
ATOM     13  C   UNL     1       7.673  45.072  10.041  1.00  0.00     0.004 C 
ENDBRANCH  11  12
ENDBRANCH  10  11
ENDBRANCH   9  10
ENDBRANCH   8   9
ENDBRANCH   1   8
TORSDOF 9
ENDMDL
MODEL 6
REMARK VINA RESULT:    -3.374      1.426      1.858
REMARK INTER + INTRA:          -5.681
REMARK INTER:                  -5.231
REMARK INTRA:                  -0.450
REMARK UNBOUND:                -0.532
REMARK SMILES CCCCCCCCCCC(=O)[O-]
REMARK SMILES IDX 7 1 8 2 9 3 10 4 11 5 12 6 13 7 6 8 5 9 4 10 3 11 2 12 1 13
REMARK H PARENT
REMARK Flexibility Score: inf
ROOT
ATOM      1  C   UNL     1       5.176  44.330  12.060  1.00  0.00     0.000 C 
ENDROOT
BRANCH   1   2
ATOM      2  C   UNL     1       6.484  45.084  11.744  1.00  0.00     0.000 C 
BRANCH   2   3
ATOM      3  C   UNL     1       7.350  44.457  10.632  1.00  0.00     0.006 C 
BRANCH   3   4
ATOM      4  C   UNL     1       8.454  43.518  11.141  1.00  0.00     0.053 C 
BRANCH   4   5
ATOM      5  C   UNL     1       7.902  42.205  11.605  1.00  0.00     0.041 C 
ATOM      6  O   UNL     1       7.655  41.292  10.774  1.00  0.00    -0.550 OA
ATOM      7  O   UNL     1       7.631  42.001  12.952  1.00  0.00    -0.550 OA
ENDBRANCH   4   5
ENDBRANCH   3   4
ENDBRANCH   2   3
ENDBRANCH   1   2
BRANCH   1   8
ATOM      8  C   UNL     1       3.889  45.051  11.621  1.00  0.00     0.000 C 
BRANCH   8   9
ATOM      9  C   UNL     1       3.543  44.801  10.143  1.00  0.00    -0.000 C 
BRANCH   9  10
ATOM     10  C   UNL     1       3.068  43.361   9.875  1.00  0.00    -0.000 C 
BRANCH  10  11
ATOM     11  C   UNL     1       2.014  42.834  10.865  1.00  0.00    -0.000 C 
BRANCH  11  12
ATOM     12  C   UNL     1       0.608  42.749  10.253  1.00  0.00    -0.003 C 
ATOM     13  C   UNL     1      -0.209  41.638  10.906  1.00  0.00     0.004 C 
ENDBRANCH  11  12
ENDBRANCH  10  11
ENDBRANCH   9  10
ENDBRANCH   8   9
ENDBRANCH   1   8
TORSDOF 9
ENDMDL
MODEL 7
REMARK VINA RESULT:    -2.403      1.961      2.520
REMARK INTER + INTRA:          -4.199
REMARK INTER:                  -3.831
REMARK INTRA:                  -0.368
REMARK UNBOUND:                -0.532
REMARK SMILES CCCCCCCCCCC(=O)[O-]
REMARK SMILES IDX 7 1 8 2 9 3 10 4 11 5 12 6 13 7 6 8 5 9 4 10 3 11 2 12 1 13
REMARK H PARENT
REMARK Flexibility Score: inf
ROOT
ATOM      1  C   UNL     1       4.454  44.073  11.079  1.00  0.00     0.000 C 
ENDROOT
BRANCH   1   2
ATOM      2  C   UNL     1       5.763  44.576  10.437  1.00  0.00     0.000 C 
BRANCH   2   3
ATOM      3  C   UNL     1       6.933  44.796  11.418  1.00  0.00     0.006 C 
BRANCH   3   4
ATOM      4  C   UNL     1       8.104  43.818  11.237  1.00  0.00     0.053 C 
BRANCH   4   5
ATOM      5  C   UNL     1       7.765  42.442  11.721  1.00  0.00     0.041 C 
ATOM      6  O   UNL     1       7.725  41.478  10.911  1.00  0.00    -0.550 OA
ATOM      7  O   UNL     1       7.461  42.230  13.060  1.00  0.00    -0.550 OA
ENDBRANCH   4   5
ENDBRANCH   3   4
ENDBRANCH   2   3
ENDBRANCH   1   2
BRANCH   1   8
ATOM      8  C   UNL     1       3.483  43.374  10.111  1.00  0.00     0.000 C 
BRANCH   8   9
ATOM      9  C   UNL     1       2.010  43.547  10.518  1.00  0.00    -0.000 C 
BRANCH   9  10
ATOM     10  C   UNL     1       1.825  43.701  12.039  1.00  0.00    -0.000 C 
BRANCH  10  11
ATOM     11  C   UNL     1       0.374  43.555  12.532  1.00  0.00    -0.000 C 
BRANCH  11  12
ATOM     12  C   UNL     1       0.017  44.548  13.647  1.00  0.00    -0.003 C 
ATOM     13  C   UNL     1      -1.221  44.093  14.414  1.00  0.00     0.004 C 
ENDBRANCH  11  12
ENDBRANCH  10  11
ENDBRANCH   9  10
ENDBRANCH   8   9
ENDBRANCH   1   8
TORSDOF 9
ENDMDL
MODEL 8
REMARK VINA RESULT:    -2.317      0.991      2.016
REMARK INTER + INTRA:          -4.068
REMARK INTER:                  -3.583
REMARK INTRA:                  -0.485
REMARK UNBOUND:                -0.532
REMARK SMILES CCCCCCCCCCC(=O)[O-]
REMARK SMILES IDX 7 1 8 2 9 3 10 4 11 5 12 6 13 7 6 8 5 9 4 10 3 11 2 12 1 13
REMARK H PARENT
REMARK Flexibility Score: inf
ROOT
ATOM      1  C   UNL     1       8.274  44.355  10.728  1.00  0.00     0.000 C 
ENDROOT
BRANCH   1   2
ATOM      2  C   UNL     1       8.178  42.816  10.769  1.00  0.00     0.000 C 
BRANCH   2   3
ATOM      3  C   UNL     1       7.897  42.213  12.160  1.00  0.00     0.006 C 
BRANCH   3   4
ATOM      4  C   UNL     1       6.805  42.943  12.958  1.00  0.00     0.053 C 
BRANCH   4   5
ATOM      5  C   UNL     1       6.434  42.203  14.206  1.00  0.00     0.041 C 
ATOM      6  O   UNL     1       5.365  42.479  14.812  1.00  0.00    -0.550 OA
ATOM      7  O   UNL     1       7.285  41.231  14.719  1.00  0.00    -0.550 OA
ENDBRANCH   4   5
ENDBRANCH   3   4
ENDBRANCH   2   3
ENDBRANCH   1   2
BRANCH   1   8
ATOM      8  C   UNL     1       7.176  45.052   9.905  1.00  0.00     0.000 C 
BRANCH   8   9
ATOM      9  C   UNL     1       5.860  44.257   9.876  1.00  0.00    -0.000 C 
BRANCH   9  10
ATOM     10  C   UNL     1       4.739  44.926  10.693  1.00  0.00    -0.000 C 
BRANCH  10  11
ATOM     11  C   UNL     1       3.311  44.528  10.279  1.00  0.00    -0.000 C 
BRANCH  11  12
ATOM     12  C   UNL     1       2.511  43.892  11.423  1.00  0.00    -0.003 C 
ATOM     13  C   UNL     1       1.450  42.935  10.887  1.00  0.00     0.004 C 
ENDBRANCH  11  12
ENDBRANCH  10  11
ENDBRANCH   9  10
ENDBRANCH   8   9
ENDBRANCH   1   8
TORSDOF 9
ENDMDL
