MODEL 1
REMARK VINA RESULT:    -5.041      0.000      0.000
REMARK INTER + INTRA:          -5.477
REMARK INTER:                  -5.483
REMARK INTRA:                   0.006
REMARK UNBOUND:                 0.006
REMARK SMILES C=C(C)[C@H]1CC[C@@]2(C)CC[C@]3(C)[C@H](CC[C@@H]4[C@]5(C)CC[C@@H](O)C(C)(C)[C@H]5CC[C@@]43C)[C@@H]12
REMARK SMILES IDX 4 1 5 2 6 3 7 4 31 5 13 6 14 7 15 8 16 9 17 10 19 11 20 12
REMARK SMILES IDX 21 13 23 14 26 15 27 16 28 17 29 18 11 19 10 20 9 21 12 22
REMARK SMILES IDX 30 23 24 24 25 25 18 26 8 27 2 28 3 29 1 30 22 31
REMARK H PARENT 22 32
REMARK Flexibility Score: inf
ROOT
ATOM      1  C   UNL     1      50.886  -3.623  14.259  1.00  0.00     0.018 C 
ATOM      2  C   UNL     1      51.267  -2.189  13.910  1.00  0.00     0.009 C 
ATOM      3  C   UNL     1      52.519  -2.301  13.049  1.00  0.00     0.008 C 
ATOM      4  C   UNL     1      53.046  -3.758  13.184  1.00  0.00    -0.029 C 
ATOM      5  C   UNL     1      52.240  -4.388  14.379  1.00  0.00     0.006 C 
ATOM      6  C   UNL     1      52.931  -4.248  15.800  1.00  0.00    -0.000 C 
ATOM      7  C   UNL     1      52.332  -5.223  16.825  1.00  0.00     0.005 C 
ATOM      8  C   UNL     1      52.768  -4.850  18.230  1.00  0.00     0.005 C 
ATOM      9  C   UNL     1      54.307  -4.892  18.458  1.00  0.00     0.002 C 
ATOM     10  C   UNL     1      54.702  -4.468  19.965  1.00  0.00    -0.026 C 
ATOM     11  C   UNL     1      53.693  -5.073  21.006  1.00  0.00     0.010 C 
ATOM     12  C   UNL     1      53.899  -4.586  22.448  1.00  0.00     0.033 C 
ATOM     13  C   UNL     1      53.812  -3.052  22.531  1.00  0.00     0.120 C 
ATOM     14  C   UNL     1      54.813  -2.320  21.576  1.00  0.00    -0.006 C 
ATOM     15  C   UNL     1      54.639  -2.898  20.106  1.00  0.00     0.003 C 
ATOM     16  C   UNL     1      55.501  -2.194  19.035  1.00  0.00     0.005 C 
ATOM     17  C   UNL     1      55.083  -2.585  17.610  1.00  0.00     0.008 C 
ATOM     18  C   UNL     1      55.108  -4.118  17.301  1.00  0.00    -0.024 C 
ATOM     19  C   UNL     1      54.492  -4.422  15.822  1.00  0.00    -0.024 C 
ATOM     20  C   UNL     1      55.045  -3.422  14.758  1.00  0.00     0.008 C 
ATOM     21  C   UNL     1      54.585  -3.761  13.344  1.00  0.00     0.007 C 
ATOM     22  C   UNL     1      54.876  -5.880  15.382  1.00  0.00     0.012 C 
ATOM     23  C   UNL     1      56.608  -4.580  17.295  1.00  0.00     0.012 C 
ATOM     24  C   UNL     1      56.267  -2.421  22.110  1.00  0.00     0.014 C 
ATOM     25  C   UNL     1      54.432  -0.812  21.590  1.00  0.00     0.014 C 
ATOM     26  C   UNL     1      56.112  -5.063  20.304  1.00  0.00     0.012 C 
ATOM     27  C   UNL     1      52.732  -4.533  11.875  1.00  0.00     0.011 C 
ENDROOT
BRANCH   1  28
ATOM     28  C   UNL     1      49.871  -3.760  15.388  1.00  0.00    -0.077 C 
ATOM     29  C   UNL     1      49.472  -5.109  15.942  1.00  0.00     0.039 C 
ATOM     30  C   UNL     1      49.391  -2.645  15.968  1.00  0.00     0.008 C 
ENDBRANCH   1  28
BRANCH  13  31
ATOM     31  O   UNL     1      53.937  -2.615  23.865  1.00  0.00    -0.393 OA
ATOM     32  H   UNL     1      54.757  -3.022  24.251  1.00  0.00     0.210 HD
ENDBRANCH  13  31
TORSDOF 2
ENDMDL
MODEL 2
REMARK VINA RESULT:    -4.279      1.361      1.860
REMARK INTER + INTRA:          -4.648
REMARK INTER:                  -4.218
REMARK INTRA:                  -0.430
REMARK UNBOUND:                 0.006
REMARK SMILES C=C(C)[C@H]1CC[C@@]2(C)CC[C@]3(C)[C@H](CC[C@@H]4[C@]5(C)CC[C@@H](O)C(C)(C)[C@H]5CC[C@@]43C)[C@@H]12
REMARK SMILES IDX 4 1 5 2 6 3 7 4 31 5 13 6 14 7 15 8 16 9 17 10 19 11 20 12
REMARK SMILES IDX 21 13 23 14 26 15 27 16 28 17 29 18 11 19 10 20 9 21 12 22
REMARK SMILES IDX 30 23 24 24 25 25 18 26 8 27 2 28 3 29 1 30 22 31
REMARK H PARENT 22 32
REMARK Flexibility Score: inf
ROOT
ATOM      1  C   UNL     1      52.410  -3.604  13.853  1.00  0.00     0.018 C 
ATOM      2  C   UNL     1      51.973  -2.158  14.060  1.00  0.00     0.009 C 
ATOM      3  C   UNL     1      53.136  -1.310  13.563  1.00  0.00     0.008 C 
ATOM      4  C   UNL     1      54.360  -2.255  13.391  1.00  0.00    -0.029 C 
ATOM      5  C   UNL     1      53.952  -3.604  14.089  1.00  0.00     0.006 C 
ATOM      6  C   UNL     1      54.365  -3.719  15.617  1.00  0.00    -0.000 C 
ATOM      7  C   UNL     1      54.328  -5.174  16.110  1.00  0.00     0.005 C 
ATOM      8  C   UNL     1      54.403  -5.222  17.624  1.00  0.00     0.005 C 
ATOM      9  C   UNL     1      55.701  -4.607  18.224  1.00  0.00     0.002 C 
ATOM     10  C   UNL     1      55.707  -4.675  19.837  1.00  0.00    -0.026 C 
ATOM     11  C   UNL     1      55.124  -6.042  20.349  1.00  0.00     0.010 C 
ATOM     12  C   UNL     1      54.942  -6.124  21.872  1.00  0.00     0.033 C 
ATOM     13  C   UNL     1      54.033  -4.993  22.382  1.00  0.00     0.120 C 
ATOM     14  C   UNL     1      54.534  -3.565  21.985  1.00  0.00    -0.006 C 
ATOM     15  C   UNL     1      54.794  -3.527  20.418  1.00  0.00     0.003 C 
ATOM     16  C   UNL     1      55.202  -2.141  19.870  1.00  0.00     0.005 C 
ATOM     17  C   UNL     1      55.153  -2.090  18.336  1.00  0.00     0.008 C 
ATOM     18  C   UNL     1      56.025  -3.162  17.602  1.00  0.00    -0.024 C 
ATOM     19  C   UNL     1      55.766  -3.117  15.993  1.00  0.00    -0.024 C 
ATOM     20  C   UNL     1      55.754  -1.650  15.459  1.00  0.00     0.008 C 
ATOM     21  C   UNL     1      55.641  -1.582  13.940  1.00  0.00     0.007 C 
ATOM     22  C   UNL     1      56.906  -3.906  15.255  1.00  0.00     0.012 C 
ATOM     23  C   UNL     1      57.532  -2.804  17.852  1.00  0.00     0.012 C 
ATOM     24  C   UNL     1      55.774  -3.158  22.826  1.00  0.00     0.014 C 
ATOM     25  C   UNL     1      53.396  -2.569  22.348  1.00  0.00     0.014 C 
ATOM     26  C   UNL     1      57.190  -4.600  20.340  1.00  0.00     0.012 C 
ATOM     27  C   UNL     1      54.599  -2.501  11.876  1.00  0.00     0.011 C 
ENDROOT
BRANCH   1  28
ATOM     28  C   UNL     1      51.563  -4.640  14.583  1.00  0.00    -0.077 C 
ATOM     29  C   UNL     1      51.573  -6.100  14.189  1.00  0.00     0.039 C 
ATOM     30  C   UNL     1      50.860  -4.259  15.666  1.00  0.00     0.008 C 
ENDBRANCH   1  28
BRANCH  13  31
ATOM     31  O   UNL     1      53.817  -5.113  23.770  1.00  0.00    -0.393 OA
ATOM     32  H   UNL     1      54.694  -5.046  24.229  1.00  0.00     0.210 HD
ENDBRANCH  13  31
TORSDOF 2
ENDMDL
MODEL 3
REMARK VINA RESULT:    -3.916      8.424     12.206
REMARK INTER + INTRA:          -4.253
REMARK INTER:                  -3.828
REMARK INTRA:                  -0.425
REMARK UNBOUND:                 0.006
REMARK SMILES C=C(C)[C@H]1CC[C@@]2(C)CC[C@]3(C)[C@H](CC[C@@H]4[C@]5(C)CC[C@@H](O)C(C)(C)[C@H]5CC[C@@]43C)[C@@H]12
REMARK SMILES IDX 4 1 5 2 6 3 7 4 31 5 13 6 14 7 15 8 16 9 17 10 19 11 20 12
REMARK SMILES IDX 21 13 23 14 26 15 27 16 28 17 29 18 11 19 10 20 9 21 12 22
REMARK SMILES IDX 30 23 24 24 25 25 18 26 8 27 2 28 3 29 1 30 22 31
REMARK H PARENT 22 32
REMARK Flexibility Score: inf
ROOT
ATOM      1  C   UNL     1      42.423   5.595  14.863  1.00  0.00     0.018 C 
ATOM      2  C   UNL     1      42.946   5.953  16.250  1.00  0.00     0.009 C 
ATOM      3  C   UNL     1      43.832   7.175  16.045  1.00  0.00     0.008 C 
ATOM      4  C   UNL     1      44.087   7.311  14.516  1.00  0.00    -0.029 C 
ATOM      5  C   UNL     1      43.577   5.966  13.882  1.00  0.00     0.006 C 
ATOM      6  C   UNL     1      44.680   4.835  13.735  1.00  0.00    -0.000 C 
ATOM      7  C   UNL     1      44.245   3.738  12.751  1.00  0.00     0.005 C 
ATOM      8  C   UNL     1      45.149   2.526  12.874  1.00  0.00     0.005 C 
ATOM      9  C   UNL     1      46.648   2.806  12.558  1.00  0.00     0.002 C 
ATOM     10  C   UNL     1      47.554   1.481  12.726  1.00  0.00    -0.026 C 
ATOM     11  C   UNL     1      46.813   0.212  12.169  1.00  0.00     0.010 C 
ATOM     12  C   UNL     1      47.536  -1.116  12.437  1.00  0.00     0.033 C 
ATOM     13  C   UNL     1      47.772  -1.322  13.943  1.00  0.00     0.120 C 
ATOM     14  C   UNL     1      48.556  -0.146  14.616  1.00  0.00    -0.006 C 
ATOM     15  C   UNL     1      47.838   1.225  14.257  1.00  0.00     0.003 C 
ATOM     16  C   UNL     1      48.452   2.467  14.939  1.00  0.00     0.005 C 
ATOM     17  C   UNL     1      47.555   3.706  14.798  1.00  0.00     0.008 C 
ATOM     18  C   UNL     1      47.192   4.106  13.329  1.00  0.00    -0.024 C 
ATOM     19  C   UNL     1      46.111   5.326  13.311  1.00  0.00    -0.024 C 
ATOM     20  C   UNL     1      46.494   6.443  14.332  1.00  0.00     0.008 C 
ATOM     21  C   UNL     1      45.572   7.654  14.247  1.00  0.00     0.007 C 
ATOM     22  C   UNL     1      46.057   5.960  11.876  1.00  0.00     0.012 C 
ATOM     23  C   UNL     1      48.502   4.621  12.637  1.00  0.00     0.012 C 
ATOM     24  C   UNL     1      50.056  -0.179  14.218  1.00  0.00     0.014 C 
ATOM     25  C   UNL     1      48.492  -0.381  16.152  1.00  0.00     0.014 C 
ATOM     26  C   UNL     1      48.860   1.651  11.876  1.00  0.00     0.012 C 
ATOM     27  C   UNL     1      43.249   8.499  13.968  1.00  0.00     0.011 C 
ENDROOT
BRANCH   1  28
ATOM     28  C   UNL     1      41.791   4.212  14.755  1.00  0.00    -0.077 C 
ATOM     29  C   UNL     1      40.841   3.855  13.634  1.00  0.00     0.039 C 
ATOM     30  C   UNL     1      42.164   3.257  15.626  1.00  0.00     0.008 C 
ENDBRANCH   1  28
BRANCH  13  31
ATOM     31  O   UNL     1      48.377  -2.571  14.187  1.00  0.00    -0.393 OA
ATOM     32  H   UNL     1      48.289  -3.126  13.369  1.00  0.00     0.210 HD
ENDBRANCH  13  31
TORSDOF 2
ENDMDL
MODEL 4
REMARK VINA RESULT:    -2.927      3.322      7.175
REMARK INTER + INTRA:          -3.178
REMARK INTER:                  -2.735
REMARK INTRA:                  -0.443
REMARK UNBOUND:                 0.006
REMARK SMILES C=C(C)[C@H]1CC[C@@]2(C)CC[C@]3(C)[C@H](CC[C@@H]4[C@]5(C)CC[C@@H](O)C(C)(C)[C@H]5CC[C@@]43C)[C@@H]12
REMARK SMILES IDX 4 1 5 2 6 3 7 4 31 5 13 6 14 7 15 8 16 9 17 10 19 11 20 12
REMARK SMILES IDX 21 13 23 14 26 15 27 16 28 17 29 18 11 19 10 20 9 21 12 22
REMARK SMILES IDX 30 23 24 24 25 25 18 26 8 27 2 28 3 29 1 30 22 31
REMARK H PARENT 22 32
REMARK Flexibility Score: inf
ROOT
ATOM      1  C   UNL     1      56.735  -3.196  15.106  1.00  0.00     0.018 C 
ATOM      2  C   UNL     1      56.505  -1.747  15.521  1.00  0.00     0.009 C 
ATOM      3  C   UNL     1      56.471  -1.763  17.043  1.00  0.00     0.008 C 
ATOM      4  C   UNL     1      56.341  -3.247  17.489  1.00  0.00    -0.029 C 
ATOM      5  C   UNL     1      55.997  -4.051  16.181  1.00  0.00     0.006 C 
ATOM      6  C   UNL     1      54.447  -4.238  15.898  1.00  0.00    -0.000 C 
ATOM      7  C   UNL     1      54.184  -5.358  14.880  1.00  0.00     0.005 C 
ATOM      8  C   UNL     1      52.751  -5.299  14.385  1.00  0.00     0.005 C 
ATOM      9  C   UNL     1      51.678  -5.479  15.497  1.00  0.00     0.002 C 
ATOM     10  C   UNL     1      50.179  -5.388  14.905  1.00  0.00    -0.026 C 
ATOM     11  C   UNL     1      50.070  -6.123  13.521  1.00  0.00     0.010 C 
ATOM     12  C   UNL     1      48.719  -5.945  12.811  1.00  0.00     0.033 C 
ATOM     13  C   UNL     1      48.405  -4.455  12.589  1.00  0.00     0.120 C 
ATOM     14  C   UNL     1      48.426  -3.612  13.906  1.00  0.00    -0.006 C 
ATOM     15  C   UNL     1      49.797  -3.876  14.666  1.00  0.00     0.003 C 
ATOM     16  C   UNL     1      49.996  -3.028  15.942  1.00  0.00     0.005 C 
ATOM     17  C   UNL     1      51.437  -3.102  16.465  1.00  0.00     0.008 C 
ATOM     18  C   UNL     1      51.966  -4.542  16.770  1.00  0.00    -0.024 C 
ATOM     19  C   UNL     1      53.549  -4.509  17.158  1.00  0.00    -0.024 C 
ATOM     20  C   UNL     1      53.866  -3.354  18.159  1.00  0.00     0.008 C 
ATOM     21  C   UNL     1      55.314  -3.377  18.639  1.00  0.00     0.007 C 
ATOM     22  C   UNL     1      53.957  -5.871  17.824  1.00  0.00     0.012 C 
ATOM     23  C   UNL     1      51.182  -5.085  18.015  1.00  0.00     0.012 C 
ATOM     24  C   UNL     1      47.174  -3.906  14.775  1.00  0.00     0.014 C 
ATOM     25  C   UNL     1      48.343  -2.116  13.488  1.00  0.00     0.014 C 
ATOM     26  C   UNL     1      49.202  -6.123  15.887  1.00  0.00     0.012 C 
ATOM     27  C   UNL     1      57.706  -3.727  18.054  1.00  0.00     0.011 C 
ENDROOT
BRANCH   1  28
ATOM     28  C   UNL     1      56.469  -3.491  13.634  1.00  0.00    -0.077 C 
ATOM     29  C   UNL     1      55.750  -2.505  12.741  1.00  0.00     0.039 C 
ATOM     30  C   UNL     1      56.971  -4.618  13.096  1.00  0.00     0.008 C 
ENDBRANCH   1  28
BRANCH  13  31
ATOM     31  O   UNL     1      47.197  -4.300  11.879  1.00  0.00    -0.393 OA
ATOM     32  H   UNL     1      46.522  -3.911  12.493  1.00  0.00     0.210 HD
ENDBRANCH  13  31
TORSDOF 2
ENDMDL
MODEL 5
REMARK VINA RESULT:    -2.917      2.802      7.384
REMARK INTER + INTRA:          -3.167
REMARK INTER:                  -2.905
REMARK INTRA:                  -0.262
REMARK UNBOUND:                 0.006
REMARK SMILES C=C(C)[C@H]1CC[C@@]2(C)CC[C@]3(C)[C@H](CC[C@@H]4[C@]5(C)CC[C@@H](O)C(C)(C)[C@H]5CC[C@@]43C)[C@@H]12
REMARK SMILES IDX 4 1 5 2 6 3 7 4 31 5 13 6 14 7 15 8 16 9 17 10 19 11 20 12
REMARK SMILES IDX 21 13 23 14 26 15 27 16 28 17 29 18 11 19 10 20 9 21 12 22
REMARK SMILES IDX 30 23 24 24 25 25 18 26 8 27 2 28 3 29 1 30 22 31
REMARK H PARENT 22 32
REMARK Flexibility Score: inf
ROOT
ATOM      1  C   UNL     1      56.604  -2.709  20.227  1.00  0.00     0.018 C 
ATOM      2  C   UNL     1      56.873  -4.201  20.380  1.00  0.00     0.009 C 
ATOM      3  C   UNL     1      58.255  -4.427  19.779  1.00  0.00     0.008 C 
ATOM      4  C   UNL     1      58.629  -3.143  18.984  1.00  0.00    -0.029 C 
ATOM      5  C   UNL     1      57.304  -2.301  18.894  1.00  0.00     0.006 C 
ATOM      6  C   UNL     1      56.425  -2.571  17.601  1.00  0.00    -0.000 C 
ATOM      7  C   UNL     1      55.402  -1.451  17.362  1.00  0.00     0.005 C 
ATOM      8  C   UNL     1      54.373  -1.883  16.335  1.00  0.00     0.005 C 
ATOM      9  C   UNL     1      54.964  -2.219  14.934  1.00  0.00     0.002 C 
ATOM     10  C   UNL     1      53.820  -2.687  13.897  1.00  0.00    -0.026 C 
ATOM     11  C   UNL     1      52.517  -1.824  14.061  1.00  0.00     0.010 C 
ATOM     12  C   UNL     1      51.323  -2.309  13.225  1.00  0.00     0.033 C 
ATOM     13  C   UNL     1      50.975  -3.770  13.557  1.00  0.00     0.120 C 
ATOM     14  C   UNL     1      52.180  -4.753  13.379  1.00  0.00    -0.006 C 
ATOM     15  C   UNL     1      53.428  -4.188  14.184  1.00  0.00     0.003 C 
ATOM     16  C   UNL     1      54.666  -5.113  14.176  1.00  0.00     0.005 C 
ATOM     17  C   UNL     1      55.724  -4.668  15.197  1.00  0.00     0.008 C 
ATOM     18  C   UNL     1      56.233  -3.198  15.036  1.00  0.00    -0.024 C 
ATOM     19  C   UNL     1      57.224  -2.790  16.266  1.00  0.00    -0.024 C 
ATOM     20  C   UNL     1      58.253  -3.923  16.569  1.00  0.00     0.008 C 
ATOM     21  C   UNL     1      59.273  -3.518  17.627  1.00  0.00     0.007 C 
ATOM     22  C   UNL     1      58.014  -1.485  15.893  1.00  0.00     0.012 C 
ATOM     23  C   UNL     1      57.067  -3.124  13.709  1.00  0.00     0.012 C 
ATOM     24  C   UNL     1      52.477  -5.002  11.876  1.00  0.00     0.014 C 
ATOM     25  C   UNL     1      51.744  -6.118  13.984  1.00  0.00     0.014 C 
ATOM     26  C   UNL     1      54.336  -2.453  12.435  1.00  0.00     0.012 C 
ATOM     27  C   UNL     1      59.700  -2.349  19.781  1.00  0.00     0.011 C 
ENDROOT
BRANCH   1  28
ATOM     28  C   UNL     1      55.153  -2.294  20.443  1.00  0.00    -0.077 C 
ATOM     29  C   UNL     1      54.001  -3.119  19.913  1.00  0.00     0.039 C 
ATOM     30  C   UNL     1      54.891  -1.217  21.205  1.00  0.00     0.008 C 
ENDBRANCH   1  28
BRANCH  13  31
ATOM     31  O   UNL     1      49.838  -4.189  12.836  1.00  0.00    -0.393 OA
ATOM     32  H   UNL     1      49.453  -3.399  12.374  1.00  0.00     0.210 HD
ENDBRANCH  13  31
TORSDOF 2
ENDMDL
MODEL 6
REMARK VINA RESULT:    -2.745      3.556      6.036
REMARK INTER + INTRA:          -2.979
REMARK INTER:                  -2.700
REMARK INTRA:                  -0.279
REMARK UNBOUND:                 0.006
REMARK SMILES C=C(C)[C@H]1CC[C@@]2(C)CC[C@]3(C)[C@H](CC[C@@H]4[C@]5(C)CC[C@@H](O)C(C)(C)[C@H]5CC[C@@]43C)[C@@H]12
REMARK SMILES IDX 4 1 5 2 6 3 7 4 31 5 13 6 14 7 15 8 16 9 17 10 19 11 20 12
REMARK SMILES IDX 21 13 23 14 26 15 27 16 28 17 29 18 11 19 10 20 9 21 12 22
REMARK SMILES IDX 30 23 24 24 25 25 18 26 8 27 2 28 3 29 1 30 22 31
REMARK H PARENT 22 32
REMARK Flexibility Score: inf
ROOT
ATOM      1  C   UNL     1      47.727  -1.062  14.230  1.00  0.00     0.018 C 
ATOM      2  C   UNL     1      47.925  -0.479  12.835  1.00  0.00     0.009 C 
ATOM      3  C   UNL     1      47.404  -1.541  11.875  1.00  0.00     0.008 C 
ATOM      4  C   UNL     1      47.225  -2.854  12.690  1.00  0.00    -0.029 C 
ATOM      5  C   UNL     1      47.942  -2.598  14.066  1.00  0.00     0.006 C 
ATOM      6  C   UNL     1      49.465  -3.041  14.120  1.00  0.00    -0.000 C 
ATOM      7  C   UNL     1      49.973  -3.161  15.564  1.00  0.00     0.005 C 
ATOM      8  C   UNL     1      51.487  -3.260  15.587  1.00  0.00     0.005 C 
ATOM      9  C   UNL     1      52.063  -4.494  14.833  1.00  0.00     0.002 C 
ATOM     10  C   UNL     1      53.676  -4.528  14.881  1.00  0.00    -0.026 C 
ATOM     11  C   UNL     1      54.210  -4.097  16.295  1.00  0.00     0.010 C 
ATOM     12  C   UNL     1      55.736  -3.944  16.378  1.00  0.00     0.033 C 
ATOM     13  C   UNL     1      56.247  -2.928  15.342  1.00  0.00     0.120 C 
ATOM     14  C   UNL     1      55.828  -3.273  13.874  1.00  0.00    -0.006 C 
ATOM     15  C   UNL     1      54.257  -3.508  13.828  1.00  0.00     0.003 C 
ATOM     16  C   UNL     1      53.690  -3.762  12.414  1.00  0.00     0.005 C 
ATOM     17  C   UNL     1      52.156  -3.689  12.386  1.00  0.00     0.008 C 
ATOM     18  C   UNL     1      51.421  -4.658  13.370  1.00  0.00    -0.024 C 
ATOM     19  C   UNL     1      49.815  -4.376  13.370  1.00  0.00    -0.024 C 
ATOM     20  C   UNL     1      49.266  -4.204  11.919  1.00  0.00     0.008 C 
ATOM     21  C   UNL     1      47.748  -4.066  11.881  1.00  0.00     0.007 C 
ATOM     22  C   UNL     1      49.069  -5.582  14.045  1.00  0.00     0.012 C 
ATOM     23  C   UNL     1      51.647  -6.123  12.854  1.00  0.00     0.012 C 
ATOM     24  C   UNL     1      56.648  -4.474  13.330  1.00  0.00     0.014 C 
ATOM     25  C   UNL     1      56.197  -2.042  12.998  1.00  0.00     0.014 C 
ATOM     26  C   UNL     1      54.158  -6.001  14.646  1.00  0.00     0.012 C 
ATOM     27  C   UNL     1      45.709  -3.098  12.928  1.00  0.00     0.011 C 
ENDROOT
BRANCH   1  28
ATOM     28  C   UNL     1      48.479  -0.336  15.339  1.00  0.00    -0.077 C 
ATOM     29  C   UNL     1      49.427   0.805  15.046  1.00  0.00     0.039 C 
ATOM     30  C   UNL     1      48.220  -0.660  16.620  1.00  0.00     0.008 C 
ENDBRANCH   1  28
BRANCH  13  31
ATOM     31  O   UNL     1      57.638  -2.743  15.468  1.00  0.00    -0.393 OA
ATOM     32  H   UNL     1      58.096  -3.494  15.006  1.00  0.00     0.210 HD
ENDBRANCH  13  31
TORSDOF 2
ENDMDL
MODEL 7
REMARK VINA RESULT:    -2.567     12.387     16.507
REMARK INTER + INTRA:          -2.786
REMARK INTER:                  -2.443
REMARK INTRA:                  -0.343
REMARK UNBOUND:                 0.006
REMARK SMILES C=C(C)[C@H]1CC[C@@]2(C)CC[C@]3(C)[C@H](CC[C@@H]4[C@]5(C)CC[C@@H](O)C(C)(C)[C@H]5CC[C@@]43C)[C@@H]12
REMARK SMILES IDX 4 1 5 2 6 3 7 4 31 5 13 6 14 7 15 8 16 9 17 10 19 11 20 12
REMARK SMILES IDX 21 13 23 14 26 15 27 16 28 17 29 18 11 19 10 20 9 21 12 22
REMARK SMILES IDX 30 23 24 24 25 25 18 26 8 27 2 28 3 29 1 30 22 31
REMARK H PARENT 22 32
REMARK Flexibility Score: inf
ROOT
ATOM      1  C   UNL     1      43.418   8.877  19.879  1.00  0.00     0.018 C 
ATOM      2  C   UNL     1      44.934   9.009  19.782  1.00  0.00     0.009 C 
ATOM      3  C   UNL     1      45.179  10.284  18.985  1.00  0.00     0.008 C 
ATOM      4  C   UNL     1      43.825  10.696  18.340  1.00  0.00    -0.029 C 
ATOM      5  C   UNL     1      42.870   9.462  18.540  1.00  0.00     0.006 C 
ATOM      6  C   UNL     1      42.863   8.420  17.343  1.00  0.00    -0.000 C 
ATOM      7  C   UNL     1      41.638   7.495  17.398  1.00  0.00     0.005 C 
ATOM      8  C   UNL     1      41.819   6.319  16.457  1.00  0.00     0.005 C 
ATOM      9  C   UNL     1      41.984   6.711  14.960  1.00  0.00     0.002 C 
ATOM     10  C   UNL     1      42.190   5.416  14.019  1.00  0.00    -0.026 C 
ATOM     11  C   UNL     1      41.255   4.235  14.468  1.00  0.00     0.010 C 
ATOM     12  C   UNL     1      41.504   2.911  13.730  1.00  0.00     0.033 C 
ATOM     13  C   UNL     1      42.965   2.455  13.891  1.00  0.00     0.120 C 
ATOM     14  C   UNL     1      44.006   3.526  13.424  1.00  0.00    -0.006 C 
ATOM     15  C   UNL     1      43.679   4.908  14.137  1.00  0.00     0.003 C 
ATOM     16  C   UNL     1      44.691   6.037  13.841  1.00  0.00     0.005 C 
ATOM     17  C   UNL     1      44.500   7.243  14.772  1.00  0.00     0.008 C 
ATOM     18  C   UNL     1      43.070   7.878  14.760  1.00  0.00    -0.024 C 
ATOM     19  C   UNL     1      42.940   9.036  15.900  1.00  0.00    -0.024 C 
ATOM     20  C   UNL     1      44.189   9.973  15.906  1.00  0.00     0.008 C 
ATOM     21  C   UNL     1      44.039  11.141  16.874  1.00  0.00     0.007 C 
ATOM     22  C   UNL     1      41.665   9.909  15.621  1.00  0.00     0.012 C 
ATOM     23  C   UNL     1      42.863   8.560  13.363  1.00  0.00     0.012 C 
ATOM     24  C   UNL     1      44.045   3.626  11.875  1.00  0.00     0.014 C 
ATOM     25  C   UNL     1      45.406   3.025  13.878  1.00  0.00     0.014 C 
ATOM     26  C   UNL     1      41.777   5.786  12.552  1.00  0.00     0.012 C 
ATOM     27  C   UNL     1      43.255  11.925  19.101  1.00  0.00     0.011 C 
ENDROOT
BRANCH   1  28
ATOM     28  C   UNL     1      42.921   7.510  20.333  1.00  0.00    -0.077 C 
ATOM     29  C   UNL     1      43.860   6.337  20.502  1.00  0.00     0.039 C 
ATOM     30  C   UNL     1      41.629   7.371  20.682  1.00  0.00     0.008 C 
ENDBRANCH   1  28
BRANCH  13  31
ATOM     31  O   UNL     1      43.171   1.208  13.267  1.00  0.00    -0.393 OA
ATOM     32  H   UNL     1      43.635   1.364  12.404  1.00  0.00     0.210 HD
ENDBRANCH  13  31
TORSDOF 2
ENDMDL
MODEL 8
REMARK VINA RESULT:    -2.169      3.731      6.962
REMARK INTER + INTRA:          -2.353
REMARK INTER:                  -4.160
REMARK INTRA:                   1.808
REMARK UNBOUND:                 0.006
REMARK SMILES C=C(C)[C@H]1CC[C@@]2(C)CC[C@]3(C)[C@H](CC[C@@H]4[C@]5(C)CC[C@@H](O)C(C)(C)[C@H]5CC[C@@]43C)[C@@H]12
REMARK SMILES IDX 4 1 5 2 6 3 7 4 31 5 13 6 14 7 15 8 16 9 17 10 19 11 20 12
REMARK SMILES IDX 21 13 23 14 26 15 27 16 28 17 29 18 11 19 10 20 9 21 12 22
REMARK SMILES IDX 30 23 24 24 25 25 18 26 8 27 2 28 3 29 1 30 22 31
REMARK H PARENT 22 32
REMARK Flexibility Score: inf
ROOT
ATOM      1  C   UNL     1      48.482   2.071  15.516  1.00  0.00     0.018 C 
ATOM      2  C   UNL     1      49.543   2.863  14.759  1.00  0.00     0.009 C 
ATOM      3  C   UNL     1      49.081   2.874  13.308  1.00  0.00     0.008 C 
ATOM      4  C   UNL     1      47.951   1.814  13.173  1.00  0.00    -0.029 C 
ATOM      5  C   UNL     1      47.987   0.987  14.510  1.00  0.00     0.006 C 
ATOM      6  C   UNL     1      48.898  -0.312  14.469  1.00  0.00    -0.000 C 
ATOM      7  C   UNL     1      48.567  -1.278  15.617  1.00  0.00     0.005 C 
ATOM      8  C   UNL     1      49.650  -2.333  15.751  1.00  0.00     0.005 C 
ATOM      9  C   UNL     1      49.838  -3.226  14.489  1.00  0.00     0.002 C 
ATOM     10  C   UNL     1      51.015  -4.312  14.694  1.00  0.00    -0.026 C 
ATOM     11  C   UNL     1      50.979  -4.920  16.142  1.00  0.00     0.010 C 
ATOM     12  C   UNL     1      52.163  -5.842  16.473  1.00  0.00     0.033 C 
ATOM     13  C   UNL     1      53.502  -5.106  16.295  1.00  0.00     0.120 C 
ATOM     14  C   UNL     1      53.690  -4.494  14.867  1.00  0.00    -0.006 C 
ATOM     15  C   UNL     1      52.417  -3.612  14.512  1.00  0.00     0.003 C 
ATOM     16  C   UNL     1      52.512  -2.866  13.162  1.00  0.00     0.005 C 
ATOM     17  C   UNL     1      51.405  -1.813  13.007  1.00  0.00     0.008 C 
ATOM     18  C   UNL     1      49.942  -2.353  13.145  1.00  0.00    -0.024 C 
ATOM     19  C   UNL     1      48.868  -1.127  13.126  1.00  0.00    -0.024 C 
ATOM     20  C   UNL     1      49.196  -0.098  11.999  1.00  0.00     0.008 C 
ATOM     21  C   UNL     1      48.136   0.991  11.875  1.00  0.00     0.007 C 
ATOM     22  C   UNL     1      47.425  -1.695  12.877  1.00  0.00     0.012 C 
ATOM     23  C   UNL     1      49.650  -3.261  11.900  1.00  0.00     0.012 C 
ATOM     24  C   UNL     1      53.983  -5.604  13.821  1.00  0.00     0.014 C 
ATOM     25  C   UNL     1      54.952  -3.587  14.926  1.00  0.00     0.014 C 
ATOM     26  C   UNL     1      50.783  -5.500  13.698  1.00  0.00     0.012 C 
ATOM     27  C   UNL     1      46.586   2.544  13.047  1.00  0.00     0.011 C 
ENDROOT
BRANCH   1  28
ATOM     28  C   UNL     1      48.890   1.631  16.918  1.00  0.00    -0.077 C 
ATOM     29  C   UNL     1      49.607   2.563  17.868  1.00  0.00     0.039 C 
ATOM     30  C   UNL     1      48.515   0.413  17.351  1.00  0.00     0.008 C 
ENDBRANCH   1  28
BRANCH  13  31
ATOM     31  O   UNL     1      54.580  -5.935  16.664  1.00  0.00    -0.393 OA
ATOM     32  H   UNL     1      55.422  -5.422  16.546  1.00  0.00     0.210 HD
ENDBRANCH  13  31
TORSDOF 2
ENDMDL
