MODEL 1
REMARK VINA RESULT:    -3.718      0.000      0.000
REMARK INTER + INTRA:          -5.424
REMARK INTER:                  -5.022
REMARK INTRA:                  -0.402
REMARK UNBOUND:                -0.402
REMARK SMILES CCCCCCC=CC(=O)[O-]
REMARK SMILES IDX 5 1 6 2 7 3 8 4 9 5 10 6 11 7 4 8 3 9 2 10 1 11
REMARK H PARENT
REMARK Flexibility Score: inf
ROOT
ATOM      1  C   UNL     1      62.319  33.192  60.064  1.00  0.00     0.004 C 
ENDROOT
BRANCH   1   2
ATOM      2  C   UNL     1      61.261  32.104  59.838  1.00  0.00     0.027 C 
BRANCH   2   3
ATOM      3  C   UNL     1      60.804  31.507  61.142  1.00  0.00    -0.025 C 
ATOM      4  C   UNL     1      61.388  30.486  61.790  1.00  0.00     0.020 C 
BRANCH   4   5
ATOM      5  C   UNL     1      62.565  29.713  61.340  1.00  0.00     0.064 C 
ATOM      6  O   UNL     1      62.392  28.557  60.873  1.00  0.00    -0.545 OA
ATOM      7  O   UNL     1      63.854  30.228  61.389  1.00  0.00    -0.545 OA
ENDBRANCH   4   5
ENDBRANCH   2   3
ENDBRANCH   1   2
BRANCH   1   8
ATOM      8  C   UNL     1      61.663  34.574  60.204  1.00  0.00     0.000 C 
BRANCH   8   9
ATOM      9  C   UNL     1      62.582  35.600  60.887  1.00  0.00    -0.000 C 
BRANCH   9  10
ATOM     10  C   UNL     1      63.986  35.043  61.166  1.00  0.00    -0.003 C 
ATOM     11  C   UNL     1      64.852  36.071  61.886  1.00  0.00     0.004 C 
ENDBRANCH   9  10
ENDBRANCH   8   9
ENDBRANCH   1   8
TORSDOF 6
ENDMDL
MODEL 2
REMARK VINA RESULT:    -3.711     12.386     14.016
REMARK INTER + INTRA:          -5.414
REMARK INTER:                  -5.155
REMARK INTRA:                  -0.259
REMARK UNBOUND:                -0.402
REMARK SMILES CCCCCCC=CC(=O)[O-]
REMARK SMILES IDX 5 1 6 2 7 3 8 4 9 5 10 6 11 7 4 8 3 9 2 10 1 11
REMARK H PARENT
REMARK Flexibility Score: inf
ROOT
ATOM      1  C   UNL     1      55.847  29.098  50.900  1.00  0.00     0.004 C 
ENDROOT
BRANCH   1   2
ATOM      2  C   UNL     1      57.260  28.511  50.784  1.00  0.00     0.027 C 
BRANCH   2   3
ATOM      3  C   UNL     1      58.116  29.328  49.855  1.00  0.00    -0.025 C 
ATOM      4  C   UNL     1      59.264  28.929  49.284  1.00  0.00     0.020 C 
BRANCH   4   5
ATOM      5  C   UNL     1      59.943  27.631  49.479  1.00  0.00     0.064 C 
ATOM      6  O   UNL     1      61.169  27.621  49.761  1.00  0.00    -0.545 OA
ATOM      7  O   UNL     1      59.267  26.420  49.391  1.00  0.00    -0.545 OA
ENDBRANCH   4   5
ENDBRANCH   2   3
ENDBRANCH   1   2
BRANCH   1   8
ATOM      8  C   UNL     1      54.804  28.135  50.313  1.00  0.00     0.000 C 
BRANCH   8   9
ATOM      9  C   UNL     1      55.380  26.738  50.033  1.00  0.00    -0.000 C 
BRANCH   9  10
ATOM     10  C   UNL     1      54.429  25.860  49.207  1.00  0.00    -0.003 C 
ATOM     11  C   UNL     1      53.032  26.470  49.145  1.00  0.00     0.004 C 
ENDBRANCH   9  10
ENDBRANCH   8   9
ENDBRANCH   1   8
TORSDOF 6
ENDMDL
MODEL 3
REMARK VINA RESULT:    -3.411     11.319     13.074
REMARK INTER + INTRA:          -5.009
REMARK INTER:                  -4.615
REMARK INTRA:                  -0.394
REMARK UNBOUND:                -0.402
REMARK SMILES CCCCCCC=CC(=O)[O-]
REMARK SMILES IDX 5 1 6 2 7 3 8 4 9 5 10 6 11 7 4 8 3 9 2 10 1 11
REMARK H PARENT
REMARK Flexibility Score: inf
ROOT
ATOM      1  C   UNL     1      57.912  29.282  50.532  1.00  0.00     0.004 C 
ENDROOT
BRANCH   1   2
ATOM      2  C   UNL     1      58.859  29.314  49.325  1.00  0.00     0.027 C 
BRANCH   2   3
ATOM      3  C   UNL     1      59.661  28.045  49.225  1.00  0.00    -0.025 C 
ATOM      4  C   UNL     1      60.895  27.851  49.718  1.00  0.00     0.020 C 
BRANCH   4   5
ATOM      5  C   UNL     1      61.733  28.847  50.418  1.00  0.00     0.064 C 
ATOM      6  O   UNL     1      62.691  29.379  49.799  1.00  0.00    -0.545 OA
ATOM      7  O   UNL     1      61.484  29.238  51.727  1.00  0.00    -0.545 OA
ENDBRANCH   4   5
ENDBRANCH   2   3
ENDBRANCH   1   2
BRANCH   1   8
ATOM      8  C   UNL     1      56.879  28.155  50.388  1.00  0.00     0.000 C 
BRANCH   8   9
ATOM      9  C   UNL     1      55.434  28.651  50.562  1.00  0.00    -0.000 C 
BRANCH   9  10
ATOM     10  C   UNL     1      54.401  27.681  49.969  1.00  0.00    -0.003 C 
ATOM     11  C   UNL     1      55.022  26.316  49.691  1.00  0.00     0.004 C 
ENDBRANCH   9  10
ENDBRANCH   8   9
ENDBRANCH   1   8
TORSDOF 6
ENDMDL
MODEL 4
REMARK VINA RESULT:    -3.326      1.189      2.091
REMARK INTER + INTRA:          -4.895
REMARK INTER:                  -4.351
REMARK INTRA:                  -0.544
REMARK UNBOUND:                -0.402
REMARK SMILES CCCCCCC=CC(=O)[O-]
REMARK SMILES IDX 5 1 6 2 7 3 8 4 9 5 10 6 11 7 4 8 3 9 2 10 1 11
REMARK H PARENT
REMARK Flexibility Score: inf
ROOT
ATOM      1  C   UNL     1      63.965  32.983  60.394  1.00  0.00     0.004 C 
ENDROOT
BRANCH   1   2
ATOM      2  C   UNL     1      62.731  32.350  59.737  1.00  0.00     0.027 C 
BRANCH   2   3
ATOM      3  C   UNL     1      61.521  32.463  60.624  1.00  0.00    -0.025 C 
ATOM      4  C   UNL     1      60.874  31.443  61.210  1.00  0.00     0.020 C 
BRANCH   4   5
ATOM      5  C   UNL     1      61.184  30.004  61.071  1.00  0.00     0.064 C 
ATOM      6  O   UNL     1      62.130  29.519  61.745  1.00  0.00    -0.545 OA
ATOM      7  O   UNL     1      60.452  29.164  60.243  1.00  0.00    -0.545 OA
ENDBRANCH   4   5
ENDBRANCH   2   3
ENDBRANCH   1   2
BRANCH   1   8
ATOM      8  C   UNL     1      64.052  34.481  60.065  1.00  0.00     0.000 C 
BRANCH   8   9
ATOM      9  C   UNL     1      64.175  35.357  61.322  1.00  0.00    -0.000 C 
BRANCH   9  10
ATOM     10  C   UNL     1      63.111  36.463  61.379  1.00  0.00    -0.003 C 
ATOM     11  C   UNL     1      61.886  36.092  60.549  1.00  0.00     0.004 C 
ENDBRANCH   9  10
ENDBRANCH   8   9
ENDBRANCH   1   8
TORSDOF 6
ENDMDL
MODEL 5
REMARK VINA RESULT:    -3.273     12.322     13.417
REMARK INTER + INTRA:          -4.823
REMARK INTER:                  -4.477
REMARK INTRA:                  -0.345
REMARK UNBOUND:                -0.402
REMARK SMILES CCCCCCC=CC(=O)[O-]
REMARK SMILES IDX 5 1 6 2 7 3 8 4 9 5 10 6 11 7 4 8 3 9 2 10 1 11
REMARK H PARENT
REMARK Flexibility Score: inf
ROOT
ATOM      1  C   UNL     1      58.157  29.410  50.608  1.00  0.00     0.004 C 
ENDROOT
BRANCH   1   2
ATOM      2  C   UNL     1      57.170  28.240  50.717  1.00  0.00     0.027 C 
BRANCH   2   3
ATOM      3  C   UNL     1      55.760  28.687  50.441  1.00  0.00    -0.025 C 
ATOM      4  C   UNL     1      54.710  27.885  50.199  1.00  0.00     0.020 C 
BRANCH   4   5
ATOM      5  C   UNL     1      54.729  26.410  50.111  1.00  0.00     0.064 C 
ATOM      6  O   UNL     1      54.839  25.738  51.169  1.00  0.00    -0.545 OA
ATOM      7  O   UNL     1      54.602  25.738  48.902  1.00  0.00    -0.545 OA
ENDBRANCH   4   5
ENDBRANCH   2   3
ENDBRANCH   1   2
BRANCH   1   8
ATOM      8  C   UNL     1      58.998  29.299  49.328  1.00  0.00     0.000 C 
BRANCH   8   9
ATOM      9  C   UNL     1      59.638  27.911  49.159  1.00  0.00    -0.000 C 
BRANCH   9  10
ATOM     10  C   UNL     1      61.027  27.817  49.806  1.00  0.00    -0.003 C 
ATOM     11  C   UNL     1      61.359  26.379  50.191  1.00  0.00     0.004 C 
ENDBRANCH   9  10
ENDBRANCH   8   9
ENDBRANCH   1   8
TORSDOF 6
ENDMDL
MODEL 6
REMARK VINA RESULT:    -3.246      2.784      5.293
REMARK INTER + INTRA:          -4.787
REMARK INTER:                  -4.315
REMARK INTRA:                  -0.472
REMARK UNBOUND:                -0.402
REMARK SMILES CCCCCCC=CC(=O)[O-]
REMARK SMILES IDX 5 1 6 2 7 3 8 4 9 5 10 6 11 7 4 8 3 9 2 10 1 11
REMARK H PARENT
REMARK Flexibility Score: inf
ROOT
ATOM      1  C   UNL     1      62.037  32.771  60.505  1.00  0.00     0.004 C 
ENDROOT
BRANCH   1   2
ATOM      2  C   UNL     1      62.065  34.057  59.667  1.00  0.00     0.027 C 
BRANCH   2   3
ATOM      3  C   UNL     1      61.792  35.269  60.517  1.00  0.00    -0.025 C 
ATOM      4  C   UNL     1      62.718  36.051  61.095  1.00  0.00     0.020 C 
BRANCH   4   5
ATOM      5  C   UNL     1      64.183  35.863  61.055  1.00  0.00     0.064 C 
ATOM      6  O   UNL     1      64.735  35.184  61.960  1.00  0.00    -0.545 OA
ATOM      7  O   UNL     1      64.970  36.387  60.037  1.00  0.00    -0.545 OA
ENDBRANCH   4   5
ENDBRANCH   2   3
ENDBRANCH   1   2
BRANCH   1   8
ATOM      8  C   UNL     1      63.420  32.103  60.527  1.00  0.00     0.000 C 
BRANCH   8   9
ATOM      9  C   UNL     1      63.408  30.744  61.245  1.00  0.00    -0.000 C 
BRANCH   9  10
ATOM     10  C   UNL     1      61.993  30.288  61.628  1.00  0.00    -0.003 C 
ATOM     11  C   UNL     1      61.669  28.927  61.020  1.00  0.00     0.004 C 
ENDBRANCH   9  10
ENDBRANCH   8   9
ENDBRANCH   1   8
TORSDOF 6
ENDMDL
MODEL 7
REMARK VINA RESULT:    -3.200     12.614     13.500
REMARK INTER + INTRA:          -4.724
REMARK INTER:                  -3.967
REMARK INTRA:                  -0.757
REMARK UNBOUND:                -0.402
REMARK SMILES CCCCCCC=CC(=O)[O-]
REMARK SMILES IDX 5 1 6 2 7 3 8 4 9 5 10 6 11 7 4 8 3 9 2 10 1 11
REMARK H PARENT
REMARK Flexibility Score: inf
ROOT
ATOM      1  C   UNL     1      58.297  25.728  51.110  1.00  0.00     0.004 C 
ENDROOT
BRANCH   1   2
ATOM      2  C   UNL     1      56.835  26.089  51.406  1.00  0.00     0.027 C 
BRANCH   2   3
ATOM      3  C   UNL     1      56.035  26.213  50.137  1.00  0.00    -0.025 C 
ATOM      4  C   UNL     1      55.047  27.093  49.910  1.00  0.00     0.020 C 
BRANCH   4   5
ATOM      5  C   UNL     1      54.514  28.088  50.865  1.00  0.00     0.064 C 
ATOM      6  O   UNL     1      54.746  29.308  50.665  1.00  0.00    -0.545 OA
ATOM      7  O   UNL     1      53.744  27.724  51.962  1.00  0.00    -0.545 OA
ENDBRANCH   4   5
ENDBRANCH   2   3
ENDBRANCH   1   2
BRANCH   1   8
ATOM      8  C   UNL     1      58.714  26.232  49.720  1.00  0.00     0.000 C 
BRANCH   8   9
ATOM      9  C   UNL     1      59.761  27.355  49.787  1.00  0.00    -0.000 C 
BRANCH   9  10
ATOM     10  C   UNL     1      59.261  28.667  49.163  1.00  0.00    -0.003 C 
ATOM     11  C   UNL     1      58.231  29.346  50.061  1.00  0.00     0.004 C 
ENDBRANCH   9  10
ENDBRANCH   8   9
ENDBRANCH   1   8
TORSDOF 6
ENDMDL
MODEL 8
REMARK VINA RESULT:    -3.185      1.741      2.452
REMARK INTER + INTRA:          -4.704
REMARK INTER:                  -4.151
REMARK INTRA:                  -0.553
REMARK UNBOUND:                -0.402
REMARK SMILES CCCCCCC=CC(=O)[O-]
REMARK SMILES IDX 5 1 6 2 7 3 8 4 9 5 10 6 11 7 4 8 3 9 2 10 1 11
REMARK H PARENT
REMARK Flexibility Score: inf
ROOT
ATOM      1  C   UNL     1      63.932  31.762  59.471  1.00  0.00     0.004 C 
ENDROOT
BRANCH   1   2
ATOM      2  C   UNL     1      64.015  31.444  60.970  1.00  0.00     0.027 C 
BRANCH   2   3
ATOM      3  C   UNL     1      63.621  30.019  61.249  1.00  0.00    -0.025 C 
ATOM      4  C   UNL     1      62.367  29.538  61.279  1.00  0.00     0.020 C 
BRANCH   4   5
ATOM      5  C   UNL     1      61.121  30.310  61.089  1.00  0.00     0.064 C 
ATOM      6  O   UNL     1      60.498  30.201  60.001  1.00  0.00    -0.545 OA
ATOM      7  O   UNL     1      60.599  31.132  62.079  1.00  0.00    -0.545 OA
ENDBRANCH   4   5
ENDBRANCH   2   3
ENDBRANCH   1   2
BRANCH   1   8
ATOM      8  C   UNL     1      63.042  32.987  59.219  1.00  0.00     0.000 C 
BRANCH   8   9
ATOM      9  C   UNL     1      62.559  33.645  60.522  1.00  0.00    -0.000 C 
BRANCH   9  10
ATOM     10  C   UNL     1      62.069  35.085  60.311  1.00  0.00    -0.003 C 
ATOM     11  C   UNL     1      62.918  36.077  61.100  1.00  0.00     0.004 C 
ENDBRANCH   9  10
ENDBRANCH   8   9
ENDBRANCH   1   8
TORSDOF 6
ENDMDL
MODEL 9
REMARK VINA RESULT:    -3.148      1.557      2.185
REMARK INTER + INTRA:          -4.654
REMARK INTER:                  -4.357
REMARK INTRA:                  -0.297
REMARK UNBOUND:                -0.402
REMARK SMILES CCCCCCC=CC(=O)[O-]
REMARK SMILES IDX 5 1 6 2 7 3 8 4 9 5 10 6 11 7 4 8 3 9 2 10 1 11
REMARK H PARENT
REMARK Flexibility Score: inf
ROOT
ATOM      1  C   UNL     1      61.572  31.969  60.089  1.00  0.00     0.004 C 
ENDROOT
BRANCH   1   2
ATOM      2  C   UNL     1      61.082  31.127  61.275  1.00  0.00     0.027 C 
BRANCH   2   3
ATOM      3  C   UNL     1      62.071  30.049  61.626  1.00  0.00    -0.025 C 
ATOM      4  C   UNL     1      62.033  28.774  61.204  1.00  0.00     0.020 C 
BRANCH   4   5
ATOM      5  C   UNL     1      60.996  28.159  60.349  1.00  0.00     0.064 C 
ATOM      6  O   UNL     1      61.137  28.197  59.099  1.00  0.00    -0.545 OA
ATOM      7  O   UNL     1      59.885  27.515  60.878  1.00  0.00    -0.545 OA
ENDBRANCH   4   5
ENDBRANCH   2   3
ENDBRANCH   1   2
BRANCH   1   8
ATOM      8  C   UNL     1      61.727  33.443  60.491  1.00  0.00     0.000 C 
BRANCH   8   9
ATOM      9  C   UNL     1      63.191  33.910  60.478  1.00  0.00    -0.000 C 
BRANCH   9  10
ATOM     10  C   UNL     1      63.346  35.384  60.880  1.00  0.00    -0.003 C 
ATOM     11  C   UNL     1      64.656  35.617  61.626  1.00  0.00     0.004 C 
ENDBRANCH   9  10
ENDBRANCH   8   9
ENDBRANCH   1   8
TORSDOF 6
ENDMDL
