MODEL 1
REMARK VINA RESULT:    -3.369      0.000      0.000
REMARK INTER + INTRA:          -8.905
REMARK INTER:                  -6.126
REMARK INTRA:                  -2.779
REMARK UNBOUND:                -2.779
REMARK SMILES CCCCCC=CCC=CCCCCCCCC(=O)[O-]
REMARK SMILES IDX 11 1 12 2 13 3 14 4 15 5 16 6 17 7 18 8 19 9 20 10 10 11
REMARK SMILES IDX 9 12 8 13 7 14 6 15 5 16 4 17 3 18 2 19 1 20
REMARK H PARENT
REMARK Flexibility Score: inf
ROOT
ATOM      1  C   UNL     1      32.230  -3.058  -1.110  1.00  0.00     0.027 C 
ENDROOT
BRANCH   1   2
ATOM      2  C   UNL     1      32.626  -1.578  -0.999  1.00  0.00     0.004 C 
BRANCH   2   3
ATOM      3  C   UNL     1      32.571  -1.061   0.454  1.00  0.00     0.000 C 
BRANCH   3   4
ATOM      4  C   UNL     1      31.954   0.344   0.590  1.00  0.00     0.000 C 
BRANCH   4   5
ATOM      5  C   UNL     1      30.808   0.651  -0.390  1.00  0.00     0.000 C 
BRANCH   5   6
ATOM      6  C   UNL     1      29.391   0.350   0.139  1.00  0.00     0.006 C 
BRANCH   6   7
ATOM      7  C   UNL     1      28.818  -0.999  -0.332  1.00  0.00     0.053 C 
BRANCH   7   8
ATOM      8  C   UNL     1      28.552  -1.942   0.803  1.00  0.00     0.041 C 
ATOM      9  O   UNL     1      27.587  -2.750   0.746  1.00  0.00    -0.550 OA
ATOM     10  O   UNL     1      29.344  -1.899   1.944  1.00  0.00    -0.550 OA
ENDBRANCH   7   8
ENDBRANCH   6   7
ENDBRANCH   5   6
ENDBRANCH   4   5
ENDBRANCH   3   4
ENDBRANCH   2   3
ENDBRANCH   1   2
BRANCH   1  11
ATOM     11  C   UNL     1      31.834  -3.614   0.229  1.00  0.00    -0.031 C 
ATOM     12  C   UNL     1      31.012  -4.670   0.336  1.00  0.00    -0.027 C 
BRANCH  12  13
ATOM     13  C   UNL     1      30.612  -5.224   1.675  1.00  0.00     0.054 C 
BRANCH  13  14
ATOM     14  C   UNL     1      31.034  -6.665   1.818  1.00  0.00    -0.027 C 
ATOM     15  C   UNL     1      31.767  -7.150   2.838  1.00  0.00    -0.031 C 
BRANCH  15  16
ATOM     16  C   UNL     1      32.219  -6.342   4.030  1.00  0.00     0.027 C 
BRANCH  16  17
ATOM     17  C   UNL     1      33.681  -5.892   3.899  1.00  0.00     0.004 C 
BRANCH  17  18
ATOM     18  C   UNL     1      33.798  -4.437   3.423  1.00  0.00     0.000 C 
BRANCH  18  19
ATOM     19  C   UNL     1      34.772  -4.321   2.245  1.00  0.00    -0.003 C 
ATOM     20  C   UNL     1      34.788  -5.600   1.414  1.00  0.00     0.004 C 
ENDBRANCH  18  19
ENDBRANCH  17  18
ENDBRANCH  16  17
ENDBRANCH  15  16
ENDBRANCH  13  14
ENDBRANCH  12  13
ENDBRANCH   1  11
TORSDOF 14
ENDMDL
MODEL 2
REMARK VINA RESULT:    -3.314      2.084      6.201
REMARK INTER + INTRA:          -8.805
REMARK INTER:                  -6.139
REMARK INTRA:                  -2.666
REMARK UNBOUND:                -2.779
REMARK SMILES CCCCCC=CCC=CCCCCCCCC(=O)[O-]
REMARK SMILES IDX 11 1 12 2 13 3 14 4 15 5 16 6 17 7 18 8 19 9 20 10 10 11
REMARK SMILES IDX 9 12 8 13 7 14 6 15 5 16 4 17 3 18 2 19 1 20
REMARK H PARENT
REMARK Flexibility Score: inf
ROOT
ATOM      1  C   UNL     1      32.035  -0.006   0.629  1.00  0.00     0.027 C 
ENDROOT
BRANCH   1   2
ATOM      2  C   UNL     1      32.499  -0.887  -0.540  1.00  0.00     0.004 C 
BRANCH   2   3
ATOM      3  C   UNL     1      33.443  -2.020  -0.085  1.00  0.00     0.000 C 
BRANCH   3   4
ATOM      4  C   UNL     1      32.837  -3.429  -0.231  1.00  0.00     0.000 C 
BRANCH   4   5
ATOM      5  C   UNL     1      33.337  -4.464   0.791  1.00  0.00     0.000 C 
BRANCH   5   6
ATOM      6  C   UNL     1      32.800  -4.286   2.226  1.00  0.00     0.006 C 
BRANCH   6   7
ATOM      7  C   UNL     1      32.447  -5.608   2.933  1.00  0.00     0.053 C 
BRANCH   7   8
ATOM      8  C   UNL     1      31.164  -6.205   2.436  1.00  0.00     0.041 C 
ATOM      9  O   UNL     1      30.061  -5.823   2.908  1.00  0.00    -0.550 OA
ATOM     10  O   UNL     1      31.191  -7.215   1.482  1.00  0.00    -0.550 OA
ENDBRANCH   7   8
ENDBRANCH   6   7
ENDBRANCH   5   6
ENDBRANCH   4   5
ENDBRANCH   3   4
ENDBRANCH   2   3
ENDBRANCH   1   2
BRANCH   1  11
ATOM     11  C   UNL     1      30.761   0.716   0.290  1.00  0.00    -0.031 C 
ATOM     12  C   UNL     1      30.237   0.674  -0.945  1.00  0.00    -0.027 C 
BRANCH  12  13
ATOM     13  C   UNL     1      28.965   1.399  -1.287  1.00  0.00     0.054 C 
BRANCH  13  14
ATOM     14  C   UNL     1      27.949   1.270  -0.180  1.00  0.00    -0.027 C 
ATOM     15  C   UNL     1      27.037   0.284  -0.089  1.00  0.00    -0.031 C 
BRANCH  15  16
ATOM     16  C   UNL     1      26.936  -0.882  -1.042  1.00  0.00     0.027 C 
BRANCH  16  17
ATOM     17  C   UNL     1      27.303  -2.210  -0.365  1.00  0.00     0.004 C 
BRANCH  17  18
ATOM     18  C   UNL     1      28.779  -2.579  -0.576  1.00  0.00     0.000 C 
BRANCH  18  19
ATOM     19  C   UNL     1      29.350  -3.287   0.658  1.00  0.00    -0.003 C 
ATOM     20  C   UNL     1      29.414  -2.343   1.855  1.00  0.00     0.004 C 
ENDBRANCH  18  19
ENDBRANCH  17  18
ENDBRANCH  16  17
ENDBRANCH  15  16
ENDBRANCH  13  14
ENDBRANCH  12  13
ENDBRANCH   1  11
TORSDOF 14
ENDMDL
MODEL 3
REMARK VINA RESULT:    -3.301      3.589      6.205
REMARK INTER + INTRA:          -8.783
REMARK INTER:                  -6.183
REMARK INTRA:                  -2.600
REMARK UNBOUND:                -2.779
REMARK SMILES CCCCCC=CCC=CCCCCCCCC(=O)[O-]
REMARK SMILES IDX 11 1 12 2 13 3 14 4 15 5 16 6 17 7 18 8 19 9 20 10 10 11
REMARK SMILES IDX 9 12 8 13 7 14 6 15 5 16 4 17 3 18 2 19 1 20
REMARK H PARENT
REMARK Flexibility Score: inf
ROOT
ATOM      1  C   UNL     1      26.816  -1.764   0.449  1.00  0.00     0.027 C 
ENDROOT
BRANCH   1   2
ATOM      2  C   UNL     1      26.251  -0.341   0.327  1.00  0.00     0.004 C 
BRANCH   2   3
ATOM      3  C   UNL     1      27.361   0.728   0.244  1.00  0.00     0.000 C 
BRANCH   3   4
ATOM      4  C   UNL     1      26.840   2.173   0.360  1.00  0.00     0.000 C 
BRANCH   4   5
ATOM      5  C   UNL     1      27.389   3.152  -0.693  1.00  0.00     0.000 C 
BRANCH   5   6
ATOM      6  C   UNL     1      26.388   3.569  -1.790  1.00  0.00     0.006 C 
BRANCH   6   7
ATOM      7  C   UNL     1      25.909   2.406  -2.678  1.00  0.00     0.053 C 
BRANCH   7   8
ATOM      8  C   UNL     1      24.447   2.116  -2.513  1.00  0.00     0.041 C 
ATOM      9  O   UNL     1      23.632   3.055  -2.311  1.00  0.00    -0.550 OA
ATOM     10  O   UNL     1      23.991   0.804  -2.538  1.00  0.00    -0.550 OA
ENDBRANCH   7   8
ENDBRANCH   6   7
ENDBRANCH   5   6
ENDBRANCH   4   5
ENDBRANCH   3   4
ENDBRANCH   2   3
ENDBRANCH   1   2
BRANCH   1  11
ATOM     11  C   UNL     1      28.241  -1.741   0.928  1.00  0.00    -0.031 C 
ATOM     12  C   UNL     1      28.997  -2.850   0.937  1.00  0.00    -0.027 C 
BRANCH  12  13
ATOM     13  C   UNL     1      30.421  -2.829   1.419  1.00  0.00     0.054 C 
BRANCH  13  14
ATOM     14  C   UNL     1      31.385  -2.679   0.269  1.00  0.00    -0.027 C 
ATOM     15  C   UNL     1      31.972  -1.523  -0.092  1.00  0.00    -0.031 C 
BRANCH  15  16
ATOM     16  C   UNL     1      31.810  -0.213   0.640  1.00  0.00     0.027 C 
BRANCH  16  17
ATOM     17  C   UNL     1      30.900   0.762  -0.120  1.00  0.00     0.004 C 
BRANCH  17  18
ATOM     18  C   UNL     1      31.144   0.718  -1.636  1.00  0.00     0.000 C 
BRANCH  18  19
ATOM     19  C   UNL     1      29.817   0.704  -2.405  1.00  0.00    -0.003 C 
ATOM     20  C   UNL     1      29.272  -0.714  -2.537  1.00  0.00     0.004 C 
ENDBRANCH  18  19
ENDBRANCH  17  18
ENDBRANCH  16  17
ENDBRANCH  15  16
ENDBRANCH  13  14
ENDBRANCH  12  13
ENDBRANCH   1  11
TORSDOF 14
ENDMDL
MODEL 4
REMARK VINA RESULT:    -3.293      2.619      6.722
REMARK INTER + INTRA:          -8.767
REMARK INTER:                  -5.854
REMARK INTRA:                  -2.914
REMARK UNBOUND:                -2.779
REMARK SMILES CCCCCC=CCC=CCCCCCCCC(=O)[O-]
REMARK SMILES IDX 11 1 12 2 13 3 14 4 15 5 16 6 17 7 18 8 19 9 20 10 10 11
REMARK SMILES IDX 9 12 8 13 7 14 6 15 5 16 4 17 3 18 2 19 1 20
REMARK H PARENT
REMARK Flexibility Score: inf
ROOT
ATOM      1  C   UNL     1      30.219   0.715  -2.904  1.00  0.00     0.027 C 
ENDROOT
BRANCH   1   2
ATOM      2  C   UNL     1      31.140   1.279  -1.811  1.00  0.00     0.004 C 
BRANCH   2   3
ATOM      3  C   UNL     1      30.403   1.488  -0.471  1.00  0.00     0.000 C 
BRANCH   3   4
ATOM      4  C   UNL     1      30.846   0.514   0.638  1.00  0.00     0.000 C 
BRANCH   4   5
ATOM      5  C   UNL     1      32.072  -0.351   0.297  1.00  0.00     0.000 C 
BRANCH   5   6
ATOM      6  C   UNL     1      31.797  -1.862   0.167  1.00  0.00     0.006 C 
BRANCH   6   7
ATOM      7  C   UNL     1      31.202  -2.504   1.434  1.00  0.00     0.053 C 
BRANCH   7   8
ATOM      8  C   UNL     1      30.890  -3.959   1.254  1.00  0.00     0.041 C 
ATOM      9  O   UNL     1      31.626  -4.682   0.532  1.00  0.00    -0.550 OA
ATOM     10  O   UNL     1      29.760  -4.507   1.848  1.00  0.00    -0.550 OA
ENDBRANCH   7   8
ENDBRANCH   6   7
ENDBRANCH   5   6
ENDBRANCH   4   5
ENDBRANCH   3   4
ENDBRANCH   2   3
ENDBRANCH   1   2
BRANCH   1  11
ATOM     11  C   UNL     1      29.069  -0.045  -2.303  1.00  0.00    -0.031 C 
ATOM     12  C   UNL     1      29.024  -1.386  -2.327  1.00  0.00    -0.027 C 
BRANCH  12  13
ATOM     13  C   UNL     1      27.873  -2.146  -1.730  1.00  0.00     0.054 C 
BRANCH  13  14
ATOM     14  C   UNL     1      27.953  -2.166  -0.224  1.00  0.00    -0.027 C 
ATOM     15  C   UNL     1      27.242  -1.364   0.592  1.00  0.00    -0.031 C 
BRANCH  15  16
ATOM     16  C   UNL     1      26.204  -0.372   0.127  1.00  0.00     0.027 C 
BRANCH  16  17
ATOM     17  C   UNL     1      26.703   1.076   0.238  1.00  0.00     0.004 C 
BRANCH  17  18
ATOM     18  C   UNL     1      26.330   1.913  -0.994  1.00  0.00     0.000 C 
BRANCH  18  19
ATOM     19  C   UNL     1      25.541   1.076  -2.008  1.00  0.00    -0.003 C 
ATOM     20  C   UNL     1      24.279   1.803  -2.461  1.00  0.00     0.004 C 
ENDBRANCH  18  19
ENDBRANCH  17  18
ENDBRANCH  16  17
ENDBRANCH  15  16
ENDBRANCH  13  14
ENDBRANCH  12  13
ENDBRANCH   1  11
TORSDOF 14
ENDMDL
MODEL 5
REMARK VINA RESULT:    -3.252      1.452      2.932
REMARK INTER + INTRA:          -8.693
REMARK INTER:                  -6.052
REMARK INTRA:                  -2.641
REMARK UNBOUND:                -2.779
REMARK SMILES CCCCCC=CCC=CCCCCCCCC(=O)[O-]
REMARK SMILES IDX 11 1 12 2 13 3 14 4 15 5 16 6 17 7 18 8 19 9 20 10 10 11
REMARK SMILES IDX 9 12 8 13 7 14 6 15 5 16 4 17 3 18 2 19 1 20
REMARK H PARENT
REMARK Flexibility Score: inf
ROOT
ATOM      1  C   UNL     1      32.416  -2.254  -1.375  1.00  0.00     0.027 C 
ENDROOT
BRANCH   1   2
ATOM      2  C   UNL     1      32.284  -0.730  -1.229  1.00  0.00     0.004 C 
BRANCH   2   3
ATOM      3  C   UNL     1      32.440  -0.264   0.234  1.00  0.00     0.000 C 
BRANCH   3   4
ATOM      4  C   UNL     1      31.250   0.567   0.751  1.00  0.00     0.000 C 
BRANCH   4   5
ATOM      5  C   UNL     1      30.359   1.182  -0.343  1.00  0.00     0.000 C 
BRANCH   5   6
ATOM      6  C   UNL     1      28.892   0.704  -0.344  1.00  0.00     0.006 C 
BRANCH   6   7
ATOM      7  C   UNL     1      28.574  -0.346  -1.424  1.00  0.00     0.053 C 
BRANCH   7   8
ATOM      8  C   UNL     1      27.569  -1.361  -0.967  1.00  0.00     0.041 C 
ATOM      9  O   UNL     1      26.647  -1.030  -0.176  1.00  0.00    -0.550 OA
ATOM     10  O   UNL     1      27.678  -2.683  -1.382  1.00  0.00    -0.550 OA
ENDBRANCH   7   8
ENDBRANCH   6   7
ENDBRANCH   5   6
ENDBRANCH   4   5
ENDBRANCH   3   4
ENDBRANCH   2   3
ENDBRANCH   1   2
BRANCH   1  11
ATOM     11  C   UNL     1      33.192  -2.842  -0.229  1.00  0.00    -0.031 C 
ATOM     12  C   UNL     1      33.835  -4.014  -0.345  1.00  0.00    -0.027 C 
BRANCH  12  13
ATOM     13  C   UNL     1      34.608  -4.604   0.801  1.00  0.00     0.054 C 
BRANCH  13  14
ATOM     14  C   UNL     1      34.035  -4.172   2.128  1.00  0.00    -0.027 C 
ATOM     15  C   UNL     1      33.060  -4.824   2.789  1.00  0.00    -0.031 C 
BRANCH  15  16
ATOM     16  C   UNL     1      32.441  -6.125   2.340  1.00  0.00     0.027 C 
BRANCH  16  17
ATOM     17  C   UNL     1      31.200  -5.898   1.465  1.00  0.00     0.004 C 
BRANCH  17  18
ATOM     18  C   UNL     1      30.221  -4.897   2.097  1.00  0.00     0.000 C 
BRANCH  18  19
ATOM     19  C   UNL     1      29.929  -3.736   1.140  1.00  0.00    -0.003 C 
ATOM     20  C   UNL     1      29.621  -2.454   1.907  1.00  0.00     0.004 C 
ENDBRANCH  18  19
ENDBRANCH  17  18
ENDBRANCH  16  17
ENDBRANCH  15  16
ENDBRANCH  13  14
ENDBRANCH  12  13
ENDBRANCH   1  11
TORSDOF 14
ENDMDL
MODEL 6
REMARK VINA RESULT:    -3.249      2.053      5.815
REMARK INTER + INTRA:          -8.688
REMARK INTER:                  -5.789
REMARK INTRA:                  -2.899
REMARK UNBOUND:                -2.779
REMARK SMILES CCCCCC=CCC=CCCCCCCCC(=O)[O-]
REMARK SMILES IDX 11 1 12 2 13 3 14 4 15 5 16 6 17 7 18 8 19 9 20 10 10 11
REMARK SMILES IDX 9 12 8 13 7 14 6 15 5 16 4 17 3 18 2 19 1 20
REMARK H PARENT
REMARK Flexibility Score: inf
ROOT
ATOM      1  C   UNL     1      31.276  -5.025  -0.421  1.00  0.00     0.027 C 
ENDROOT
BRANCH   1   2
ATOM      2  C   UNL     1      32.620  -4.499  -0.946  1.00  0.00     0.004 C 
BRANCH   2   3
ATOM      3  C   UNL     1      33.818  -5.026  -0.129  1.00  0.00     0.000 C 
BRANCH   3   4
ATOM      4  C   UNL     1      34.395  -3.995   0.861  1.00  0.00     0.000 C 
BRANCH   4   5
ATOM      5  C   UNL     1      34.687  -4.537   2.271  1.00  0.00     0.000 C 
BRANCH   5   6
ATOM      6  C   UNL     1      33.506  -4.471   3.260  1.00  0.00     0.006 C 
BRANCH   6   7
ATOM      7  C   UNL     1      33.073  -5.841   3.813  1.00  0.00     0.053 C 
BRANCH   7   8
ATOM      8  C   UNL     1      31.983  -6.475   3.001  1.00  0.00     0.041 C 
ATOM      9  O   UNL     1      30.777  -6.184   3.219  1.00  0.00    -0.550 OA
ATOM     10  O   UNL     1      32.297  -7.420   2.032  1.00  0.00    -0.550 OA
ENDBRANCH   7   8
ENDBRANCH   6   7
ENDBRANCH   5   6
ENDBRANCH   4   5
ENDBRANCH   3   4
ENDBRANCH   2   3
ENDBRANCH   1   2
BRANCH   1  11
ATOM     11  C   UNL     1      30.424  -3.902   0.104  1.00  0.00    -0.031 C 
ATOM     12  C   UNL     1      30.654  -3.347   1.303  1.00  0.00    -0.027 C 
BRANCH  12  13
ATOM     13  C   UNL     1      29.801  -2.227   1.831  1.00  0.00     0.054 C 
BRANCH  13  14
ATOM     14  C   UNL     1      28.447  -2.212   1.166  1.00  0.00    -0.027 C 
ATOM     15  C   UNL     1      28.017  -1.252   0.326  1.00  0.00    -0.031 C 
BRANCH  15  16
ATOM     16  C   UNL     1      28.849  -0.079  -0.133  1.00  0.00     0.027 C 
BRANCH  16  17
ATOM     17  C   UNL     1      29.573  -0.371  -1.455  1.00  0.00     0.004 C 
BRANCH  17  18
ATOM     18  C   UNL     1      30.975   0.253  -1.497  1.00  0.00     0.000 C 
BRANCH  18  19
ATOM     19  C   UNL     1      32.055  -0.805  -1.243  1.00  0.00    -0.003 C 
ATOM     20  C   UNL     1      32.755  -0.571   0.091  1.00  0.00     0.004 C 
ENDBRANCH  18  19
ENDBRANCH  17  18
ENDBRANCH  16  17
ENDBRANCH  15  16
ENDBRANCH  13  14
ENDBRANCH  12  13
ENDBRANCH   1  11
TORSDOF 14
ENDMDL
MODEL 7
REMARK VINA RESULT:    -3.243      3.774      6.190
REMARK INTER + INTRA:          -8.676
REMARK INTER:                  -5.679
REMARK INTRA:                  -2.997
REMARK UNBOUND:                -2.779
REMARK SMILES CCCCCC=CCC=CCCCCCCCC(=O)[O-]
REMARK SMILES IDX 11 1 12 2 13 3 14 4 15 5 16 6 17 7 18 8 19 9 20 10 10 11
REMARK SMILES IDX 9 12 8 13 7 14 6 15 5 16 4 17 3 18 2 19 1 20
REMARK H PARENT
REMARK Flexibility Score: inf
ROOT
ATOM      1  C   UNL     1      29.562  -2.385   1.765  1.00  0.00     0.027 C 
ENDROOT
BRANCH   1   2
ATOM      2  C   UNL     1      28.386  -2.987   0.981  1.00  0.00     0.004 C 
BRANCH   2   3
ATOM      3  C   UNL     1      27.699  -1.953   0.065  1.00  0.00     0.000 C 
BRANCH   3   4
ATOM      4  C   UNL     1      26.404  -1.364   0.656  1.00  0.00     0.000 C 
BRANCH   4   5
ATOM      5  C   UNL     1      26.058   0.059   0.184  1.00  0.00     0.000 C 
BRANCH   5   6
ATOM      6  C   UNL     1      27.212   1.079   0.269  1.00  0.00     0.006 C 
BRANCH   6   7
ATOM      7  C   UNL     1      26.891   2.444  -0.368  1.00  0.00     0.053 C 
BRANCH   7   8
ATOM      8  C   UNL     1      26.289   2.318  -1.735  1.00  0.00     0.041 C 
ATOM      9  O   UNL     1      26.988   1.916  -2.702  1.00  0.00    -0.550 OA
ATOM     10  O   UNL     1      24.966   2.687  -1.949  1.00  0.00    -0.550 OA
ENDBRANCH   7   8
ENDBRANCH   6   7
ENDBRANCH   5   6
ENDBRANCH   4   5
ENDBRANCH   3   4
ENDBRANCH   2   3
ENDBRANCH   1   2
BRANCH   1  11
ATOM     11  C   UNL     1      30.137  -1.195   1.049  1.00  0.00    -0.031 C 
ATOM     12  C   UNL     1      31.405  -1.185   0.609  1.00  0.00    -0.027 C 
BRANCH  12  13
ATOM     13  C   UNL     1      31.981   0.006  -0.104  1.00  0.00     0.054 C 
BRANCH  13  14
ATOM     14  C   UNL     1      30.900   0.976  -0.511  1.00  0.00    -0.027 C 
ATOM     15  C   UNL     1      30.354   1.044  -1.740  1.00  0.00    -0.031 C 
BRANCH  15  16
ATOM     16  C   UNL     1      30.690   0.113  -2.879  1.00  0.00     0.027 C 
BRANCH  16  17
ATOM     17  C   UNL     1      29.840  -1.165  -2.847  1.00  0.00     0.004 C 
BRANCH  17  18
ATOM     18  C   UNL     1      30.704  -2.435  -2.833  1.00  0.00     0.000 C 
BRANCH  18  19
ATOM     19  C   UNL     1      29.913  -3.631  -2.292  1.00  0.00    -0.003 C 
ATOM     20  C   UNL     1      30.778  -4.499  -1.384  1.00  0.00     0.004 C 
ENDBRANCH  18  19
ENDBRANCH  17  18
ENDBRANCH  16  17
ENDBRANCH  15  16
ENDBRANCH  13  14
ENDBRANCH  12  13
ENDBRANCH   1  11
TORSDOF 14
ENDMDL
MODEL 8
REMARK VINA RESULT:    -3.242      3.154      6.157
REMARK INTER + INTRA:          -8.674
REMARK INTER:                  -5.716
REMARK INTRA:                  -2.958
REMARK UNBOUND:                -2.779
REMARK SMILES CCCCCC=CCC=CCCCCCCCC(=O)[O-]
REMARK SMILES IDX 11 1 12 2 13 3 14 4 15 5 16 6 17 7 18 8 19 9 20 10 10 11
REMARK SMILES IDX 9 12 8 13 7 14 6 15 5 16 4 17 3 18 2 19 1 20
REMARK H PARENT
REMARK Flexibility Score: inf
ROOT
ATOM      1  C   UNL     1      26.075   0.413  -2.211  1.00  0.00     0.027 C 
ENDROOT
BRANCH   1   2
ATOM      2  C   UNL     1      26.064   1.273  -0.938  1.00  0.00     0.004 C 
BRANCH   2   3
ATOM      3  C   UNL     1      26.696   0.548   0.268  1.00  0.00     0.000 C 
BRANCH   3   4
ATOM      4  C   UNL     1      26.007  -0.785   0.620  1.00  0.00     0.000 C 
BRANCH   4   5
ATOM      5  C   UNL     1      26.895  -2.034   0.487  1.00  0.00     0.000 C 
BRANCH   5   6
ATOM      6  C   UNL     1      28.412  -1.762   0.435  1.00  0.00     0.006 C 
BRANCH   6   7
ATOM      7  C   UNL     1      29.177  -2.227   1.689  1.00  0.00     0.053 C 
BRANCH   7   8
ATOM      8  C   UNL     1      29.574  -3.671   1.622  1.00  0.00     0.041 C 
ATOM      9  O   UNL     1      29.134  -4.491   2.471  1.00  0.00    -0.550 OA
ATOM     10  O   UNL     1      30.465  -4.103   0.647  1.00  0.00    -0.550 OA
ENDBRANCH   7   8
ENDBRANCH   6   7
ENDBRANCH   5   6
ENDBRANCH   4   5
ENDBRANCH   3   4
ENDBRANCH   2   3
ENDBRANCH   1   2
BRANCH   1  11
ATOM     11  C   UNL     1      27.468   0.273  -2.758  1.00  0.00    -0.031 C 
ATOM     12  C   UNL     1      28.021  -0.931  -2.971  1.00  0.00    -0.027 C 
BRANCH  12  13
ATOM     13  C   UNL     1      29.415  -1.072  -3.515  1.00  0.00     0.054 C 
BRANCH  13  14
ATOM     14  C   UNL     1      30.179  -2.152  -2.789  1.00  0.00    -0.027 C 
ATOM     15  C   UNL     1      31.208  -1.930  -1.951  1.00  0.00    -0.031 C 
BRANCH  15  16
ATOM     16  C   UNL     1      31.712  -0.563  -1.554  1.00  0.00     0.027 C 
BRANCH  16  17
ATOM     17  C   UNL     1      31.892  -0.436  -0.035  1.00  0.00     0.004 C 
BRANCH  17  18
ATOM     18  C   UNL     1      31.178   0.800   0.531  1.00  0.00     0.000 C 
BRANCH  18  19
ATOM     19  C   UNL     1      30.121   1.321  -0.450  1.00  0.00    -0.003 C 
ATOM     20  C   UNL     1      30.377   2.780  -0.813  1.00  0.00     0.004 C 
ENDBRANCH  18  19
ENDBRANCH  17  18
ENDBRANCH  16  17
ENDBRANCH  15  16
ENDBRANCH  13  14
ENDBRANCH  12  13
ENDBRANCH   1  11
TORSDOF 14
ENDMDL
MODEL 9
REMARK VINA RESULT:    -3.211      3.061      7.043
REMARK INTER + INTRA:          -8.619
REMARK INTER:                  -5.276
REMARK INTRA:                  -3.342
REMARK UNBOUND:                -2.779
REMARK SMILES CCCCCC=CCC=CCCCCCCCC(=O)[O-]
REMARK SMILES IDX 11 1 12 2 13 3 14 4 15 5 16 6 17 7 18 8 19 9 20 10 10 11
REMARK SMILES IDX 9 12 8 13 7 14 6 15 5 16 4 17 3 18 2 19 1 20
REMARK H PARENT
REMARK Flexibility Score: inf
ROOT
ATOM      1  C   UNL     1      31.742   0.310  -1.001  1.00  0.00     0.027 C 
ENDROOT
BRANCH   1   2
ATOM      2  C   UNL     1      31.637   0.018   0.503  1.00  0.00     0.004 C 
BRANCH   2   3
ATOM      3  C   UNL     1      30.177  -0.176   0.965  1.00  0.00     0.000 C 
BRANCH   3   4
ATOM      4  C   UNL     1      29.815  -1.640   1.279  1.00  0.00     0.000 C 
BRANCH   4   5
ATOM      5  C   UNL     1      28.720  -2.249   0.386  1.00  0.00     0.000 C 
BRANCH   5   6
ATOM      6  C   UNL     1      29.228  -2.997  -0.863  1.00  0.00     0.006 C 
BRANCH   6   7
ATOM      7  C   UNL     1      30.725  -3.357  -0.814  1.00  0.00     0.053 C 
BRANCH   7   8
ATOM      8  C   UNL     1      30.967  -4.762  -0.350  1.00  0.00     0.041 C 
ATOM      9  O   UNL     1      31.323  -5.650  -1.169  1.00  0.00    -0.550 OA
ATOM     10  O   UNL     1      30.757  -5.101   0.982  1.00  0.00    -0.550 OA
ENDBRANCH   7   8
ENDBRANCH   6   7
ENDBRANCH   5   6
ENDBRANCH   4   5
ENDBRANCH   3   4
ENDBRANCH   2   3
ENDBRANCH   1   2
BRANCH   1  11
ATOM     11  C   UNL     1      30.398   0.653  -1.581  1.00  0.00    -0.031 C 
ATOM     12  C   UNL     1      30.024   0.216  -2.793  1.00  0.00    -0.027 C 
BRANCH  12  13
ATOM     13  C   UNL     1      28.681   0.561  -3.375  1.00  0.00     0.054 C 
BRANCH  13  14
ATOM     14  C   UNL     1      27.665  -0.514  -3.080  1.00  0.00    -0.027 C 
ATOM     15  C   UNL     1      26.618  -0.370  -2.246  1.00  0.00    -0.031 C 
BRANCH  15  16
ATOM     16  C   UNL     1      26.260   0.911  -1.532  1.00  0.00     0.027 C 
BRANCH  16  17
ATOM     17  C   UNL     1      26.862   0.969  -0.121  1.00  0.00     0.004 C 
BRANCH  17  18
ATOM     18  C   UNL     1      27.220   2.403   0.297  1.00  0.00     0.000 C 
BRANCH  18  19
ATOM     19  C   UNL     1      27.548   3.266  -0.927  1.00  0.00    -0.003 C 
ATOM     20  C   UNL     1      28.947   3.864  -0.821  1.00  0.00     0.004 C 
ENDBRANCH  18  19
ENDBRANCH  17  18
ENDBRANCH  16  17
ENDBRANCH  15  16
ENDBRANCH  13  14
ENDBRANCH  12  13
ENDBRANCH   1  11
TORSDOF 14
ENDMDL
