MODEL 1
REMARK VINA RESULT:    -4.386      0.000      0.000
REMARK INTER + INTRA:          -6.883
REMARK INTER:                  -6.053
REMARK INTRA:                  -0.830
REMARK UNBOUND:                -0.830
REMARK SMILES O=C([O-])[C@@H]1O[C@H](Oc2cc3oc(-c4ccccc4)cc(=O)c3c(O)c2O)[C@H](O)[C@@H](O)[C@H]1O
REMARK SMILES IDX 7 1 6 2 4 3 31 4 5 5 29 6 27 7 2 8 1 9 3 10 32 11 30 13
REMARK SMILES IDX 28 15 8 17 25 18 9 19 23 20 10 21 22 22 11 23 20 24 12 25
REMARK SMILES IDX 19 26 21 27 26 28 24 30 13 32 14 33 18 34 15 35 17 36 16 37
REMARK H PARENT 32 12 30 14 28 16 26 29 24 31
REMARK Flexibility Score: inf
ROOT
ATOM      1  O   UNL     1     -12.306  -6.829  -5.248  1.00  0.00    -0.458 OA
ENDROOT
BRANCH   1   2
ATOM      2  C   UNL     1     -13.007  -5.804  -5.964  1.00  0.00     0.339 C 
ATOM      3  C   UNL     1     -14.842  -7.197  -6.566  1.00  0.00     0.199 C 
ATOM      4  C   UNL     1     -15.805  -6.445  -5.613  1.00  0.00     0.180 C 
ATOM      5  O   UNL     1     -13.771  -6.373  -7.019  1.00  0.00    -0.328 OA
ATOM      6  C   UNL     1     -15.026  -5.793  -4.458  1.00  0.00     0.181 C 
ATOM      7  C   UNL     1     -13.886  -4.941  -5.030  1.00  0.00     0.214 C 
BRANCH   3   8
ATOM      8  C   UNL     1     -14.348  -8.527  -6.046  1.00  0.00     0.073 C 
ATOM      9  O   UNL     1     -14.939  -9.125  -5.108  1.00  0.00    -0.547 OA
ATOM     10  O   UNL     1     -13.244  -9.125  -6.643  1.00  0.00    -0.547 OA
ENDBRANCH   3   8
BRANCH   4  11
ATOM     11  O   UNL     1     -16.490  -5.463  -6.351  1.00  0.00    -0.387 OA
ATOM     12  H   UNL     1     -17.445  -5.507  -6.080  1.00  0.00     0.211 HD
ENDBRANCH   4  11
BRANCH   6  13
ATOM     13  O   UNL     1     -15.896  -4.994  -3.696  1.00  0.00    -0.387 OA
ATOM     14  H   UNL     1     -15.899  -5.367  -2.776  1.00  0.00     0.211 HD
ENDBRANCH   6  13
BRANCH   7  15
ATOM     15  O   UNL     1     -13.126  -4.399  -3.980  1.00  0.00    -0.384 OA
ATOM     16  H   UNL     1     -12.306  -4.953  -3.905  1.00  0.00     0.211 HD
ENDBRANCH   7  15
ENDBRANCH   1   2
BRANCH   1  17
ATOM     17  C   UNL     1     -10.912  -6.909  -5.129  1.00  0.00     0.172 A 
ATOM     18  C   UNL     1     -10.286  -7.234  -3.911  1.00  0.00     0.201 A 
ATOM     19  C   UNL     1     -10.143  -6.621  -6.255  1.00  0.00     0.098 A 
ATOM     20  C   UNL     1      -8.874  -7.360  -3.856  1.00  0.00     0.176 A 
ATOM     21  C   UNL     1      -8.754  -6.705  -6.209  1.00  0.00     0.146 A 
ATOM     22  C   UNL     1      -8.102  -7.082  -5.013  1.00  0.00     0.111 A 
ATOM     23  O   UNL     1      -8.054  -6.432  -7.306  1.00  0.00    -0.456 OA
ATOM     24  C   UNL     1      -6.693  -7.166  -5.040  1.00  0.00     0.197 A 
ATOM     25  C   UNL     1      -6.727  -6.489  -7.361  1.00  0.00     0.138 A 
ATOM     26  C   UNL     1      -6.006  -6.871  -6.219  1.00  0.00     0.100 A 
ATOM     27  O   UNL     1      -6.034  -7.508  -4.022  1.00  0.00    -0.289 OA
BRANCH  18  28
ATOM     28  O   UNL     1     -11.085  -7.382  -2.774  1.00  0.00    -0.502 OA
ATOM     29  H   UNL     1     -11.652  -8.195  -2.577  1.00  0.00     0.293 HD
ENDBRANCH  18  28
BRANCH  20  30
ATOM     30  O   UNL     1      -8.225  -7.758  -2.682  1.00  0.00    -0.504 OA
ATOM     31  H   UNL     1      -8.372  -7.334  -1.778  1.00  0.00     0.293 HD
ENDBRANCH  20  30
BRANCH  25  32
ATOM     32  C   UNL     1      -6.051  -6.163  -8.642  1.00  0.00     0.017 A 
ATOM     33  C   UNL     1      -6.649  -6.544  -9.858  1.00  0.00     0.012 A 
ATOM     34  C   UNL     1      -4.834  -5.451  -8.678  1.00  0.00     0.012 A 
ATOM     35  C   UNL     1      -6.037  -6.239 -11.077  1.00  0.00     0.001 A 
ATOM     36  C   UNL     1      -4.227  -5.149  -9.901  1.00  0.00     0.001 A 
ATOM     37  C   UNL     1      -4.826  -5.545 -11.099  1.00  0.00     0.000 A 
ENDBRANCH  25  32
ENDBRANCH   1  17
TORSDOF 9
ENDMDL
MODEL 2
REMARK VINA RESULT:    -4.055      0.990      2.341
REMARK INTER + INTRA:          -6.426
REMARK INTER:                  -6.021
REMARK INTRA:                  -0.405
REMARK UNBOUND:                -0.830
REMARK SMILES O=C([O-])[C@@H]1O[C@H](Oc2cc3oc(-c4ccccc4)cc(=O)c3c(O)c2O)[C@H](O)[C@@H](O)[C@H]1O
REMARK SMILES IDX 7 1 6 2 4 3 31 4 5 5 29 6 27 7 2 8 1 9 3 10 32 11 30 13
REMARK SMILES IDX 28 15 8 17 25 18 9 19 23 20 10 21 22 22 11 23 20 24 12 25
REMARK SMILES IDX 19 26 21 27 26 28 24 30 13 32 14 33 18 34 15 35 17 36 16 37
REMARK H PARENT 32 12 30 14 28 16 26 29 24 31
REMARK Flexibility Score: inf
ROOT
ATOM      1  O   UNL     1     -12.363  -6.712  -5.957  1.00  0.00    -0.458 OA
ENDROOT
BRANCH   1   2
ATOM      2  C   UNL     1     -13.366  -7.555  -5.374  1.00  0.00     0.339 C 
ATOM      3  C   UNL     1     -14.894  -5.781  -4.940  1.00  0.00     0.199 C 
ATOM      4  C   UNL     1     -15.874  -6.276  -6.032  1.00  0.00     0.180 C 
ATOM      5  O   UNL     1     -14.106  -6.836  -4.395  1.00  0.00    -0.328 OA
ATOM      6  C   UNL     1     -15.126  -7.077  -7.111  1.00  0.00     0.181 C 
ATOM      7  C   UNL     1     -14.294  -8.177  -6.442  1.00  0.00     0.214 C 
BRANCH   3   8
ATOM      8  C   UNL     1     -14.046  -4.595  -5.340  1.00  0.00     0.073 C 
ATOM      9  O   UNL     1     -14.373  -3.849  -6.302  1.00  0.00    -0.547 OA
ATOM     10  O   UNL     1     -12.904  -4.295  -4.607  1.00  0.00    -0.547 OA
ENDBRANCH   3   8
BRANCH   4  11
ATOM     11  O   UNL     1     -16.855  -7.080  -5.424  1.00  0.00    -0.387 OA
ATOM     12  H   UNL     1     -17.693  -6.966  -5.946  1.00  0.00     0.211 HD
ENDBRANCH   4  11
BRANCH   6  13
ATOM     13  O   UNL     1     -16.051  -7.641  -8.005  1.00  0.00    -0.387 OA
ATOM     14  H   UNL     1     -15.539  -7.940  -8.802  1.00  0.00     0.211 HD
ENDBRANCH   6  13
BRANCH   7  15
ATOM     15  O   UNL     1     -13.551  -8.868  -7.414  1.00  0.00    -0.384 OA
ATOM     16  H   UNL     1     -12.915  -8.215  -7.806  1.00  0.00     0.211 HD
ENDBRANCH   7  15
ENDBRANCH   1   2
BRANCH   1  17
ATOM     17  C   UNL     1     -10.990  -6.812  -5.700  1.00  0.00     0.172 A 
ATOM     18  C   UNL     1     -10.493  -7.186  -4.438  1.00  0.00     0.201 A 
ATOM     19  C   UNL     1     -10.108  -6.496  -6.732  1.00  0.00     0.098 A 
ATOM     20  C   UNL     1      -9.095  -7.331  -4.245  1.00  0.00     0.176 A 
ATOM     21  C   UNL     1      -8.731  -6.598  -6.549  1.00  0.00     0.146 A 
ATOM     22  C   UNL     1      -8.207  -7.024  -5.308  1.00  0.00     0.111 A 
ATOM     23  O   UNL     1      -7.921  -6.297  -7.560  1.00  0.00    -0.456 OA
ATOM     24  C   UNL     1      -6.804  -7.124  -5.195  1.00  0.00     0.197 A 
ATOM     25  C   UNL     1      -6.596  -6.369  -7.483  1.00  0.00     0.138 A 
ATOM     26  C   UNL     1      -5.998  -6.797  -6.287  1.00  0.00     0.100 A 
ATOM     27  O   UNL     1      -6.253  -7.508  -4.128  1.00  0.00    -0.289 OA
BRANCH  18  28
ATOM     28  O   UNL     1     -11.404  -7.363  -3.393  1.00  0.00    -0.502 OA
ATOM     29  H   UNL     1     -11.250  -7.966  -2.597  1.00  0.00     0.293 HD
ENDBRANCH  18  28
BRANCH  20  30
ATOM     30  O   UNL     1      -8.571  -7.776  -3.026  1.00  0.00    -0.504 OA
ATOM     31  H   UNL     1      -7.608  -7.664  -2.744  1.00  0.00     0.293 HD
ENDBRANCH  20  30
BRANCH  25  32
ATOM     32  C   UNL     1      -5.791  -6.008  -8.677  1.00  0.00     0.017 A 
ATOM     33  C   UNL     1      -6.297  -6.280  -9.962  1.00  0.00     0.012 A 
ATOM     34  C   UNL     1      -4.539  -5.367  -8.561  1.00  0.00     0.012 A 
ATOM     35  C   UNL     1      -5.562  -5.941 -11.102  1.00  0.00     0.001 A 
ATOM     36  C   UNL     1      -3.809  -5.030  -9.706  1.00  0.00     0.001 A 
ATOM     37  C   UNL     1      -4.318  -5.318 -10.974  1.00  0.00     0.000 A 
ENDBRANCH  25  32
ENDBRANCH   1  17
TORSDOF 9
ENDMDL
MODEL 3
REMARK VINA RESULT:    -3.762      1.990      8.394
REMARK INTER + INTRA:          -6.021
REMARK INTER:                  -4.694
REMARK INTRA:                  -1.328
REMARK UNBOUND:                -0.830
REMARK SMILES O=C([O-])[C@@H]1O[C@H](Oc2cc3oc(-c4ccccc4)cc(=O)c3c(O)c2O)[C@H](O)[C@@H](O)[C@H]1O
REMARK SMILES IDX 7 1 6 2 4 3 31 4 5 5 29 6 27 7 2 8 1 9 3 10 32 11 30 13
REMARK SMILES IDX 28 15 8 17 25 18 9 19 23 20 10 21 22 22 11 23 20 24 12 25
REMARK SMILES IDX 19 26 21 27 26 28 24 30 13 32 14 33 18 34 15 35 17 36 16 37
REMARK H PARENT 32 12 30 14 28 16 26 29 24 31
REMARK Flexibility Score: inf
ROOT
ATOM      1  O   UNL     1      -8.621  -6.229  -7.283  1.00  0.00    -0.458 OA
ENDROOT
BRANCH   1   2
ATOM      2  C   UNL     1      -7.944  -5.250  -8.082  1.00  0.00     0.339 C 
ATOM      3  C   UNL     1      -5.760  -5.900  -7.389  1.00  0.00     0.199 C 
ATOM      4  C   UNL     1      -5.427  -6.488  -8.783  1.00  0.00     0.180 C 
ATOM      5  O   UNL     1      -6.729  -4.857  -7.455  1.00  0.00    -0.328 OA
ATOM      6  C   UNL     1      -6.710  -6.915  -9.514  1.00  0.00     0.181 C 
ATOM      7  C   UNL     1      -7.702  -5.746  -9.526  1.00  0.00     0.214 C 
BRANCH   3   8
ATOM      8  C   UNL     1      -6.110  -6.926  -6.336  1.00  0.00     0.073 C 
ATOM      9  O   UNL     1      -6.198  -8.151  -6.618  1.00  0.00    -0.547 OA
ATOM     10  O   UNL     1      -6.296  -6.517  -5.021  1.00  0.00    -0.547 OA
ENDBRANCH   3   8
BRANCH   4  11
ATOM     11  O   UNL     1      -4.745  -5.512  -9.531  1.00  0.00    -0.387 OA
ATOM     12  H   UNL     1      -4.727  -4.683  -8.983  1.00  0.00     0.211 HD
ENDBRANCH   4  11
BRANCH   6  13
ATOM     13  O   UNL     1      -6.397  -7.303 -10.828  1.00  0.00    -0.387 OA
ATOM     14  H   UNL     1      -5.925  -8.174 -10.768  1.00  0.00     0.211 HD
ENDBRANCH   6  13
BRANCH   7  15
ATOM     15  O   UNL     1      -8.905  -6.149 -10.129  1.00  0.00    -0.384 OA
ATOM     16  H   UNL     1      -9.629  -5.621  -9.702  1.00  0.00     0.211 HD
ENDBRANCH   7  15
ENDBRANCH   1   2
BRANCH   1  17
ATOM     17  C   UNL     1      -9.765  -5.978  -6.514  1.00  0.00     0.172 A 
ATOM     18  C   UNL     1      -9.704  -5.272  -5.297  1.00  0.00     0.201 A 
ATOM     19  C   UNL     1     -10.982  -6.479  -6.970  1.00  0.00     0.098 A 
ATOM     20  C   UNL     1     -10.898  -4.992  -4.584  1.00  0.00     0.176 A 
ATOM     21  C   UNL     1     -12.159  -6.244  -6.264  1.00  0.00     0.146 A 
ATOM     22  C   UNL     1     -12.134  -5.492  -5.068  1.00  0.00     0.111 A 
ATOM     23  O   UNL     1     -13.303  -6.730  -6.736  1.00  0.00    -0.456 OA
ATOM     24  C   UNL     1     -13.365  -5.274  -4.412  1.00  0.00     0.197 A 
ATOM     25  C   UNL     1     -14.476  -6.554  -6.136  1.00  0.00     0.138 A 
ATOM     26  C   UNL     1     -14.538  -5.806  -4.949  1.00  0.00     0.100 A 
ATOM     27  O   UNL     1     -13.434  -4.604  -3.346  1.00  0.00    -0.289 OA
BRANCH  18  28
ATOM     28  O   UNL     1      -8.448  -4.905  -4.807  1.00  0.00    -0.502 OA
ATOM     29  H   UNL     1      -8.298  -4.385  -3.953  1.00  0.00     0.293 HD
ENDBRANCH  18  28
BRANCH  20  30
ATOM     30  O   UNL     1     -10.882  -4.227  -3.413  1.00  0.00    -0.504 OA
ATOM     31  H   UNL     1     -10.065  -3.759  -3.048  1.00  0.00     0.293 HD
ENDBRANCH  20  30
BRANCH  25  32
ATOM     32  C   UNL     1     -15.691  -7.143  -6.755  1.00  0.00     0.017 A 
ATOM     33  C   UNL     1     -16.886  -7.204  -6.014  1.00  0.00     0.012 A 
ATOM     34  C   UNL     1     -15.690  -7.617  -8.083  1.00  0.00     0.012 A 
ATOM     35  C   UNL     1     -18.045  -7.745  -6.578  1.00  0.00     0.001 A 
ATOM     36  C   UNL     1     -16.853  -8.157  -8.641  1.00  0.00     0.001 A 
ATOM     37  C   UNL     1     -18.028  -8.223  -7.890  1.00  0.00     0.000 A 
ENDBRANCH  25  32
ENDBRANCH   1  17
TORSDOF 9
ENDMDL
MODEL 4
REMARK VINA RESULT:    -2.249      2.727      8.223
REMARK INTER + INTRA:          -3.934
REMARK INTER:                  -2.957
REMARK INTRA:                  -0.977
REMARK UNBOUND:                -0.830
REMARK SMILES O=C([O-])[C@@H]1O[C@H](Oc2cc3oc(-c4ccccc4)cc(=O)c3c(O)c2O)[C@H](O)[C@@H](O)[C@H]1O
REMARK SMILES IDX 7 1 6 2 4 3 31 4 5 5 29 6 27 7 2 8 1 9 3 10 32 11 30 13
REMARK SMILES IDX 28 15 8 17 25 18 9 19 23 20 10 21 22 22 11 23 20 24 12 25
REMARK SMILES IDX 19 26 21 27 26 28 24 30 13 32 14 33 18 34 15 35 17 36 16 37
REMARK H PARENT 32 12 30 14 28 16 26 29 24 31
REMARK Flexibility Score: inf
ROOT
ATOM      1  O   UNL     1     -10.367  -6.705  -5.584  1.00  0.00    -0.458 OA
ENDROOT
BRANCH   1   2
ATOM      2  C   UNL     1      -9.336  -5.711  -5.651  1.00  0.00     0.339 C 
ATOM      3  C   UNL     1      -8.200  -6.467  -3.699  1.00  0.00     0.199 C 
ATOM      4  C   UNL     1      -7.002  -6.997  -4.528  1.00  0.00     0.180 C 
ATOM      5  O   UNL     1      -8.874  -5.390  -4.344  1.00  0.00    -0.328 OA
ATOM      6  C   UNL     1      -7.443  -7.344  -5.960  1.00  0.00     0.181 C 
ATOM      7  C   UNL     1      -8.172  -6.142  -6.572  1.00  0.00     0.214 C 
BRANCH   3   8
ATOM      8  C   UNL     1      -9.162  -7.532  -3.227  1.00  0.00     0.073 C 
ATOM      9  O   UNL     1      -8.911  -8.758  -3.378  1.00  0.00    -0.547 OA
ATOM     10  O   UNL     1     -10.330  -7.155  -2.574  1.00  0.00    -0.547 OA
ENDBRANCH   3   8
BRANCH   4  11
ATOM     11  O   UNL     1      -6.002  -6.008  -4.554  1.00  0.00    -0.387 OA
ATOM     12  H   UNL     1      -6.351  -5.253  -5.098  1.00  0.00     0.211 HD
ENDBRANCH   4  11
BRANCH   6  13
ATOM     13  O   UNL     1      -6.317  -7.676  -6.732  1.00  0.00    -0.387 OA
ATOM     14  H   UNL     1      -5.587  -7.061  -6.459  1.00  0.00     0.211 HD
ENDBRANCH   6  13
BRANCH   7  15
ATOM     15  O   UNL     1      -8.641  -6.474  -7.854  1.00  0.00    -0.384 OA
ATOM     16  H   UNL     1      -8.896  -5.622  -8.295  1.00  0.00     0.211 HD
ENDBRANCH   7  15
ENDBRANCH   1   2
BRANCH   1  17
ATOM     17  C   UNL     1     -11.740  -6.429  -5.558  1.00  0.00     0.172 A 
ATOM     18  C   UNL     1     -12.696  -7.430  -5.305  1.00  0.00     0.201 A 
ATOM     19  C   UNL     1     -12.149  -5.123  -5.823  1.00  0.00     0.098 A 
ATOM     20  C   UNL     1     -14.071  -7.089  -5.231  1.00  0.00     0.176 A 
ATOM     21  C   UNL     1     -13.498  -4.779  -5.790  1.00  0.00     0.146 A 
ATOM     22  C   UNL     1     -14.475  -5.753  -5.486  1.00  0.00     0.111 A 
ATOM     23  O   UNL     1     -13.849  -3.521  -6.040  1.00  0.00    -0.456 OA
ATOM     24  C   UNL     1     -15.822  -5.333  -5.450  1.00  0.00     0.197 A 
ATOM     25  C   UNL     1     -15.109  -3.096  -6.026  1.00  0.00     0.138 A 
ATOM     26  C   UNL     1     -16.138  -4.001  -5.718  1.00  0.00     0.100 A 
ATOM     27  O   UNL     1     -16.755  -6.135  -5.174  1.00  0.00    -0.289 OA
BRANCH  18  28
ATOM     28  O   UNL     1     -12.256  -8.750  -5.178  1.00  0.00    -0.502 OA
ATOM     29  H   UNL     1     -11.292  -9.019  -5.040  1.00  0.00     0.293 HD
ENDBRANCH  18  28
BRANCH  20  30
ATOM     30  O   UNL     1     -15.040  -8.044  -4.906  1.00  0.00    -0.504 OA
ATOM     31  H   UNL     1     -15.439  -8.161  -3.985  1.00  0.00     0.293 HD
ENDBRANCH  20  30
BRANCH  25  32
ATOM     32  C   UNL     1     -15.384  -1.667  -6.320  1.00  0.00     0.017 A 
ATOM     33  C   UNL     1     -15.129  -0.695  -5.335  1.00  0.00     0.012 A 
ATOM     34  C   UNL     1     -15.866  -1.248  -7.578  1.00  0.00     0.012 A 
ATOM     35  C   UNL     1     -15.370   0.658  -5.592  1.00  0.00     0.001 A 
ATOM     36  C   UNL     1     -16.105   0.107  -7.829  1.00  0.00     0.001 A 
ATOM     37  C   UNL     1     -15.859   1.059  -6.836  1.00  0.00     0.000 A 
ENDBRANCH  25  32
ENDBRANCH   1  17
TORSDOF 9
ENDMDL
MODEL 5
REMARK VINA RESULT:    -1.500      2.368      8.466
REMARK INTER + INTRA:          -2.901
REMARK INTER:                  -3.867
REMARK INTRA:                   0.966
REMARK UNBOUND:                -0.830
REMARK SMILES O=C([O-])[C@@H]1O[C@H](Oc2cc3oc(-c4ccccc4)cc(=O)c3c(O)c2O)[C@H](O)[C@@H](O)[C@H]1O
REMARK SMILES IDX 7 1 6 2 4 3 31 4 5 5 29 6 27 7 2 8 1 9 3 10 32 11 30 13
REMARK SMILES IDX 28 15 8 17 25 18 9 19 23 20 10 21 22 22 11 23 20 24 12 25
REMARK SMILES IDX 19 26 21 27 26 28 24 30 13 32 14 33 18 34 15 35 17 36 16 37
REMARK H PARENT 32 12 30 14 28 16 26 29 24 31
REMARK Flexibility Score: inf
ROOT
ATOM      1  O   UNL     1      -9.083  -7.444  -5.350  1.00  0.00    -0.458 OA
ENDROOT
BRANCH   1   2
ATOM      2  C   UNL     1      -8.471  -8.009  -4.184  1.00  0.00     0.339 C 
ATOM      3  C   UNL     1      -6.255  -7.392  -4.800  1.00  0.00     0.199 C 
ATOM      4  C   UNL     1      -6.172  -6.330  -3.675  1.00  0.00     0.180 C 
ATOM      5  O   UNL     1      -7.153  -8.452  -4.484  1.00  0.00    -0.328 OA
ATOM      6  C   UNL     1      -7.576  -5.828  -3.298  1.00  0.00     0.181 C 
ATOM      7  C   UNL     1      -8.480  -7.027  -2.990  1.00  0.00     0.214 C 
BRANCH   3   8
ATOM      8  C   UNL     1      -6.509  -6.832  -6.181  1.00  0.00     0.073 C 
ATOM      9  O   UNL     1      -6.691  -5.599  -6.365  1.00  0.00    -0.547 OA
ATOM     10  O   UNL     1      -6.499  -7.688  -7.276  1.00  0.00    -0.547 OA
ENDBRANCH   3   8
BRANCH   4  11
ATOM     11  O   UNL     1      -5.548  -6.910  -2.556  1.00  0.00    -0.387 OA
ATOM     12  H   UNL     1      -6.159  -6.787  -1.782  1.00  0.00     0.211 HD
ENDBRANCH   4  11
BRANCH   6  13
ATOM     13  O   UNL     1      -7.488  -4.983  -2.178  1.00  0.00    -0.387 OA
ATOM     14  H   UNL     1      -7.433  -5.568  -1.378  1.00  0.00     0.211 HD
ENDBRANCH   6  13
BRANCH   7  15
ATOM     15  O   UNL     1      -9.783  -6.581  -2.714  1.00  0.00    -0.384 OA
ATOM     16  H   UNL     1      -9.857  -6.508  -1.727  1.00  0.00     0.211 HD
ENDBRANCH   7  15
ENDBRANCH   1   2
BRANCH   1  17
ATOM     17  C   UNL     1     -10.250  -6.669  -5.342  1.00  0.00     0.172 A 
ATOM     18  C   UNL     1     -10.210  -5.263  -5.292  1.00  0.00     0.201 A 
ATOM     19  C   UNL     1     -11.476  -7.332  -5.353  1.00  0.00     0.098 A 
ATOM     20  C   UNL     1     -11.418  -4.520  -5.345  1.00  0.00     0.176 A 
ATOM     21  C   UNL     1     -12.672  -6.619  -5.370  1.00  0.00     0.146 A 
ATOM     22  C   UNL     1     -12.659  -5.206  -5.374  1.00  0.00     0.111 A 
ATOM     23  O   UNL     1     -13.821  -7.288  -5.389  1.00  0.00    -0.456 OA
ATOM     24  C   UNL     1     -13.906  -4.546  -5.411  1.00  0.00     0.197 A 
ATOM     25  C   UNL     1     -15.012  -6.696  -5.412  1.00  0.00     0.138 A 
ATOM     26  C   UNL     1     -15.084  -5.294  -5.431  1.00  0.00     0.100 A 
ATOM     27  O   UNL     1     -13.985  -3.288  -5.430  1.00  0.00    -0.289 OA
BRANCH  18  28
ATOM     28  O   UNL     1      -8.967  -4.640  -5.145  1.00  0.00    -0.502 OA
ATOM     29  H   UNL     1      -8.599  -3.945  -5.778  1.00  0.00     0.293 HD
ENDBRANCH  18  28
BRANCH  20  30
ATOM     30  O   UNL     1     -11.411  -3.122  -5.375  1.00  0.00    -0.504 OA
ATOM     31  H   UNL     1     -12.107  -2.558  -5.841  1.00  0.00     0.293 HD
ENDBRANCH  20  30
BRANCH  25  32
ATOM     32  C   UNL     1     -16.230  -7.544  -5.432  1.00  0.00     0.017 A 
ATOM     33  C   UNL     1     -16.978  -7.711  -4.252  1.00  0.00     0.012 A 
ATOM     34  C   UNL     1     -16.681  -8.165  -6.616  1.00  0.00     0.012 A 
ATOM     35  C   UNL     1     -18.135  -8.496  -4.248  1.00  0.00     0.001 A 
ATOM     36  C   UNL     1     -17.839  -8.949  -6.605  1.00  0.00     0.001 A 
ATOM     37  C   UNL     1     -18.564  -9.117  -5.423  1.00  0.00     0.000 A 
ENDBRANCH  25  32
ENDBRANCH   1  17
TORSDOF 9
ENDMDL
