MODEL 1
REMARK VINA RESULT:    -5.511      0.000      0.000
REMARK INTER + INTRA:          -7.065
REMARK INTER:                  -6.639
REMARK INTRA:                  -0.426
REMARK UNBOUND:                -0.426
REMARK SMILES O=c1ccn([C@@H]2O[C@H](CO)[C@H](O)[C@@H]2O)c(=O)[nH]1
REMARK SMILES IDX 6 1 13 2 11 3 8 4 7 5 5 6 3 7 4 8 2 9 17 10 1 11 15 12 16 14
REMARK SMILES IDX 14 15 12 17 9 19 10 20
REMARK H PARENT 17 13 14 16 12 18 10 21
REMARK Flexibility Score: inf
ROOT
ATOM      1  C   UNL     1      48.739 -36.366   8.943  1.00  0.00     0.255 C 
ATOM      2  C   UNL     1      49.060 -36.435   7.439  1.00  0.00     0.196 C 
ATOM      3  C   UNL     1      49.171 -37.921   7.161  1.00  0.00     0.179 C 
ATOM      4  C   UNL     1      48.417 -38.522   8.346  1.00  0.00     0.178 C 
ATOM      5  O   UNL     1      48.611 -37.676   9.454  1.00  0.00    -0.347 OA
ENDROOT
BRANCH   1   6
ATOM      6  N   UNL     1      49.755 -35.604   9.705  1.00  0.00    -0.271 N 
ATOM      7  C   UNL     1      50.395 -33.551  10.770  1.00  0.00     0.090 A 
ATOM      8  C   UNL     1      49.467 -34.319  10.073  1.00  0.00     0.099 A 
ATOM      9  C   UNL     1      51.628 -34.115  11.077  1.00  0.00     0.253 A 
ATOM     10  N   UNL     1      51.905 -35.387  10.690  1.00  0.00    -0.274 N 
ATOM     11  O   UNL     1      52.488 -33.444  11.707  1.00  0.00    -0.269 OA
ATOM     12  C   UNL     1      50.990 -36.130  10.006  1.00  0.00     0.330 A 
ATOM     13  H   UNL     1      52.839 -35.801  10.917  1.00  0.00     0.175 HD
ATOM     14  O   UNL     1      51.297 -37.300   9.651  1.00  0.00    -0.248 OA
ENDBRANCH   1   6
BRANCH   2  15
ATOM     15  O   UNL     1      50.238 -35.743   7.108  1.00  0.00    -0.386 OA
ATOM     16  H   UNL     1      50.868 -36.417   6.740  1.00  0.00     0.211 HD
ENDBRANCH   2  15
BRANCH   3  17
ATOM     17  O   UNL     1      50.522 -38.319   7.153  1.00  0.00    -0.387 OA
ATOM     18  H   UNL     1      51.066 -37.490   7.108  1.00  0.00     0.211 HD
ENDBRANCH   3  17
BRANCH   4  19
ATOM     19  C   UNL     1      48.848 -39.955   8.691  1.00  0.00     0.191 C 
BRANCH  19  20
ATOM     20  O   UNL     1      49.913 -39.939   9.603  1.00  0.00    -0.394 OA
ATOM     21  H   UNL     1      50.152 -40.887   9.777  1.00  0.00     0.210 HD
ENDBRANCH  19  20
ENDBRANCH   4  19
TORSDOF 5
ENDMDL
MODEL 2
REMARK VINA RESULT:    -5.463      2.433      5.280
REMARK INTER + INTRA:          -7.008
REMARK INTER:                  -6.644
REMARK INTRA:                  -0.364
REMARK UNBOUND:                -0.426
REMARK SMILES O=c1ccn([C@@H]2O[C@H](CO)[C@H](O)[C@@H]2O)c(=O)[nH]1
REMARK SMILES IDX 6 1 13 2 11 3 8 4 7 5 5 6 3 7 4 8 2 9 17 10 1 11 15 12 16 14
REMARK SMILES IDX 14 15 12 17 9 19 10 20
REMARK H PARENT 17 13 14 16 12 18 10 21
REMARK Flexibility Score: inf
ROOT
ATOM      1  C   UNL     1      50.038 -38.591   9.535  1.00  0.00     0.255 C 
ATOM      2  C   UNL     1      51.082 -38.240   8.460  1.00  0.00     0.196 C 
ATOM      3  C   UNL     1      51.502 -36.827   8.811  1.00  0.00     0.179 C 
ATOM      4  C   UNL     1      51.076 -36.724  10.275  1.00  0.00     0.178 C 
ATOM      5  O   UNL     1      49.926 -37.516  10.445  1.00  0.00    -0.347 OA
ENDROOT
BRANCH   1   6
ATOM      6  N   UNL     1      48.717 -38.925   8.956  1.00  0.00    -0.271 N 
ATOM      7  C   UNL     1      46.456 -38.259   8.504  1.00  0.00     0.090 A 
ATOM      8  C   UNL     1      47.723 -37.988   9.013  1.00  0.00     0.099 A 
ATOM      9  C   UNL     1      46.218 -39.510   7.946  1.00  0.00     0.253 A 
ATOM     10  N   UNL     1      47.211 -40.436   7.912  1.00  0.00    -0.274 N 
ATOM     11  O   UNL     1      45.081 -39.784   7.477  1.00  0.00    -0.269 OA
ATOM     12  C   UNL     1      48.447 -40.161   8.414  1.00  0.00     0.330 A 
ATOM     13  H   UNL     1      47.021 -41.377   7.498  1.00  0.00     0.175 HD
ATOM     14  O   UNL     1      49.334 -41.057   8.378  1.00  0.00    -0.248 OA
ENDBRANCH   1   6
BRANCH   2  15
ATOM     15  O   UNL     1      50.564 -38.333   7.157  1.00  0.00    -0.386 OA
ATOM     16  H   UNL     1      51.337 -38.498   6.556  1.00  0.00     0.211 HD
ENDBRANCH   2  15
BRANCH   3  17
ATOM     17  O   UNL     1      50.816 -35.897   8.007  1.00  0.00    -0.387 OA
ATOM     18  H   UNL     1      50.346 -35.276   8.622  1.00  0.00     0.211 HD
ENDBRANCH   3  17
BRANCH   4  19
ATOM     19  C   UNL     1      50.805 -35.286  10.740  1.00  0.00     0.191 C 
BRANCH  19  20
ATOM     20  O   UNL     1      51.963 -34.506  10.617  1.00  0.00    -0.394 OA
ATOM     21  H   UNL     1      52.698 -35.019  11.044  1.00  0.00     0.210 HD
ENDBRANCH  19  20
ENDBRANCH   4  19
TORSDOF 5
ENDMDL
MODEL 3
REMARK VINA RESULT:    -5.389      2.056      3.011
REMARK INTER + INTRA:          -6.918
REMARK INTER:                  -6.496
REMARK INTRA:                  -0.422
REMARK UNBOUND:                -0.426
REMARK SMILES O=c1ccn([C@@H]2O[C@H](CO)[C@H](O)[C@@H]2O)c(=O)[nH]1
REMARK SMILES IDX 6 1 13 2 11 3 8 4 7 5 5 6 3 7 4 8 2 9 17 10 1 11 15 12 16 14
REMARK SMILES IDX 14 15 12 17 9 19 10 20
REMARK H PARENT 17 13 14 16 12 18 10 21
REMARK Flexibility Score: inf
ROOT
ATOM      1  C   UNL     1      49.432 -39.105  10.571  1.00  0.00     0.255 C 
ATOM      2  C   UNL     1      47.934 -39.329  10.292  1.00  0.00     0.196 C 
ATOM      3  C   UNL     1      47.924 -40.290   9.121  1.00  0.00     0.179 C 
ATOM      4  C   UNL     1      49.325 -40.896   9.195  1.00  0.00     0.178 C 
ATOM      5  O   UNL     1      50.195 -39.909   9.695  1.00  0.00    -0.347 OA
ENDROOT
BRANCH   1   6
ATOM      6  N   UNL     1      49.824 -37.683  10.451  1.00  0.00    -0.271 N 
ATOM      7  C   UNL     1      50.672 -35.905   9.078  1.00  0.00     0.090 A 
ATOM      8  C   UNL     1      50.268 -37.228   9.239  1.00  0.00     0.099 A 
ATOM      9  C   UNL     1      50.625 -35.057  10.179  1.00  0.00     0.253 A 
ATOM     10  N   UNL     1      50.198 -35.528  11.378  1.00  0.00    -0.274 N 
ATOM     11  O   UNL     1      50.983 -33.855  10.063  1.00  0.00    -0.269 OA
ATOM     12  C   UNL     1      49.806 -36.825  11.526  1.00  0.00     0.330 A 
ATOM     13  H   UNL     1      50.174 -34.886  12.204  1.00  0.00     0.175 HD
ATOM     14  O   UNL     1      49.434 -37.225  12.663  1.00  0.00    -0.248 OA
ENDBRANCH   1   6
BRANCH   2  15
ATOM     15  O   UNL     1      47.256 -38.132  10.005  1.00  0.00    -0.386 OA
ATOM     16  H   UNL     1      46.344 -38.226  10.386  1.00  0.00     0.211 HD
ENDBRANCH   2  15
BRANCH   3  17
ATOM     17  O   UNL     1      47.727 -39.591   7.915  1.00  0.00    -0.387 OA
ATOM     18  H   UNL     1      47.411 -40.254   7.246  1.00  0.00     0.211 HD
ENDBRANCH   3  17
BRANCH   4  19
ATOM     19  C   UNL     1      49.841 -41.427   7.850  1.00  0.00     0.191 C 
BRANCH  19  20
ATOM     20  O   UNL     1      48.909 -42.306   7.282  1.00  0.00    -0.394 OA
ATOM     21  H   UNL     1      48.231 -41.744   6.823  1.00  0.00     0.210 HD
ENDBRANCH  19  20
ENDBRANCH   4  19
TORSDOF 5
ENDMDL
MODEL 4
REMARK VINA RESULT:    -5.353      2.374      5.475
REMARK INTER + INTRA:          -6.874
REMARK INTER:                  -6.451
REMARK INTRA:                  -0.423
REMARK UNBOUND:                -0.426
REMARK SMILES O=c1ccn([C@@H]2O[C@H](CO)[C@H](O)[C@@H]2O)c(=O)[nH]1
REMARK SMILES IDX 6 1 13 2 11 3 8 4 7 5 5 6 3 7 4 8 2 9 17 10 1 11 15 12 16 14
REMARK SMILES IDX 14 15 12 17 9 19 10 20
REMARK H PARENT 17 13 14 16 12 18 10 21
REMARK Flexibility Score: inf
ROOT
ATOM      1  C   UNL     1      48.902 -37.663  10.109  1.00  0.00     0.255 C 
ATOM      2  C   UNL     1      49.792 -37.398  11.337  1.00  0.00     0.196 C 
ATOM      3  C   UNL     1      50.613 -36.190  10.934  1.00  0.00     0.179 C 
ATOM      4  C   UNL     1      49.778 -35.603   9.798  1.00  0.00     0.178 C 
ATOM      5  O   UNL     1      49.142 -36.669   9.135  1.00  0.00    -0.347 OA
ENDROOT
BRANCH   1   6
ATOM      6  N   UNL     1      49.110 -39.014   9.539  1.00  0.00    -0.271 N 
ATOM      7  C   UNL     1      50.041 -40.375   7.796  1.00  0.00     0.090 A 
ATOM      8  C   UNL     1      49.836 -39.131   8.386  1.00  0.00     0.099 A 
ATOM      9  C   UNL     1      49.483 -41.497   8.397  1.00  0.00     0.253 A 
ATOM     10  N   UNL     1      48.750 -41.362   9.533  1.00  0.00    -0.274 N 
ATOM     11  O   UNL     1      49.653 -42.636   7.886  1.00  0.00    -0.269 OA
ATOM     12  C   UNL     1      48.554 -40.139  10.102  1.00  0.00     0.330 A 
ATOM     13  H   UNL     1      48.326 -42.210   9.974  1.00  0.00     0.175 HD
ATOM     14  O   UNL     1      47.851 -40.058  11.146  1.00  0.00    -0.248 OA
ENDBRANCH   1   6
BRANCH   2  15
ATOM     15  O   UNL     1      50.595 -38.503  11.667  1.00  0.00    -0.386 OA
ATOM     16  H   UNL     1      51.482 -38.139  11.928  1.00  0.00     0.211 HD
ENDBRANCH   2  15
BRANCH   3  17
ATOM     17  O   UNL     1      51.886 -36.591  10.485  1.00  0.00    -0.387 OA
ATOM     18  H   UNL     1      51.786 -37.507  10.116  1.00  0.00     0.211 HD
ENDBRANCH   3  17
BRANCH   4  19
ATOM     19  C   UNL     1      50.591 -34.766   8.800  1.00  0.00     0.191 C 
BRANCH  19  20
ATOM     20  O   UNL     1      50.886 -35.522   7.657  1.00  0.00    -0.394 OA
ATOM     21  H   UNL     1      50.842 -36.477   7.928  1.00  0.00     0.210 HD
ENDBRANCH  19  20
ENDBRANCH   4  19
TORSDOF 5
ENDMDL
MODEL 5
REMARK VINA RESULT:    -5.287      2.522      4.240
REMARK INTER + INTRA:          -6.795
REMARK INTER:                  -6.375
REMARK INTRA:                  -0.420
REMARK UNBOUND:                -0.426
REMARK SMILES O=c1ccn([C@@H]2O[C@H](CO)[C@H](O)[C@@H]2O)c(=O)[nH]1
REMARK SMILES IDX 6 1 13 2 11 3 8 4 7 5 5 6 3 7 4 8 2 9 17 10 1 11 15 12 16 14
REMARK SMILES IDX 14 15 12 17 9 19 10 20
REMARK H PARENT 17 13 14 16 12 18 10 21
REMARK Flexibility Score: inf
ROOT
ATOM      1  C   UNL     1      49.161 -36.546  10.258  1.00  0.00     0.255 C 
ATOM      2  C   UNL     1      50.485 -35.836   9.925  1.00  0.00     0.196 C 
ATOM      3  C   UNL     1      50.507 -35.803   8.410  1.00  0.00     0.179 C 
ATOM      4  C   UNL     1      49.032 -36.005   8.067  1.00  0.00     0.178 C 
ATOM      5  O   UNL     1      48.467 -36.827   9.060  1.00  0.00    -0.347 OA
ENDROOT
BRANCH   1   6
ATOM      6  N   UNL     1      49.363 -37.782  11.047  1.00  0.00    -0.271 N 
ATOM      7  C   UNL     1      49.575 -40.173  11.083  1.00  0.00     0.090 A 
ATOM      8  C   UNL     1      49.410 -38.979  10.386  1.00  0.00     0.099 A 
ATOM      9  C   UNL     1      49.681 -40.126  12.468  1.00  0.00     0.253 A 
ATOM     10  N   UNL     1      49.616 -38.931  13.111  1.00  0.00    -0.274 N 
ATOM     11  O   UNL     1      49.832 -41.190  13.125  1.00  0.00    -0.269 OA
ATOM     12  C   UNL     1      49.453 -37.768  12.420  1.00  0.00     0.330 A 
ATOM     13  H   UNL     1      49.688 -38.905  14.154  1.00  0.00     0.175 HD
ATOM     14  O   UNL     1      49.380 -36.683  13.060  1.00  0.00    -0.248 OA
ENDBRANCH   1   6
BRANCH   2  15
ATOM     15  O   UNL     1      51.602 -36.501  10.459  1.00  0.00    -0.386 OA
ATOM     16  H   UNL     1      51.915 -37.134   9.759  1.00  0.00     0.211 HD
ENDBRANCH   2  15
BRANCH   3  17
ATOM     17  O   UNL     1      51.301 -36.852   7.908  1.00  0.00    -0.387 OA
ATOM     18  H   UNL     1      51.231 -37.601   8.556  1.00  0.00     0.211 HD
ENDBRANCH   3  17
BRANCH   4  19
ATOM     19  C   UNL     1      48.796 -36.614   6.677  1.00  0.00     0.191 C 
BRANCH  19  20
ATOM     20  O   UNL     1      49.180 -37.963   6.664  1.00  0.00    -0.394 OA
ATOM     21  H   UNL     1      48.345 -38.495   6.596  1.00  0.00     0.210 HD
ENDBRANCH  19  20
ENDBRANCH   4  19
TORSDOF 5
ENDMDL
MODEL 6
REMARK VINA RESULT:    -5.218     12.548     13.538
REMARK INTER + INTRA:          -6.712
REMARK INTER:                  -6.215
REMARK INTRA:                  -0.497
REMARK UNBOUND:                -0.426
REMARK SMILES O=c1ccn([C@@H]2O[C@H](CO)[C@H](O)[C@@H]2O)c(=O)[nH]1
REMARK SMILES IDX 6 1 13 2 11 3 8 4 7 5 5 6 3 7 4 8 2 9 17 10 1 11 15 12 16 14
REMARK SMILES IDX 14 15 12 17 9 19 10 20
REMARK H PARENT 17 13 14 16 12 18 10 21
REMARK Flexibility Score: inf
ROOT
ATOM      1  C   UNL     1      48.592 -40.601  -3.869  1.00  0.00     0.255 C 
ATOM      2  C   UNL     1      47.684 -40.685  -2.629  1.00  0.00     0.196 C 
ATOM      3  C   UNL     1      46.543 -39.741  -2.951  1.00  0.00     0.179 C 
ATOM      4  C   UNL     1      46.639 -39.635  -4.472  1.00  0.00     0.178 C 
ATOM      5  O   UNL     1      47.995 -39.751  -4.827  1.00  0.00    -0.347 OA
ENDROOT
BRANCH   1   6
ATOM      6  N   UNL     1      49.959 -40.140  -3.541  1.00  0.00    -0.271 N 
ATOM      7  C   UNL     1      51.493 -38.312  -3.286  1.00  0.00     0.090 A 
ATOM      8  C   UNL     1      50.219 -38.797  -3.564  1.00  0.00     0.099 A 
ATOM      9  C   UNL     1      52.503 -39.222  -2.994  1.00  0.00     0.253 A 
ATOM     10  N   UNL     1      52.233 -40.553  -2.992  1.00  0.00    -0.274 N 
ATOM     11  O   UNL     1      53.666 -38.812  -2.738  1.00  0.00    -0.269 OA
ATOM     12  C   UNL     1      50.982 -41.018  -3.267  1.00  0.00     0.330 A 
ATOM     13  H   UNL     1      53.000 -41.232  -2.781  1.00  0.00     0.175 HD
ATOM     14  O   UNL     1      50.781 -42.263  -3.272  1.00  0.00    -0.248 OA
ENDBRANCH   1   6
BRANCH   2  15
ATOM     15  O   UNL     1      48.354 -40.326  -1.447  1.00  0.00    -0.386 OA
ATOM     16  H   UNL     1      49.130 -40.941  -1.365  1.00  0.00     0.211 HD
ENDBRANCH   2  15
BRANCH   3  17
ATOM     17  O   UNL     1      46.750 -38.493  -2.332  1.00  0.00    -0.387 OA
ATOM     18  H   UNL     1      47.714 -38.441  -2.104  1.00  0.00     0.211 HD
ENDBRANCH   3  17
BRANCH   4  19
ATOM     19  C   UNL     1      46.051 -38.335  -5.040  1.00  0.00     0.191 C 
BRANCH  19  20
ATOM     20  O   UNL     1      46.993 -37.300  -4.966  1.00  0.00    -0.394 OA
ATOM     21  H   UNL     1      47.579 -37.392  -5.762  1.00  0.00     0.210 HD
ENDBRANCH  19  20
ENDBRANCH   4  19
TORSDOF 5
ENDMDL
MODEL 7
REMARK VINA RESULT:    -5.201      2.386      5.006
REMARK INTER + INTRA:          -6.692
REMARK INTER:                  -6.324
REMARK INTRA:                  -0.368
REMARK UNBOUND:                -0.426
REMARK SMILES O=c1ccn([C@@H]2O[C@H](CO)[C@H](O)[C@@H]2O)c(=O)[nH]1
REMARK SMILES IDX 6 1 13 2 11 3 8 4 7 5 5 6 3 7 4 8 2 9 17 10 1 11 15 12 16 14
REMARK SMILES IDX 14 15 12 17 9 19 10 20
REMARK H PARENT 17 13 14 16 12 18 10 21
REMARK Flexibility Score: inf
ROOT
ATOM      1  C   UNL     1      50.966 -37.259   9.525  1.00  0.00     0.255 C 
ATOM      2  C   UNL     1      50.186 -36.434   8.485  1.00  0.00     0.196 C 
ATOM      3  C   UNL     1      50.264 -35.017   9.015  1.00  0.00     0.179 C 
ATOM      4  C   UNL     1      51.463 -35.097   9.959  1.00  0.00     0.178 C 
ATOM      5  O   UNL     1      51.493 -36.393  10.508  1.00  0.00    -0.347 OA
ENDROOT
BRANCH   1   6
ATOM      6  N   UNL     1      50.137 -38.315  10.149  1.00  0.00    -0.271 N 
ATOM      7  C   UNL     1      48.945 -39.105  12.076  1.00  0.00     0.090 A 
ATOM      8  C   UNL     1      49.707 -38.134  11.435  1.00  0.00     0.099 A 
ATOM      9  C   UNL     1      48.637 -40.272  11.386  1.00  0.00     0.253 A 
ATOM     10  N   UNL     1      49.085 -40.445  10.116  1.00  0.00    -0.274 N 
ATOM     11  O   UNL     1      47.948 -41.169  11.941  1.00  0.00    -0.269 OA
ATOM     12  C   UNL     1      49.832 -39.488   9.497  1.00  0.00     0.330 A 
ATOM     13  H   UNL     1      48.857 -41.329   9.606  1.00  0.00     0.175 HD
ATOM     14  O   UNL     1      50.242 -39.698   8.323  1.00  0.00    -0.248 OA
ENDBRANCH   1   6
BRANCH   2  15
ATOM     15  O   UNL     1      48.860 -36.874   8.335  1.00  0.00    -0.386 OA
ATOM     16  H   UNL     1      48.750 -37.652   8.943  1.00  0.00     0.211 HD
ENDBRANCH   2  15
BRANCH   3  17
ATOM     17  O   UNL     1      49.084 -34.686   9.707  1.00  0.00    -0.387 OA
ATOM     18  H   UNL     1      48.764 -35.518  10.144  1.00  0.00     0.211 HD
ENDBRANCH   3  17
BRANCH   4  19
ATOM     19  C   UNL     1      51.440 -34.047  11.079  1.00  0.00     0.191 C 
BRANCH  19  20
ATOM     20  O   UNL     1      51.367 -32.756  10.536  1.00  0.00    -0.394 OA
ATOM     21  H   UNL     1      51.390 -32.862   9.549  1.00  0.00     0.210 HD
ENDBRANCH  19  20
ENDBRANCH   4  19
TORSDOF 5
ENDMDL
MODEL 8
REMARK VINA RESULT:    -5.176      1.906      2.949
REMARK INTER + INTRA:          -6.661
REMARK INTER:                  -6.455
REMARK INTRA:                  -0.206
REMARK UNBOUND:                -0.426
REMARK SMILES O=c1ccn([C@@H]2O[C@H](CO)[C@H](O)[C@@H]2O)c(=O)[nH]1
REMARK SMILES IDX 6 1 13 2 11 3 8 4 7 5 5 6 3 7 4 8 2 9 17 10 1 11 15 12 16 14
REMARK SMILES IDX 14 15 12 17 9 19 10 20
REMARK H PARENT 17 13 14 16 12 18 10 21
REMARK Flexibility Score: inf
ROOT
ATOM      1  C   UNL     1      49.483 -38.606   8.574  1.00  0.00     0.255 C 
ATOM      2  C   UNL     1      49.207 -39.576   9.738  1.00  0.00     0.196 C 
ATOM      3  C   UNL     1      47.742 -39.927   9.576  1.00  0.00     0.179 C 
ATOM      4  C   UNL     1      47.489 -39.565   8.113  1.00  0.00     0.178 C 
ATOM      5  O   UNL     1      48.315 -38.473   7.790  1.00  0.00    -0.347 OA
ENDROOT
BRANCH   1   6
ATOM      6  N   UNL     1      49.954 -37.282   9.039  1.00  0.00    -0.271 N 
ATOM      7  C   UNL     1      49.457 -34.977   9.482  1.00  0.00     0.090 A 
ATOM      8  C   UNL     1      49.061 -36.247   9.076  1.00  0.00     0.099 A 
ATOM      9  C   UNL     1      50.785 -34.777   9.841  1.00  0.00     0.253 A 
ATOM     10  N   UNL     1      51.664 -35.811   9.783  1.00  0.00    -0.274 N 
ATOM     11  O   UNL     1      51.173 -33.638  10.214  1.00  0.00    -0.269 OA
ATOM     12  C   UNL     1      51.266 -37.051   9.382  1.00  0.00     0.330 A 
ATOM     13  H   UNL     1      52.663 -35.651  10.046  1.00  0.00     0.175 HD
ATOM     14  O   UNL     1      52.120 -37.978   9.326  1.00  0.00    -0.248 OA
ENDBRANCH   1   6
BRANCH   2  15
ATOM     15  O   UNL     1      49.482 -39.003  10.991  1.00  0.00    -0.386 OA
ATOM     16  H   UNL     1      50.063 -39.647  11.475  1.00  0.00     0.211 HD
ENDBRANCH   2  15
BRANCH   3  17
ATOM     17  O   UNL     1      46.952 -39.150  10.444  1.00  0.00    -0.387 OA
ATOM     18  H   UNL     1      47.017 -38.211  10.129  1.00  0.00     0.211 HD
ENDBRANCH   3  17
BRANCH   4  19
ATOM     19  C   UNL     1      46.022 -39.231   7.803  1.00  0.00     0.191 C 
BRANCH  19  20
ATOM     20  O   UNL     1      45.432 -40.264   7.062  1.00  0.00    -0.394 OA
ATOM     21  H   UNL     1      46.117 -40.575   6.413  1.00  0.00     0.210 HD
ENDBRANCH  19  20
ENDBRANCH   4  19
TORSDOF 5
ENDMDL
MODEL 9
REMARK VINA RESULT:    -5.137      2.790      4.583
REMARK INTER + INTRA:          -6.615
REMARK INTER:                  -6.119
REMARK INTRA:                  -0.495
REMARK UNBOUND:                -0.426
REMARK SMILES O=c1ccn([C@@H]2O[C@H](CO)[C@H](O)[C@@H]2O)c(=O)[nH]1
REMARK SMILES IDX 6 1 13 2 11 3 8 4 7 5 5 6 3 7 4 8 2 9 17 10 1 11 15 12 16 14
REMARK SMILES IDX 14 15 12 17 9 19 10 20
REMARK H PARENT 17 13 14 16 12 18 10 21
REMARK Flexibility Score: inf
ROOT
ATOM      1  C   UNL     1      49.967 -39.024  10.653  1.00  0.00     0.255 C 
ATOM      2  C   UNL     1      50.171 -38.145  11.900  1.00  0.00     0.196 C 
ATOM      3  C   UNL     1      49.229 -38.746  12.924  1.00  0.00     0.179 C 
ATOM      4  C   UNL     1      48.999 -40.147  12.360  1.00  0.00     0.178 C 
ATOM      5  O   UNL     1      49.057 -40.061  10.956  1.00  0.00    -0.347 OA
ENDROOT
BRANCH   1   6
ATOM      6  N   UNL     1      49.504 -38.248   9.481  1.00  0.00    -0.271 N 
ATOM      7  C   UNL     1      47.669 -37.370   8.207  1.00  0.00     0.090 A 
ATOM      8  C   UNL     1      48.159 -38.072   9.304  1.00  0.00     0.099 A 
ATOM      9  C   UNL     1      48.576 -36.859   7.285  1.00  0.00     0.253 A 
ATOM     10  N   UNL     1      49.907 -37.057   7.466  1.00  0.00    -0.274 N 
ATOM     11  O   UNL     1      48.162 -36.219   6.282  1.00  0.00    -0.269 OA
ATOM     12  C   UNL     1      50.377 -37.747   8.543  1.00  0.00     0.330 A 
ATOM     13  H   UNL     1      50.583 -36.677   6.764  1.00  0.00     0.175 HD
ATOM     14  O   UNL     1      51.620 -37.921   8.661  1.00  0.00    -0.248 OA
ENDBRANCH   1   6
BRANCH   2  15
ATOM     15  O   UNL     1      49.893 -36.789  11.653  1.00  0.00    -0.386 OA
ATOM     16  H   UNL     1      50.207 -36.601  10.730  1.00  0.00     0.211 HD
ENDBRANCH   2  15
BRANCH   3  17
ATOM     17  O   UNL     1      48.031 -38.009  12.980  1.00  0.00    -0.387 OA
ATOM     18  H   UNL     1      47.784 -37.789  12.045  1.00  0.00     0.211 HD
ENDBRANCH   3  17
BRANCH   4  19
ATOM     19  C   UNL     1      47.671 -40.781  12.798  1.00  0.00     0.191 C 
BRANCH  19  20
ATOM     20  O   UNL     1      46.634 -40.381  11.944  1.00  0.00    -0.394 OA
ATOM     21  H   UNL     1      45.784 -40.629  12.394  1.00  0.00     0.210 HD
ENDBRANCH  19  20
ENDBRANCH   4  19
TORSDOF 5
ENDMDL
