MODEL 1
REMARK VINA RESULT:    -4.013      0.000      0.000
REMARK INTER + INTRA:          -8.267
REMARK INTER:                  -6.828
REMARK INTRA:                  -1.439
REMARK UNBOUND:                -1.439
REMARK SMILES CCCCCCCCCCCCCC(=O)[O-]
REMARK SMILES IDX 8 1 9 2 10 3 11 4 12 5 13 6 14 7 15 8 16 9 7 10 6 11 5 12
REMARK SMILES IDX 4 13 3 14 2 15 1 16
REMARK H PARENT
REMARK Flexibility Score: inf
ROOT
ATOM      1  C   UNL     1       1.770   3.091   7.546  1.00  0.00     0.000 C 
ENDROOT
BRANCH   1   2
ATOM      2  C   UNL     1       2.946   4.045   7.271  1.00  0.00     0.000 C 
BRANCH   2   3
ATOM      3  C   UNL     1       2.880   5.327   8.117  1.00  0.00     0.000 C 
BRANCH   3   4
ATOM      4  C   UNL     1       4.093   5.484   9.051  1.00  0.00     0.000 C 
BRANCH   4   5
ATOM      5  C   UNL     1       5.157   4.398   8.823  1.00  0.00     0.006 C 
BRANCH   5   6
ATOM      6  C   UNL     1       6.559   4.979   8.605  1.00  0.00     0.053 C 
BRANCH   6   7
ATOM      7  C   UNL     1       6.799   5.230   7.149  1.00  0.00     0.041 C 
ATOM      8  O   UNL     1       7.384   6.280   6.775  1.00  0.00    -0.550 OA
ATOM      9  O   UNL     1       6.334   4.327   6.202  1.00  0.00    -0.550 OA
ENDBRANCH   6   7
ENDBRANCH   5   6
ENDBRANCH   4   5
ENDBRANCH   3   4
ENDBRANCH   2   3
ENDBRANCH   1   2
BRANCH   1  10
ATOM     10  C   UNL     1       0.558   3.814   8.159  1.00  0.00     0.000 C 
BRANCH  10  11
ATOM     11  C   UNL     1      -0.331   2.872   8.988  1.00  0.00    -0.000 C 
BRANCH  11  12
ATOM     12  C   UNL     1       0.043   2.856  10.482  1.00  0.00    -0.000 C 
BRANCH  12  13
ATOM     13  C   UNL     1       0.834   4.081  10.975  1.00  0.00    -0.000 C 
BRANCH  13  14
ATOM     14  C   UNL     1       2.180   3.708  11.619  1.00  0.00    -0.000 C 
BRANCH  14  15
ATOM     15  C   UNL     1       2.291   4.191  13.072  1.00  0.00    -0.003 C 
ATOM     16  C   UNL     1       0.949   4.636  13.654  1.00  0.00     0.004 C 
ENDBRANCH  14  15
ENDBRANCH  13  14
ENDBRANCH  12  13
ENDBRANCH  11  12
ENDBRANCH  10  11
ENDBRANCH   1  10
TORSDOF 12
ENDMDL
MODEL 2
REMARK VINA RESULT:    -3.953      9.585     12.117
REMARK INTER + INTRA:          -8.165
REMARK INTER:                  -6.228
REMARK INTRA:                  -1.937
REMARK UNBOUND:                -1.439
REMARK SMILES CCCCCCCCCCCCCC(=O)[O-]
REMARK SMILES IDX 8 1 9 2 10 3 11 4 12 5 13 6 14 7 15 8 16 9 7 10 6 11 5 12
REMARK SMILES IDX 4 13 3 14 2 15 1 16
REMARK H PARENT
REMARK Flexibility Score: inf
ROOT
ATOM      1  C   UNL     1      -1.829  -3.366   9.917  1.00  0.00     0.000 C 
ENDROOT
BRANCH   1   2
ATOM      2  C   UNL     1      -2.307  -4.609   9.145  1.00  0.00     0.000 C 
BRANCH   2   3
ATOM      3  C   UNL     1      -3.789  -4.929   9.397  1.00  0.00     0.000 C 
BRANCH   3   4
ATOM      4  C   UNL     1      -4.700  -4.465   8.247  1.00  0.00     0.000 C 
BRANCH   4   5
ATOM      5  C   UNL     1      -5.979  -3.775   8.749  1.00  0.00     0.006 C 
BRANCH   5   6
ATOM      6  C   UNL     1      -7.214  -4.681   8.660  1.00  0.00     0.053 C 
BRANCH   6   7
ATOM      7  C   UNL     1      -7.466  -5.080   7.240  1.00  0.00     0.041 C 
ATOM      8  O   UNL     1      -7.404  -6.292   6.903  1.00  0.00    -0.550 OA
ATOM      9  O   UNL     1      -7.720  -4.110   6.279  1.00  0.00    -0.550 OA
ENDBRANCH   6   7
ENDBRANCH   5   6
ENDBRANCH   4   5
ENDBRANCH   3   4
ENDBRANCH   2   3
ENDBRANCH   1   2
BRANCH   1  10
ATOM     10  C   UNL     1      -2.895  -2.833  10.890  1.00  0.00     0.000 C 
BRANCH  10  11
ATOM     11  C   UNL     1      -3.003  -1.298  10.859  1.00  0.00    -0.000 C 
BRANCH  11  12
ATOM     12  C   UNL     1      -4.395  -0.804  10.422  1.00  0.00    -0.000 C 
BRANCH  12  13
ATOM     13  C   UNL     1      -4.480  -0.272   8.980  1.00  0.00    -0.000 C 
BRANCH  13  14
ATOM     14  C   UNL     1      -3.132  -0.328   8.240  1.00  0.00    -0.000 C 
BRANCH  14  15
ATOM     15  C   UNL     1      -3.167  -1.271   7.027  1.00  0.00    -0.003 C 
ATOM     16  C   UNL     1      -1.772  -1.620   6.507  1.00  0.00     0.004 C 
ENDBRANCH  14  15
ENDBRANCH  13  14
ENDBRANCH  12  13
ENDBRANCH  11  12
ENDBRANCH  10  11
ENDBRANCH   1  10
TORSDOF 12
ENDMDL
MODEL 3
REMARK VINA RESULT:    -3.924      2.797      6.232
REMARK INTER + INTRA:          -8.116
REMARK INTER:                  -6.767
REMARK INTRA:                  -1.349
REMARK UNBOUND:                -1.439
REMARK SMILES CCCCCCCCCCCCCC(=O)[O-]
REMARK SMILES IDX 8 1 9 2 10 3 11 4 12 5 13 6 14 7 15 8 16 9 7 10 6 11 5 12
REMARK SMILES IDX 4 13 3 14 2 15 1 16
REMARK H PARENT
REMARK Flexibility Score: inf
ROOT
ATOM      1  C   UNL     1       6.077   5.474   8.332  1.00  0.00     0.000 C 
ENDROOT
BRANCH   1   2
ATOM      2  C   UNL     1       5.544   4.094   8.758  1.00  0.00     0.000 C 
BRANCH   2   3
ATOM      3  C   UNL     1       4.137   4.166   9.372  1.00  0.00     0.000 C 
BRANCH   3   4
ATOM      4  C   UNL     1       3.342   5.393   8.891  1.00  0.00     0.000 C 
BRANCH   4   5
ATOM      5  C   UNL     1       2.335   5.044   7.783  1.00  0.00     0.006 C 
BRANCH   5   6
ATOM      6  C   UNL     1       2.306   3.546   7.458  1.00  0.00     0.053 C 
BRANCH   6   7
ATOM      7  C   UNL     1       2.917   3.291   6.115  1.00  0.00     0.041 C 
ATOM      8  O   UNL     1       3.759   4.097   5.640  1.00  0.00    -0.550 OA
ATOM      9  O   UNL     1       2.519   2.191   5.368  1.00  0.00    -0.550 OA
ENDBRANCH   6   7
ENDBRANCH   5   6
ENDBRANCH   4   5
ENDBRANCH   3   4
ENDBRANCH   2   3
ENDBRANCH   1   2
BRANCH   1  10
ATOM     10  C   UNL     1       7.403   5.379   7.559  1.00  0.00     0.000 C 
BRANCH  10  11
ATOM     11  C   UNL     1       7.341   4.363   6.406  1.00  0.00    -0.000 C 
BRANCH  11  12
ATOM     12  C   UNL     1       8.579   3.448   6.346  1.00  0.00    -0.000 C 
BRANCH  12  13
ATOM     13  C   UNL     1       9.364   3.319   7.665  1.00  0.00    -0.000 C 
BRANCH  13  14
ATOM     14  C   UNL     1       8.938   2.099   8.499  1.00  0.00    -0.000 C 
BRANCH  14  15
ATOM     15  C   UNL     1       8.612   2.466   9.955  1.00  0.00    -0.003 C 
ATOM     16  C   UNL     1       9.821   3.013  10.714  1.00  0.00     0.004 C 
ENDBRANCH  14  15
ENDBRANCH  13  14
ENDBRANCH  12  13
ENDBRANCH  11  12
ENDBRANCH  10  11
ENDBRANCH   1  10
TORSDOF 12
ENDMDL
MODEL 4
REMARK VINA RESULT:    -3.922      3.328      7.023
REMARK INTER + INTRA:          -8.113
REMARK INTER:                  -6.310
REMARK INTRA:                  -1.803
REMARK UNBOUND:                -1.439
REMARK SMILES CCCCCCCCCCCCCC(=O)[O-]
REMARK SMILES IDX 8 1 9 2 10 3 11 4 12 5 13 6 14 7 15 8 16 9 7 10 6 11 5 12
REMARK SMILES IDX 4 13 3 14 2 15 1 16
REMARK H PARENT
REMARK Flexibility Score: inf
ROOT
ATOM      1  C   UNL     1       9.469   3.135   8.977  1.00  0.00     0.000 C 
ENDROOT
BRANCH   1   2
ATOM      2  C   UNL     1       8.340   4.162   9.180  1.00  0.00     0.000 C 
BRANCH   2   3
ATOM      3  C   UNL     1       7.910   4.836   7.867  1.00  0.00     0.000 C 
BRANCH   3   4
ATOM      4  C   UNL     1       6.526   5.501   7.968  1.00  0.00     0.000 C 
BRANCH   4   5
ATOM      5  C   UNL     1       5.402   4.485   8.231  1.00  0.00     0.006 C 
BRANCH   5   6
ATOM      6  C   UNL     1       4.133   5.138   8.793  1.00  0.00     0.053 C 
BRANCH   6   7
ATOM      7  C   UNL     1       3.070   5.201   7.741  1.00  0.00     0.041 C 
ATOM      8  O   UNL     1       3.270   4.693   6.607  1.00  0.00    -0.550 OA
ATOM      9  O   UNL     1       1.877   5.865   7.997  1.00  0.00    -0.550 OA
ENDBRANCH   6   7
ENDBRANCH   5   6
ENDBRANCH   4   5
ENDBRANCH   3   4
ENDBRANCH   2   3
ENDBRANCH   1   2
BRANCH   1  10
ATOM     10  C   UNL     1       9.337   1.923   9.914  1.00  0.00     0.000 C 
BRANCH  10  11
ATOM     11  C   UNL     1       8.078   1.088   9.623  1.00  0.00    -0.000 C 
BRANCH  11  12
ATOM     12  C   UNL     1       7.992   0.625   8.157  1.00  0.00    -0.000 C 
BRANCH  12  13
ATOM     13  C   UNL     1       6.788   1.169   7.366  1.00  0.00    -0.000 C 
BRANCH  13  14
ATOM     14  C   UNL     1       7.173   1.696   5.973  1.00  0.00    -0.000 C 
BRANCH  14  15
ATOM     15  C   UNL     1       8.678   1.575   5.694  1.00  0.00    -0.003 C 
ATOM     16  C   UNL     1       9.283   2.861   5.130  1.00  0.00     0.004 C 
ENDBRANCH  14  15
ENDBRANCH  13  14
ENDBRANCH  12  13
ENDBRANCH  11  12
ENDBRANCH  10  11
ENDBRANCH   1  10
TORSDOF 12
ENDMDL
MODEL 5
REMARK VINA RESULT:    -3.916      2.094      4.184
REMARK INTER + INTRA:          -8.103
REMARK INTER:                  -6.507
REMARK INTRA:                  -1.596
REMARK UNBOUND:                -1.439
REMARK SMILES CCCCCCCCCCCCCC(=O)[O-]
REMARK SMILES IDX 8 1 9 2 10 3 11 4 12 5 13 6 14 7 15 8 16 9 7 10 6 11 5 12
REMARK SMILES IDX 4 13 3 14 2 15 1 16
REMARK H PARENT
REMARK Flexibility Score: inf
ROOT
ATOM      1  C   UNL     1       1.479   4.508   8.651  1.00  0.00     0.000 C 
ENDROOT
BRANCH   1   2
ATOM      2  C   UNL     1       2.584   5.562   8.455  1.00  0.00     0.000 C 
BRANCH   2   3
ATOM      3  C   UNL     1       3.839   5.267   9.293  1.00  0.00     0.000 C 
BRANCH   3   4
ATOM      4  C   UNL     1       5.141   5.446   8.492  1.00  0.00     0.000 C 
BRANCH   4   5
ATOM      5  C   UNL     1       6.010   4.177   8.489  1.00  0.00     0.006 C 
BRANCH   5   6
ATOM      6  C   UNL     1       7.511   4.487   8.435  1.00  0.00     0.053 C 
BRANCH   6   7
ATOM      7  C   UNL     1       7.998   4.461   7.020  1.00  0.00     0.041 C 
ATOM      8  O   UNL     1       8.830   3.590   6.653  1.00  0.00    -0.550 OA
ATOM      9  O   UNL     1       7.570   5.427   6.119  1.00  0.00    -0.550 OA
ENDBRANCH   6   7
ENDBRANCH   5   6
ENDBRANCH   4   5
ENDBRANCH   3   4
ENDBRANCH   2   3
ENDBRANCH   1   2
BRANCH   1  10
ATOM     10  C   UNL     1       1.974   3.274   9.424  1.00  0.00     0.000 C 
BRANCH  10  11
ATOM     11  C   UNL     1       1.589   1.954   8.735  1.00  0.00    -0.000 C 
BRANCH  11  12
ATOM     12  C   UNL     1       2.423   1.671   7.472  1.00  0.00    -0.000 C 
BRANCH  12  13
ATOM     13  C   UNL     1       1.710   1.956   6.137  1.00  0.00    -0.000 C 
BRANCH  13  14
ATOM     14  C   UNL     1       2.676   2.394   5.023  1.00  0.00    -0.000 C 
BRANCH  14  15
ATOM     15  C   UNL     1       3.709   3.421   5.510  1.00  0.00    -0.003 C 
ATOM     16  C   UNL     1       5.123   3.123   5.010  1.00  0.00     0.004 C 
ENDBRANCH  14  15
ENDBRANCH  13  14
ENDBRANCH  12  13
ENDBRANCH  11  12
ENDBRANCH  10  11
ENDBRANCH   1  10
TORSDOF 12
ENDMDL
MODEL 6
REMARK VINA RESULT:    -3.896      9.293     12.144
REMARK INTER + INTRA:          -8.069
REMARK INTER:                  -6.513
REMARK INTRA:                  -1.556
REMARK UNBOUND:                -1.439
REMARK SMILES CCCCCCCCCCCCCC(=O)[O-]
REMARK SMILES IDX 8 1 9 2 10 3 11 4 12 5 13 6 14 7 15 8 16 9 7 10 6 11 5 12
REMARK SMILES IDX 4 13 3 14 2 15 1 16
REMARK H PARENT
REMARK Flexibility Score: inf
ROOT
ATOM      1  C   UNL     1      -4.414  -4.748   9.138  1.00  0.00     0.000 C 
ENDROOT
BRANCH   1   2
ATOM      2  C   UNL     1      -5.126  -3.383   9.130  1.00  0.00     0.000 C 
BRANCH   2   3
ATOM      3  C   UNL     1      -6.648  -3.510   8.953  1.00  0.00     0.000 C 
BRANCH   3   4
ATOM      4  C   UNL     1      -7.079  -4.924   8.525  1.00  0.00     0.000 C 
BRANCH   4   5
ATOM      5  C   UNL     1      -7.495  -4.990   7.046  1.00  0.00     0.006 C 
BRANCH   5   6
ATOM      6  C   UNL     1      -7.613  -3.604   6.401  1.00  0.00     0.053 C 
BRANCH   6   7
ATOM      7  C   UNL     1      -6.644  -3.472   5.267  1.00  0.00     0.041 C 
ATOM      8  O   UNL     1      -7.063  -3.364   4.085  1.00  0.00    -0.550 OA
ATOM      9  O   UNL     1      -5.277  -3.519   5.512  1.00  0.00    -0.550 OA
ENDBRANCH   6   7
ENDBRANCH   5   6
ENDBRANCH   4   5
ENDBRANCH   3   4
ENDBRANCH   2   3
ENDBRANCH   1   2
BRANCH   1  10
ATOM     10  C   UNL     1      -3.315  -4.845   8.065  1.00  0.00     0.000 C 
BRANCH  10  11
ATOM     11  C   UNL     1      -1.906  -4.948   8.674  1.00  0.00    -0.000 C 
BRANCH  11  12
ATOM     12  C   UNL     1      -1.120  -3.626   8.594  1.00  0.00    -0.000 C 
BRANCH  12  13
ATOM     13  C   UNL     1      -0.733  -3.009   9.951  1.00  0.00    -0.000 C 
BRANCH  13  14
ATOM     14  C   UNL     1      -1.384  -1.636  10.193  1.00  0.00    -0.000 C 
BRANCH  14  15
ATOM     15  C   UNL     1      -2.593  -1.716  11.136  1.00  0.00    -0.003 C 
ATOM     16  C   UNL     1      -2.607  -2.993  11.977  1.00  0.00     0.004 C 
ENDBRANCH  14  15
ENDBRANCH  13  14
ENDBRANCH  12  13
ENDBRANCH  11  12
ENDBRANCH  10  11
ENDBRANCH   1  10
TORSDOF 12
ENDMDL
MODEL 7
REMARK VINA RESULT:    -3.893     11.585     13.383
REMARK INTER + INTRA:          -8.064
REMARK INTER:                  -6.254
REMARK INTRA:                  -1.810
REMARK UNBOUND:                -1.439
REMARK SMILES CCCCCCCCCCCCCC(=O)[O-]
REMARK SMILES IDX 8 1 9 2 10 3 11 4 12 5 13 6 14 7 15 8 16 9 7 10 6 11 5 12
REMARK SMILES IDX 4 13 3 14 2 15 1 16
REMARK H PARENT
REMARK Flexibility Score: inf
ROOT
ATOM      1  C   UNL     1      -3.514  -3.078   7.613  1.00  0.00     0.000 C 
ENDROOT
BRANCH   1   2
ATOM      2  C   UNL     1      -3.569  -3.106   6.075  1.00  0.00     0.000 C 
BRANCH   2   3
ATOM      3  C   UNL     1      -5.008  -3.089   5.533  1.00  0.00     0.000 C 
BRANCH   3   4
ATOM      4  C   UNL     1      -5.806  -1.864   6.012  1.00  0.00     0.000 C 
BRANCH   4   5
ATOM      5  C   UNL     1      -7.302  -1.966   5.671  1.00  0.00     0.006 C 
BRANCH   5   6
ATOM      6  C   UNL     1      -7.583  -2.942   4.522  1.00  0.00     0.053 C 
BRANCH   6   7
ATOM      7  C   UNL     1      -8.647  -3.919   4.916  1.00  0.00     0.041 C 
ATOM      8  O   UNL     1      -9.811  -3.517   5.175  1.00  0.00    -0.550 OA
ATOM      9  O   UNL     1      -8.339  -5.267   5.045  1.00  0.00    -0.550 OA
ENDBRANCH   6   7
ENDBRANCH   5   6
ENDBRANCH   4   5
ENDBRANCH   3   4
ENDBRANCH   2   3
ENDBRANCH   1   2
BRANCH   1  10
ATOM     10  C   UNL     1      -3.304  -4.477   8.219  1.00  0.00     0.000 C 
BRANCH  10  11
ATOM     11  C   UNL     1      -4.403  -4.852   9.228  1.00  0.00    -0.000 C 
BRANCH  11  12
ATOM     12  C   UNL     1      -5.668  -3.984   9.086  1.00  0.00    -0.000 C 
BRANCH  12  13
ATOM     13  C   UNL     1      -6.864  -4.674   8.405  1.00  0.00    -0.000 C 
BRANCH  13  14
ATOM     14  C   UNL     1      -8.198  -3.951   8.659  1.00  0.00    -0.000 C 
BRANCH  14  15
ATOM     15  C   UNL     1      -8.004  -2.563   9.288  1.00  0.00    -0.003 C 
ATOM     16  C   UNL     1      -9.316  -1.937   9.761  1.00  0.00     0.004 C 
ENDBRANCH  14  15
ENDBRANCH  13  14
ENDBRANCH  12  13
ENDBRANCH  11  12
ENDBRANCH  10  11
ENDBRANCH   1  10
TORSDOF 12
ENDMDL
MODEL 8
REMARK VINA RESULT:    -3.876     10.659     13.604
REMARK INTER + INTRA:          -8.035
REMARK INTER:                  -6.824
REMARK INTRA:                  -1.211
REMARK UNBOUND:                -1.439
REMARK SMILES CCCCCCCCCCCCCC(=O)[O-]
REMARK SMILES IDX 8 1 9 2 10 3 11 4 12 5 13 6 14 7 15 8 16 9 7 10 6 11 5 12
REMARK SMILES IDX 4 13 3 14 2 15 1 16
REMARK H PARENT
REMARK Flexibility Score: inf
ROOT
ATOM      1  C   UNL     1      -7.293  -2.114   9.417  1.00  0.00     0.000 C 
ENDROOT
BRANCH   1   2
ATOM      2  C   UNL     1      -8.276  -3.288   9.262  1.00  0.00     0.000 C 
BRANCH   2   3
ATOM      3  C   UNL     1      -9.397  -2.992   8.252  1.00  0.00     0.000 C 
BRANCH   3   4
ATOM      4  C   UNL     1      -8.897  -2.213   7.023  1.00  0.00     0.000 C 
BRANCH   4   5
ATOM      5  C   UNL     1      -9.022  -3.023   5.721  1.00  0.00     0.006 C 
BRANCH   5   6
ATOM      6  C   UNL     1      -7.728  -3.759   5.355  1.00  0.00     0.053 C 
BRANCH   6   7
ATOM      7  C   UNL     1      -7.943  -5.240   5.393  1.00  0.00     0.041 C 
ATOM      8  O   UNL     1      -8.513  -5.822   4.433  1.00  0.00    -0.550 OA
ATOM      9  O   UNL     1      -7.557  -5.971   6.510  1.00  0.00    -0.550 OA
ENDBRANCH   6   7
ENDBRANCH   5   6
ENDBRANCH   4   5
ENDBRANCH   3   4
ENDBRANCH   2   3
ENDBRANCH   1   2
BRANCH   1  10
ATOM     10  C   UNL     1      -5.843  -2.513   9.092  1.00  0.00     0.000 C 
BRANCH  10  11
ATOM     11  C   UNL     1      -5.745  -3.917   8.469  1.00  0.00    -0.000 C 
BRANCH  11  12
ATOM     12  C   UNL     1      -4.974  -4.913   9.355  1.00  0.00    -0.000 C 
BRANCH  12  13
ATOM     13  C   UNL     1      -3.480  -4.596   9.553  1.00  0.00    -0.000 C 
BRANCH  13  14
ATOM     14  C   UNL     1      -2.716  -4.454   8.225  1.00  0.00    -0.000 C 
BRANCH  14  15
ATOM     15  C   UNL     1      -1.359  -3.757   8.399  1.00  0.00    -0.003 C 
ATOM     16  C   UNL     1      -1.122  -3.268   9.828  1.00  0.00     0.004 C 
ENDBRANCH  14  15
ENDBRANCH  13  14
ENDBRANCH  12  13
ENDBRANCH  11  12
ENDBRANCH  10  11
ENDBRANCH   1  10
TORSDOF 12
ENDMDL
MODEL 9
REMARK VINA RESULT:    -3.858      9.187     12.001
REMARK INTER + INTRA:          -8.003
REMARK INTER:                  -6.290
REMARK INTRA:                  -1.713
REMARK UNBOUND:                -1.439
REMARK SMILES CCCCCCCCCCCCCC(=O)[O-]
REMARK SMILES IDX 8 1 9 2 10 3 11 4 12 5 13 6 14 7 15 8 16 9 7 10 6 11 5 12
REMARK SMILES IDX 4 13 3 14 2 15 1 16
REMARK H PARENT
REMARK Flexibility Score: inf
ROOT
ATOM      1  C   UNL     1      -2.263  -4.982   8.454  1.00  0.00     0.000 C 
ENDROOT
BRANCH   1   2
ATOM      2  C   UNL     1      -3.718  -4.712   8.029  1.00  0.00     0.000 C 
BRANCH   2   3
ATOM      3  C   UNL     1      -4.667  -4.563   9.228  1.00  0.00     0.000 C 
BRANCH   3   4
ATOM      4  C   UNL     1      -5.750  -3.494   8.998  1.00  0.00     0.000 C 
BRANCH   4   5
ATOM      5  C   UNL     1      -7.174  -4.062   9.116  1.00  0.00     0.006 C 
BRANCH   5   6
ATOM      6  C   UNL     1      -7.983  -3.907   7.823  1.00  0.00     0.053 C 
BRANCH   6   7
ATOM      7  C   UNL     1      -7.424  -4.788   6.749  1.00  0.00     0.041 C 
ATOM      8  O   UNL     1      -7.459  -6.040   6.875  1.00  0.00    -0.550 OA
ATOM      9  O   UNL     1      -6.820  -4.224   5.632  1.00  0.00    -0.550 OA
ENDBRANCH   6   7
ENDBRANCH   5   6
ENDBRANCH   4   5
ENDBRANCH   3   4
ENDBRANCH   2   3
ENDBRANCH   1   2
BRANCH   1  10
ATOM     10  C   UNL     1      -1.407  -3.704   8.463  1.00  0.00     0.000 C 
BRANCH  10  11
ATOM     11  C   UNL     1      -1.962  -2.617   7.526  1.00  0.00    -0.000 C 
BRANCH  11  12
ATOM     12  C   UNL     1      -2.140  -1.257   8.226  1.00  0.00    -0.000 C 
BRANCH  12  13
ATOM     13  C   UNL     1      -2.783  -1.317   9.623  1.00  0.00    -0.000 C 
BRANCH  13  14
ATOM     14  C   UNL     1      -1.844  -0.822  10.738  1.00  0.00    -0.000 C 
BRANCH  14  15
ATOM     15  C   UNL     1      -1.521  -1.918  11.764  1.00  0.00    -0.003 C 
ATOM     16  C   UNL     1      -2.630  -2.964  11.884  1.00  0.00     0.004 C 
ENDBRANCH  14  15
ENDBRANCH  13  14
ENDBRANCH  12  13
ENDBRANCH  11  12
ENDBRANCH  10  11
ENDBRANCH   1  10
TORSDOF 12
ENDMDL
