MODEL 1
REMARK VINA RESULT:    -5.484      0.000      0.000
REMARK INTER + INTRA:          -8.352
REMARK INTER:                  -7.408
REMARK INTRA:                  -0.944
REMARK UNBOUND:                -0.944
REMARK SMILES CC(=O)CCC=C(C)CCC=C(C)C
REMARK SMILES IDX 7 1 6 2 8 3 9 4 10 5 11 6 13 7 12 8 14 9 5 10 4 11 2 12 3 13
REMARK SMILES IDX 1 14
REMARK H PARENT
REMARK Flexibility Score: inf
ROOT
ATOM      1  C   UNL     1     -11.179   4.171 -18.340  1.00  0.00    -0.077 C 
ATOM      2  C   UNL     1     -11.983   4.538 -19.361  1.00  0.00    -0.028 C 
ATOM      3  C   UNL     1      -9.715   4.542 -18.317  1.00  0.00     0.039 C 
ENDROOT
BRANCH   1   4
ATOM      4  C   UNL     1     -11.758   3.368 -17.192  1.00  0.00     0.034 C 
BRANCH   4   5
ATOM      5  C   UNL     1     -11.202   1.937 -17.157  1.00  0.00     0.032 C 
BRANCH   5   6
ATOM      6  C   UNL     1     -11.829   1.065 -18.219  1.00  0.00    -0.028 C 
ATOM      7  C   UNL     1     -11.978  -0.181 -20.330  1.00  0.00     0.039 C 
ATOM      8  C   UNL     1     -11.200   0.645 -19.338  1.00  0.00    -0.080 C 
ATOM      9  C   UNL     1      -9.749   0.963 -19.609  1.00  0.00     0.039 C 
ENDBRANCH   5   6
ENDBRANCH   4   5
ENDBRANCH   1   4
BRANCH   2  10
ATOM     10  C   UNL     1     -11.494   5.326 -20.554  1.00  0.00     0.035 C 
BRANCH  10  11
ATOM     11  C   UNL     1     -12.209   4.914 -21.847  1.00  0.00     0.079 C 
BRANCH  11  12
ATOM     12  C   UNL     1     -12.877   6.093 -22.513  1.00  0.00     0.130 C 
ATOM     13  O   UNL     1     -12.245   6.772 -23.309  1.00  0.00    -0.300 OA
ATOM     14  C   UNL     1     -14.301   6.455 -22.215  1.00  0.00     0.087 C 
ENDBRANCH  11  12
ENDBRANCH  10  11
ENDBRANCH   2  10
TORSDOF 6
ENDMDL
MODEL 2
REMARK VINA RESULT:    -5.457      0.927      1.691
REMARK INTER + INTRA:          -8.315
REMARK INTER:                  -7.598
REMARK INTRA:                  -0.716
REMARK UNBOUND:                -0.944
REMARK SMILES CC(=O)CCC=C(C)CCC=C(C)C
REMARK SMILES IDX 7 1 6 2 8 3 9 4 10 5 11 6 13 7 12 8 14 9 5 10 4 11 2 12 3 13
REMARK SMILES IDX 1 14
REMARK H PARENT
REMARK Flexibility Score: inf
ROOT
ATOM      1  C   UNL     1     -10.587   4.567 -18.384  1.00  0.00    -0.077 C 
ATOM      2  C   UNL     1     -10.750   5.005 -19.652  1.00  0.00    -0.028 C 
ATOM      3  C   UNL     1     -11.770   4.341 -17.472  1.00  0.00     0.039 C 
ENDROOT
BRANCH   1   4
ATOM      4  C   UNL     1      -9.189   4.299 -17.865  1.00  0.00     0.034 C 
BRANCH   4   5
ATOM      5  C   UNL     1      -8.936   2.800 -17.649  1.00  0.00     0.032 C 
BRANCH   5   6
ATOM      6  C   UNL     1      -9.120   2.011 -18.924  1.00  0.00    -0.028 C 
ATOM      7  C   UNL     1     -10.165   0.411 -20.468  1.00  0.00     0.039 C 
ATOM      8  C   UNL     1     -10.148   1.167 -19.163  1.00  0.00    -0.080 C 
ATOM      9  C   UNL     1     -11.275   0.975 -18.176  1.00  0.00     0.039 C 
ENDBRANCH   5   6
ENDBRANCH   4   5
ENDBRANCH   1   4
BRANCH   2  10
ATOM     10  C   UNL     1     -12.101   5.312 -20.252  1.00  0.00     0.035 C 
BRANCH  10  11
ATOM     11  C   UNL     1     -12.138   5.029 -21.760  1.00  0.00     0.079 C 
BRANCH  11  12
ATOM     12  C   UNL     1     -12.858   6.121 -22.513  1.00  0.00     0.130 C 
ATOM     13  O   UNL     1     -12.245   6.793 -23.329  1.00  0.00    -0.300 OA
ATOM     14  C   UNL     1     -14.312   6.405 -22.277  1.00  0.00     0.087 C 
ENDBRANCH  11  12
ENDBRANCH  10  11
ENDBRANCH   2  10
TORSDOF 6
ENDMDL
MODEL 3
REMARK VINA RESULT:    -5.316      1.461      2.441
REMARK INTER + INTRA:          -8.125
REMARK INTER:                  -7.106
REMARK INTRA:                  -1.019
REMARK UNBOUND:                -0.944
REMARK SMILES CC(=O)CCC=C(C)CCC=C(C)C
REMARK SMILES IDX 7 1 6 2 8 3 9 4 10 5 11 6 13 7 12 8 14 9 5 10 4 11 2 12 3 13
REMARK SMILES IDX 1 14
REMARK H PARENT
REMARK Flexibility Score: inf
ROOT
ATOM      1  C   UNL     1      -8.977   3.556 -18.503  1.00  0.00    -0.077 C 
ATOM      2  C   UNL     1      -9.680   4.326 -19.362  1.00  0.00    -0.028 C 
ATOM      3  C   UNL     1      -9.138   3.698 -17.008  1.00  0.00     0.039 C 
ENDROOT
BRANCH   1   4
ATOM      4  C   UNL     1      -8.006   2.530 -19.051  1.00  0.00     0.034 C 
BRANCH   4   5
ATOM      5  C   UNL     1      -8.505   1.095 -18.832  1.00  0.00     0.032 C 
BRANCH   5   6
ATOM      6  C   UNL     1      -9.641   0.748 -19.765  1.00  0.00    -0.028 C 
ATOM      7  C   UNL     1     -11.948   0.231 -20.431  1.00  0.00     0.039 C 
ATOM      8  C   UNL     1     -10.934   0.634 -19.391  1.00  0.00    -0.080 C 
ATOM      9  C   UNL     1     -11.388   0.913 -17.978  1.00  0.00     0.039 C 
ENDBRANCH   5   6
ENDBRANCH   4   5
ENDBRANCH   1   4
BRANCH   2  10
ATOM     10  C   UNL     1     -10.659   5.384 -18.911  1.00  0.00     0.035 C 
BRANCH  10  11
ATOM     11  C   UNL     1     -12.098   5.049 -19.324  1.00  0.00     0.079 C 
BRANCH  11  12
ATOM     12  C   UNL     1     -12.498   5.773 -20.587  1.00  0.00     0.130 C 
ATOM     13  O   UNL     1     -13.040   6.866 -20.508  1.00  0.00    -0.300 OA
ATOM     14  C   UNL     1     -12.248   5.178 -21.941  1.00  0.00     0.087 C 
ENDBRANCH  11  12
ENDBRANCH  10  11
ENDBRANCH   2  10
TORSDOF 6
ENDMDL
MODEL 4
REMARK VINA RESULT:    -5.157      2.811      5.506
REMARK INTER + INTRA:          -7.911
REMARK INTER:                  -7.639
REMARK INTRA:                  -0.271
REMARK UNBOUND:                -0.944
REMARK SMILES CC(=O)CCC=C(C)CCC=C(C)C
REMARK SMILES IDX 7 1 6 2 8 3 9 4 10 5 11 6 13 7 12 8 14 9 5 10 4 11 2 12 3 13
REMARK SMILES IDX 1 14
REMARK H PARENT
REMARK Flexibility Score: inf
ROOT
ATOM      1  C   UNL     1      -9.544   3.421 -18.779  1.00  0.00    -0.077 C 
ATOM      2  C   UNL     1     -10.142   2.463 -19.519  1.00  0.00    -0.028 C 
ATOM      3  C   UNL     1      -8.320   3.122 -17.945  1.00  0.00     0.039 C 
ENDROOT
BRANCH   1   4
ATOM      4  C   UNL     1     -10.112   4.826 -18.784  1.00  0.00     0.034 C 
BRANCH   4   5
ATOM      5  C   UNL     1     -11.569   4.852 -19.269  1.00  0.00     0.032 C 
BRANCH   5   6
ATOM      6  C   UNL     1     -11.656   4.950 -20.775  1.00  0.00    -0.028 C 
ATOM      7  C   UNL     1     -12.485   5.732 -22.950  1.00  0.00     0.039 C 
ATOM      8  C   UNL     1     -12.476   5.789 -21.444  1.00  0.00    -0.080 C 
ATOM      9  C   UNL     1     -13.362   6.782 -20.730  1.00  0.00     0.039 C 
ENDBRANCH   5   6
ENDBRANCH   4   5
ENDBRANCH   1   4
BRANCH   2  10
ATOM     10  C   UNL     1      -9.658   1.033 -19.567  1.00  0.00     0.035 C 
BRANCH  10  11
ATOM     11  C   UNL     1     -10.711   0.088 -20.160  1.00  0.00     0.079 C 
BRANCH  11  12
ATOM     12  C   UNL     1     -11.731  -0.326 -19.127  1.00  0.00     0.130 C 
ATOM     13  O   UNL     1     -11.355  -0.693 -18.024  1.00  0.00    -0.300 OA
ATOM     14  C   UNL     1     -13.201  -0.302 -19.428  1.00  0.00     0.087 C 
ENDBRANCH  11  12
ENDBRANCH  10  11
ENDBRANCH   2  10
TORSDOF 6
ENDMDL
MODEL 5
REMARK VINA RESULT:    -5.145      2.913      4.957
REMARK INTER + INTRA:          -7.893
REMARK INTER:                  -7.330
REMARK INTRA:                  -0.563
REMARK UNBOUND:                -0.944
REMARK SMILES CC(=O)CCC=C(C)CCC=C(C)C
REMARK SMILES IDX 7 1 6 2 8 3 9 4 10 5 11 6 13 7 12 8 14 9 5 10 4 11 2 12 3 13
REMARK SMILES IDX 1 14
REMARK H PARENT
REMARK Flexibility Score: inf
ROOT
ATOM      1  C   UNL     1     -11.687   3.591 -18.413  1.00  0.00    -0.077 C 
ATOM      2  C   UNL     1     -11.710   2.325 -18.883  1.00  0.00    -0.028 C 
ATOM      3  C   UNL     1     -12.108   3.912 -16.998  1.00  0.00     0.039 C 
ENDROOT
BRANCH   1   4
ATOM      4  C   UNL     1     -11.232   4.712 -19.324  1.00  0.00     0.034 C 
BRANCH   4   5
ATOM      5  C   UNL     1      -9.750   5.056 -19.113  1.00  0.00     0.032 C 
BRANCH   5   6
ATOM      6  C   UNL     1      -8.868   3.838 -19.247  1.00  0.00    -0.028 C 
ATOM      7  C   UNL     1      -7.428   1.990 -18.506  1.00  0.00     0.039 C 
ATOM      8  C   UNL     1      -8.333   3.159 -18.208  1.00  0.00    -0.080 C 
ATOM      9  C   UNL     1      -8.627   3.527 -16.773  1.00  0.00     0.039 C 
ENDBRANCH   5   6
ENDBRANCH   4   5
ENDBRANCH   1   4
BRANCH   2  10
ATOM     10  C   UNL     1     -12.162   1.144 -18.056  1.00  0.00     0.035 C 
BRANCH  10  11
ATOM     11  C   UNL     1     -11.514  -0.166 -18.522  1.00  0.00     0.079 C 
BRANCH  11  12
ATOM     12  C   UNL     1     -11.885  -0.492 -19.948  1.00  0.00     0.130 C 
ATOM     13  O   UNL     1     -11.009  -0.558 -20.798  1.00  0.00    -0.300 OA
ATOM     14  C   UNL     1     -13.310  -0.732 -20.350  1.00  0.00     0.087 C 
ENDBRANCH  11  12
ENDBRANCH  10  11
ENDBRANCH   2  10
TORSDOF 6
ENDMDL
MODEL 6
REMARK VINA RESULT:    -5.065      2.222      3.987
REMARK INTER + INTRA:          -7.785
REMARK INTER:                  -7.104
REMARK INTRA:                  -0.681
REMARK UNBOUND:                -0.944
REMARK SMILES CC(=O)CCC=C(C)CCC=C(C)C
REMARK SMILES IDX 7 1 6 2 8 3 9 4 10 5 11 6 13 7 12 8 14 9 5 10 4 11 2 12 3 13
REMARK SMILES IDX 1 14
REMARK H PARENT
REMARK Flexibility Score: inf
ROOT
ATOM      1  C   UNL     1     -10.481   1.422 -19.243  1.00  0.00    -0.077 C 
ATOM      2  C   UNL     1     -11.347   1.987 -18.373  1.00  0.00    -0.028 C 
ATOM      3  C   UNL     1      -9.018   1.798 -19.254  1.00  0.00     0.039 C 
ENDROOT
BRANCH   1   4
ATOM      4  C   UNL     1     -10.989   0.391 -20.231  1.00  0.00     0.034 C 
BRANCH   4   5
ATOM      5  C   UNL     1     -12.295  -0.263 -19.756  1.00  0.00     0.032 C 
BRANCH   5   6
ATOM      6  C   UNL     1     -12.805  -1.281 -20.749  1.00  0.00    -0.028 C 
ATOM      7  C   UNL     1     -14.370  -2.898 -21.734  1.00  0.00     0.039 C 
ATOM      8  C   UNL     1     -14.025  -1.860 -20.697  1.00  0.00    -0.080 C 
ATOM      9  C   UNL     1     -15.046  -1.486 -19.648  1.00  0.00     0.039 C 
ENDBRANCH   5   6
ENDBRANCH   4   5
ENDBRANCH   1   4
BRANCH   2  10
ATOM     10  C   UNL     1     -10.937   3.032 -17.363  1.00  0.00     0.035 C 
BRANCH  10  11
ATOM     11  C   UNL     1     -11.661   4.366 -17.590  1.00  0.00     0.079 C 
BRANCH  11  12
ATOM     12  C   UNL     1     -11.233   5.018 -18.882  1.00  0.00     0.130 C 
ATOM     13  O   UNL     1     -10.063   5.331 -19.039  1.00  0.00    -0.300 OA
ATOM     14  C   UNL     1     -12.218   5.296 -19.980  1.00  0.00     0.087 C 
ENDBRANCH  11  12
ENDBRANCH  10  11
ENDBRANCH   2  10
TORSDOF 6
ENDMDL
MODEL 7
REMARK VINA RESULT:    -5.021      1.587      2.576
REMARK INTER + INTRA:          -7.726
REMARK INTER:                  -7.031
REMARK INTRA:                  -0.695
REMARK UNBOUND:                -0.944
REMARK SMILES CC(=O)CCC=C(C)CCC=C(C)C
REMARK SMILES IDX 7 1 6 2 8 3 9 4 10 5 11 6 13 7 12 8 14 9 5 10 4 11 2 12 3 13
REMARK SMILES IDX 1 14
REMARK H PARENT
REMARK Flexibility Score: inf
ROOT
ATOM      1  C   UNL     1     -11.610   3.888 -18.185  1.00  0.00    -0.077 C 
ATOM      2  C   UNL     1     -11.676   4.994 -18.957  1.00  0.00    -0.028 C 
ATOM      3  C   UNL     1     -11.966   2.525 -18.730  1.00  0.00     0.039 C 
ENDROOT
BRANCH   1   4
ATOM      4  C   UNL     1     -11.170   4.017 -16.740  1.00  0.00     0.034 C 
BRANCH   4   5
ATOM      5  C   UNL     1      -9.661   4.275 -16.622  1.00  0.00     0.032 C 
BRANCH   5   6
ATOM      6  C   UNL     1      -8.852   3.100 -17.119  1.00  0.00    -0.028 C 
ATOM      7  C   UNL     1      -7.525   1.771 -18.703  1.00  0.00     0.039 C 
ATOM      8  C   UNL     1      -8.257   3.035 -18.331  1.00  0.00    -0.080 C 
ATOM      9  C   UNL     1      -8.294   4.189 -19.304  1.00  0.00     0.039 C 
ENDBRANCH   5   6
ENDBRANCH   4   5
ENDBRANCH   1   4
BRANCH   2  10
ATOM     10  C   UNL     1     -12.116   4.967 -20.402  1.00  0.00     0.035 C 
BRANCH  10  11
ATOM     11  C   UNL     1     -12.930   6.212 -20.779  1.00  0.00     0.079 C 
BRANCH  11  12
ATOM     12  C   UNL     1     -13.329   6.196 -22.234  1.00  0.00     0.130 C 
ATOM     13  O   UNL     1     -12.533   6.571 -23.081  1.00  0.00    -0.300 OA
ATOM     14  C   UNL     1     -14.690   5.733 -22.665  1.00  0.00     0.087 C 
ENDBRANCH  11  12
ENDBRANCH  10  11
ENDBRANCH   2  10
TORSDOF 6
ENDMDL
MODEL 8
REMARK VINA RESULT:    -4.996      2.533      5.043
REMARK INTER + INTRA:          -7.692
REMARK INTER:                  -7.033
REMARK INTRA:                  -0.659
REMARK UNBOUND:                -0.944
REMARK SMILES CC(=O)CCC=C(C)CCC=C(C)C
REMARK SMILES IDX 7 1 6 2 8 3 9 4 10 5 11 6 13 7 12 8 14 9 5 10 4 11 2 12 3 13
REMARK SMILES IDX 1 14
REMARK H PARENT
REMARK Flexibility Score: inf
ROOT
ATOM      1  C   UNL     1      -9.370   2.416 -18.249  1.00  0.00    -0.077 C 
ATOM      2  C   UNL     1     -10.608   2.206 -17.752  1.00  0.00    -0.028 C 
ATOM      3  C   UNL     1      -8.752   1.468 -19.250  1.00  0.00     0.039 C 
ENDROOT
BRANCH   1   4
ATOM      4  C   UNL     1      -8.582   3.628 -17.792  1.00  0.00     0.034 C 
BRANCH   4   5
ATOM      5  C   UNL     1      -9.270   4.942 -18.191  1.00  0.00     0.032 C 
BRANCH   5   6
ATOM      6  C   UNL     1      -9.908   4.848 -19.557  1.00  0.00    -0.028 C 
ATOM      7  C   UNL     1     -11.717   4.867 -21.219  1.00  0.00     0.039 C 
ATOM      8  C   UNL     1     -11.221   5.047 -19.807  1.00  0.00    -0.080 C 
ATOM      9  C   UNL     1     -12.190   5.458 -18.724  1.00  0.00     0.039 C 
ENDBRANCH   5   6
ENDBRANCH   4   5
ENDBRANCH   1   4
BRANCH   2  10
ATOM     10  C   UNL     1     -11.461   1.021 -18.136  1.00  0.00     0.035 C 
BRANCH  10  11
ATOM     11  C   UNL     1     -12.011   1.147 -19.563  1.00  0.00     0.079 C 
BRANCH  11  12
ATOM     12  C   UNL     1     -12.043  -0.188 -20.266  1.00  0.00     0.130 C 
ATOM     13  O   UNL     1     -11.011  -0.651 -20.728  1.00  0.00    -0.300 OA
ATOM     14  C   UNL     1     -13.321  -0.961 -20.417  1.00  0.00     0.087 C 
ENDBRANCH  11  12
ENDBRANCH  10  11
ENDBRANCH   2  10
TORSDOF 6
ENDMDL
MODEL 9
REMARK VINA RESULT:    -4.907      1.998      5.267
REMARK INTER + INTRA:          -7.572
REMARK INTER:                  -7.052
REMARK INTRA:                  -0.520
REMARK UNBOUND:                -0.944
REMARK SMILES CC(=O)CCC=C(C)CCC=C(C)C
REMARK SMILES IDX 7 1 6 2 8 3 9 4 10 5 11 6 13 7 12 8 14 9 5 10 4 11 2 12 3 13
REMARK SMILES IDX 1 14
REMARK H PARENT
REMARK Flexibility Score: inf
ROOT
ATOM      1  C   UNL     1     -10.535   3.756 -17.777  1.00  0.00    -0.077 C 
ATOM      2  C   UNL     1     -11.504   2.832 -17.955  1.00  0.00    -0.028 C 
ATOM      3  C   UNL     1      -9.345   3.487 -16.887  1.00  0.00     0.039 C 
ENDROOT
BRANCH   1   4
ATOM      4  C   UNL     1     -10.646   5.092 -18.484  1.00  0.00     0.034 C 
BRANCH   4   5
ATOM      5  C   UNL     1     -11.998   5.254 -19.194  1.00  0.00     0.032 C 
BRANCH   5   6
ATOM      6  C   UNL     1     -11.862   5.127 -20.693  1.00  0.00    -0.028 C 
ATOM      7  C   UNL     1     -12.392   5.527 -23.058  1.00  0.00     0.039 C 
ATOM      8  C   UNL     1     -12.614   5.800 -21.592  1.00  0.00    -0.080 C 
ATOM      9  C   UNL     1     -13.647   6.818 -21.172  1.00  0.00     0.039 C 
ENDBRANCH   5   6
ENDBRANCH   4   5
ENDBRANCH   1   4
BRANCH   2  10
ATOM     10  C   UNL     1     -11.488   1.479 -17.283  1.00  0.00     0.035 C 
BRANCH  10  11
ATOM     11  C   UNL     1     -11.656   0.334 -18.291  1.00  0.00     0.079 C 
BRANCH  11  12
ATOM     12  C   UNL     1     -10.924   0.617 -19.580  1.00  0.00     0.130 C 
ATOM     13  O   UNL     1     -11.558   0.732 -20.619  1.00  0.00    -0.300 OA
ATOM     14  C   UNL     1      -9.431   0.754 -19.617  1.00  0.00     0.087 C 
ENDBRANCH  11  12
ENDBRANCH  10  11
ENDBRANCH   2  10
TORSDOF 6
ENDMDL
