MODEL 1
REMARK VINA RESULT:    -4.526      0.000      0.000
REMARK INTER + INTRA:          -4.526
REMARK INTER:                  -4.526
REMARK INTRA:                   0.000
REMARK UNBOUND:                 0.000
REMARK SMILES CC1=CC(=O)[C@@H]2C[C@H]1C2(C)C
REMARK SMILES IDX 1 1 2 2 3 3 4 4 5 5 6 6 7 7 8 8 9 9 10 10 11 11
REMARK H PARENT
REMARK Flexibility Score: inf
ROOT
ATOM      1  C   UNL     1      37.612   9.816  24.539  1.00  0.00     0.040 C 
ATOM      2  C   UNL     1      37.104   9.825  25.947  1.00  0.00    -0.066 C 
ATOM      3  C   UNL     1      35.775   9.900  26.241  1.00  0.00     0.047 C 
ATOM      4  C   UNL     1      35.417   9.898  27.696  1.00  0.00     0.159 C 
ATOM      5  O   UNL     1      34.224   9.921  28.095  1.00  0.00    -0.295 OA
ATOM      6  C   UNL     1      36.603   9.867  28.661  1.00  0.00     0.067 C 
ATOM      7  C   UNL     1      37.581  10.917  28.090  1.00  0.00     0.021 C 
ATOM      8  C   UNL     1      38.081   9.806  27.140  1.00  0.00     0.022 C 
ATOM      9  C   UNL     1      37.596   8.767  28.191  1.00  0.00    -0.019 C 
ATOM     10  C   UNL     1      37.015   7.419  27.677  1.00  0.00     0.012 C 
ATOM     11  C   UNL     1      38.679   8.455  29.255  1.00  0.00     0.012 C 
ENDROOT
TORSDOF 0
ENDMDL
MODEL 2
REMARK VINA RESULT:    -4.452      2.061      3.554
REMARK INTER + INTRA:          -4.452
REMARK INTER:                  -4.452
REMARK INTRA:                   0.000
REMARK UNBOUND:                 0.000
REMARK SMILES CC1=CC(=O)[C@@H]2C[C@H]1C2(C)C
REMARK SMILES IDX 1 1 2 2 3 3 4 4 5 5 6 6 7 7 8 8 9 9 10 10 11 11
REMARK H PARENT
REMARK Flexibility Score: inf
ROOT
ATOM      1  C   UNL     1      34.228  10.108  27.945  1.00  0.00     0.040 C 
ATOM      2  C   UNL     1      35.342   9.628  27.070  1.00  0.00    -0.066 C 
ATOM      3  C   UNL     1      36.570  10.220  27.064  1.00  0.00     0.047 C 
ATOM      4  C   UNL     1      37.586   9.627  26.135  1.00  0.00     0.159 C 
ATOM      5  O   UNL     1      38.767  10.057  26.069  1.00  0.00    -0.295 OA
ATOM      6  C   UNL     1      37.088   8.465  25.275  1.00  0.00     0.067 C 
ATOM      7  C   UNL     1      35.721   8.949  24.743  1.00  0.00     0.021 C 
ATOM      8  C   UNL     1      35.126   8.462  26.084  1.00  0.00     0.022 C 
ATOM      9  C   UNL     1      36.319   7.469  26.186  1.00  0.00    -0.019 C 
ATOM     10  C   UNL     1      36.898   7.160  27.597  1.00  0.00     0.012 C 
ATOM     11  C   UNL     1      36.028   6.122  25.476  1.00  0.00     0.012 C 
ENDROOT
TORSDOF 0
ENDMDL
MODEL 3
REMARK VINA RESULT:    -4.431      2.301      3.516
REMARK INTER + INTRA:          -4.431
REMARK INTER:                  -4.431
REMARK INTRA:                   0.000
REMARK UNBOUND:                 0.000
REMARK SMILES CC1=CC(=O)[C@@H]2C[C@H]1C2(C)C
REMARK SMILES IDX 1 1 2 2 3 3 4 4 5 5 6 6 7 7 8 8 9 9 10 10 11 11
REMARK H PARENT
REMARK Flexibility Score: inf
ROOT
ATOM      1  C   UNL     1      36.447  11.805  28.770  1.00  0.00     0.040 C 
ATOM      2  C   UNL     1      37.445  10.893  28.128  1.00  0.00    -0.066 C 
ATOM      3  C   UNL     1      38.755  11.240  27.974  1.00  0.00     0.047 C 
ATOM      4  C   UNL     1      39.636  10.224  27.315  1.00  0.00     0.159 C 
ATOM      5  O   UNL     1      40.871  10.408  27.153  1.00  0.00    -0.295 OA
ATOM      6  C   UNL     1      38.932   8.948  26.853  1.00  0.00     0.067 C 
ATOM      7  C   UNL     1      37.653   9.456  26.151  1.00  0.00     0.021 C 
ATOM      8  C   UNL     1      37.015   9.526  27.557  1.00  0.00     0.022 C 
ATOM      9  C   UNL     1      38.028   8.435  28.008  1.00  0.00    -0.019 C 
ATOM     10  C   UNL     1      38.579   8.500  29.462  1.00  0.00     0.012 C 
ATOM     11  C   UNL     1      37.500   6.999  27.753  1.00  0.00     0.012 C 
ENDROOT
TORSDOF 0
ENDMDL
MODEL 4
REMARK VINA RESULT:    -4.419      1.659      2.977
REMARK INTER + INTRA:          -4.419
REMARK INTER:                  -4.419
REMARK INTRA:                   0.000
REMARK UNBOUND:                 0.000
REMARK SMILES CC1=CC(=O)[C@@H]2C[C@H]1C2(C)C
REMARK SMILES IDX 1 1 2 2 3 3 4 4 5 5 6 6 7 7 8 8 9 9 10 10 11 11
REMARK H PARENT
REMARK Flexibility Score: inf
ROOT
ATOM      1  C   UNL     1      34.117  10.260  27.913  1.00  0.00     0.040 C 
ATOM      2  C   UNL     1      35.437   9.785  27.392  1.00  0.00    -0.066 C 
ATOM      3  C   UNL     1      35.880  10.097  26.141  1.00  0.00     0.047 C 
ATOM      4  C   UNL     1      37.223   9.551  25.759  1.00  0.00     0.159 C 
ATOM      5  O   UNL     1      37.760   9.802  24.649  1.00  0.00    -0.295 OA
ATOM      6  C   UNL     1      37.895   8.669  26.812  1.00  0.00     0.067 C 
ATOM      7  C   UNL     1      36.767   7.727  27.290  1.00  0.00     0.021 C 
ATOM      8  C   UNL     1      36.338   8.867  28.242  1.00  0.00     0.022 C 
ATOM      9  C   UNL     1      37.804   9.385  28.189  1.00  0.00    -0.019 C 
ATOM     10  C   UNL     1      38.041  10.922  28.239  1.00  0.00     0.012 C 
ATOM     11  C   UNL     1      38.704   8.720  29.262  1.00  0.00     0.012 C 
ENDROOT
TORSDOF 0
ENDMDL
MODEL 5
REMARK VINA RESULT:    -4.408      1.996      3.295
REMARK INTER + INTRA:          -4.408
REMARK INTER:                  -4.408
REMARK INTRA:                   0.000
REMARK UNBOUND:                 0.000
REMARK SMILES CC1=CC(=O)[C@@H]2C[C@H]1C2(C)C
REMARK SMILES IDX 1 1 2 2 3 3 4 4 5 5 6 6 7 7 8 8 9 9 10 10 11 11
REMARK H PARENT
REMARK Flexibility Score: inf
ROOT
ATOM      1  C   UNL     1      39.932  11.371  26.143  1.00  0.00     0.040 C 
ATOM      2  C   UNL     1      39.076  10.397  26.888  1.00  0.00    -0.066 C 
ATOM      3  C   UNL     1      39.458   9.854  28.079  1.00  0.00     0.047 C 
ATOM      4  C   UNL     1      38.495   8.895  28.709  1.00  0.00     0.159 C 
ATOM      5  O   UNL     1      38.713   8.360  29.827  1.00  0.00    -0.295 OA
ATOM      6  C   UNL     1      37.229   8.611  27.899  1.00  0.00     0.067 C 
ATOM      7  C   UNL     1      37.745   8.381  26.462  1.00  0.00     0.021 C 
ATOM      8  C   UNL     1      37.731   9.918  26.304  1.00  0.00     0.022 C 
ATOM      9  C   UNL     1      36.639   9.964  27.412  1.00  0.00    -0.019 C 
ATOM     10  C   UNL     1      36.642  11.169  28.397  1.00  0.00     0.012 C 
ATOM     11  C   UNL     1      35.208   9.812  26.836  1.00  0.00     0.012 C 
ENDROOT
TORSDOF 0
ENDMDL
MODEL 6
REMARK VINA RESULT:    -4.373      1.683      2.747
REMARK INTER + INTRA:          -4.373
REMARK INTER:                  -4.373
REMARK INTRA:                   0.000
REMARK UNBOUND:                 0.000
REMARK SMILES CC1=CC(=O)[C@@H]2C[C@H]1C2(C)C
REMARK SMILES IDX 1 1 2 2 3 3 4 4 5 5 6 6 7 7 8 8 9 9 10 10 11 11
REMARK H PARENT
REMARK Flexibility Score: inf
ROOT
ATOM      1  C   UNL     1      40.419   9.350  25.989  1.00  0.00     0.040 C 
ATOM      2  C   UNL     1      39.204   9.591  26.830  1.00  0.00    -0.066 C 
ATOM      3  C   UNL     1      38.932  10.807  27.383  1.00  0.00     0.047 C 
ATOM      4  C   UNL     1      37.678  10.897  28.199  1.00  0.00     0.159 C 
ATOM      5  O   UNL     1      37.295  11.973  28.727  1.00  0.00    -0.295 OA
ATOM      6  C   UNL     1      36.897   9.590  28.346  1.00  0.00     0.067 C 
ATOM      7  C   UNL     1      37.980   8.539  28.676  1.00  0.00     0.021 C 
ATOM      8  C   UNL     1      38.227   8.443  27.154  1.00  0.00     0.022 C 
ATOM      9  C   UNL     1      36.765   8.932  26.944  1.00  0.00    -0.019 C 
ATOM     10  C   UNL     1      36.466   9.849  25.723  1.00  0.00     0.012 C 
ATOM     11  C   UNL     1      35.747   7.763  26.933  1.00  0.00     0.012 C 
ENDROOT
TORSDOF 0
ENDMDL
MODEL 7
REMARK VINA RESULT:    -4.357      1.709      2.201
REMARK INTER + INTRA:          -4.357
REMARK INTER:                  -4.357
REMARK INTRA:                   0.000
REMARK UNBOUND:                 0.000
REMARK SMILES CC1=CC(=O)[C@@H]2C[C@H]1C2(C)C
REMARK SMILES IDX 1 1 2 2 3 3 4 4 5 5 6 6 7 7 8 8 9 9 10 10 11 11
REMARK H PARENT
REMARK Flexibility Score: inf
ROOT
ATOM      1  C   UNL     1      37.005   8.226  25.403  1.00  0.00     0.040 C 
ATOM      2  C   UNL     1      37.584   9.199  26.381  1.00  0.00    -0.066 C 
ATOM      3  C   UNL     1      36.809  10.075  27.082  1.00  0.00     0.047 C 
ATOM      4  C   UNL     1      37.531  10.988  28.026  1.00  0.00     0.159 C 
ATOM      5  O   UNL     1      36.925  11.811  28.760  1.00  0.00    -0.295 OA
ATOM      6  C   UNL     1      39.053  10.849  28.037  1.00  0.00     0.067 C 
ATOM      7  C   UNL     1      39.437  10.798  26.541  1.00  0.00     0.021 C 
ATOM      8  C   UNL     1      39.108   9.289  26.598  1.00  0.00     0.022 C 
ATOM      9  C   UNL     1      39.413   9.339  28.123  1.00  0.00    -0.019 C 
ATOM     10  C   UNL     1      38.573   8.433  29.069  1.00  0.00     0.012 C 
ATOM     11  C   UNL     1      40.913   9.105  28.433  1.00  0.00     0.012 C 
ENDROOT
TORSDOF 0
ENDMDL
MODEL 8
REMARK VINA RESULT:    -4.310      1.980      3.288
REMARK INTER + INTRA:          -4.310
REMARK INTER:                  -4.310
REMARK INTRA:                   0.000
REMARK UNBOUND:                 0.000
REMARK SMILES CC1=CC(=O)[C@@H]2C[C@H]1C2(C)C
REMARK SMILES IDX 1 1 2 2 3 3 4 4 5 5 6 6 7 7 8 8 9 9 10 10 11 11
REMARK H PARENT
REMARK Flexibility Score: inf
ROOT
ATOM      1  C   UNL     1      34.157  10.244  27.511  1.00  0.00     0.040 C 
ATOM      2  C   UNL     1      35.186   9.284  27.003  1.00  0.00    -0.066 C 
ATOM      3  C   UNL     1      34.850   8.117  26.383  1.00  0.00     0.047 C 
ATOM      4  C   UNL     1      35.990   7.258  25.927  1.00  0.00     0.159 C 
ATOM      5  O   UNL     1      35.811   6.178  25.306  1.00  0.00    -0.295 OA
ATOM      6  C   UNL     1      37.384   7.784  26.268  1.00  0.00     0.067 C 
ATOM      7  C   UNL     1      37.270   8.224  27.745  1.00  0.00     0.021 C 
ATOM      8  C   UNL     1      36.690   9.554  27.212  1.00  0.00     0.022 C 
ATOM      9  C   UNL     1      37.454   9.288  25.883  1.00  0.00    -0.019 C 
ATOM     10  C   UNL     1      36.790   9.741  24.551  1.00  0.00     0.012 C 
ATOM     11  C   UNL     1      38.902   9.840  25.915  1.00  0.00     0.012 C 
ENDROOT
TORSDOF 0
ENDMDL
MODEL 9
REMARK VINA RESULT:    -4.309      2.152      3.422
REMARK INTER + INTRA:          -4.309
REMARK INTER:                  -4.309
REMARK INTRA:                   0.000
REMARK UNBOUND:                 0.000
REMARK SMILES CC1=CC(=O)[C@@H]2C[C@H]1C2(C)C
REMARK SMILES IDX 1 1 2 2 3 3 4 4 5 5 6 6 7 7 8 8 9 9 10 10 11 11
REMARK H PARENT
REMARK Flexibility Score: inf
ROOT
ATOM      1  C   UNL     1      37.270   6.267  27.537  1.00  0.00     0.040 C 
ATOM      2  C   UNL     1      37.722   7.685  27.380  1.00  0.00    -0.066 C 
ATOM      3  C   UNL     1      38.606   8.063  26.414  1.00  0.00     0.047 C 
ATOM      4  C   UNL     1      38.964   9.518  26.378  1.00  0.00     0.159 C 
ATOM      5  O   UNL     1      39.736   9.999  25.508  1.00  0.00    -0.295 OA
ATOM      6  C   UNL     1      38.325  10.377  27.470  1.00  0.00     0.067 C 
ATOM      7  C   UNL     1      38.517   9.549  28.760  1.00  0.00     0.021 C 
ATOM      8  C   UNL     1      37.240   8.780  28.352  1.00  0.00     0.022 C 
ATOM      9  C   UNL     1      36.810  10.038  27.544  1.00  0.00    -0.019 C 
ATOM     10  C   UNL     1      36.035   9.825  26.211  1.00  0.00     0.012 C 
ATOM     11  C   UNL     1      36.019  11.053  28.408  1.00  0.00     0.012 C 
ENDROOT
TORSDOF 0
ENDMDL
