MODEL 1
REMARK VINA RESULT:    -3.646      0.000      0.000
REMARK INTER + INTRA:          -5.868
REMARK INTER:                  -5.564
REMARK INTRA:                  -0.303
REMARK UNBOUND:                -0.303
REMARK SMILES O=C([O-])CCCCCCCCC(=O)[O-]
REMARK SMILES IDX 7 1 6 2 5 3 4 4 2 5 1 6 3 7 8 8 9 9 10 10 11 11 12 12 13 13
REMARK SMILES IDX 14 14
REMARK H PARENT
REMARK Flexibility Score: inf
ROOT
ATOM      1  C   UNL     1      33.128   8.770 -30.742  1.00  0.00     0.000 C 
ENDROOT
BRANCH   1   2
ATOM      2  C   UNL     1      33.540   7.342 -30.353  1.00  0.00     0.000 C 
BRANCH   2   3
ATOM      3  C   UNL     1      34.881   6.923 -30.976  1.00  0.00     0.006 C 
BRANCH   3   4
ATOM      4  C   UNL     1      34.898   5.422 -31.280  1.00  0.00     0.053 C 
BRANCH   4   5
ATOM      5  C   UNL     1      34.782   5.184 -32.753  1.00  0.00     0.041 C 
ATOM      6  O   UNL     1      33.792   4.561 -33.217  1.00  0.00    -0.550 OA
ATOM      7  O   UNL     1      35.792   5.606 -33.607  1.00  0.00    -0.550 OA
ENDBRANCH   4   5
ENDBRANCH   3   4
ENDBRANCH   2   3
ENDBRANCH   1   2
BRANCH   1   8
ATOM      8  C   UNL     1      32.176   9.412 -29.720  1.00  0.00     0.000 C 
BRANCH   8   9
ATOM      9  C   UNL     1      32.583   9.042 -28.286  1.00  0.00     0.000 C 
BRANCH   9  10
ATOM     10  C   UNL     1      32.223  10.135 -27.263  1.00  0.00     0.006 C 
BRANCH  10  11
ATOM     11  C   UNL     1      33.435  10.877 -26.677  1.00  0.00     0.053 C 
BRANCH  11  12
ATOM     12  C   UNL     1      33.321  11.058 -25.194  1.00  0.00     0.041 C 
ATOM     13  O   UNL     1      32.508  11.893 -24.719  1.00  0.00    -0.550 OA
ATOM     14  O   UNL     1      34.139  10.331 -24.339  1.00  0.00    -0.550 OA
ENDBRANCH  11  12
ENDBRANCH  10  11
ENDBRANCH   9  10
ENDBRANCH   8   9
ENDBRANCH   1   8
TORSDOF 9
ENDMDL
MODEL 2
REMARK VINA RESULT:    -3.571      4.215      6.429
REMARK INTER + INTRA:          -5.752
REMARK INTER:                  -5.212
REMARK INTRA:                  -0.541
REMARK UNBOUND:                -0.303
REMARK SMILES O=C([O-])CCCCCCCCC(=O)[O-]
REMARK SMILES IDX 7 1 6 2 5 3 4 4 2 5 1 6 3 7 8 8 9 9 10 10 11 11 12 12 13 13
REMARK SMILES IDX 14 14
REMARK H PARENT
REMARK Flexibility Score: inf
ROOT
ATOM      1  C   UNL     1      33.122   3.670 -32.040  1.00  0.00     0.000 C 
ENDROOT
BRANCH   1   2
ATOM      2  C   UNL     1      32.851   2.193 -32.368  1.00  0.00     0.000 C 
BRANCH   2   3
ATOM      3  C   UNL     1      33.223   1.829 -33.813  1.00  0.00     0.006 C 
BRANCH   3   4
ATOM      4  C   UNL     1      32.367   0.666 -34.323  1.00  0.00     0.053 C 
BRANCH   4   5
ATOM      5  C   UNL     1      33.225  -0.364 -34.989  1.00  0.00     0.041 C 
ATOM      6  O   UNL     1      33.919  -0.058 -35.993  1.00  0.00    -0.550 OA
ATOM      7  O   UNL     1      33.219  -1.675 -34.530  1.00  0.00    -0.550 OA
ENDBRANCH   4   5
ENDBRANCH   3   4
ENDBRANCH   2   3
ENDBRANCH   1   2
BRANCH   1   8
ATOM      8  C   UNL     1      33.744   4.434 -33.218  1.00  0.00     0.000 C 
BRANCH   8   9
ATOM      9  C   UNL     1      35.027   5.157 -32.785  1.00  0.00     0.000 C 
BRANCH   9  10
ATOM     10  C   UNL     1      35.003   5.582 -31.305  1.00  0.00     0.006 C 
BRANCH  10  11
ATOM     11  C   UNL     1      35.068   7.102 -31.082  1.00  0.00     0.053 C 
BRANCH  11  12
ATOM     12  C   UNL     1      33.705   7.719 -31.010  1.00  0.00     0.041 C 
ATOM     13  O   UNL     1      32.695   7.000 -30.789  1.00  0.00    -0.550 OA
ATOM     14  O   UNL     1      33.546   9.082 -31.222  1.00  0.00    -0.550 OA
ENDBRANCH  11  12
ENDBRANCH  10  11
ENDBRANCH   9  10
ENDBRANCH   8   9
ENDBRANCH   1   8
TORSDOF 9
ENDMDL
MODEL 3
REMARK VINA RESULT:    -3.541      3.969      5.550
REMARK INTER + INTRA:          -5.708
REMARK INTER:                  -4.881
REMARK INTRA:                  -0.827
REMARK UNBOUND:                -0.303
REMARK SMILES O=C([O-])CCCCCCCCC(=O)[O-]
REMARK SMILES IDX 7 1 6 2 5 3 4 4 2 5 1 6 3 7 8 8 9 9 10 10 11 11 12 12 13 13
REMARK SMILES IDX 14 14
REMARK H PARENT
REMARK Flexibility Score: inf
ROOT
ATOM      1  C   UNL     1      33.677   4.613 -33.244  1.00  0.00     0.000 C 
ENDROOT
BRANCH   1   2
ATOM      2  C   UNL     1      33.033   3.978 -32.001  1.00  0.00     0.000 C 
BRANCH   2   3
ATOM      3  C   UNL     1      32.928   2.448 -32.105  1.00  0.00     0.006 C 
BRANCH   3   4
ATOM      4  C   UNL     1      33.260   1.973 -33.523  1.00  0.00     0.053 C 
BRANCH   4   5
ATOM      5  C   UNL     1      32.037   1.427 -34.193  1.00  0.00     0.041 C 
ATOM      6  O   UNL     1      31.871   0.183 -34.291  1.00  0.00    -0.550 OA
ATOM      7  O   UNL     1      31.107   2.293 -34.752  1.00  0.00    -0.550 OA
ENDBRANCH   4   5
ENDBRANCH   3   4
ENDBRANCH   2   3
ENDBRANCH   1   2
BRANCH   1   8
ATOM      8  C   UNL     1      35.017   5.297 -32.934  1.00  0.00     0.000 C 
BRANCH   8   9
ATOM      9  C   UNL     1      35.230   5.421 -31.418  1.00  0.00     0.000 C 
BRANCH   9  10
ATOM     10  C   UNL     1      35.367   6.882 -30.951  1.00  0.00     0.006 C 
BRANCH  10  11
ATOM     11  C   UNL     1      34.130   7.752 -31.226  1.00  0.00     0.053 C 
BRANCH  11  12
ATOM     12  C   UNL     1      32.948   7.324 -30.411  1.00  0.00     0.041 C 
ATOM     13  O   UNL     1      31.803   7.273 -30.932  1.00  0.00    -0.550 OA
ATOM     14  O   UNL     1      33.106   7.015 -29.065  1.00  0.00    -0.550 OA
ENDBRANCH  11  12
ENDBRANCH  10  11
ENDBRANCH   9  10
ENDBRANCH   8   9
ENDBRANCH   1   8
TORSDOF 9
ENDMDL
MODEL 4
REMARK VINA RESULT:    -3.532      6.027     11.298
REMARK INTER + INTRA:          -5.694
REMARK INTER:                  -5.302
REMARK INTRA:                  -0.392
REMARK UNBOUND:                -0.303
REMARK SMILES O=C([O-])CCCCCCCCC(=O)[O-]
REMARK SMILES IDX 7 1 6 2 5 3 4 4 2 5 1 6 3 7 8 8 9 9 10 10 11 11 12 12 13 13
REMARK SMILES IDX 14 14
REMARK H PARENT
REMARK Flexibility Score: inf
ROOT
ATOM      1  C   UNL     1      32.688   1.647 -33.526  1.00  0.00     0.000 C 
ENDROOT
BRANCH   1   2
ATOM      2  C   UNL     1      31.710   2.824 -33.378  1.00  0.00     0.000 C 
BRANCH   2   3
ATOM      3  C   UNL     1      32.423   4.150 -33.071  1.00  0.00     0.006 C 
BRANCH   3   4
ATOM      4  C   UNL     1      33.943   3.973 -33.099  1.00  0.00     0.053 C 
BRANCH   4   5
ATOM      5  C   UNL     1      34.628   5.284 -32.866  1.00  0.00     0.041 C 
ATOM      6  O   UNL     1      34.147   6.114 -32.051  1.00  0.00    -0.550 OA
ATOM      7  O   UNL     1      35.770   5.609 -33.587  1.00  0.00    -0.550 OA
ENDBRANCH   4   5
ENDBRANCH   3   4
ENDBRANCH   2   3
ENDBRANCH   1   2
BRANCH   1   8
ATOM      8  C   UNL     1      32.329   0.721 -34.697  1.00  0.00     0.000 C 
BRANCH   8   9
ATOM      9  C   UNL     1      33.597   0.174 -35.370  1.00  0.00     0.000 C 
BRANCH   9  10
ATOM     10  C   UNL     1      33.292  -0.867 -36.462  1.00  0.00     0.006 C 
BRANCH  10  11
ATOM     11  C   UNL     1      33.273  -0.299 -37.890  1.00  0.00     0.053 C 
BRANCH  11  12
ATOM     12  C   UNL     1      31.887  -0.246 -38.457  1.00  0.00     0.041 C 
ATOM     13  O   UNL     1      31.368  -1.278 -38.957  1.00  0.00    -0.550 OA
ATOM     14  O   UNL     1      31.183   0.951 -38.465  1.00  0.00    -0.550 OA
ENDBRANCH  11  12
ENDBRANCH  10  11
ENDBRANCH   9  10
ENDBRANCH   8   9
ENDBRANCH   1   8
TORSDOF 9
ENDMDL
MODEL 5
REMARK VINA RESULT:    -3.514      5.507      8.701
REMARK INTER + INTRA:          -5.667
REMARK INTER:                  -5.252
REMARK INTRA:                  -0.415
REMARK UNBOUND:                -0.303
REMARK SMILES O=C([O-])CCCCCCCCC(=O)[O-]
REMARK SMILES IDX 7 1 6 2 5 3 4 4 2 5 1 6 3 7 8 8 9 9 10 10 11 11 12 12 13 13
REMARK SMILES IDX 14 14
REMARK H PARENT
REMARK Flexibility Score: inf
ROOT
ATOM      1  C   UNL     1      32.433   0.331 -34.398  1.00  0.00     0.000 C 
ENDROOT
BRANCH   1   2
ATOM      2  C   UNL     1      33.611   0.113 -35.360  1.00  0.00     0.000 C 
BRANCH   2   3
ATOM      3  C   UNL     1      33.234  -0.755 -36.571  1.00  0.00     0.006 C 
BRANCH   3   4
ATOM      4  C   UNL     1      32.982   0.112 -37.808  1.00  0.00     0.053 C 
BRANCH   4   5
ATOM      5  C   UNL     1      31.512   0.265 -38.050  1.00  0.00     0.041 C 
ATOM      6  O   UNL     1      31.094   1.092 -38.902  1.00  0.00    -0.550 OA
ATOM      7  O   UNL     1      30.604  -0.468 -37.298  1.00  0.00    -0.550 OA
ENDBRANCH   4   5
ENDBRANCH   3   4
ENDBRANCH   2   3
ENDBRANCH   1   2
BRANCH   1   8
ATOM      8  C   UNL     1      32.192   1.814 -34.082  1.00  0.00     0.000 C 
BRANCH   8   9
ATOM      9  C   UNL     1      33.433   2.444 -33.432  1.00  0.00     0.000 C 
BRANCH   9  10
ATOM     10  C   UNL     1      33.239   3.934 -33.093  1.00  0.00     0.006 C 
BRANCH  10  11
ATOM     11  C   UNL     1      34.536   4.759 -33.106  1.00  0.00     0.053 C 
BRANCH  11  12
ATOM     12  C   UNL     1      34.757   5.479 -31.811  1.00  0.00     0.041 C 
ATOM     13  O   UNL     1      35.102   4.841 -30.782  1.00  0.00    -0.550 OA
ATOM     14  O   UNL     1      34.548   6.850 -31.732  1.00  0.00    -0.550 OA
ENDBRANCH  11  12
ENDBRANCH  10  11
ENDBRANCH   9  10
ENDBRANCH   8   9
ENDBRANCH   1   8
TORSDOF 9
ENDMDL
MODEL 6
REMARK VINA RESULT:    -3.492      1.331      7.768
REMARK INTER + INTRA:          -5.632
REMARK INTER:                  -5.262
REMARK INTRA:                  -0.370
REMARK UNBOUND:                -0.303
REMARK SMILES O=C([O-])CCCCCCCCC(=O)[O-]
REMARK SMILES IDX 7 1 6 2 5 3 4 4 2 5 1 6 3 7 8 8 9 9 10 10 11 11 12 12 13 13
REMARK SMILES IDX 14 14
REMARK H PARENT
REMARK Flexibility Score: inf
ROOT
ATOM      1  C   UNL     1      33.087   7.466 -29.761  1.00  0.00     0.000 C 
ENDROOT
BRANCH   1   2
ATOM      2  C   UNL     1      32.103   8.597 -29.424  1.00  0.00     0.000 C 
BRANCH   2   3
ATOM      3  C   UNL     1      32.731   9.685 -28.538  1.00  0.00     0.006 C 
BRANCH   3   4
ATOM      4  C   UNL     1      32.227   9.575 -27.096  1.00  0.00     0.053 C 
BRANCH   4   5
ATOM      5  C   UNL     1      33.114  10.346 -26.170  1.00  0.00     0.041 C 
ATOM      6  O   UNL     1      33.831  11.282 -26.612  1.00  0.00    -0.550 OA
ATOM      7  O   UNL     1      33.188   9.998 -24.828  1.00  0.00    -0.550 OA
ENDBRANCH   4   5
ENDBRANCH   3   4
ENDBRANCH   2   3
ENDBRANCH   1   2
BRANCH   1   8
ATOM      8  C   UNL     1      33.805   7.684 -31.101  1.00  0.00     0.000 C 
BRANCH   8   9
ATOM      9  C   UNL     1      35.167   6.976 -31.113  1.00  0.00     0.000 C 
BRANCH   9  10
ATOM     10  C   UNL     1      35.052   5.463 -31.377  1.00  0.00     0.006 C 
BRANCH  10  11
ATOM     11  C   UNL     1      34.814   5.094 -32.850  1.00  0.00     0.053 C 
BRANCH  11  12
ATOM     12  C   UNL     1      33.557   4.301 -33.035  1.00  0.00     0.041 C 
ATOM     13  O   UNL     1      33.613   3.104 -33.420  1.00  0.00    -0.550 OA
ATOM     14  O   UNL     1      32.320   4.896 -32.818  1.00  0.00    -0.550 OA
ENDBRANCH  11  12
ENDBRANCH  10  11
ENDBRANCH   9  10
ENDBRANCH   8   9
ENDBRANCH   1   8
TORSDOF 9
ENDMDL
MODEL 7
REMARK VINA RESULT:    -3.471     15.469     17.105
REMARK INTER + INTRA:          -5.600
REMARK INTER:                  -4.706
REMARK INTRA:                  -0.894
REMARK UNBOUND:                -0.303
REMARK SMILES O=C([O-])CCCCCCCCC(=O)[O-]
REMARK SMILES IDX 7 1 6 2 5 3 4 4 2 5 1 6 3 7 8 8 9 9 10 10 11 11 12 12 13 13
REMARK SMILES IDX 14 14
REMARK H PARENT
REMARK Flexibility Score: inf
ROOT
ATOM      1  C   UNL     1      27.342  -5.576 -28.564  1.00  0.00     0.000 C 
ENDROOT
BRANCH   1   2
ATOM      2  C   UNL     1      27.878  -4.757 -29.749  1.00  0.00     0.000 C 
BRANCH   2   3
ATOM      3  C   UNL     1      26.858  -4.631 -30.891  1.00  0.00     0.006 C 
BRANCH   3   4
ATOM      4  C   UNL     1      25.441  -4.444 -30.340  1.00  0.00     0.053 C 
BRANCH   4   5
ATOM      5  C   UNL     1      24.473  -5.318 -31.074  1.00  0.00     0.041 C 
ATOM      6  O   UNL     1      24.580  -5.476 -32.319  1.00  0.00    -0.550 OA
ATOM      7  O   UNL     1      23.424  -5.919 -30.391  1.00  0.00    -0.550 OA
ENDBRANCH   4   5
ENDBRANCH   3   4
ENDBRANCH   2   3
ENDBRANCH   1   2
BRANCH   1   8
ATOM      8  C   UNL     1      28.068  -6.918 -28.394  1.00  0.00     0.000 C 
BRANCH   8   9
ATOM      9  C   UNL     1      27.074  -8.039 -28.058  1.00  0.00     0.000 C 
BRANCH   9  10
ATOM     10  C   UNL     1      25.651  -7.751 -28.575  1.00  0.00     0.006 C 
BRANCH  10  11
ATOM     11  C   UNL     1      24.542  -7.985 -27.537  1.00  0.00     0.053 C 
BRANCH  11  12
ATOM     12  C   UNL     1      24.343  -6.796 -26.648  1.00  0.00     0.041 C 
ATOM     13  O   UNL     1      23.909  -5.714 -27.125  1.00  0.00    -0.550 OA
ATOM     14  O   UNL     1      24.671  -6.871 -25.300  1.00  0.00    -0.550 OA
ENDBRANCH  11  12
ENDBRANCH  10  11
ENDBRANCH   9  10
ENDBRANCH   8   9
ENDBRANCH   1   8
TORSDOF 9
ENDMDL
MODEL 8
REMARK VINA RESULT:    -3.447      1.917      2.549
REMARK INTER + INTRA:          -5.565
REMARK INTER:                  -5.080
REMARK INTRA:                  -0.484
REMARK UNBOUND:                -0.303
REMARK SMILES O=C([O-])CCCCCCCCC(=O)[O-]
REMARK SMILES IDX 7 1 6 2 5 3 4 4 2 5 1 6 3 7 8 8 9 9 10 10 11 11 12 12 13 13
REMARK SMILES IDX 14 14
REMARK H PARENT
REMARK Flexibility Score: inf
ROOT
ATOM      1  C   UNL     1      33.119   7.127 -30.345  1.00  0.00     0.000 C 
ENDROOT
BRANCH   1   2
ATOM      2  C   UNL     1      34.341   7.578 -31.161  1.00  0.00     0.000 C 
BRANCH   2   3
ATOM      3  C   UNL     1      35.489   6.556 -31.121  1.00  0.00     0.006 C 
BRANCH   3   4
ATOM      4  C   UNL     1      34.976   5.146 -31.427  1.00  0.00     0.053 C 
BRANCH   4   5
ATOM      5  C   UNL     1      34.805   4.958 -32.902  1.00  0.00     0.041 C 
ATOM      6  O   UNL     1      35.602   5.508 -33.707  1.00  0.00    -0.550 OA
ATOM      7  O   UNL     1      33.735   4.219 -33.389  1.00  0.00    -0.550 OA
ENDBRANCH   4   5
ENDBRANCH   3   4
ENDBRANCH   2   3
ENDBRANCH   1   2
BRANCH   1   8
ATOM      8  C   UNL     1      31.938   8.102 -30.459  1.00  0.00     0.000 C 
BRANCH   8   9
ATOM      9  C   UNL     1      32.360   9.522 -30.053  1.00  0.00     0.000 C 
BRANCH   9  10
ATOM     10  C   UNL     1      32.620   9.660 -28.541  1.00  0.00     0.006 C 
BRANCH  10  11
ATOM     11  C   UNL     1      31.362   9.525 -27.669  1.00  0.00     0.053 C 
BRANCH  11  12
ATOM     12  C   UNL     1      30.481  10.733 -27.760  1.00  0.00     0.041 C 
ATOM     13  O   UNL     1      29.556  10.779 -28.612  1.00  0.00    -0.550 OA
ATOM     14  O   UNL     1      30.706  11.822 -26.928  1.00  0.00    -0.550 OA
ENDBRANCH  11  12
ENDBRANCH  10  11
ENDBRANCH   9  10
ENDBRANCH   8   9
ENDBRANCH   1   8
TORSDOF 9
ENDMDL
MODEL 9
REMARK VINA RESULT:    -3.372      3.962      9.391
REMARK INTER + INTRA:          -5.450
REMARK INTER:                  -5.024
REMARK INTRA:                  -0.426
REMARK UNBOUND:                -0.303
REMARK SMILES O=C([O-])CCCCCCCCC(=O)[O-]
REMARK SMILES IDX 7 1 6 2 5 3 4 4 2 5 1 6 3 7 8 8 9 9 10 10 11 11 12 12 13 13
REMARK SMILES IDX 14 14
REMARK H PARENT
REMARK Flexibility Score: inf
ROOT
ATOM      1  C   UNL     1      34.216   4.090 -33.052  1.00  0.00     0.000 C 
ENDROOT
BRANCH   1   2
ATOM      2  C   UNL     1      34.885   5.451 -32.801  1.00  0.00     0.000 C 
BRANCH   2   3
ATOM      3  C   UNL     1      34.779   5.901 -31.335  1.00  0.00     0.006 C 
BRANCH   3   4
ATOM      4  C   UNL     1      34.613   7.420 -31.240  1.00  0.00     0.053 C 
BRANCH   4   5
ATOM      5  C   UNL     1      33.241   7.769 -30.752  1.00  0.00     0.041 C 
ATOM      6  O   UNL     1      32.316   6.916 -30.800  1.00  0.00    -0.550 OA
ATOM      7  O   UNL     1      32.972   9.051 -30.292  1.00  0.00    -0.550 OA
ENDBRANCH   4   5
ENDBRANCH   3   4
ENDBRANCH   2   3
ENDBRANCH   1   2
BRANCH   1   8
ATOM      8  C   UNL     1      32.683   4.171 -33.035  1.00  0.00     0.000 C 
BRANCH   8   9
ATOM      9  C   UNL     1      32.061   2.882 -33.593  1.00  0.00     0.000 C 
BRANCH   9  10
ATOM     10  C   UNL     1      33.061   1.712 -33.651  1.00  0.00     0.006 C 
BRANCH  10  11
ATOM     11  C   UNL     1      32.410   0.332 -33.835  1.00  0.00     0.053 C 
BRANCH  11  12
ATOM     12  C   UNL     1      33.150  -0.511 -34.828  1.00  0.00     0.041 C 
ATOM     13  O   UNL     1      33.134  -1.766 -34.730  1.00  0.00    -0.550 OA
ATOM     14  O   UNL     1      33.885   0.091 -35.841  1.00  0.00    -0.550 OA
ENDBRANCH  11  12
ENDBRANCH  10  11
ENDBRANCH   9  10
ENDBRANCH   8   9
ENDBRANCH   1   8
TORSDOF 9
ENDMDL
