MODEL 1
REMARK VINA RESULT:    -3.014      0.000      0.000
REMARK INTER + INTRA:          -3.386
REMARK INTER:                  -3.367
REMARK INTRA:                  -0.020
REMARK UNBOUND:                -0.020
REMARK SMILES CCCC(=O)[O-]
REMARK SMILES IDX 3 1 4 2 5 3 6 4 2 5 1 6
REMARK H PARENT
REMARK Flexibility Score: inf
ROOT
ATOM      1  C   UNL     1     -10.481   0.618  14.090  1.00  0.00     0.052 C 
ENDROOT
BRANCH   1   2
ATOM      2  C   UNL     1     -11.941   0.317  14.238  1.00  0.00     0.041 C 
ATOM      3  O   UNL     1     -12.594   0.804  15.198  1.00  0.00    -0.550 OA
ATOM      4  O   UNL     1     -12.588  -0.474  13.297  1.00  0.00    -0.550 OA
ENDBRANCH   1   2
BRANCH   1   5
ATOM      5  C   UNL     1      -9.815   0.883  15.447  1.00  0.00     0.003 C 
ATOM      6  C   UNL     1      -9.546   2.369  15.683  1.00  0.00     0.004 C 
ENDBRANCH   1   5
TORSDOF 2
ENDMDL
MODEL 2
REMARK VINA RESULT:    -2.967      1.987      3.523
REMARK INTER + INTRA:          -3.334
REMARK INTER:                  -3.297
REMARK INTRA:                  -0.037
REMARK UNBOUND:                -0.020
REMARK SMILES CCCC(=O)[O-]
REMARK SMILES IDX 3 1 4 2 5 3 6 4 2 5 1 6
REMARK H PARENT
REMARK Flexibility Score: inf
ROOT
ATOM      1  C   UNL     1     -12.013   0.464  14.714  1.00  0.00     0.052 C 
ENDROOT
BRANCH   1   2
ATOM      2  C   UNL     1     -10.578   0.882  14.621  1.00  0.00     0.041 C 
ATOM      3  O   UNL     1      -9.721   0.102  14.129  1.00  0.00    -0.550 OA
ATOM      4  O   UNL     1     -10.192   2.146  15.048  1.00  0.00    -0.550 OA
ENDBRANCH   1   2
BRANCH   1   5
ATOM      5  C   UNL     1     -12.539  -0.067  13.373  1.00  0.00     0.003 C 
ATOM      6  C   UNL     1     -12.772  -1.578  13.398  1.00  0.00     0.004 C 
ENDBRANCH   1   5
TORSDOF 2
ENDMDL
MODEL 3
REMARK VINA RESULT:    -2.948      1.912      2.250
REMARK INTER + INTRA:          -3.313
REMARK INTER:                  -3.306
REMARK INTRA:                  -0.006
REMARK UNBOUND:                -0.020
REMARK SMILES CCCC(=O)[O-]
REMARK SMILES IDX 3 1 4 2 5 3 6 4 2 5 1 6
REMARK H PARENT
REMARK Flexibility Score: inf
ROOT
ATOM      1  C   UNL     1     -12.361   0.997  15.478  1.00  0.00     0.052 C 
ENDROOT
BRANCH   1   2
ATOM      2  C   UNL     1     -11.834   0.349  14.235  1.00  0.00     0.041 C 
ATOM      3  O   UNL     1     -12.629  -0.081  13.358  1.00  0.00    -0.550 OA
ATOM      4  O   UNL     1     -10.464   0.250  14.028  1.00  0.00    -0.550 OA
ENDBRANCH   1   2
BRANCH   1   5
ATOM      5  C   UNL     1     -11.573   2.264  15.837  1.00  0.00     0.003 C 
ATOM      6  C   UNL     1     -12.398   3.247  16.668  1.00  0.00     0.004 C 
ENDBRANCH   1   5
TORSDOF 2
ENDMDL
MODEL 4
REMARK VINA RESULT:    -2.924      1.626      2.611
REMARK INTER + INTRA:          -3.285
REMARK INTER:                  -3.259
REMARK INTRA:                  -0.026
REMARK UNBOUND:                -0.020
REMARK SMILES CCCC(=O)[O-]
REMARK SMILES IDX 3 1 4 2 5 3 6 4 2 5 1 6
REMARK H PARENT
REMARK Flexibility Score: inf
ROOT
ATOM      1  C   UNL     1     -10.498   2.285  15.484  1.00  0.00     0.052 C 
ENDROOT
BRANCH   1   2
ATOM      2  C   UNL     1     -11.935   2.119  15.873  1.00  0.00     0.041 C 
ATOM      3  O   UNL     1     -12.524   1.025  15.669  1.00  0.00    -0.550 OA
ATOM      4  O   UNL     1     -12.615   3.162  16.491  1.00  0.00    -0.550 OA
ENDBRANCH   1   2
BRANCH   1   5
ATOM      5  C   UNL     1      -9.782   0.934  15.362  1.00  0.00     0.003 C 
ATOM      6  C   UNL     1      -9.556   0.526  13.906  1.00  0.00     0.004 C 
ENDBRANCH   1   5
TORSDOF 2
ENDMDL
MODEL 5
REMARK VINA RESULT:    -2.876      2.105      2.343
REMARK INTER + INTRA:          -3.232
REMARK INTER:                  -3.215
REMARK INTRA:                  -0.017
REMARK UNBOUND:                -0.020
REMARK SMILES CCCC(=O)[O-]
REMARK SMILES IDX 3 1 4 2 5 3 6 4 2 5 1 6
REMARK H PARENT
REMARK Flexibility Score: inf
ROOT
ATOM      1  C   UNL     1     -10.646   1.429  15.495  1.00  0.00     0.052 C 
ENDROOT
BRANCH   1   2
ATOM      2  C   UNL     1     -10.579   0.562  14.275  1.00  0.00     0.041 C 
ATOM      3  O   UNL     1      -9.467   0.291  13.750  1.00  0.00    -0.550 OA
ATOM      4  O   UNL     1     -11.742   0.026  13.737  1.00  0.00    -0.550 OA
ENDBRANCH   1   2
BRANCH   1   5
ATOM      5  C   UNL     1     -12.084   1.578  16.009  1.00  0.00     0.003 C 
ATOM      6  C   UNL     1     -12.388   3.000  16.481  1.00  0.00     0.004 C 
ENDBRANCH   1   5
TORSDOF 2
ENDMDL
MODEL 6
REMARK VINA RESULT:    -2.821     12.763     13.534
REMARK INTER + INTRA:          -3.170
REMARK INTER:                  -3.132
REMARK INTRA:                  -0.038
REMARK UNBOUND:                -0.020
REMARK SMILES CCCC(=O)[O-]
REMARK SMILES IDX 3 1 4 2 5 3 6 4 2 5 1 6
REMARK H PARENT
REMARK Flexibility Score: inf
ROOT
ATOM      1  C   UNL     1      -1.722  -3.289  22.043  1.00  0.00     0.052 C 
ENDROOT
BRANCH   1   2
ATOM      2  C   UNL     1      -0.686  -3.501  23.103  1.00  0.00     0.041 C 
ATOM      3  O   UNL     1       0.506  -3.754  22.784  1.00  0.00    -0.550 OA
ATOM      4  O   UNL     1      -1.028  -3.388  24.445  1.00  0.00    -0.550 OA
ENDBRANCH   1   2
BRANCH   1   5
ATOM      5  C   UNL     1      -2.415  -1.928  22.190  1.00  0.00     0.003 C 
ATOM      6  C   UNL     1      -3.884  -2.065  22.592  1.00  0.00     0.004 C 
ENDBRANCH   1   5
TORSDOF 2
ENDMDL
MODEL 7
REMARK VINA RESULT:    -2.773      1.875      3.302
REMARK INTER + INTRA:          -3.117
REMARK INTER:                  -3.106
REMARK INTRA:                  -0.012
REMARK UNBOUND:                -0.020
REMARK SMILES CCCC(=O)[O-]
REMARK SMILES IDX 3 1 4 2 5 3 6 4 2 5 1 6
REMARK H PARENT
REMARK Flexibility Score: inf
ROOT
ATOM      1  C   UNL     1     -11.007   0.477  14.202  1.00  0.00     0.052 C 
ENDROOT
BRANCH   1   2
ATOM      2  C   UNL     1     -10.734   1.552  15.208  1.00  0.00     0.041 C 
ATOM      3  O   UNL     1     -11.688   2.141  15.780  1.00  0.00    -0.550 OA
ATOM      4  O   UNL     1      -9.425   1.881  15.539  1.00  0.00    -0.550 OA
ENDBRANCH   1   2
BRANCH   1   5
ATOM      5  C   UNL     1     -12.502   0.144  14.116  1.00  0.00     0.003 C 
ATOM      6  C   UNL     1     -12.760  -1.201  13.437  1.00  0.00     0.004 C 
ENDBRANCH   1   5
TORSDOF 2
ENDMDL
MODEL 8
REMARK VINA RESULT:    -2.601     12.076     12.739
REMARK INTER + INTRA:          -2.925
REMARK INTER:                  -2.916
REMARK INTRA:                  -0.009
REMARK UNBOUND:                -0.020
REMARK SMILES CCCC(=O)[O-]
REMARK SMILES IDX 3 1 4 2 5 3 6 4 2 5 1 6
REMARK H PARENT
REMARK Flexibility Score: inf
ROOT
ATOM      1  C   UNL     1      -1.566  -3.016  22.461  1.00  0.00     0.052 C 
ENDROOT
BRANCH   1   2
ATOM      2  C   UNL     1      -1.171  -4.061  21.463  1.00  0.00     0.041 C 
ATOM      3  O   UNL     1      -2.031  -4.862  21.011  1.00  0.00    -0.550 OA
ATOM      4  O   UNL     1       0.139  -4.131  21.008  1.00  0.00    -0.550 OA
ENDBRANCH   1   2
BRANCH   1   5
ATOM      5  C   UNL     1      -3.009  -2.541  22.246  1.00  0.00     0.003 C 
ATOM      6  C   UNL     1      -3.353  -1.322  23.101  1.00  0.00     0.004 C 
ENDBRANCH   1   5
TORSDOF 2
ENDMDL
MODEL 9
REMARK VINA RESULT:    -2.592     12.686     13.195
REMARK INTER + INTRA:          -2.915
REMARK INTER:                  -2.910
REMARK INTRA:                  -0.005
REMARK UNBOUND:                -0.020
REMARK SMILES CCCC(=O)[O-]
REMARK SMILES IDX 3 1 4 2 5 3 6 4 2 5 1 6
REMARK H PARENT
REMARK Flexibility Score: inf
ROOT
ATOM      1  C   UNL     1      -3.301 -10.058  16.046  1.00  0.00     0.052 C 
ENDROOT
BRANCH   1   2
ATOM      2  C   UNL     1      -3.157  -8.841  16.907  1.00  0.00     0.041 C 
ATOM      3  O   UNL     1      -3.468  -8.886  18.127  1.00  0.00    -0.550 OA
ATOM      4  O   UNL     1      -2.648  -7.664  16.371  1.00  0.00    -0.550 OA
ENDBRANCH   1   2
BRANCH   1   5
ATOM      5  C   UNL     1      -4.743 -10.240  15.556  1.00  0.00     0.003 C 
ATOM      6  C   UNL     1      -4.873 -11.375  14.539  1.00  0.00     0.004 C 
ENDBRANCH   1   5
TORSDOF 2
ENDMDL
