MODEL 1
REMARK VINA RESULT:    -5.463      0.000      0.000
REMARK INTER + INTRA:          -7.817
REMARK INTER:                  -6.741
REMARK INTRA:                  -1.077
REMARK UNBOUND:                -1.077
REMARK SMILES CC(C)=CCC[C@H](C)[C@@H]1C=CC(C)=CC1
REMARK SMILES IDX 6 1 7 2 8 3 9 4 13 5 12 6 14 7 11 8 15 9 10 10 5 11 4 12
REMARK SMILES IDX 2 13 1 14 3 15
REMARK H PARENT
REMARK Flexibility Score: inf
ROOT
ATOM      1  C   UNL     1       1.970  -1.787  17.115  1.00  0.00     0.008 C 
ENDROOT
BRANCH   1   2
ATOM      2  C   UNL     1       3.027  -2.906  16.947  1.00  0.00    -0.007 C 
ATOM      3  C   UNL     1       2.817  -4.033  17.981  1.00  0.00     0.008 C 
BRANCH   2   4
ATOM      4  C   UNL     1       4.472  -2.323  16.979  1.00  0.00     0.018 C 
ATOM      5  C   UNL     1       8.746  -1.782  16.480  1.00  0.00     0.044 C 
ATOM      6  C   UNL     1       7.317  -2.212  16.624  1.00  0.00    -0.055 C 
ATOM      7  C   UNL     1       6.828  -2.546  17.829  1.00  0.00    -0.023 C 
ATOM      8  C   UNL     1       6.417  -2.182  15.447  1.00  0.00    -0.001 C 
ATOM      9  C   UNL     1       5.415  -3.046  17.972  1.00  0.00     0.035 C 
ATOM     10  C   UNL     1       5.091  -2.285  15.597  1.00  0.00    -0.023 C 
ENDBRANCH   2   4
ENDBRANCH   1   2
BRANCH   1  11
ATOM     11  C   UNL     1       0.996  -1.707  15.929  1.00  0.00     0.027 C 
BRANCH  11  12
ATOM     12  C   UNL     1       1.639  -1.005  14.759  1.00  0.00    -0.028 C 
ATOM     13  C   UNL     1       2.045  -1.620  13.627  1.00  0.00    -0.080 C 
ATOM     14  C   UNL     1       2.636  -0.781  12.524  1.00  0.00     0.039 C 
ATOM     15  C   UNL     1       1.941  -3.118  13.447  1.00  0.00     0.039 C 
ENDBRANCH  11  12
ENDBRANCH   1  11
TORSDOF 4
ENDMDL
MODEL 2
REMARK VINA RESULT:    -5.458      1.863      3.863
REMARK INTER + INTRA:          -7.811
REMARK INTER:                  -7.011
REMARK INTRA:                  -0.800
REMARK UNBOUND:                -1.077
REMARK SMILES CC(C)=CCC[C@H](C)[C@@H]1C=CC(C)=CC1
REMARK SMILES IDX 6 1 7 2 8 3 9 4 13 5 12 6 14 7 11 8 15 9 10 10 5 11 4 12
REMARK SMILES IDX 2 13 1 14 3 15
REMARK H PARENT
REMARK Flexibility Score: inf
ROOT
ATOM      1  C   UNL     1       2.850  -3.976  18.031  1.00  0.00     0.008 C 
ENDROOT
BRANCH   1   2
ATOM      2  C   UNL     1       3.010  -2.676  17.203  1.00  0.00    -0.007 C 
ATOM      3  C   UNL     1       2.397  -2.831  15.795  1.00  0.00     0.008 C 
BRANCH   2   4
ATOM      4  C   UNL     1       4.498  -2.216  17.163  1.00  0.00     0.018 C 
ATOM      5  C   UNL     1       8.779  -2.048  16.487  1.00  0.00     0.044 C 
ATOM      6  C   UNL     1       7.325  -2.353  16.697  1.00  0.00    -0.055 C 
ATOM      7  C   UNL     1       6.860  -2.612  17.930  1.00  0.00    -0.023 C 
ATOM      8  C   UNL     1       6.385  -2.280  15.555  1.00  0.00    -0.001 C 
ATOM      9  C   UNL     1       5.417  -2.988  18.141  1.00  0.00     0.035 C 
ATOM     10  C   UNL     1       5.062  -2.267  15.758  1.00  0.00    -0.023 C 
ENDBRANCH   2   4
ENDBRANCH   1   2
BRANCH   1  11
ATOM     11  C   UNL     1       1.379  -4.341  18.285  1.00  0.00     0.027 C 
BRANCH  11  12
ATOM     12  C   UNL     1       0.941  -3.868  19.648  1.00  0.00    -0.028 C 
ATOM     13  C   UNL     1       0.219  -2.748  19.873  1.00  0.00    -0.080 C 
ATOM     14  C   UNL     1      -0.180  -2.422  21.289  1.00  0.00     0.039 C 
ATOM     15  C   UNL     1      -0.178  -1.812  18.755  1.00  0.00     0.039 C 
ENDBRANCH  11  12
ENDBRANCH   1  11
TORSDOF 4
ENDMDL
MODEL 3
REMARK VINA RESULT:    -5.250      1.025      5.047
REMARK INTER + INTRA:          -7.555
REMARK INTER:                  -6.686
REMARK INTRA:                  -0.868
REMARK UNBOUND:                -1.077
REMARK SMILES CC(C)=CCC[C@H](C)[C@@H]1C=CC(C)=CC1
REMARK SMILES IDX 6 1 7 2 8 3 9 4 13 5 12 6 14 7 11 8 15 9 10 10 5 11 4 12
REMARK SMILES IDX 2 13 1 14 3 15
REMARK H PARENT
REMARK Flexibility Score: inf
ROOT
ATOM      1  C   UNL     1       4.413  -1.978  18.230  1.00  0.00     0.008 C 
ENDROOT
BRANCH   1   2
ATOM      2  C   UNL     1       3.086  -2.304  17.500  1.00  0.00    -0.007 C 
ATOM      3  C   UNL     1       2.559  -3.700  17.894  1.00  0.00     0.008 C 
BRANCH   2   4
ATOM      4  C   UNL     1       3.237  -2.133  15.959  1.00  0.00     0.018 C 
ATOM      5  C   UNL     1       2.511  -1.155  11.796  1.00  0.00     0.044 C 
ATOM      6  C   UNL     1       2.514  -1.484  13.259  1.00  0.00    -0.055 C 
ATOM      7  C   UNL     1       2.414  -2.760  13.666  1.00  0.00    -0.023 C 
ATOM      8  C   UNL     1       2.719  -0.407  14.255  1.00  0.00    -0.001 C 
ATOM      9  C   UNL     1       2.345  -3.093  15.133  1.00  0.00     0.035 C 
ATOM     10  C   UNL     1       3.005  -0.699  15.529  1.00  0.00    -0.023 C 
ENDBRANCH   2   4
ENDBRANCH   1   2
BRANCH   1  11
ATOM     11  C   UNL     1       5.466  -3.086  18.072  1.00  0.00     0.027 C 
BRANCH  11  12
ATOM     12  C   UNL     1       6.854  -2.498  18.026  1.00  0.00    -0.028 C 
ATOM     13  C   UNL     1       7.488  -2.122  16.895  1.00  0.00    -0.080 C 
ATOM     14  C   UNL     1       8.862  -1.513  17.009  1.00  0.00     0.039 C 
ATOM     15  C   UNL     1       6.870  -2.312  15.528  1.00  0.00     0.039 C 
ENDBRANCH  11  12
ENDBRANCH   1  11
TORSDOF 4
ENDMDL
MODEL 4
REMARK VINA RESULT:    -5.205      1.441      5.188
REMARK INTER + INTRA:          -7.499
REMARK INTER:                  -6.432
REMARK INTRA:                  -1.067
REMARK UNBOUND:                -1.077
REMARK SMILES CC(C)=CCC[C@H](C)[C@@H]1C=CC(C)=CC1
REMARK SMILES IDX 6 1 7 2 8 3 9 4 13 5 12 6 14 7 11 8 15 9 10 10 5 11 4 12
REMARK SMILES IDX 2 13 1 14 3 15
REMARK H PARENT
REMARK Flexibility Score: inf
ROOT
ATOM      1  C   UNL     1       3.084  -4.092  18.123  1.00  0.00     0.008 C 
ENDROOT
BRANCH   1   2
ATOM      2  C   UNL     1       2.543  -2.651  18.303  1.00  0.00    -0.007 C 
ATOM      3  C   UNL     1       1.109  -2.660  18.873  1.00  0.00     0.008 C 
BRANCH   2   4
ATOM      4  C   UNL     1       2.658  -1.838  16.979  1.00  0.00     0.018 C 
ATOM      5  C   UNL     1       2.261  -0.517  12.867  1.00  0.00     0.044 C 
ATOM      6  C   UNL     1       2.340  -1.199  14.200  1.00  0.00    -0.055 C 
ATOM      7  C   UNL     1       3.491  -1.758  14.607  1.00  0.00    -0.023 C 
ATOM      8  C   UNL     1       1.170  -1.179  15.108  1.00  0.00    -0.001 C 
ATOM      9  C   UNL     1       3.561  -2.506  15.912  1.00  0.00     0.035 C 
ATOM     10  C   UNL     1       1.296  -1.525  16.395  1.00  0.00    -0.023 C 
ENDBRANCH   2   4
ENDBRANCH   1   2
BRANCH   1  11
ATOM     11  C   UNL     1       4.325  -4.373  18.984  1.00  0.00     0.027 C 
BRANCH  11  12
ATOM     12  C   UNL     1       4.829  -3.103  19.623  1.00  0.00    -0.028 C 
ATOM     13  C   UNL     1       5.874  -2.379  19.166  1.00  0.00    -0.080 C 
ATOM     14  C   UNL     1       6.238  -1.108  19.887  1.00  0.00     0.039 C 
ATOM     15  C   UNL     1       6.692  -2.818  17.972  1.00  0.00     0.039 C 
ENDBRANCH  11  12
ENDBRANCH   1  11
TORSDOF 4
ENDMDL
MODEL 5
REMARK VINA RESULT:    -5.161      1.978      4.593
REMARK INTER + INTRA:          -7.445
REMARK INTER:                  -6.393
REMARK INTRA:                  -1.052
REMARK UNBOUND:                -1.077
REMARK SMILES CC(C)=CCC[C@H](C)[C@@H]1C=CC(C)=CC1
REMARK SMILES IDX 6 1 7 2 8 3 9 4 13 5 12 6 14 7 11 8 15 9 10 10 5 11 4 12
REMARK SMILES IDX 2 13 1 14 3 15
REMARK H PARENT
REMARK Flexibility Score: inf
ROOT
ATOM      1  C   UNL     1       2.615  -4.064  18.060  1.00  0.00     0.008 C 
ENDROOT
BRANCH   1   2
ATOM      2  C   UNL     1       2.767  -2.536  17.857  1.00  0.00    -0.007 C 
ATOM      3  C   UNL     1       1.814  -2.021  16.757  1.00  0.00     0.008 C 
BRANCH   2   4
ATOM      4  C   UNL     1       4.253  -2.150  17.592  1.00  0.00     0.018 C 
ATOM      5  C   UNL     1       8.386  -2.189  16.278  1.00  0.00     0.044 C 
ATOM      6  C   UNL     1       6.968  -2.423  16.706  1.00  0.00    -0.055 C 
ATOM      7  C   UNL     1       6.681  -2.667  17.995  1.00  0.00    -0.023 C 
ATOM      8  C   UNL     1       5.871  -2.296  15.719  1.00  0.00    -0.001 C 
ATOM      9  C   UNL     1       5.270  -2.972  18.422  1.00  0.00     0.035 C 
ATOM     10  C   UNL     1       4.596  -2.220  16.118  1.00  0.00    -0.023 C 
ENDBRANCH   2   4
ENDBRANCH   1   2
BRANCH   1  11
ATOM     11  C   UNL     1       1.758  -4.419  19.285  1.00  0.00     0.027 C 
BRANCH  11  12
ATOM     12  C   UNL     1       2.257  -3.695  20.511  1.00  0.00    -0.028 C 
ATOM     13  C   UNL     1       3.263  -4.131  21.300  1.00  0.00    -0.080 C 
ATOM     14  C   UNL     1       3.679  -3.280  22.472  1.00  0.00     0.039 C 
ATOM     15  C   UNL     1       3.963  -5.448  21.052  1.00  0.00     0.039 C 
ENDBRANCH  11  12
ENDBRANCH   1  11
TORSDOF 4
ENDMDL
MODEL 6
REMARK VINA RESULT:    -5.077      1.254      5.414
REMARK INTER + INTRA:          -7.340
REMARK INTER:                  -6.530
REMARK INTRA:                  -0.811
REMARK UNBOUND:                -1.077
REMARK SMILES CC(C)=CCC[C@H](C)[C@@H]1C=CC(C)=CC1
REMARK SMILES IDX 6 1 7 2 8 3 9 4 13 5 12 6 14 7 11 8 15 9 10 10 5 11 4 12
REMARK SMILES IDX 2 13 1 14 3 15
REMARK H PARENT
REMARK Flexibility Score: inf
ROOT
ATOM      1  C   UNL     1       4.971  -2.149  18.666  1.00  0.00     0.008 C 
ENDROOT
BRANCH   1   2
ATOM      2  C   UNL     1       3.522  -2.678  18.519  1.00  0.00    -0.007 C 
ATOM      3  C   UNL     1       3.501  -4.211  18.343  1.00  0.00     0.008 C 
BRANCH   2   4
ATOM      4  C   UNL     1       2.765  -1.932  17.380  1.00  0.00     0.018 C 
ATOM      5  C   UNL     1       0.035  -0.946  14.156  1.00  0.00     0.044 C 
ATOM      6  C   UNL     1       0.931  -1.524  15.212  1.00  0.00    -0.055 C 
ATOM      7  C   UNL     1       2.212  -1.809  14.930  1.00  0.00    -0.023 C 
ATOM      8  C   UNL     1       0.425  -1.698  16.593  1.00  0.00    -0.001 C 
ATOM      9  C   UNL     1       3.099  -2.455  15.961  1.00  0.00     0.035 C 
ATOM     10  C   UNL     1       1.266  -1.939  17.605  1.00  0.00    -0.023 C 
ENDBRANCH   2   4
ENDBRANCH   1   2
BRANCH   1  11
ATOM     11  C   UNL     1       6.025  -3.176  18.224  1.00  0.00     0.027 C 
BRANCH  11  12
ATOM     12  C   UNL     1       7.318  -2.489  17.860  1.00  0.00    -0.028 C 
ATOM     13  C   UNL     1       7.633  -2.061  16.618  1.00  0.00    -0.080 C 
ATOM     14  C   UNL     1       8.948  -1.355  16.414  1.00  0.00     0.039 C 
ATOM     15  C   UNL     1       6.719  -2.289  15.436  1.00  0.00     0.039 C 
ENDBRANCH  11  12
ENDBRANCH   1  11
TORSDOF 4
ENDMDL
MODEL 7
REMARK VINA RESULT:    -5.067      2.104      5.698
REMARK INTER + INTRA:          -7.329
REMARK INTER:                  -6.236
REMARK INTRA:                  -1.093
REMARK UNBOUND:                -1.077
REMARK SMILES CC(C)=CCC[C@H](C)[C@@H]1C=CC(C)=CC1
REMARK SMILES IDX 6 1 7 2 8 3 9 4 13 5 12 6 14 7 11 8 15 9 10 10 5 11 4 12
REMARK SMILES IDX 2 13 1 14 3 15
REMARK H PARENT
REMARK Flexibility Score: inf
ROOT
ATOM      1  C   UNL     1       6.042  -1.842  19.540  1.00  0.00     0.008 C 
ENDROOT
BRANCH   1   2
ATOM      2  C   UNL     1       6.326  -2.611  18.226  1.00  0.00    -0.007 C 
ATOM      3  C   UNL     1       7.534  -2.011  17.477  1.00  0.00     0.008 C 
BRANCH   2   4
ATOM      4  C   UNL     1       5.049  -2.693  17.337  1.00  0.00     0.018 C 
ATOM      5  C   UNL     1       1.799  -1.726  14.632  1.00  0.00     0.044 C 
ATOM      6  C   UNL     1       2.939  -1.814  15.602  1.00  0.00    -0.055 C 
ATOM      7  C   UNL     1       2.700  -1.895  16.921  1.00  0.00    -0.023 C 
ATOM      8  C   UNL     1       4.330  -1.902  15.099  1.00  0.00    -0.001 C 
ATOM      9  C   UNL     1       3.839  -1.913  17.907  1.00  0.00     0.035 C 
ATOM     10  C   UNL     1       5.330  -2.262  15.912  1.00  0.00    -0.023 C 
ENDBRANCH   2   4
ENDBRANCH   1   2
BRANCH   1  11
ATOM     11  C   UNL     1       6.135  -2.737  20.785  1.00  0.00     0.027 C 
BRANCH  11  12
ATOM     12  C   UNL     1       4.760  -3.071  21.306  1.00  0.00    -0.028 C 
ATOM     13  C   UNL     1       4.089  -4.209  21.021  1.00  0.00    -0.080 C 
ATOM     14  C   UNL     1       2.735  -4.421  21.647  1.00  0.00     0.039 C 
ATOM     15  C   UNL     1       4.647  -5.254  20.083  1.00  0.00     0.039 C 
ENDBRANCH  11  12
ENDBRANCH   1  11
TORSDOF 4
ENDMDL
MODEL 8
REMARK VINA RESULT:    -5.035      2.020      4.741
REMARK INTER + INTRA:          -7.290
REMARK INTER:                  -6.248
REMARK INTRA:                  -1.042
REMARK UNBOUND:                -1.077
REMARK SMILES CC(C)=CCC[C@H](C)[C@@H]1C=CC(C)=CC1
REMARK SMILES IDX 6 1 7 2 8 3 9 4 13 5 12 6 14 7 11 8 15 9 10 10 5 11 4 12
REMARK SMILES IDX 2 13 1 14 3 15
REMARK H PARENT
REMARK Flexibility Score: inf
ROOT
ATOM      1  C   UNL     1       3.764  -2.457  16.219  1.00  0.00     0.008 C 
ENDROOT
BRANCH   1   2
ATOM      2  C   UNL     1       3.758  -2.031  17.708  1.00  0.00    -0.007 C 
ATOM      3  C   UNL     1       5.142  -2.249  18.357  1.00  0.00     0.008 C 
BRANCH   2   4
ATOM      4  C   UNL     1       2.611  -2.737  18.490  1.00  0.00     0.018 C 
ATOM      5  C   UNL     1       0.225  -5.664  20.624  1.00  0.00     0.044 C 
ATOM      6  C   UNL     1       1.171  -4.849  19.794  1.00  0.00    -0.055 C 
ATOM      7  C   UNL     1       0.871  -4.553  18.519  1.00  0.00    -0.023 C 
ATOM      8  C   UNL     1       2.399  -4.293  20.410  1.00  0.00    -0.001 C 
ATOM      9  C   UNL     1       1.847  -3.797  17.658  1.00  0.00     0.035 C 
ATOM     10  C   UNL     1       3.107  -3.344  19.787  1.00  0.00    -0.023 C 
ENDBRANCH   2   4
ENDBRANCH   1   2
BRANCH   1  11
ATOM     11  C   UNL     1       3.402  -1.304  15.270  1.00  0.00     0.027 C 
BRANCH  11  12
ATOM     12  C   UNL     1       2.103  -0.660  15.685  1.00  0.00    -0.028 C 
ATOM     13  C   UNL     1       0.879  -1.105  15.326  1.00  0.00    -0.080 C 
ATOM     14  C   UNL     1      -0.332  -0.380  15.850  1.00  0.00     0.039 C 
ATOM     15  C   UNL     1       0.696  -2.289  14.404  1.00  0.00     0.039 C 
ENDBRANCH  11  12
ENDBRANCH   1  11
TORSDOF 4
ENDMDL
MODEL 9
REMARK VINA RESULT:    -5.014      3.982      7.785
REMARK INTER + INTRA:          -7.263
REMARK INTER:                  -6.299
REMARK INTRA:                  -0.964
REMARK UNBOUND:                -1.077
REMARK SMILES CC(C)=CCC[C@H](C)[C@@H]1C=CC(C)=CC1
REMARK SMILES IDX 6 1 7 2 8 3 9 4 13 5 12 6 14 7 11 8 15 9 10 10 5 11 4 12
REMARK SMILES IDX 2 13 1 14 3 15
REMARK H PARENT
REMARK Flexibility Score: inf
ROOT
ATOM      1  C   UNL     1       0.406  -3.565  13.676  1.00  0.00     0.008 C 
ENDROOT
BRANCH   1   2
ATOM      2  C   UNL     1      -0.462  -2.860  12.605  1.00  0.00    -0.007 C 
ATOM      3  C   UNL     1      -1.473  -1.891  13.253  1.00  0.00     0.008 C 
BRANCH   2   4
ATOM      4  C   UNL     1      -1.143  -3.897  11.662  1.00  0.00     0.018 C 
ATOM      5  C   UNL     1      -1.979  -7.418   9.271  1.00  0.00     0.044 C 
ATOM      6  C   UNL     1      -1.451  -6.269  10.078  1.00  0.00    -0.055 C 
ATOM      7  C   UNL     1      -1.083  -5.129   9.471  1.00  0.00    -0.023 C 
ATOM      8  C   UNL     1      -1.420  -6.359  11.556  1.00  0.00    -0.001 C 
ATOM      9  C   UNL     1      -0.486  -3.996  10.263  1.00  0.00     0.035 C 
ATOM     10  C   UNL     1      -1.226  -5.267  12.304  1.00  0.00    -0.023 C 
ENDBRANCH   2   4
ENDBRANCH   1   2
BRANCH   1  11
ATOM     11  C   UNL     1       1.906  -3.528  13.345  1.00  0.00     0.027 C 
BRANCH  11  12
ATOM     12  C   UNL     1       2.186  -2.524  12.255  1.00  0.00    -0.028 C 
ATOM     13  C   UNL     1       2.670  -1.280  12.466  1.00  0.00    -0.080 C 
ATOM     14  C   UNL     1       2.936  -0.400  11.273  1.00  0.00     0.039 C 
ATOM     15  C   UNL     1       2.928  -0.747  13.857  1.00  0.00     0.039 C 
ENDBRANCH  11  12
ENDBRANCH   1  11
TORSDOF 4
ENDMDL
