MODEL 1
REMARK VINA RESULT:    -3.634      0.000      0.000
REMARK INTER + INTRA:          -4.606
REMARK INTER:                  -4.378
REMARK INTRA:                  -0.228
REMARK UNBOUND:                -0.228
REMARK SMILES C=CCc1ccc(O)c(OC)c1
REMARK SMILES IDX 9 1 7 2 6 3 5 4 4 5 12 6 10 7 11 8 8 9 3 11 2 12 1 13
REMARK H PARENT 8 10
REMARK Flexibility Score: inf
ROOT
ATOM      1  C   UNL     1      57.854  39.740 123.721  1.00  0.00     0.160 A 
ATOM      2  C   UNL     1      56.973  38.783 123.197  1.00  0.00     0.157 A 
ATOM      3  C   UNL     1      55.657  39.140 122.877  1.00  0.00     0.050 A 
ATOM      4  C   UNL     1      55.213  40.447 123.078  1.00  0.00     0.008 A 
ATOM      5  C   UNL     1      56.078  41.413 123.612  1.00  0.00    -0.040 A 
ATOM      6  C   UNL     1      57.401  41.058 123.924  1.00  0.00     0.054 A 
ENDROOT
BRANCH   1   7
ATOM      7  O   UNL     1      59.167  39.345 124.024  1.00  0.00    -0.493 OA
ATOM      8  C   UNL     1      59.815  39.593 125.267  1.00  0.00     0.278 C 
ENDBRANCH   1   7
BRANCH   2   9
ATOM      9  O   UNL     1      57.415  37.477 122.995  1.00  0.00    -0.504 OA
ATOM     10  H   UNL     1      56.816  36.772 122.581  1.00  0.00     0.293 HD
ENDBRANCH   2   9
BRANCH   5  11
ATOM     11  C   UNL     1      55.604  42.830 123.799  1.00  0.00     0.062 C 
BRANCH  11  12
ATOM     12  C   UNL     1      54.140  42.949 123.482  1.00  0.00    -0.030 C 
ATOM     13  C   UNL     1      53.330  43.743 124.190  1.00  0.00     0.004 C 
ENDBRANCH  11  12
ENDBRANCH   5  11
TORSDOF 4
ENDMDL
MODEL 2
REMARK VINA RESULT:    -3.571      1.138      2.704
REMARK INTER + INTRA:          -4.530
REMARK INTER:                  -4.333
REMARK INTRA:                  -0.197
REMARK UNBOUND:                -0.228
REMARK SMILES C=CCc1ccc(O)c(OC)c1
REMARK SMILES IDX 9 1 7 2 6 3 5 4 4 5 12 6 10 7 11 8 8 9 3 11 2 12 1 13
REMARK H PARENT 8 10
REMARK Flexibility Score: inf
ROOT
ATOM      1  C   UNL     1      55.613  39.017 123.126  1.00  0.00     0.160 A 
ATOM      2  C   UNL     1      56.974  38.689 123.209  1.00  0.00     0.157 A 
ATOM      3  C   UNL     1      57.924  39.687 123.459  1.00  0.00     0.050 A 
ATOM      4  C   UNL     1      57.525  41.014 123.625  1.00  0.00     0.008 A 
ATOM      5  C   UNL     1      56.169  41.361 123.533  1.00  0.00    -0.040 A 
ATOM      6  C   UNL     1      55.215  40.359 123.292  1.00  0.00     0.054 A 
ENDROOT
BRANCH   1   7
ATOM      7  O   UNL     1      54.690  37.988 122.879  1.00  0.00    -0.493 OA
ATOM      8  C   UNL     1      54.020  37.248 123.894  1.00  0.00     0.278 C 
ENDBRANCH   1   7
BRANCH   2   9
ATOM      9  O   UNL     1      57.375  37.364 123.044  1.00  0.00    -0.504 OA
ATOM     10  H   UNL     1      57.523  36.965 122.125  1.00  0.00     0.293 HD
ENDBRANCH   2   9
BRANCH   5  11
ATOM     11  C   UNL     1      55.739  42.788 123.743  1.00  0.00     0.062 C 
BRANCH  11  12
ATOM     12  C   UNL     1      54.340  43.004 123.236  1.00  0.00    -0.030 C 
ATOM     13  C   UNL     1      53.414  43.622 123.975  1.00  0.00     0.004 C 
ENDBRANCH  11  12
ENDBRANCH   5  11
TORSDOF 4
ENDMDL
MODEL 3
REMARK VINA RESULT:    -3.453     14.284     14.918
REMARK INTER + INTRA:          -4.387
REMARK INTER:                  -4.192
REMARK INTRA:                  -0.195
REMARK UNBOUND:                -0.228
REMARK SMILES C=CCc1ccc(O)c(OC)c1
REMARK SMILES IDX 9 1 7 2 6 3 5 4 4 5 12 6 10 7 11 8 8 9 3 11 2 12 1 13
REMARK H PARENT 8 10
REMARK Flexibility Score: inf
ROOT
ATOM      1  C   UNL     1      50.006  36.634 135.719  1.00  0.00     0.160 A 
ATOM      2  C   UNL     1      50.259  36.626 137.098  1.00  0.00     0.157 A 
ATOM      3  C   UNL     1      49.447  37.367 137.967  1.00  0.00     0.050 A 
ATOM      4  C   UNL     1      48.383  38.119 137.467  1.00  0.00     0.008 A 
ATOM      5  C   UNL     1      48.123  38.147 136.089  1.00  0.00    -0.040 A 
ATOM      6  C   UNL     1      48.931  37.397 135.218  1.00  0.00     0.054 A 
ENDROOT
BRANCH   1   7
ATOM      7  O   UNL     1      50.838  35.875 134.881  1.00  0.00    -0.493 OA
ATOM      8  C   UNL     1      51.637  36.416 133.835  1.00  0.00     0.278 C 
ENDBRANCH   1   7
BRANCH   2   9
ATOM      9  O   UNL     1      51.321  35.875 137.599  1.00  0.00    -0.504 OA
ATOM     10  H   UNL     1      51.413  34.886 137.398  1.00  0.00     0.293 HD
ENDBRANCH   2   9
BRANCH   5  11
ATOM     11  C   UNL     1      46.957  38.936 135.557  1.00  0.00     0.062 C 
BRANCH  11  12
ATOM     12  C   UNL     1      46.142  38.105 134.605  1.00  0.00    -0.030 C 
ATOM     13  C   UNL     1      44.912  38.471 134.230  1.00  0.00     0.004 C 
ENDBRANCH  11  12
ENDBRANCH   5  11
TORSDOF 4
ENDMDL
MODEL 4
REMARK VINA RESULT:    -3.450      1.460      2.953
REMARK INTER + INTRA:          -4.384
REMARK INTER:                  -4.105
REMARK INTRA:                  -0.279
REMARK UNBOUND:                -0.228
REMARK SMILES C=CCc1ccc(O)c(OC)c1
REMARK SMILES IDX 9 1 7 2 6 3 5 4 4 5 12 6 10 7 11 8 8 9 3 11 2 12 1 13
REMARK H PARENT 8 10
REMARK Flexibility Score: inf
ROOT
ATOM      1  C   UNL     1      55.446  38.770 123.086  1.00  0.00     0.160 A 
ATOM      2  C   UNL     1      56.812  38.469 123.176  1.00  0.00     0.157 A 
ATOM      3  C   UNL     1      57.745  39.492 123.392  1.00  0.00     0.050 A 
ATOM      4  C   UNL     1      57.322  40.816 123.516  1.00  0.00     0.008 A 
ATOM      5  C   UNL     1      55.960  41.136 123.417  1.00  0.00    -0.040 A 
ATOM      6  C   UNL     1      55.023  40.109 123.210  1.00  0.00     0.054 A 
ENDROOT
BRANCH   1   7
ATOM      7  O   UNL     1      54.541  37.717 122.875  1.00  0.00    -0.493 OA
ATOM      8  C   UNL     1      53.765  37.104 123.899  1.00  0.00     0.278 C 
ENDBRANCH   1   7
BRANCH   2   9
ATOM      9  O   UNL     1      57.236  37.147 123.054  1.00  0.00    -0.504 OA
ATOM     10  H   UNL     1      57.680  36.809 122.208  1.00  0.00     0.293 HD
ENDBRANCH   2   9
BRANCH   5  11
ATOM     11  C   UNL     1      55.504  42.561 123.581  1.00  0.00     0.062 C 
BRANCH  11  12
ATOM     12  C   UNL     1      54.674  42.716 124.824  1.00  0.00    -0.030 C 
ATOM     13  C   UNL     1      55.214  42.630 126.044  1.00  0.00     0.004 C 
ENDBRANCH  11  12
ENDBRANCH   5  11
TORSDOF 4
ENDMDL
MODEL 5
REMARK VINA RESULT:    -3.448      2.616      3.566
REMARK INTER + INTRA:          -4.382
REMARK INTER:                  -4.166
REMARK INTRA:                  -0.216
REMARK UNBOUND:                -0.228
REMARK SMILES C=CCc1ccc(O)c(OC)c1
REMARK SMILES IDX 9 1 7 2 6 3 5 4 4 5 12 6 10 7 11 8 8 9 3 11 2 12 1 13
REMARK H PARENT 8 10
REMARK Flexibility Score: inf
ROOT
ATOM      1  C   UNL     1      56.180  37.032 124.758  1.00  0.00     0.160 A 
ATOM      2  C   UNL     1      55.075  37.036 123.894  1.00  0.00     0.157 A 
ATOM      3  C   UNL     1      54.919  38.065 122.957  1.00  0.00     0.050 A 
ATOM      4  C   UNL     1      55.859  39.094 122.877  1.00  0.00     0.008 A 
ATOM      5  C   UNL     1      56.963  39.111 123.741  1.00  0.00    -0.040 A 
ATOM      6  C   UNL     1      57.125  38.074 124.675  1.00  0.00     0.054 A 
ENDROOT
BRANCH   1   7
ATOM      7  O   UNL     1      56.305  35.980 125.680  1.00  0.00    -0.493 OA
ATOM      8  C   UNL     1      56.002  36.085 127.067  1.00  0.00     0.278 C 
ENDBRANCH   1   7
BRANCH   2   9
ATOM      9  O   UNL     1      54.136  36.009 123.972  1.00  0.00    -0.504 OA
ATOM     10  H   UNL     1      53.226  36.152 124.394  1.00  0.00     0.293 HD
ENDBRANCH   2   9
BRANCH   5  11
ATOM     11  C   UNL     1      57.990  40.206 123.633  1.00  0.00     0.062 C 
BRANCH  11  12
ATOM     12  C   UNL     1      57.337  41.559 123.697  1.00  0.00    -0.030 C 
ATOM     13  C   UNL     1      58.000  42.674 123.378  1.00  0.00     0.004 C 
ENDBRANCH  11  12
ENDBRANCH   5  11
TORSDOF 4
ENDMDL
MODEL 6
REMARK VINA RESULT:    -3.421     14.702     15.589
REMARK INTER + INTRA:          -4.349
REMARK INTER:                  -4.077
REMARK INTRA:                  -0.272
REMARK UNBOUND:                -0.228
REMARK SMILES C=CCc1ccc(O)c(OC)c1
REMARK SMILES IDX 9 1 7 2 6 3 5 4 4 5 12 6 10 7 11 8 8 9 3 11 2 12 1 13
REMARK H PARENT 8 10
REMARK Flexibility Score: inf
ROOT
ATOM      1  C   UNL     1      47.599  38.270 135.639  1.00  0.00     0.160 A 
ATOM      2  C   UNL     1      47.758  37.290 134.649  1.00  0.00     0.157 A 
ATOM      3  C   UNL     1      48.655  36.232 134.845  1.00  0.00     0.050 A 
ATOM      4  C   UNL     1      49.396  36.146 136.025  1.00  0.00     0.008 A 
ATOM      5  C   UNL     1      49.257  37.124 137.019  1.00  0.00    -0.040 A 
ATOM      6  C   UNL     1      48.351  38.181 136.827  1.00  0.00     0.054 A 
ENDROOT
BRANCH   1   7
ATOM      7  O   UNL     1      46.686  39.312 135.408  1.00  0.00    -0.493 OA
ATOM      8  C   UNL     1      47.044  40.604 134.928  1.00  0.00     0.278 C 
ENDBRANCH   1   7
BRANCH   2   9
ATOM      9  O   UNL     1      47.018  37.374 133.471  1.00  0.00    -0.504 OA
ATOM     10  H   UNL     1      46.892  38.253 132.984  1.00  0.00     0.293 HD
ENDBRANCH   2   9
BRANCH   5  11
ATOM     11  C   UNL     1      50.036  37.012 138.303  1.00  0.00     0.062 C 
BRANCH  11  12
ATOM     12  C   UNL     1      51.428  36.509 138.040  1.00  0.00    -0.030 C 
ATOM     13  C   UNL     1      52.463  37.344 137.907  1.00  0.00     0.004 C 
ENDBRANCH  11  12
ENDBRANCH   5  11
TORSDOF 4
ENDMDL
MODEL 7
REMARK VINA RESULT:    -3.400      2.496      3.230
REMARK INTER + INTRA:          -4.323
REMARK INTER:                  -4.063
REMARK INTRA:                  -0.260
REMARK UNBOUND:                -0.228
REMARK SMILES C=CCc1ccc(O)c(OC)c1
REMARK SMILES IDX 9 1 7 2 6 3 5 4 4 5 12 6 10 7 11 8 8 9 3 11 2 12 1 13
REMARK H PARENT 8 10
REMARK Flexibility Score: inf
ROOT
ATOM      1  C   UNL     1      55.478  37.502 124.497  1.00  0.00     0.160 A 
ATOM      2  C   UNL     1      56.242  38.053 123.458  1.00  0.00     0.157 A 
ATOM      3  C   UNL     1      55.868  39.274 122.882  1.00  0.00     0.050 A 
ATOM      4  C   UNL     1      54.733  39.949 123.334  1.00  0.00     0.008 A 
ATOM      5  C   UNL     1      53.952  39.406 124.364  1.00  0.00    -0.040 A 
ATOM      6  C   UNL     1      54.331  38.186 124.950  1.00  0.00     0.054 A 
ENDROOT
BRANCH   1   7
ATOM      7  O   UNL     1      55.888  36.280 125.054  1.00  0.00    -0.493 OA
ATOM      8  C   UNL     1      56.612  36.153 126.273  1.00  0.00     0.278 C 
ENDBRANCH   1   7
BRANCH   2   9
ATOM      9  O   UNL     1      57.376  37.381 123.006  1.00  0.00    -0.504 OA
ATOM     10  H   UNL     1      57.347  36.400 122.757  1.00  0.00     0.293 HD
ENDBRANCH   2   9
BRANCH   5  11
ATOM     11  C   UNL     1      52.745  40.150 124.870  1.00  0.00     0.062 C 
BRANCH  11  12
ATOM     12  C   UNL     1      52.165  41.021 123.790  1.00  0.00    -0.030 C 
ATOM     13  C   UNL     1      51.088  40.649 123.091  1.00  0.00     0.004 C 
ENDBRANCH  11  12
ENDBRANCH   5  11
TORSDOF 4
ENDMDL
MODEL 8
REMARK VINA RESULT:    -3.334     14.590     15.434
REMARK INTER + INTRA:          -4.245
REMARK INTER:                  -3.981
REMARK INTRA:                  -0.264
REMARK UNBOUND:                -0.228
REMARK SMILES C=CCc1ccc(O)c(OC)c1
REMARK SMILES IDX 9 1 7 2 6 3 5 4 4 5 12 6 10 7 11 8 8 9 3 11 2 12 1 13
REMARK H PARENT 8 10
REMARK Flexibility Score: inf
ROOT
ATOM      1  C   UNL     1      48.154  36.959 134.849  1.00  0.00     0.160 A 
ATOM      2  C   UNL     1      47.572  38.090 135.438  1.00  0.00     0.157 A 
ATOM      3  C   UNL     1      48.004  38.529 136.696  1.00  0.00     0.050 A 
ATOM      4  C   UNL     1      49.013  37.843 137.373  1.00  0.00     0.008 A 
ATOM      5  C   UNL     1      49.598  36.703 136.803  1.00  0.00    -0.040 A 
ATOM      6  C   UNL     1      49.172  36.268 135.536  1.00  0.00     0.054 A 
ENDROOT
BRANCH   1   7
ATOM      7  O   UNL     1      47.699  36.554 133.584  1.00  0.00    -0.493 OA
ATOM      8  C   UNL     1      48.437  36.703 132.376  1.00  0.00     0.278 C 
ENDBRANCH   1   7
BRANCH   2   9
ATOM      9  O   UNL     1      46.564  38.777 134.763  1.00  0.00    -0.504 OA
ATOM     10  H   UNL     1      46.170  39.635 135.130  1.00  0.00     0.293 HD
ENDBRANCH   2   9
BRANCH   5  11
ATOM     11  C   UNL     1      50.707  35.983 137.522  1.00  0.00     0.062 C 
BRANCH  11  12
ATOM     12  C   UNL     1      51.539  36.947 138.321  1.00  0.00    -0.030 C 
ATOM     13  C   UNL     1      52.786  37.265 137.960  1.00  0.00     0.004 C 
ENDBRANCH  11  12
ENDBRANCH   5  11
TORSDOF 4
ENDMDL
