MODEL 1
REMARK VINA RESULT:    -6.964      0.000      0.000
REMARK INTER + INTRA:          -7.574
REMARK INTER:                  -7.574
REMARK INTRA:                   0.000
REMARK UNBOUND:                 0.000
REMARK SMILES Cc1cc(O)c2c(c1)C(=O)c1cc(O)cc(O)c1C2=O
REMARK SMILES IDX 1 1 2 2 8 3 7 4 6 5 4 6 3 7 19 8 20 9 18 10 11 11 9 12 10 13
REMARK SMILES IDX 12 14 13 15 15 16 16 17 5 18 17 20 14 22
REMARK H PARENT 5 19 17 21 14 23
REMARK Flexibility Score: inf
ROOT
ATOM      1  C   UNL     1     111.865 120.262 120.996  1.00  0.00     0.044 C 
ATOM      2  C   UNL     1     110.390 120.537 120.998  1.00  0.00    -0.047 A 
ATOM      3  C   UNL     1     109.832 121.398 120.047  1.00  0.00     0.016 A 
ATOM      4  C   UNL     1     108.446 121.627 120.013  1.00  0.00     0.038 A 
ATOM      5  C   UNL     1     107.601 120.961 120.929  1.00  0.00     0.076 A 
ATOM      6  C   UNL     1     108.176 120.125 121.920  1.00  0.00     0.127 A 
ATOM      7  C   UNL     1     109.556 119.897 121.922  1.00  0.00     0.050 A 
ATOM      8  C   UNL     1     106.132 121.115 120.766  1.00  0.00     0.201 C 
ATOM      9  O   UNL     1     105.361 120.180 121.115  1.00  0.00    -0.288 OA
ATOM     10  C   UNL     1     105.588 122.281 120.024  1.00  0.00     0.076 A 
ATOM     11  C   UNL     1     106.438 122.944 119.109  1.00  0.00     0.041 A 
ATOM     12  C   UNL     1     107.868 122.566 119.022  1.00  0.00     0.194 C 
ATOM     13  O   UNL     1     108.599 123.062 118.121  1.00  0.00    -0.289 OA
ATOM     14  C   UNL     1     105.922 123.962 118.288  1.00  0.00     0.059 A 
ATOM     15  C   UNL     1     104.583 124.336 118.380  1.00  0.00     0.120 A 
ATOM     16  C   UNL     1     103.749 123.713 119.311  1.00  0.00     0.093 A 
ATOM     17  C   UNL     1     104.242 122.711 120.153  1.00  0.00     0.131 A 
ENDROOT
BRANCH   6  18
ATOM     18  O   UNL     1     107.425 119.530 122.935  1.00  0.00    -0.507 OA
ATOM     19  H   UNL     1     107.823 119.191 123.800  1.00  0.00     0.293 HD
ENDBRANCH   6  18
BRANCH  17  20
ATOM     20  O   UNL     1     103.375 122.196 121.121  1.00  0.00    -0.507 OA
ATOM     21  H   UNL     1     103.132 122.687 121.970  1.00  0.00     0.293 HD
ENDBRANCH  17  20
BRANCH  15  22
ATOM     22  O   UNL     1     104.091 125.339 117.547  1.00  0.00    -0.508 OA
ATOM     23  H   UNL     1     103.350 125.158 116.880  1.00  0.00     0.293 HD
ENDBRANCH  15  22
TORSDOF 3
ENDMDL
MODEL 2
REMARK VINA RESULT:    -6.863      1.573      2.347
REMARK INTER + INTRA:          -7.465
REMARK INTER:                  -7.465
REMARK INTRA:                   0.000
REMARK UNBOUND:                 0.000
REMARK SMILES Cc1cc(O)c2c(c1)C(=O)c1cc(O)cc(O)c1C2=O
REMARK SMILES IDX 1 1 2 2 8 3 7 4 6 5 4 6 3 7 19 8 20 9 18 10 11 11 9 12 10 13
REMARK SMILES IDX 12 14 13 15 15 16 16 17 5 18 17 20 14 22
REMARK H PARENT 5 19 17 21 14 23
REMARK Flexibility Score: inf
ROOT
ATOM      1  C   UNL     1     109.916 118.425 123.997  1.00  0.00     0.044 C 
ATOM      2  C   UNL     1     108.907 119.153 123.159  1.00  0.00    -0.047 A 
ATOM      3  C   UNL     1     109.320 119.911 122.058  1.00  0.00     0.016 A 
ATOM      4  C   UNL     1     108.380 120.560 121.241  1.00  0.00     0.038 A 
ATOM      5  C   UNL     1     107.000 120.426 121.514  1.00  0.00     0.076 A 
ATOM      6  C   UNL     1     106.588 119.695 122.658  1.00  0.00     0.127 A 
ATOM      7  C   UNL     1     107.542 119.041 123.445  1.00  0.00     0.050 A 
ATOM      8  C   UNL     1     106.034 121.003 120.544  1.00  0.00     0.201 C 
ATOM      9  O   UNL     1     104.901 120.470 120.393  1.00  0.00    -0.288 OA
ATOM     10  C   UNL     1     106.468 122.085 119.622  1.00  0.00     0.076 A 
ATOM     11  C   UNL     1     107.850 122.215 119.352  1.00  0.00     0.041 A 
ATOM     12  C   UNL     1     108.829 121.387 120.095  1.00  0.00     0.194 C 
ATOM     13  O   UNL     1     110.048 121.406 119.770  1.00  0.00    -0.289 OA
ATOM     14  C   UNL     1     108.289 123.132 118.383  1.00  0.00     0.059 A 
ATOM     15  C   UNL     1     107.374 123.929 117.695  1.00  0.00     0.120 A 
ATOM     16  C   UNL     1     106.012 123.833 117.987  1.00  0.00     0.093 A 
ATOM     17  C   UNL     1     105.551 122.942 118.962  1.00  0.00     0.131 A 
ENDROOT
BRANCH   6  18
ATOM     18  O   UNL     1     105.255 119.617 123.066  1.00  0.00    -0.507 OA
ATOM     19  H   UNL     1     104.856 118.808 123.521  1.00  0.00     0.293 HD
ENDBRANCH   6  18
BRANCH  17  20
ATOM     20  O   UNL     1     104.187 122.966 119.264  1.00  0.00    -0.507 OA
ATOM     21  H   UNL     1     103.464 123.110 118.573  1.00  0.00     0.293 HD
ENDBRANCH  17  20
BRANCH  15  22
ATOM     22  O   UNL     1     107.832 124.823 116.728  1.00  0.00    -0.508 OA
ATOM     23  H   UNL     1     107.282 125.626 116.447  1.00  0.00     0.293 HD
ENDBRANCH  15  22
TORSDOF 3
ENDMDL
MODEL 3
REMARK VINA RESULT:    -6.713      1.554      6.220
REMARK INTER + INTRA:          -7.301
REMARK INTER:                  -7.301
REMARK INTRA:                   0.000
REMARK UNBOUND:                 0.000
REMARK SMILES Cc1cc(O)c2c(c1)C(=O)c1cc(O)cc(O)c1C2=O
REMARK SMILES IDX 1 1 2 2 8 3 7 4 6 5 4 6 3 7 19 8 20 9 18 10 11 11 9 12 10 13
REMARK SMILES IDX 12 14 13 15 15 16 16 17 5 18 17 20 14 22
REMARK H PARENT 5 19 17 21 14 23
REMARK Flexibility Score: inf
ROOT
ATOM      1  C   UNL     1     103.613 124.065 117.636  1.00  0.00     0.044 C 
ATOM      2  C   UNL     1     104.943 123.601 118.154  1.00  0.00    -0.047 A 
ATOM      3  C   UNL     1     105.011 122.572 119.100  1.00  0.00     0.016 A 
ATOM      4  C   UNL     1     106.252 122.100 119.558  1.00  0.00     0.038 A 
ATOM      5  C   UNL     1     107.448 122.648 119.040  1.00  0.00     0.076 A 
ATOM      6  C   UNL     1     107.373 123.722 118.115  1.00  0.00     0.127 A 
ATOM      7  C   UNL     1     106.126 124.161 117.659  1.00  0.00     0.050 A 
ATOM      8  C   UNL     1     108.736 122.023 119.437  1.00  0.00     0.201 C 
ATOM      9  O   UNL     1     109.714 122.044 118.643  1.00  0.00    -0.288 OA
ATOM     10  C   UNL     1     108.812 121.214 120.681  1.00  0.00     0.076 A 
ATOM     11  C   UNL     1     107.614 120.669 121.196  1.00  0.00     0.041 A 
ATOM     12  C   UNL     1     106.314 121.032 120.584  1.00  0.00     0.194 C 
ATOM     13  O   UNL     1     105.257 120.451 120.955  1.00  0.00    -0.289 OA
ATOM     14  C   UNL     1     107.661 119.787 122.289  1.00  0.00     0.059 A 
ATOM     15  C   UNL     1     108.879 119.457 122.882  1.00  0.00     0.120 A 
ATOM     16  C   UNL     1     110.061 120.026 122.403  1.00  0.00     0.093 A 
ATOM     17  C   UNL     1     110.040 120.922 121.330  1.00  0.00     0.131 A 
ENDROOT
BRANCH   6  18
ATOM     18  O   UNL     1     108.502 124.398 117.650  1.00  0.00    -0.507 OA
ATOM     19  H   UNL     1     108.858 125.247 118.068  1.00  0.00     0.293 HD
ENDBRANCH   6  18
BRANCH  17  20
ATOM     20  O   UNL     1     111.249 121.520 120.964  1.00  0.00    -0.507 OA
ATOM     21  H   UNL     1     112.012 121.017 120.535  1.00  0.00     0.293 HD
ENDBRANCH  17  20
BRANCH  15  22
ATOM     22  O   UNL     1     108.902 118.570 123.957  1.00  0.00    -0.508 OA
ATOM     23  H   UNL     1     109.289 117.638 123.866  1.00  0.00     0.293 HD
ENDBRANCH  15  22
TORSDOF 3
ENDMDL
MODEL 4
REMARK VINA RESULT:    -6.497      1.621      5.511
REMARK INTER + INTRA:          -7.067
REMARK INTER:                  -7.067
REMARK INTRA:                   0.000
REMARK UNBOUND:                 0.000
REMARK SMILES Cc1cc(O)c2c(c1)C(=O)c1cc(O)cc(O)c1C2=O
REMARK SMILES IDX 1 1 2 2 8 3 7 4 6 5 4 6 3 7 19 8 20 9 18 10 11 11 9 12 10 13
REMARK SMILES IDX 12 14 13 15 15 16 16 17 5 18 17 20 14 22
REMARK H PARENT 5 19 17 21 14 23
REMARK Flexibility Score: inf
ROOT
ATOM      1  C   UNL     1     103.695 123.249 117.307  1.00  0.00     0.044 C 
ATOM      2  C   UNL     1     104.503 122.591 118.386  1.00  0.00    -0.047 A 
ATOM      3  C   UNL     1     105.899 122.678 118.374  1.00  0.00     0.016 A 
ATOM      4  C   UNL     1     106.663 122.103 119.404  1.00  0.00     0.038 A 
ATOM      5  C   UNL     1     106.017 121.452 120.479  1.00  0.00     0.076 A 
ATOM      6  C   UNL     1     104.603 121.326 120.463  1.00  0.00     0.127 A 
ATOM      7  C   UNL     1     103.864 121.924 119.438  1.00  0.00     0.050 A 
ATOM      8  C   UNL     1     106.848 120.987 121.620  1.00  0.00     0.201 C 
ATOM      9  O   UNL     1     106.355 120.945 122.779  1.00  0.00    -0.288 OA
ATOM     10  C   UNL     1     108.303 120.756 121.428  1.00  0.00     0.076 A 
ATOM     11  C   UNL     1     108.945 121.410 120.351  1.00  0.00     0.041 A 
ATOM     12  C   UNL     1     108.143 122.173 119.366  1.00  0.00     0.194 C 
ATOM     13  O   UNL     1     108.721 122.861 118.480  1.00  0.00    -0.289 OA
ATOM     14  C   UNL     1     110.342 121.328 120.217  1.00  0.00     0.059 A 
ATOM     15  C   UNL     1     111.099 120.594 121.129  1.00  0.00     0.120 A 
ATOM     16  C   UNL     1     110.465 119.913 122.171  1.00  0.00     0.093 A 
ATOM     17  C   UNL     1     109.075 119.962 122.314  1.00  0.00     0.131 A 
ENDROOT
BRANCH   6  18
ATOM     18  O   UNL     1     103.899 120.594 121.421  1.00  0.00    -0.507 OA
ATOM     19  H   UNL     1     104.204 119.698 121.775  1.00  0.00     0.293 HD
ENDBRANCH   6  18
BRANCH  17  20
ATOM     20  O   UNL     1     108.503 119.184 123.324  1.00  0.00    -0.507 OA
ATOM     21  H   UNL     1     109.043 118.647 123.989  1.00  0.00     0.293 HD
ENDBRANCH  17  20
BRANCH  15  22
ATOM     22  O   UNL     1     112.484 120.538 120.983  1.00  0.00    -0.508 OA
ATOM     23  H   UNL     1     112.982 121.195 120.395  1.00  0.00     0.293 HD
ENDBRANCH  15  22
TORSDOF 3
ENDMDL
MODEL 5
REMARK VINA RESULT:    -6.494      2.822      3.575
REMARK INTER + INTRA:          -7.063
REMARK INTER:                  -7.063
REMARK INTRA:                   0.000
REMARK UNBOUND:                 0.000
REMARK SMILES Cc1cc(O)c2c(c1)C(=O)c1cc(O)cc(O)c1C2=O
REMARK SMILES IDX 1 1 2 2 8 3 7 4 6 5 4 6 3 7 19 8 20 9 18 10 11 11 9 12 10 13
REMARK SMILES IDX 12 14 13 15 15 16 16 17 5 18 17 20 14 22
REMARK H PARENT 5 19 17 21 14 23
REMARK Flexibility Score: inf
ROOT
ATOM      1  C   UNL     1     112.731 120.226 120.998  1.00  0.00     0.044 C 
ATOM      2  C   UNL     1     111.255 120.144 120.746  1.00  0.00    -0.047 A 
ATOM      3  C   UNL     1     110.356 120.788 121.604  1.00  0.00     0.016 A 
ATOM      4  C   UNL     1     108.974 120.755 121.351  1.00  0.00     0.038 A 
ATOM      5  C   UNL     1     108.485 120.089 120.205  1.00  0.00     0.076 A 
ATOM      6  C   UNL     1     109.396 119.399 119.363  1.00  0.00     0.127 A 
ATOM      7  C   UNL     1     110.768 119.464 119.624  1.00  0.00     0.050 A 
ATOM      8  C   UNL     1     107.037 120.201 119.893  1.00  0.00     0.201 C 
ATOM      9  O   UNL     1     106.647 120.158 118.695  1.00  0.00    -0.288 OA
ATOM     10  C   UNL     1     106.074 120.552 120.970  1.00  0.00     0.076 A 
ATOM     11  C   UNL     1     106.568 121.218 122.115  1.00  0.00     0.041 A 
ATOM     12  C   UNL     1     108.028 121.412 122.284  1.00  0.00     0.194 C 
ATOM     13  O   UNL     1     108.465 122.116 123.236  1.00  0.00    -0.289 OA
ATOM     14  C   UNL     1     105.673 121.689 123.090  1.00  0.00     0.059 A 
ATOM     15  C   UNL     1     104.300 121.491 122.946  1.00  0.00     0.120 A 
ATOM     16  C   UNL     1     103.810 120.798 121.837  1.00  0.00     0.093 A 
ATOM     17  C   UNL     1     104.682 120.302 120.863  1.00  0.00     0.131 A 
ENDROOT
BRANCH   6  18
ATOM     18  O   UNL     1     108.982 118.617 118.283  1.00  0.00    -0.507 OA
ATOM     19  H   UNL     1     108.168 118.019 118.305  1.00  0.00     0.293 HD
ENDBRANCH   6  18
BRANCH  17  20
ATOM     20  O   UNL     1     104.128 119.541 119.829  1.00  0.00    -0.507 OA
ATOM     21  H   UNL     1     104.163 119.811 118.857  1.00  0.00     0.293 HD
ENDBRANCH  17  20
BRANCH  15  22
ATOM     22  O   UNL     1     103.430 121.979 123.920  1.00  0.00    -0.508 OA
ATOM     23  H   UNL     1     103.738 122.143 124.871  1.00  0.00     0.293 HD
ENDBRANCH  15  22
TORSDOF 3
ENDMDL
MODEL 6
REMARK VINA RESULT:    -6.358      1.854      4.355
REMARK INTER + INTRA:          -6.916
REMARK INTER:                  -6.916
REMARK INTRA:                   0.000
REMARK UNBOUND:                 0.000
REMARK SMILES Cc1cc(O)c2c(c1)C(=O)c1cc(O)cc(O)c1C2=O
REMARK SMILES IDX 1 1 2 2 8 3 7 4 6 5 4 6 3 7 19 8 20 9 18 10 11 11 9 12 10 13
REMARK SMILES IDX 12 14 13 15 15 16 16 17 5 18 17 20 14 22
REMARK H PARENT 5 19 17 21 14 23
REMARK Flexibility Score: inf
ROOT
ATOM      1  C   UNL     1     108.992 120.302 119.805  1.00  0.00     0.044 C 
ATOM      2  C   UNL     1     108.024 121.351 119.344  1.00  0.00    -0.047 A 
ATOM      3  C   UNL     1     106.655 121.206 119.595  1.00  0.00     0.016 A 
ATOM      4  C   UNL     1     105.745 122.203 119.206  1.00  0.00     0.038 A 
ATOM      5  C   UNL     1     106.217 123.379 118.580  1.00  0.00     0.076 A 
ATOM      6  C   UNL     1     107.600 123.501 118.287  1.00  0.00     0.127 A 
ATOM      7  C   UNL     1     108.488 122.504 118.702  1.00  0.00     0.050 A 
ATOM      8  C   UNL     1     105.245 124.472 118.319  1.00  0.00     0.201 C 
ATOM      9  O   UNL     1     105.634 125.672 118.320  1.00  0.00    -0.288 OA
ATOM     10  C   UNL     1     103.792 124.168 118.246  1.00  0.00     0.076 A 
ATOM     11  C   UNL     1     103.326 122.991 118.873  1.00  0.00     0.041 A 
ATOM     12  C   UNL     1     104.293 122.026 119.447  1.00  0.00     0.194 C 
ATOM     13  O   UNL     1     103.880 121.041 120.119  1.00  0.00    -0.289 OA
ATOM     14  C   UNL     1     101.945 122.738 118.946  1.00  0.00     0.059 A 
ATOM     15  C   UNL     1     101.031 123.631 118.389  1.00  0.00     0.120 A 
ATOM     16  C   UNL     1     101.489 124.775 117.732  1.00  0.00     0.093 A 
ATOM     17  C   UNL     1     102.858 125.040 117.629  1.00  0.00     0.131 A 
ENDROOT
BRANCH   6  18
ATOM     18  O   UNL     1     108.127 124.572 117.564  1.00  0.00    -0.507 OA
ATOM     19  H   UNL     1     107.791 125.522 117.645  1.00  0.00     0.293 HD
ENDBRANCH   6  18
BRANCH  17  20
ATOM     20  O   UNL     1     103.245 126.155 116.880  1.00  0.00    -0.507 OA
ATOM     21  H   UNL     1     104.208 126.423 116.736  1.00  0.00     0.293 HD
ENDBRANCH  17  20
BRANCH  15  22
ATOM     22  O   UNL     1      99.666 123.365 118.485  1.00  0.00    -0.508 OA
ATOM     23  H   UNL     1      99.064 123.384 117.670  1.00  0.00     0.293 HD
ENDBRANCH  15  22
TORSDOF 3
ENDMDL
MODEL 7
REMARK VINA RESULT:    -6.229      1.374      5.537
REMARK INTER + INTRA:          -6.775
REMARK INTER:                  -6.775
REMARK INTRA:                   0.000
REMARK UNBOUND:                 0.000
REMARK SMILES Cc1cc(O)c2c(c1)C(=O)c1cc(O)cc(O)c1C2=O
REMARK SMILES IDX 1 1 2 2 8 3 7 4 6 5 4 6 3 7 19 8 20 9 18 10 11 11 9 12 10 13
REMARK SMILES IDX 12 14 13 15 15 16 16 17 5 18 17 20 14 22
REMARK H PARENT 5 19 17 21 14 23
REMARK Flexibility Score: inf
ROOT
ATOM      1  C   UNL     1     102.859 125.050 117.430  1.00  0.00     0.044 C 
ATOM      2  C   UNL     1     103.587 124.164 118.397  1.00  0.00    -0.047 A 
ATOM      3  C   UNL     1     104.949 123.899 118.221  1.00  0.00     0.016 A 
ATOM      4  C   UNL     1     105.651 123.106 119.146  1.00  0.00     0.038 A 
ATOM      5  C   UNL     1     104.983 122.593 120.281  1.00  0.00     0.076 A 
ATOM      6  C   UNL     1     103.592 122.827 120.430  1.00  0.00     0.127 A 
ATOM      7  C   UNL     1     102.920 123.635 119.508  1.00  0.00     0.050 A 
ATOM      8  C   UNL     1     105.790 121.886 121.309  1.00  0.00     0.201 C 
ATOM      9  O   UNL     1     105.434 121.919 122.518  1.00  0.00    -0.288 OA
ATOM     10  C   UNL     1     107.108 121.306 120.944  1.00  0.00     0.076 A 
ATOM     11  C   UNL     1     107.772 121.823 119.807  1.00  0.00     0.041 A 
ATOM     12  C   UNL     1     107.087 122.804 118.935  1.00  0.00     0.194 C 
ATOM     13  O   UNL     1     107.718 123.363 117.996  1.00  0.00    -0.289 OA
ATOM     14  C   UNL     1     109.078 121.399 119.508  1.00  0.00     0.059 A 
ATOM     15  C   UNL     1     109.720 120.460 120.314  1.00  0.00     0.120 A 
ATOM     16  C   UNL     1     109.054 119.916 121.414  1.00  0.00     0.093 A 
ATOM     17  C   UNL     1     107.746 120.306 121.722  1.00  0.00     0.131 A 
ENDROOT
BRANCH   6  18
ATOM     18  O   UNL     1     102.835 122.255 121.455  1.00  0.00    -0.507 OA
ATOM     19  H   UNL     1     103.022 122.402 122.437  1.00  0.00     0.293 HD
ENDBRANCH   6  18
BRANCH  17  20
ATOM     20  O   UNL     1     107.111 119.653 122.782  1.00  0.00    -0.507 OA
ATOM     21  H   UNL     1     107.245 119.903 123.752  1.00  0.00     0.293 HD
ENDBRANCH  17  20
BRANCH  15  22
ATOM     22  O   UNL     1     111.021 120.064 120.005  1.00  0.00    -0.508 OA
ATOM     23  H   UNL     1     111.263 119.088 119.883  1.00  0.00     0.293 HD
ENDBRANCH  15  22
TORSDOF 3
ENDMDL
MODEL 8
REMARK VINA RESULT:    -6.112      2.148      4.460
REMARK INTER + INTRA:          -6.648
REMARK INTER:                  -6.648
REMARK INTRA:                   0.000
REMARK UNBOUND:                 0.000
REMARK SMILES Cc1cc(O)c2c(c1)C(=O)c1cc(O)cc(O)c1C2=O
REMARK SMILES IDX 1 1 2 2 8 3 7 4 6 5 4 6 3 7 19 8 20 9 18 10 11 11 9 12 10 13
REMARK SMILES IDX 12 14 13 15 15 16 16 17 5 18 17 20 14 22
REMARK H PARENT 5 19 17 21 14 23
REMARK Flexibility Score: inf
ROOT
ATOM      1  C   UNL     1     112.038 120.534 120.988  1.00  0.00     0.044 C 
ATOM      2  C   UNL     1     110.548 120.680 120.885  1.00  0.00    -0.047 A 
ATOM      3  C   UNL     1     109.712 120.043 121.808  1.00  0.00     0.016 A 
ATOM      4  C   UNL     1     108.318 120.209 121.746  1.00  0.00     0.038 A 
ATOM      5  C   UNL     1     107.753 121.049 120.761  1.00  0.00     0.076 A 
ATOM      6  C   UNL     1     108.601 121.657 119.799  1.00  0.00     0.127 A 
ATOM      7  C   UNL     1     109.987 121.493 119.893  1.00  0.00     0.050 A 
ATOM      8  C   UNL     1     106.292 121.316 120.820  1.00  0.00     0.201 C 
ATOM      9  O   UNL     1     105.838 122.415 120.402  1.00  0.00    -0.288 OA
ATOM     10  C   UNL     1     105.398 120.374 121.541  1.00  0.00     0.076 A 
ATOM     11  C   UNL     1     105.968 119.535 122.526  1.00  0.00     0.041 A 
ATOM     12  C   UNL     1     107.438 119.504 122.709  1.00  0.00     0.194 C 
ATOM     13  O   UNL     1     107.942 118.856 123.668  1.00  0.00    -0.289 OA
ATOM     14  C   UNL     1     105.137 118.730 123.324  1.00  0.00     0.059 A 
ATOM     15  C   UNL     1     103.755 118.739 123.143  1.00  0.00     0.120 A 
ATOM     16  C   UNL     1     103.190 119.536 122.144  1.00  0.00     0.093 A 
ATOM     17  C   UNL     1     103.996 120.330 121.323  1.00  0.00     0.131 A 
ENDROOT
BRANCH   6  18
ATOM     18  O   UNL     1     108.113 122.400 118.723  1.00  0.00    -0.507 OA
ATOM     19  H   UNL     1     107.491 123.190 118.826  1.00  0.00     0.293 HD
ENDBRANCH   6  18
BRANCH  17  20
ATOM     20  O   UNL     1     103.371 121.030 120.287  1.00  0.00    -0.507 OA
ATOM     21  H   UNL     1     102.449 120.807 119.941  1.00  0.00     0.293 HD
ENDBRANCH  17  20
BRANCH  15  22
ATOM     22  O   UNL     1     102.950 117.943 123.955  1.00  0.00    -0.508 OA
ATOM     23  H   UNL     1     102.794 116.963 123.749  1.00  0.00     0.293 HD
ENDBRANCH  15  22
TORSDOF 3
ENDMDL
MODEL 9
REMARK VINA RESULT:    -5.907      2.279      5.914
REMARK INTER + INTRA:          -6.425
REMARK INTER:                  -6.425
REMARK INTRA:                   0.000
REMARK UNBOUND:                 0.000
REMARK SMILES Cc1cc(O)c2c(c1)C(=O)c1cc(O)cc(O)c1C2=O
REMARK SMILES IDX 1 1 2 2 8 3 7 4 6 5 4 6 3 7 19 8 20 9 18 10 11 11 9 12 10 13
REMARK SMILES IDX 12 14 13 15 15 16 16 17 5 18 17 20 14 22
REMARK H PARENT 5 19 17 21 14 23
REMARK Flexibility Score: inf
ROOT
ATOM      1  C   UNL     1     102.946 120.932 124.842  1.00  0.00     0.044 C 
ATOM      2  C   UNL     1     103.923 121.210 123.738  1.00  0.00    -0.047 A 
ATOM      3  C   UNL     1     105.138 120.519 123.681  1.00  0.00     0.016 A 
ATOM      4  C   UNL     1     106.040 120.740 122.627  1.00  0.00     0.038 A 
ATOM      5  C   UNL     1     105.708 121.647 121.595  1.00  0.00     0.076 A 
ATOM      6  C   UNL     1     104.495 122.379 121.681  1.00  0.00     0.127 A 
ATOM      7  C   UNL     1     103.604 122.127 122.730  1.00  0.00     0.050 A 
ATOM      8  C   UNL     1     106.618 121.743 120.425  1.00  0.00     0.201 C 
ATOM      9  O   UNL     1     106.153 122.040 119.291  1.00  0.00    -0.288 OA
ATOM     10  C   UNL     1     108.032 121.306 120.551  1.00  0.00     0.076 A 
ATOM     11  C   UNL     1     108.360 120.399 121.584  1.00  0.00     0.041 A 
ATOM     12  C   UNL     1     107.340 120.027 122.592  1.00  0.00     0.194 C 
ATOM     13  O   UNL     1     107.587 119.124 123.438  1.00  0.00    -0.289 OA
ATOM     14  C   UNL     1     109.655 119.856 121.652  1.00  0.00     0.059 A 
ATOM     15  C   UNL     1     110.625 120.217 120.719  1.00  0.00     0.120 A 
ATOM     16  C   UNL     1     110.318 121.145 119.721  1.00  0.00     0.093 A 
ATOM     17  C   UNL     1     109.043 121.715 119.643  1.00  0.00     0.131 A 
ENDROOT
BRANCH   6  18
ATOM     18  O   UNL     1     104.150 123.380 120.771  1.00  0.00    -0.507 OA
ATOM     19  H   UNL     1     103.203 123.555 120.464  1.00  0.00     0.293 HD
ENDBRANCH   6  18
BRANCH  17  20
ATOM     20  O   UNL     1     108.836 122.702 118.675  1.00  0.00    -0.507 OA
ATOM     21  H   UNL     1     109.141 122.616 117.716  1.00  0.00     0.293 HD
ENDBRANCH  17  20
BRANCH  15  22
ATOM     22  O   UNL     1     111.898 119.656 120.799  1.00  0.00    -0.508 OA
ATOM     23  H   UNL     1     112.130 118.797 120.314  1.00  0.00     0.293 HD
ENDBRANCH  15  22
TORSDOF 3
ENDMDL
