MODEL 1
REMARK VINA RESULT:    -3.234      0.000      0.000
REMARK INTER + INTRA:          -4.163
REMARK INTER:                  -3.990
REMARK INTRA:                  -0.173
REMARK UNBOUND:                -0.173
REMARK SMILES C=CC[C@@H](C)C(=O)CC
REMARK SMILES IDX 4 1 5 2 6 3 7 4 8 5 9 6 3 7 2 8 1 9
REMARK H PARENT
REMARK Flexibility Score: inf
ROOT
ATOM      1  C   UNL     1       0.365 -20.438 -18.994  1.00  0.00     0.057 C 
ATOM      2  C   UNL     1       0.884 -21.873 -19.142  1.00  0.00     0.016 C 
ENDROOT
BRANCH   1   3
ATOM      3  C   UNL     1       1.404 -19.458 -19.504  1.00  0.00     0.135 C 
ATOM      4  O   UNL     1       1.046 -18.461 -20.117  1.00  0.00    -0.299 OA
BRANCH   3   5
ATOM      5  C   UNL     1       2.875 -19.698 -19.287  1.00  0.00     0.072 C 
ATOM      6  C   UNL     1       3.293 -19.290 -17.878  1.00  0.00     0.012 C 
ENDBRANCH   3   5
ENDBRANCH   1   3
BRANCH   1   7
ATOM      7  C   UNL     1      -0.976 -20.270 -19.737  1.00  0.00     0.038 C 
BRANCH   7   8
ATOM      8  C   UNL     1      -2.111 -20.961 -19.027  1.00  0.00    -0.034 C 
ATOM      9  C   UNL     1      -3.114 -20.277 -18.471  1.00  0.00     0.004 C 
ENDBRANCH   7   8
ENDBRANCH   1   7
TORSDOF 4
ENDMDL
MODEL 2
REMARK VINA RESULT:    -3.226      1.511      4.439
REMARK INTER + INTRA:          -4.154
REMARK INTER:                  -3.966
REMARK INTRA:                  -0.187
REMARK UNBOUND:                -0.173
REMARK SMILES C=CC[C@@H](C)C(=O)CC
REMARK SMILES IDX 4 1 5 2 6 3 7 4 8 5 9 6 3 7 2 8 1 9
REMARK H PARENT
REMARK Flexibility Score: inf
ROOT
ATOM      1  C   UNL     1       1.026 -19.914 -19.149  1.00  0.00     0.057 C 
ATOM      2  C   UNL     1       0.810 -18.750 -20.124  1.00  0.00     0.016 C 
ENDROOT
BRANCH   1   3
ATOM      3  C   UNL     1      -0.148 -20.871 -19.220  1.00  0.00     0.135 C 
ATOM      4  O   UNL     1      -0.031 -22.007 -18.779  1.00  0.00    -0.299 OA
BRANCH   3   5
ATOM      5  C   UNL     1      -1.456 -20.457 -19.842  1.00  0.00     0.072 C 
ATOM      6  C   UNL     1      -2.592 -20.535 -18.828  1.00  0.00     0.012 C 
ENDBRANCH   3   5
ENDBRANCH   1   3
BRANCH   1   7
ATOM      7  C   UNL     1       2.355 -20.635 -19.455  1.00  0.00     0.038 C 
BRANCH   7   8
ATOM      8  C   UNL     1       3.538 -19.931 -18.843  1.00  0.00    -0.034 C 
ATOM      9  C   UNL     1       3.462 -19.330 -17.652  1.00  0.00     0.004 C 
ENDBRANCH   7   8
ENDBRANCH   1   7
TORSDOF 4
ENDMDL
MODEL 3
REMARK VINA RESULT:    -3.147      1.958      4.391
REMARK INTER + INTRA:          -4.056
REMARK INTER:                  -3.860
REMARK INTRA:                  -0.196
REMARK UNBOUND:                -0.173
REMARK SMILES C=CC[C@@H](C)C(=O)CC
REMARK SMILES IDX 4 1 5 2 6 3 7 4 8 5 9 6 3 7 2 8 1 9
REMARK H PARENT
REMARK Flexibility Score: inf
ROOT
ATOM      1  C   UNL     1      -0.149 -21.213 -19.315  1.00  0.00     0.057 C 
ATOM      2  C   UNL     1       0.712 -21.962 -18.292  1.00  0.00     0.016 C 
ENDROOT
BRANCH   1   3
ATOM      3  C   UNL     1      -1.606 -21.262 -18.898  1.00  0.00     0.135 C 
ATOM      4  O   UNL     1      -1.951 -22.002 -17.986  1.00  0.00    -0.299 OA
BRANCH   3   5
ATOM      5  C   UNL     1      -2.646 -20.427 -19.599  1.00  0.00     0.072 C 
ATOM      6  C   UNL     1      -3.744 -19.996 -18.633  1.00  0.00     0.012 C 
ENDBRANCH   3   5
ENDBRANCH   1   3
BRANCH   1   7
ATOM      7  C   UNL     1       0.339 -19.758 -19.471  1.00  0.00     0.038 C 
BRANCH   7   8
ATOM      8  C   UNL     1       1.752 -19.576 -18.979  1.00  0.00    -0.034 C 
ATOM      9  C   UNL     1       2.249 -18.369 -18.696  1.00  0.00     0.004 C 
ENDBRANCH   7   8
ENDBRANCH   1   7
TORSDOF 4
ENDMDL
MODEL 4
REMARK VINA RESULT:    -3.141     13.637     14.628
REMARK INTER + INTRA:          -4.048
REMARK INTER:                  -3.853
REMARK INTRA:                  -0.196
REMARK UNBOUND:                -0.173
REMARK SMILES C=CC[C@@H](C)C(=O)CC
REMARK SMILES IDX 4 1 5 2 6 3 7 4 8 5 9 6 3 7 2 8 1 9
REMARK H PARENT
REMARK Flexibility Score: inf
ROOT
ATOM      1  C   UNL     1      10.470  -9.467 -19.208  1.00  0.00     0.057 C 
ATOM      2  C   UNL     1      10.378 -10.694 -20.122  1.00  0.00     0.016 C 
ENDROOT
BRANCH   1   3
ATOM      3  C   UNL     1       9.116  -8.792 -19.112  1.00  0.00     0.135 C 
ATOM      4  O   UNL     1       8.101  -9.473 -19.056  1.00  0.00    -0.299 OA
BRANCH   3   5
ATOM      5  C   UNL     1       8.993  -7.290 -19.103  1.00  0.00     0.072 C 
ATOM      6  C   UNL     1      10.361  -6.628 -19.221  1.00  0.00     0.012 C 
ENDBRANCH   3   5
ENDBRANCH   1   3
BRANCH   1   7
ATOM      7  C   UNL     1      10.994  -9.870 -17.814  1.00  0.00     0.038 C 
BRANCH   7   8
ATOM      8  C   UNL     1      10.438 -11.194 -17.358  1.00  0.00    -0.034 C 
ATOM      9  C   UNL     1      10.569 -11.616 -16.097  1.00  0.00     0.004 C 
ENDBRANCH   7   8
ENDBRANCH   1   7
TORSDOF 4
ENDMDL
MODEL 5
REMARK VINA RESULT:    -3.116     21.182     22.534
REMARK INTER + INTRA:          -4.018
REMARK INTER:                  -3.547
REMARK INTRA:                  -0.471
REMARK UNBOUND:                -0.173
REMARK SMILES C=CC[C@@H](C)C(=O)CC
REMARK SMILES IDX 4 1 5 2 6 3 7 4 8 5 9 6 3 7 2 8 1 9
REMARK H PARENT
REMARK Flexibility Score: inf
ROOT
ATOM      1  C   UNL     1      -8.407  -4.880  -4.100  1.00  0.00     0.057 C 
ATOM      2  C   UNL     1      -7.153  -4.973  -3.222  1.00  0.00     0.016 C 
ENDROOT
BRANCH   1   3
ATOM      3  C   UNL     1      -8.344  -3.632  -4.959  1.00  0.00     0.135 C 
ATOM      4  O   UNL     1      -7.792  -2.628  -4.531  1.00  0.00    -0.299 OA
BRANCH   3   5
ATOM      5  C   UNL     1      -8.969  -3.598  -6.330  1.00  0.00     0.072 C 
ATOM      6  C   UNL     1      -7.982  -3.071  -7.367  1.00  0.00     0.012 C 
ENDBRANCH   3   5
ENDBRANCH   1   3
BRANCH   1   7
ATOM      7  C   UNL     1      -8.555  -6.148  -4.965  1.00  0.00     0.038 C 
BRANCH   7   8
ATOM      8  C   UNL     1      -7.221  -6.738  -5.344  1.00  0.00    -0.034 C 
ATOM      9  C   UNL     1      -6.778  -6.726  -6.604  1.00  0.00     0.004 C 
ENDBRANCH   7   8
ENDBRANCH   1   7
TORSDOF 4
ENDMDL
MODEL 6
REMARK VINA RESULT:    -3.072     20.732     22.076
REMARK INTER + INTRA:          -3.964
REMARK INTER:                  -3.594
REMARK INTRA:                  -0.370
REMARK UNBOUND:                -0.173
REMARK SMILES C=CC[C@@H](C)C(=O)CC
REMARK SMILES IDX 4 1 5 2 6 3 7 4 8 5 9 6 3 7 2 8 1 9
REMARK H PARENT
REMARK Flexibility Score: inf
ROOT
ATOM      1  C   UNL     1      -8.497  -6.593  -5.704  1.00  0.00     0.057 C 
ATOM      2  C   UNL     1      -7.024  -6.747  -6.099  1.00  0.00     0.016 C 
ENDROOT
BRANCH   1   3
ATOM      3  C   UNL     1      -8.622  -6.529  -4.194  1.00  0.00     0.135 C 
ATOM      4  O   UNL     1      -8.845  -7.553  -3.560  1.00  0.00    -0.299 OA
BRANCH   3   5
ATOM      5  C   UNL     1      -8.497  -5.222  -3.455  1.00  0.00     0.072 C 
ATOM      6  C   UNL     1      -7.060  -4.986  -3.002  1.00  0.00     0.012 C 
ENDBRANCH   3   5
ENDBRANCH   1   3
BRANCH   1   7
ATOM      7  C   UNL     1      -9.107  -5.342  -6.368  1.00  0.00     0.038 C 
BRANCH   7   8
ATOM      8  C   UNL     1      -8.071  -4.519  -7.090  1.00  0.00    -0.034 C 
ATOM      9  C   UNL     1      -8.130  -3.185  -7.123  1.00  0.00     0.004 C 
ENDBRANCH   7   8
ENDBRANCH   1   7
TORSDOF 4
ENDMDL
MODEL 7
REMARK VINA RESULT:    -2.940     21.449     22.766
REMARK INTER + INTRA:          -3.800
REMARK INTER:                  -3.541
REMARK INTRA:                  -0.259
REMARK UNBOUND:                -0.173
REMARK SMILES C=CC[C@@H](C)C(=O)CC
REMARK SMILES IDX 4 1 5 2 6 3 7 4 8 5 9 6 3 7 2 8 1 9
REMARK H PARENT
REMARK Flexibility Score: inf
ROOT
ATOM      1  C   UNL     1      -7.633  -5.483  -4.658  1.00  0.00     0.057 C 
ATOM      2  C   UNL     1      -7.365  -6.766  -5.454  1.00  0.00     0.016 C 
ENDROOT
BRANCH   1   3
ATOM      3  C   UNL     1      -8.411  -4.499  -5.510  1.00  0.00     0.135 C 
ATOM      4  O   UNL     1      -9.125  -3.664  -4.972  1.00  0.00    -0.299 OA
BRANCH   3   5
ATOM      5  C   UNL     1      -8.337  -4.541  -7.014  1.00  0.00     0.072 C 
ATOM      6  C   UNL     1      -8.121  -3.146  -7.590  1.00  0.00     0.012 C 
ENDBRANCH   3   5
ENDBRANCH   1   3
BRANCH   1   7
ATOM      7  C   UNL     1      -8.384  -5.806  -3.350  1.00  0.00     0.038 C 
BRANCH   7   8
ATOM      8  C   UNL     1      -7.677  -5.258  -2.138  1.00  0.00    -0.034 C 
ATOM      9  C   UNL     1      -6.535  -4.573  -2.239  1.00  0.00     0.004 C 
ENDBRANCH   7   8
ENDBRANCH   1   7
TORSDOF 4
ENDMDL
MODEL 8
REMARK VINA RESULT:    -2.926     22.072     23.423
REMARK INTER + INTRA:          -3.783
REMARK INTER:                  -3.499
REMARK INTRA:                  -0.284
REMARK UNBOUND:                -0.173
REMARK SMILES C=CC[C@@H](C)C(=O)CC
REMARK SMILES IDX 4 1 5 2 6 3 7 4 8 5 9 6 3 7 2 8 1 9
REMARK H PARENT
REMARK Flexibility Score: inf
ROOT
ATOM      1  C   UNL     1      -7.453  -5.434  -3.278  1.00  0.00     0.057 C 
ATOM      2  C   UNL     1      -6.560  -4.453  -2.511  1.00  0.00     0.016 C 
ENDROOT
BRANCH   1   3
ATOM      3  C   UNL     1      -8.550  -5.954  -2.370  1.00  0.00     0.135 C 
ATOM      4  O   UNL     1      -9.103  -7.013  -2.632  1.00  0.00    -0.299 OA
BRANCH   3   5
ATOM      5  C   UNL     1      -8.988  -5.179  -1.154  1.00  0.00     0.072 C 
ATOM      6  C   UNL     1      -8.733  -5.974   0.122  1.00  0.00     0.012 C 
ENDBRANCH   3   5
ENDBRANCH   1   3
BRANCH   1   7
ATOM      7  C   UNL     1      -8.041  -4.760  -4.535  1.00  0.00     0.038 C 
BRANCH   7   8
ATOM      8  C   UNL     1      -8.059  -5.687  -5.723  1.00  0.00    -0.034 C 
ATOM      9  C   UNL     1      -7.170  -6.674  -5.858  1.00  0.00     0.004 C 
ENDBRANCH   7   8
ENDBRANCH   1   7
TORSDOF 4
ENDMDL
MODEL 9
REMARK VINA RESULT:    -2.892     21.689     23.031
REMARK INTER + INTRA:          -3.741
REMARK INTER:                  -3.450
REMARK INTRA:                  -0.291
REMARK UNBOUND:                -0.173
REMARK SMILES C=CC[C@@H](C)C(=O)CC
REMARK SMILES IDX 4 1 5 2 6 3 7 4 8 5 9 6 3 7 2 8 1 9
REMARK H PARENT
REMARK Flexibility Score: inf
ROOT
ATOM      1  C   UNL     1      -8.206  -4.845  -3.678  1.00  0.00     0.057 C 
ATOM      2  C   UNL     1      -8.226  -3.631  -4.615  1.00  0.00     0.016 C 
ENDROOT
BRANCH   1   3
ATOM      3  C   UNL     1      -8.447  -6.114  -4.472  1.00  0.00     0.135 C 
ATOM      4  O   UNL     1      -8.783  -7.138  -3.891  1.00  0.00    -0.299 OA
BRANCH   3   5
ATOM      5  C   UNL     1      -8.261  -6.146  -5.966  1.00  0.00     0.072 C 
ATOM      6  C   UNL     1      -6.911  -6.750  -6.337  1.00  0.00     0.012 C 
ENDBRANCH   3   5
ENDBRANCH   1   3
BRANCH   1   7
ATOM      7  C   UNL     1      -6.870  -4.912  -2.909  1.00  0.00     0.038 C 
BRANCH   7   8
ATOM      8  C   UNL     1      -7.022  -4.495  -1.468  1.00  0.00    -0.034 C 
ATOM      9  C   UNL     1      -7.833  -5.144  -0.630  1.00  0.00     0.004 C 
ENDBRANCH   7   8
ENDBRANCH   1   7
TORSDOF 4
ENDMDL
