MODEL 1
REMARK VINA RESULT:    21.310      0.000      0.000
REMARK INTER + INTRA:          26.389
REMARK INTER:                  26.916
REMARK INTRA:                  -0.528
REMARK UNBOUND:                -0.528
REMARK SMILES O=C(C=Cc1ccc(O)cc1)c1ccc(O)cc1O
REMARK SMILES IDX 4 1 3 2 5 3 6 4 7 5 8 6 11 7 10 8 9 9 2 11 1 12 12 13 18 14
REMARK SMILES IDX 13 15 17 16 14 17 15 18 19 19 16 21
REMARK H PARENT 9 10 19 20 16 22
REMARK Flexibility Score: inf
ROOT
ATOM      1  C   UNL     1      -1.714  -0.476   2.794  1.00  0.00     0.012 C 
ATOM      2  C   UNL     1      -2.674  -0.193   3.687  1.00  0.00     0.053 C 
ENDROOT
BRANCH   1   3
ATOM      3  C   UNL     1      -0.266  -0.464   3.113  1.00  0.00    -0.025 A 
ATOM      4  C   UNL     1       0.129  -0.605   4.454  1.00  0.00     0.012 A 
ATOM      5  C   UNL     1       1.483  -0.590   4.804  1.00  0.00     0.047 A 
ATOM      6  C   UNL     1       2.462  -0.421   3.820  1.00  0.00     0.115 A 
ATOM      7  C   UNL     1       0.726  -0.279   2.129  1.00  0.00     0.012 A 
ATOM      8  C   UNL     1       2.080  -0.264   2.482  1.00  0.00     0.047 A 
BRANCH   6   9
ATOM      9  O   UNL     1       3.807  -0.407   4.182  1.00  0.00    -0.508 OA
ATOM     10  H   UNL     1       4.244   0.424   4.561  1.00  0.00     0.293 HD
ENDBRANCH   6   9
ENDBRANCH   1   3
BRANCH   2  11
ATOM     11  C   UNL     1      -4.109  -0.201   3.330  1.00  0.00     0.189 C 
ATOM     12  O   UNL     1      -4.930   0.499   3.985  1.00  0.00    -0.289 OA
BRANCH  11  13
ATOM     13  C   UNL     1      -4.590  -1.005   2.184  1.00  0.00     0.064 A 
ATOM     14  C   UNL     1      -5.065  -2.329   2.347  1.00  0.00     0.130 A 
ATOM     15  C   UNL     1      -4.611  -0.424   0.903  1.00  0.00     0.020 A 
ATOM     16  C   UNL     1      -5.579  -3.022   1.243  1.00  0.00     0.093 A 
ATOM     17  C   UNL     1      -5.112  -1.132  -0.191  1.00  0.00     0.047 A 
ATOM     18  C   UNL     1      -5.601  -2.429  -0.025  1.00  0.00     0.119 A 
BRANCH  14  19
ATOM     19  O   UNL     1      -5.019  -2.994   3.574  1.00  0.00    -0.507 OA
ATOM     20  H   UNL     1      -5.836  -3.378   4.028  1.00  0.00     0.293 HD
ENDBRANCH  14  19
BRANCH  18  21
ATOM     21  O   UNL     1      -6.105  -3.119  -1.124  1.00  0.00    -0.508 OA
ATOM     22  H   UNL     1      -6.158  -4.132  -1.135  1.00  0.00     0.293 HD
ENDBRANCH  18  21
ENDBRANCH  11  13
ENDBRANCH   2  11
TORSDOF 6
ENDMDL
MODEL 2
REMARK VINA RESULT:    23.744      1.604      6.985
REMARK INTER + INTRA:          29.462
REMARK INTER:                  29.526
REMARK INTRA:                  -0.064
REMARK UNBOUND:                -0.528
REMARK SMILES O=C(C=Cc1ccc(O)cc1)c1ccc(O)cc1O
REMARK SMILES IDX 4 1 3 2 5 3 6 4 7 5 8 6 11 7 10 8 9 9 2 11 1 12 12 13 18 14
REMARK SMILES IDX 13 15 17 16 14 17 15 18 19 19 16 21
REMARK H PARENT 9 10 19 20 16 22
REMARK Flexibility Score: inf
ROOT
ATOM      1  C   UNL     1      -2.974  -0.930   2.053  1.00  0.00     0.012 C 
ATOM      2  C   UNL     1      -3.186  -0.137   3.113  1.00  0.00     0.053 C 
ENDROOT
BRANCH   1   3
ATOM      3  C   UNL     1      -4.062  -1.466   1.197  1.00  0.00    -0.025 A 
ATOM      4  C   UNL     1      -4.868  -2.500   1.704  1.00  0.00     0.012 A 
ATOM      5  C   UNL     1      -5.898  -3.043   0.930  1.00  0.00     0.047 A 
ATOM      6  C   UNL     1      -6.131  -2.570  -0.364  1.00  0.00     0.115 A 
ATOM      7  C   UNL     1      -4.293  -1.005  -0.114  1.00  0.00     0.012 A 
ATOM      8  C   UNL     1      -5.324  -1.551  -0.886  1.00  0.00     0.047 A 
BRANCH   6   9
ATOM      9  O   UNL     1      -7.161  -3.120  -1.124  1.00  0.00    -0.508 OA
ATOM     10  H   UNL     1      -7.133  -3.112  -2.137  1.00  0.00     0.293 HD
ENDBRANCH   6   9
ENDBRANCH   1   3
BRANCH   2  11
ATOM     11  C   UNL     1      -2.077   0.368   3.952  1.00  0.00     0.189 C 
ATOM     12  O   UNL     1      -2.312   1.164   4.902  1.00  0.00    -0.289 OA
BRANCH  11  13
ATOM     13  C   UNL     1      -0.688  -0.080   3.705  1.00  0.00     0.064 A 
ATOM     14  C   UNL     1       0.019   0.287   2.533  1.00  0.00     0.130 A 
ATOM     15  C   UNL     1      -0.038  -0.860   4.678  1.00  0.00     0.020 A 
ATOM     16  C   UNL     1       1.356  -0.101   2.380  1.00  0.00     0.093 A 
ATOM     17  C   UNL     1       1.291  -1.252   4.506  1.00  0.00     0.047 A 
ATOM     18  C   UNL     1       1.993  -0.871   3.360  1.00  0.00     0.119 A 
BRANCH  14  19
ATOM     19  O   UNL     1      -0.578   1.006   1.496  1.00  0.00    -0.507 OA
ATOM     20  H   UNL     1      -0.356   1.970   1.291  1.00  0.00     0.293 HD
ENDBRANCH  14  19
BRANCH  18  21
ATOM     21  O   UNL     1       3.320  -1.262   3.206  1.00  0.00    -0.508 OA
ATOM     22  H   UNL     1       3.593  -1.941   2.505  1.00  0.00     0.293 HD
ENDBRANCH  18  21
ENDBRANCH  11  13
ENDBRANCH   2  11
TORSDOF 6
ENDMDL
