MODEL 1
REMARK VINA RESULT:    -4.107      0.000      0.000
REMARK INTER + INTRA:          -7.891
REMARK INTER:                  -6.508
REMARK INTRA:                  -1.383
REMARK UNBOUND:                -1.383
REMARK SMILES CCCCCCCCCCCC(=O)[O-]
REMARK SMILES IDX 7 1 8 2 9 3 10 4 11 5 12 6 13 7 14 8 6 9 5 10 4 11 3 12 2 13
REMARK SMILES IDX 1 14
REMARK H PARENT
REMARK Flexibility Score: inf
ROOT
ATOM      1  C   UNL     1      -1.723   6.675 -59.490  1.00  0.00     0.000 C 
ENDROOT
BRANCH   1   2
ATOM      2  C   UNL     1      -0.823   6.398 -58.280  1.00  0.00     0.000 C 
BRANCH   2   3
ATOM      3  C   UNL     1      -1.368   5.230 -57.444  1.00  0.00     0.000 C 
BRANCH   3   4
ATOM      4  C   UNL     1      -1.189   5.437 -55.928  1.00  0.00     0.006 C 
BRANCH   4   5
ATOM      5  C   UNL     1      -0.105   6.467 -55.563  1.00  0.00     0.053 C 
BRANCH   5   6
ATOM      6  C   UNL     1      -0.412   7.202 -54.294  1.00  0.00     0.041 C 
ATOM      7  O   UNL     1      -1.472   6.956 -53.660  1.00  0.00    -0.550 OA
ATOM      8  O   UNL     1       0.487   8.136 -53.793  1.00  0.00    -0.550 OA
ENDBRANCH   5   6
ENDBRANCH   4   5
ENDBRANCH   3   4
ENDBRANCH   2   3
ENDBRANCH   1   2
BRANCH   1   9
ATOM      9  C   UNL     1      -3.052   5.919 -59.374  1.00  0.00     0.000 C 
BRANCH   9  10
ATOM     10  C   UNL     1      -4.225   6.794 -59.838  1.00  0.00    -0.000 C 
BRANCH  10  11
ATOM     11  C   UNL     1      -4.877   7.570 -58.682  1.00  0.00    -0.000 C 
BRANCH  11  12
ATOM     12  C   UNL     1      -4.495   9.060 -58.679  1.00  0.00    -0.000 C 
BRANCH  12  13
ATOM     13  C   UNL     1      -3.410   9.386 -57.641  1.00  0.00    -0.003 C 
ATOM     14  C   UNL     1      -3.411   8.414 -56.462  1.00  0.00     0.004 C 
ENDBRANCH  12  13
ENDBRANCH  11  12
ENDBRANCH  10  11
ENDBRANCH   9  10
ENDBRANCH   1   9
TORSDOF 10
ENDMDL
MODEL 2
REMARK VINA RESULT:    -4.077      1.269      2.354
REMARK INTER + INTRA:          -7.844
REMARK INTER:                  -6.233
REMARK INTRA:                  -1.610
REMARK UNBOUND:                -1.383
REMARK SMILES CCCCCCCCCCCC(=O)[O-]
REMARK SMILES IDX 7 1 8 2 9 3 10 4 11 5 12 6 13 7 14 8 6 9 5 10 4 11 3 12 2 13
REMARK SMILES IDX 1 14
REMARK H PARENT
REMARK Flexibility Score: inf
ROOT
ATOM      1  C   UNL     1      -4.215   6.085 -59.681  1.00  0.00     0.000 C 
ENDROOT
BRANCH   1   2
ATOM      2  C   UNL     1      -2.748   5.665 -59.834  1.00  0.00     0.000 C 
BRANCH   2   3
ATOM      3  C   UNL     1      -1.803   6.825 -59.486  1.00  0.00     0.000 C 
BRANCH   3   4
ATOM      4  C   UNL     1      -0.841   6.494 -58.330  1.00  0.00     0.006 C 
BRANCH   4   5
ATOM      5  C   UNL     1      -1.501   5.731 -57.168  1.00  0.00     0.053 C 
BRANCH   5   6
ATOM      6  C   UNL     1      -1.000   6.175 -55.828  1.00  0.00     0.041 C 
ATOM      7  O   UNL     1       0.230   6.377 -55.647  1.00  0.00    -0.550 OA
ATOM      8  O   UNL     1      -1.892   6.398 -54.786  1.00  0.00    -0.550 OA
ENDBRANCH   5   6
ENDBRANCH   4   5
ENDBRANCH   3   4
ENDBRANCH   2   3
ENDBRANCH   1   2
BRANCH   1   9
ATOM      9  C   UNL     1      -4.936   5.202 -58.656  1.00  0.00     0.000 C 
BRANCH   9  10
ATOM     10  C   UNL     1      -5.807   6.049 -57.717  1.00  0.00    -0.000 C 
BRANCH  10  11
ATOM     11  C   UNL     1      -5.416   7.536 -57.729  1.00  0.00    -0.000 C 
BRANCH  11  12
ATOM     12  C   UNL     1      -4.496   7.915 -56.556  1.00  0.00    -0.000 C 
BRANCH  12  13
ATOM     13  C   UNL     1      -3.454   8.975 -56.945  1.00  0.00    -0.003 C 
ATOM     14  C   UNL     1      -3.732   9.602 -58.311  1.00  0.00     0.004 C 
ENDBRANCH  12  13
ENDBRANCH  11  12
ENDBRANCH  10  11
ENDBRANCH   9  10
ENDBRANCH   1   9
TORSDOF 10
ENDMDL
MODEL 3
REMARK VINA RESULT:    -4.048      3.504      5.543
REMARK INTER + INTRA:          -7.797
REMARK INTER:                  -6.530
REMARK INTRA:                  -1.267
REMARK UNBOUND:                -1.383
REMARK SMILES CCCCCCCCCCCC(=O)[O-]
REMARK SMILES IDX 7 1 8 2 9 3 10 4 11 5 12 6 13 7 14 8 6 9 5 10 4 11 3 12 2 13
REMARK SMILES IDX 1 14
REMARK H PARENT
REMARK Flexibility Score: inf
ROOT
ATOM      1  C   UNL     1      -3.051   8.377 -58.689  1.00  0.00     0.000 C 
ENDROOT
BRANCH   1   2
ATOM      2  C   UNL     1      -3.209   8.529 -57.171  1.00  0.00     0.000 C 
BRANCH   2   3
ATOM      3  C   UNL     1      -4.462   7.796 -56.671  1.00  0.00     0.000 C 
BRANCH   3   4
ATOM      4  C   UNL     1      -5.355   7.278 -57.813  1.00  0.00     0.006 C 
BRANCH   4   5
ATOM      5  C   UNL     1      -6.421   6.264 -57.361  1.00  0.00     0.053 C 
BRANCH   5   6
ATOM      6  C   UNL     1      -7.814   6.706 -57.689  1.00  0.00     0.041 C 
ATOM      7  O   UNL     1      -8.064   7.925 -57.878  1.00  0.00    -0.550 OA
ATOM      8  O   UNL     1      -8.832   5.768 -57.821  1.00  0.00    -0.550 OA
ENDBRANCH   5   6
ENDBRANCH   4   5
ENDBRANCH   3   4
ENDBRANCH   2   3
ENDBRANCH   1   2
BRANCH   1   9
ATOM      9  C   UNL     1      -1.787   7.581 -59.035  1.00  0.00     0.000 C 
BRANCH   9  10
ATOM     10  C   UNL     1      -2.120   6.104 -59.291  1.00  0.00    -0.000 C 
BRANCH  10  11
ATOM     11  C   UNL     1      -1.776   5.204 -58.093  1.00  0.00    -0.000 C 
BRANCH  11  12
ATOM     12  C   UNL     1      -0.359   5.460 -57.549  1.00  0.00    -0.000 C 
BRANCH  12  13
ATOM     13  C   UNL     1      -0.372   6.028 -56.121  1.00  0.00    -0.003 C 
ATOM     14  C   UNL     1      -1.609   5.607 -55.330  1.00  0.00     0.004 C 
ENDBRANCH  12  13
ENDBRANCH  11  12
ENDBRANCH  10  11
ENDBRANCH   9  10
ENDBRANCH   1   9
TORSDOF 10
ENDMDL
MODEL 4
REMARK VINA RESULT:    -4.020      2.655      4.823
REMARK INTER + INTRA:          -7.753
REMARK INTER:                  -6.384
REMARK INTRA:                  -1.369
REMARK UNBOUND:                -1.383
REMARK SMILES CCCCCCCCCCCC(=O)[O-]
REMARK SMILES IDX 7 1 8 2 9 3 10 4 11 5 12 6 13 7 14 8 6 9 5 10 4 11 3 12 2 13
REMARK SMILES IDX 1 14
REMARK H PARENT
REMARK Flexibility Score: inf
ROOT
ATOM      1  C   UNL     1      -0.259   6.347 -55.819  1.00  0.00     0.000 C 
ENDROOT
BRANCH   1   2
ATOM      2  C   UNL     1      -1.419   6.867 -54.961  1.00  0.00     0.000 C 
BRANCH   2   3
ATOM      3  C   UNL     1      -2.738   6.849 -55.748  1.00  0.00     0.000 C 
BRANCH   3   4
ATOM      4  C   UNL     1      -3.067   8.202 -56.406  1.00  0.00     0.006 C 
BRANCH   4   5
ATOM      5  C   UNL     1      -4.549   8.367 -56.788  1.00  0.00     0.053 C 
BRANCH   5   6
ATOM      6  C   UNL     1      -4.739   8.687 -58.239  1.00  0.00     0.041 C 
ATOM      7  O   UNL     1      -4.067   9.606 -58.778  1.00  0.00    -0.550 OA
ATOM      8  O   UNL     1      -5.632   7.950 -59.007  1.00  0.00    -0.550 OA
ENDBRANCH   5   6
ENDBRANCH   4   5
ENDBRANCH   3   4
ENDBRANCH   2   3
ENDBRANCH   1   2
BRANCH   1   9
ATOM      9  C   UNL     1      -0.589   4.974 -56.418  1.00  0.00     0.000 C 
BRANCH   9  10
ATOM     10  C   UNL     1      -0.533   5.017 -57.952  1.00  0.00    -0.000 C 
BRANCH  10  11
ATOM     11  C   UNL     1      -0.435   6.449 -58.501  1.00  0.00    -0.000 C 
BRANCH  11  12
ATOM     12  C   UNL     1      -1.589   6.796 -59.458  1.00  0.00    -0.000 C 
BRANCH  12  13
ATOM     13  C   UNL     1      -2.716   5.752 -59.420  1.00  0.00    -0.003 C 
ATOM     14  C   UNL     1      -3.523   5.707 -60.717  1.00  0.00     0.004 C 
ENDBRANCH  12  13
ENDBRANCH  11  12
ENDBRANCH  10  11
ENDBRANCH   9  10
ENDBRANCH   1   9
TORSDOF 10
ENDMDL
MODEL 5
REMARK VINA RESULT:    -3.978      2.045      3.209
REMARK INTER + INTRA:          -7.687
REMARK INTER:                  -6.801
REMARK INTRA:                  -0.886
REMARK UNBOUND:                -1.383
REMARK SMILES CCCCCCCCCCCC(=O)[O-]
REMARK SMILES IDX 7 1 8 2 9 3 10 4 11 5 12 6 13 7 14 8 6 9 5 10 4 11 3 12 2 13
REMARK SMILES IDX 1 14
REMARK H PARENT
REMARK Flexibility Score: inf
ROOT
ATOM      1  C   UNL     1      -2.945   8.480 -58.755  1.00  0.00     0.000 C 
ENDROOT
BRANCH   1   2
ATOM      2  C   UNL     1      -1.808   7.493 -59.047  1.00  0.00     0.000 C 
BRANCH   2   3
ATOM      3  C   UNL     1      -2.344   6.061 -59.191  1.00  0.00     0.000 C 
BRANCH   3   4
ATOM      4  C   UNL     1      -1.853   5.117 -58.077  1.00  0.00     0.006 C 
BRANCH   4   5
ATOM      5  C   UNL     1      -0.546   5.573 -57.405  1.00  0.00     0.053 C 
BRANCH   5   6
ATOM      6  C   UNL     1      -0.746   5.993 -55.981  1.00  0.00     0.041 C 
ATOM      7  O   UNL     1       0.190   6.548 -55.346  1.00  0.00    -0.550 OA
ATOM      8  O   UNL     1      -1.976   5.803 -55.362  1.00  0.00    -0.550 OA
ENDBRANCH   5   6
ENDBRANCH   4   5
ENDBRANCH   3   4
ENDBRANCH   2   3
ENDBRANCH   1   2
BRANCH   1   9
ATOM      9  C   UNL     1      -4.303   7.890 -59.153  1.00  0.00     0.000 C 
BRANCH   9  10
ATOM     10  C   UNL     1      -5.325   8.050 -58.019  1.00  0.00    -0.000 C 
BRANCH  10  11
ATOM     11  C   UNL     1      -5.256   6.904 -56.995  1.00  0.00    -0.000 C 
BRANCH  11  12
ATOM     12  C   UNL     1      -6.318   5.820 -57.250  1.00  0.00    -0.000 C 
BRANCH  12  13
ATOM     13  C   UNL     1      -7.675   6.412 -57.660  1.00  0.00    -0.003 C 
ATOM     14  C   UNL     1      -8.780   5.359 -57.732  1.00  0.00     0.004 C 
ENDBRANCH  12  13
ENDBRANCH  11  12
ENDBRANCH  10  11
ENDBRANCH   9  10
ENDBRANCH   1   9
TORSDOF 10
ENDMDL
MODEL 6
REMARK VINA RESULT:    -3.968      2.198      4.502
REMARK INTER + INTRA:          -7.672
REMARK INTER:                  -6.361
REMARK INTRA:                  -1.310
REMARK UNBOUND:                -1.383
REMARK SMILES CCCCCCCCCCCC(=O)[O-]
REMARK SMILES IDX 7 1 8 2 9 3 10 4 11 5 12 6 13 7 14 8 6 9 5 10 4 11 3 12 2 13
REMARK SMILES IDX 1 14
REMARK H PARENT
REMARK Flexibility Score: inf
ROOT
ATOM      1  C   UNL     1      -1.672   6.995 -59.329  1.00  0.00     0.000 C 
ENDROOT
BRANCH   1   2
ATOM      2  C   UNL     1      -2.664   5.961 -59.878  1.00  0.00     0.000 C 
BRANCH   2   3
ATOM      3  C   UNL     1      -4.108   6.474 -59.774  1.00  0.00     0.000 C 
BRANCH   3   4
ATOM      4  C   UNL     1      -4.680   6.384 -58.348  1.00  0.00     0.006 C 
BRANCH   4   5
ATOM      5  C   UNL     1      -5.339   7.686 -57.856  1.00  0.00     0.053 C 
BRANCH   5   6
ATOM      6  C   UNL     1      -4.365   8.818 -57.744  1.00  0.00     0.041 C 
ATOM      7  O   UNL     1      -3.590   8.892 -56.755  1.00  0.00    -0.550 OA
ATOM      8  O   UNL     1      -4.289   9.776 -58.749  1.00  0.00    -0.550 OA
ENDBRANCH   5   6
ENDBRANCH   4   5
ENDBRANCH   3   4
ENDBRANCH   2   3
ENDBRANCH   1   2
BRANCH   1   9
ATOM      9  C   UNL     1      -0.655   6.337 -58.389  1.00  0.00     0.000 C 
BRANCH   9  10
ATOM     10  C   UNL     1      -1.174   4.987 -57.875  1.00  0.00    -0.000 C 
BRANCH  10  11
ATOM     11  C   UNL     1      -1.160   4.894 -56.340  1.00  0.00    -0.000 C 
BRANCH  11  12
ATOM     12  C   UNL     1      -2.117   5.901 -55.678  1.00  0.00    -0.000 C 
BRANCH  12  13
ATOM     13  C   UNL     1      -1.382   6.899 -54.769  1.00  0.00    -0.003 C 
ATOM     14  C   UNL     1       0.116   6.616 -54.672  1.00  0.00     0.004 C 
ENDBRANCH  12  13
ENDBRANCH  11  12
ENDBRANCH  10  11
ENDBRANCH   9  10
ENDBRANCH   1   9
TORSDOF 10
ENDMDL
MODEL 7
REMARK VINA RESULT:    -3.883      1.659      4.498
REMARK INTER + INTRA:          -7.537
REMARK INTER:                  -6.381
REMARK INTRA:                  -1.155
REMARK UNBOUND:                -1.383
REMARK SMILES CCCCCCCCCCCC(=O)[O-]
REMARK SMILES IDX 7 1 8 2 9 3 10 4 11 5 12 6 13 7 14 8 6 9 5 10 4 11 3 12 2 13
REMARK SMILES IDX 1 14
REMARK H PARENT
REMARK Flexibility Score: inf
ROOT
ATOM      1  C   UNL     1      -1.724   7.041 -59.329  1.00  0.00     0.000 C 
ENDROOT
BRANCH   1   2
ATOM      2  C   UNL     1      -2.801   6.048 -59.781  1.00  0.00     0.000 C 
BRANCH   2   3
ATOM      3  C   UNL     1      -4.193   6.697 -59.760  1.00  0.00     0.000 C 
BRANCH   3   4
ATOM      4  C   UNL     1      -4.216   8.055 -59.035  1.00  0.00     0.006 C 
BRANCH   4   5
ATOM      5  C   UNL     1      -4.961   8.031 -57.688  1.00  0.00     0.053 C 
BRANCH   5   6
ATOM      6  C   UNL     1      -4.217   7.275 -56.631  1.00  0.00     0.041 C 
ATOM      7  O   UNL     1      -3.274   7.825 -56.002  1.00  0.00    -0.550 OA
ATOM      8  O   UNL     1      -4.584   5.972 -56.313  1.00  0.00    -0.550 OA
ENDBRANCH   5   6
ENDBRANCH   4   5
ENDBRANCH   3   4
ENDBRANCH   2   3
ENDBRANCH   1   2
BRANCH   1   9
ATOM      9  C   UNL     1      -0.712   6.370 -58.394  1.00  0.00     0.000 C 
BRANCH   9  10
ATOM     10  C   UNL     1      -1.325   5.136 -57.716  1.00  0.00    -0.000 C 
BRANCH  10  11
ATOM     11  C   UNL     1      -0.996   5.060 -56.216  1.00  0.00    -0.000 C 
BRANCH  11  12
ATOM     12  C   UNL     1      -0.047   6.183 -55.762  1.00  0.00    -0.000 C 
BRANCH  12  13
ATOM     13  C   UNL     1      -0.077   6.397 -54.240  1.00  0.00    -0.003 C 
ATOM     14  C   UNL     1       0.303   7.821 -53.837  1.00  0.00     0.004 C 
ENDBRANCH  12  13
ENDBRANCH  11  12
ENDBRANCH  10  11
ENDBRANCH   9  10
ENDBRANCH   1   9
TORSDOF 10
ENDMDL
MODEL 8
REMARK VINA RESULT:    -3.873      1.265      1.860
REMARK INTER + INTRA:          -7.521
REMARK INTER:                  -6.303
REMARK INTRA:                  -1.218
REMARK UNBOUND:                -1.383
REMARK SMILES CCCCCCCCCCCC(=O)[O-]
REMARK SMILES IDX 7 1 8 2 9 3 10 4 11 5 12 6 13 7 14 8 6 9 5 10 4 11 3 12 2 13
REMARK SMILES IDX 1 14
REMARK H PARENT
REMARK Flexibility Score: inf
ROOT
ATOM      1  C   UNL     1      -1.746   6.888 -59.424  1.00  0.00     0.000 C 
ENDROOT
BRANCH   1   2
ATOM      2  C   UNL     1      -0.872   6.390 -58.267  1.00  0.00     0.000 C 
BRANCH   2   3
ATOM      3  C   UNL     1      -1.482   5.142 -57.612  1.00  0.00     0.000 C 
BRANCH   3   4
ATOM      4  C   UNL     1      -1.920   5.378 -56.154  1.00  0.00     0.006 C 
BRANCH   4   5
ATOM      5  C   UNL     1      -1.476   6.736 -55.582  1.00  0.00     0.053 C 
BRANCH   5   6
ATOM      6  C   UNL     1      -0.270   6.624 -54.701  1.00  0.00     0.041 C 
ATOM      7  O   UNL     1       0.285   5.507 -54.526  1.00  0.00    -0.550 OA
ATOM      8  O   UNL     1       0.264   7.757 -54.099  1.00  0.00    -0.550 OA
ENDBRANCH   5   6
ENDBRANCH   4   5
ENDBRANCH   3   4
ENDBRANCH   2   3
ENDBRANCH   1   2
BRANCH   1   9
ATOM      9  C   UNL     1      -2.945   5.959 -59.649  1.00  0.00     0.000 C 
BRANCH   9  10
ATOM     10  C   UNL     1      -4.248   6.762 -59.769  1.00  0.00    -0.000 C 
BRANCH  10  11
ATOM     11  C   UNL     1      -4.335   7.904 -58.744  1.00  0.00    -0.000 C 
BRANCH  11  12
ATOM     12  C   UNL     1      -4.896   7.440 -57.388  1.00  0.00    -0.000 C 
BRANCH  12  13
ATOM     13  C   UNL     1      -6.196   6.634 -57.535  1.00  0.00    -0.003 C 
ATOM     14  C   UNL     1      -7.393   7.508 -57.904  1.00  0.00     0.004 C 
ENDBRANCH  12  13
ENDBRANCH  11  12
ENDBRANCH  10  11
ENDBRANCH   9  10
ENDBRANCH   1   9
TORSDOF 10
ENDMDL
MODEL 9
REMARK VINA RESULT:    -3.674      1.988      3.148
REMARK INTER + INTRA:          -7.204
REMARK INTER:                  -6.045
REMARK INTRA:                  -1.159
REMARK UNBOUND:                -1.383
REMARK SMILES CCCCCCCCCCCC(=O)[O-]
REMARK SMILES IDX 7 1 8 2 9 3 10 4 11 5 12 6 13 7 14 8 6 9 5 10 4 11 3 12 2 13
REMARK SMILES IDX 1 14
REMARK H PARENT
REMARK Flexibility Score: inf
ROOT
ATOM      1  C   UNL     1      -4.250   8.469 -58.841  1.00  0.00     0.000 C 
ENDROOT
BRANCH   1   2
ATOM      2  C   UNL     1      -2.973   8.288 -58.010  1.00  0.00     0.000 C 
BRANCH   2   3
ATOM      3  C   UNL     1      -3.286   8.313 -56.507  1.00  0.00     0.000 C 
BRANCH   3   4
ATOM      4  C   UNL     1      -2.794   7.056 -55.766  1.00  0.00     0.006 C 
BRANCH   4   5
ATOM      5  C   UNL     1      -1.508   7.276 -54.950  1.00  0.00     0.053 C 
BRANCH   5   6
ATOM      6  C   UNL     1      -0.409   6.336 -55.341  1.00  0.00     0.041 C 
ATOM      7  O   UNL     1       0.324   5.816 -54.458  1.00  0.00    -0.550 OA
ATOM      8  O   UNL     1      -0.214   6.006 -56.677  1.00  0.00    -0.550 OA
ENDBRANCH   5   6
ENDBRANCH   4   5
ENDBRANCH   3   4
ENDBRANCH   2   3
ENDBRANCH   1   2
BRANCH   1   9
ATOM      9  C   UNL     1      -4.513   7.241 -59.721  1.00  0.00     0.000 C 
BRANCH   9  10
ATOM     10  C   UNL     1      -3.895   5.978 -59.102  1.00  0.00    -0.000 C 
BRANCH  10  11
ATOM     11  C   UNL     1      -4.957   4.973 -58.627  1.00  0.00    -0.000 C 
BRANCH  11  12
ATOM     12  C   UNL     1      -5.669   5.428 -57.341  1.00  0.00    -0.000 C 
BRANCH  12  13
ATOM     13  C   UNL     1      -7.183   5.607 -57.540  1.00  0.00    -0.003 C 
ATOM     14  C   UNL     1      -7.583   7.067 -57.742  1.00  0.00     0.004 C 
ENDBRANCH  12  13
ENDBRANCH  11  12
ENDBRANCH  10  11
ENDBRANCH   9  10
ENDBRANCH   1   9
TORSDOF 10
ENDMDL
