MODEL 1
REMARK VINA RESULT:    -6.902      0.000      0.000
REMARK INTER + INTRA:         -12.068
REMARK INTER:                 -10.332
REMARK INTRA:                  -1.736
REMARK UNBOUND:                -1.736
REMARK SMILES O=c1c(O[C@H]2O[C@H](CO)[C@H](O)[C@H](O)[C@@H]2O)c(-c2cc(O)c(O)c(O)c2)oc2cc(O)cc(O)c12
REMARK SMILES IDX 4 1 3 2 16 3 26 4 2 5 27 6 1 7 34 8 28 9 32 10 29 11 31 12
REMARK SMILES IDX 17 13 18 14 19 15 25 16 21 17 23 18 20 19 22 21 24 23 33 25
REMARK SMILES IDX 30 27 5 29 14 30 6 31 12 32 7 33 10 34 15 35 13 37 8 39 9 40
REMARK SMILES IDX 11 42
REMARK H PARENT 20 20 22 22 24 24 33 26 30 28 15 36 13 38 9 41 11 43
REMARK Flexibility Score: inf
ROOT
ATOM      1  O   UNL     1     -13.775  36.484  -2.327  1.00  0.00    -0.454 OA
ENDROOT
BRANCH   1   2
ATOM      2  C   UNL     1     -13.335  37.475  -3.221  1.00  0.00     0.214 A 
ATOM      3  C   UNL     1     -14.203  38.518  -3.590  1.00  0.00     0.181 A 
ATOM      4  O   UNL     1     -13.759  39.511  -4.351  1.00  0.00    -0.452 OA
ATOM      5  C   UNL     1     -12.038  37.449  -3.767  1.00  0.00     0.239 A 
ATOM      6  C   UNL     1     -12.528  39.556  -4.849  1.00  0.00     0.146 A 
ATOM      7  O   UNL     1     -11.281  36.481  -3.492  1.00  0.00    -0.285 OA
ATOM      8  C   UNL     1     -11.608  38.499  -4.618  1.00  0.00     0.111 A 
ATOM      9  C   UNL     1     -12.160  40.668  -5.611  1.00  0.00     0.094 A 
ATOM     10  C   UNL     1     -10.316  38.579  -5.224  1.00  0.00     0.134 A 
ATOM     11  C   UNL     1     -10.881  40.760  -6.153  1.00  0.00     0.123 A 
ATOM     12  C   UNL     1      -9.967  39.722  -5.955  1.00  0.00     0.093 A 
BRANCH   3  13
ATOM     13  C   UNL     1     -15.606  38.565  -3.132  1.00  0.00     0.029 A 
ATOM     14  C   UNL     1     -16.559  37.649  -3.612  1.00  0.00     0.062 A 
ATOM     15  C   UNL     1     -17.886  37.707  -3.171  1.00  0.00     0.162 A 
ATOM     16  C   UNL     1     -16.006  39.563  -2.230  1.00  0.00     0.062 A 
ATOM     17  C   UNL     1     -18.280  38.697  -2.252  1.00  0.00     0.200 A 
ATOM     18  C   UNL     1     -17.334  39.627  -1.782  1.00  0.00     0.162 A 
BRANCH  15  19
ATOM     19  O   UNL     1     -18.803  36.772  -3.659  1.00  0.00    -0.504 OA
ATOM     20  H   UNL     1     -18.511  35.941  -4.157  1.00  0.00     0.293 HD
ENDBRANCH  15  19
BRANCH  17  21
ATOM     21  O   UNL     1     -19.606  38.746  -1.818  1.00  0.00    -0.502 OA
ATOM     22  H   UNL     1     -20.343  38.217  -2.273  1.00  0.00     0.293 HD
ENDBRANCH  17  21
BRANCH  18  23
ATOM     23  O   UNL     1     -17.716  40.607  -0.865  1.00  0.00    -0.504 OA
ATOM     24  H   UNL     1     -18.183  41.459  -1.158  1.00  0.00     0.293 HD
ENDBRANCH  18  23
ENDBRANCH   3  13
BRANCH  10  25
ATOM     25  O   UNL     1      -9.350  37.569  -5.156  1.00  0.00    -0.507 OA
ATOM     26  H   UNL     1      -8.397  37.658  -5.469  1.00  0.00     0.293 HD
ENDBRANCH  10  25
BRANCH  11  27
ATOM     27  O   UNL     1     -10.528  41.887  -6.896  1.00  0.00    -0.508 OA
ATOM     28  H   UNL     1     -10.935  42.070  -7.808  1.00  0.00     0.293 HD
ENDBRANCH  11  27
ENDBRANCH   1   2
BRANCH   1  29
ATOM     29  C   UNL     1     -13.482  36.495  -0.923  1.00  0.00     0.339 C 
ATOM     30  C   UNL     1     -12.985  35.108  -0.467  1.00  0.00     0.214 C 
ATOM     31  O   UNL     1     -14.603  36.939  -0.167  1.00  0.00    -0.332 OA
ATOM     32  C   UNL     1     -14.145  34.091  -0.455  1.00  0.00     0.180 C 
ATOM     33  C   UNL     1     -15.703  36.046  -0.279  1.00  0.00     0.179 C 
ATOM     34  C   UNL     1     -15.352  34.660   0.310  1.00  0.00     0.177 C 
BRANCH  30  35
ATOM     35  O   UNL     1     -12.419  35.224   0.816  1.00  0.00    -0.384 OA
ATOM     36  H   UNL     1     -11.770  34.475   0.916  1.00  0.00     0.211 HD
ENDBRANCH  30  35
BRANCH  32  37
ATOM     37  O   UNL     1     -13.739  32.878   0.128  1.00  0.00    -0.387 OA
ATOM     38  H   UNL     1     -14.057  32.148  -0.464  1.00  0.00     0.211 HD
ENDBRANCH  32  37
BRANCH  33  39
ATOM     39  C   UNL     1     -16.921  36.674   0.422  1.00  0.00     0.191 C 
BRANCH  39  40
ATOM     40  O   UNL     1     -17.889  35.700   0.717  1.00  0.00    -0.394 OA
ATOM     41  H   UNL     1     -18.080  35.222  -0.132  1.00  0.00     0.210 HD
ENDBRANCH  39  40
ENDBRANCH  33  39
BRANCH  34  42
ATOM     42  O   UNL     1     -15.057  34.784   1.680  1.00  0.00    -0.387 OA
ATOM     43  H   UNL     1     -14.800  33.881   2.004  1.00  0.00     0.211 HD
ENDBRANCH  34  42
ENDBRANCH   1  29
TORSDOF 13
ENDMDL
MODEL 2
REMARK VINA RESULT:    -6.876      0.196      1.454
REMARK INTER + INTRA:         -12.029
REMARK INTER:                 -10.354
REMARK INTRA:                  -1.675
REMARK UNBOUND:                -1.736
REMARK SMILES O=c1c(O[C@H]2O[C@H](CO)[C@H](O)[C@H](O)[C@@H]2O)c(-c2cc(O)c(O)c(O)c2)oc2cc(O)cc(O)c12
REMARK SMILES IDX 4 1 3 2 16 3 26 4 2 5 27 6 1 7 34 8 28 9 32 10 29 11 31 12
REMARK SMILES IDX 17 13 18 14 19 15 25 16 21 17 23 18 20 19 22 21 24 23 33 25
REMARK SMILES IDX 30 27 5 29 14 30 6 31 12 32 7 33 10 34 15 35 13 37 8 39 9 40
REMARK SMILES IDX 11 42
REMARK H PARENT 20 20 22 22 24 24 33 26 30 28 15 36 13 38 9 41 11 43
REMARK Flexibility Score: inf
ROOT
ATOM      1  O   UNL     1     -13.749  36.419  -2.283  1.00  0.00    -0.454 OA
ENDROOT
BRANCH   1   2
ATOM      2  C   UNL     1     -13.280  37.381  -3.195  1.00  0.00     0.214 A 
ATOM      3  C   UNL     1     -14.137  38.407  -3.630  1.00  0.00     0.181 A 
ATOM      4  O   UNL     1     -13.670  39.374  -4.409  1.00  0.00    -0.452 OA
ATOM      5  C   UNL     1     -11.964  37.341  -3.694  1.00  0.00     0.239 A 
ATOM      6  C   UNL     1     -12.423  39.408  -4.864  1.00  0.00     0.146 A 
ATOM      7  O   UNL     1     -11.215  36.386  -3.359  1.00  0.00    -0.285 OA
ATOM      8  C   UNL     1     -11.508  38.363  -4.564  1.00  0.00     0.111 A 
ATOM      9  C   UNL     1     -12.031  40.494  -5.651  1.00  0.00     0.094 A 
ATOM     10  C   UNL     1     -10.195  38.427  -5.127  1.00  0.00     0.134 A 
ATOM     11  C   UNL     1     -10.734  40.573  -6.150  1.00  0.00     0.123 A 
ATOM     12  C   UNL     1      -9.824  39.546  -5.884  1.00  0.00     0.093 A 
BRANCH   3  13
ATOM     13  C   UNL     1     -15.556  38.464  -3.224  1.00  0.00     0.029 A 
ATOM     14  C   UNL     1     -16.040  39.506  -2.414  1.00  0.00     0.062 A 
ATOM     15  C   UNL     1     -17.387  39.546  -2.035  1.00  0.00     0.162 A 
ATOM     16  C   UNL     1     -16.431  37.441  -3.623  1.00  0.00     0.062 A 
ATOM     17  C   UNL     1     -18.266  38.531  -2.454  1.00  0.00     0.200 A 
ATOM     18  C   UNL     1     -17.783  37.475  -3.249  1.00  0.00     0.162 A 
BRANCH  15  19
ATOM     19  O   UNL     1     -17.835  40.605  -1.241  1.00  0.00    -0.504 OA
ATOM     20  H   UNL     1     -17.973  40.509  -0.244  1.00  0.00     0.293 HD
ENDBRANCH  15  19
BRANCH  17  21
ATOM     21  O   UNL     1     -19.608  38.579  -2.071  1.00  0.00    -0.502 OA
ATOM     22  H   UNL     1     -20.199  37.754  -2.072  1.00  0.00     0.293 HD
ENDBRANCH  17  21
BRANCH  18  23
ATOM     23  O   UNL     1     -18.651  36.468  -3.673  1.00  0.00    -0.504 OA
ATOM     24  H   UNL     1     -18.345  35.726  -4.294  1.00  0.00     0.293 HD
ENDBRANCH  18  23
ENDBRANCH   3  13
BRANCH  10  25
ATOM     25  O   UNL     1      -9.230  37.425  -4.990  1.00  0.00    -0.507 OA
ATOM     26  H   UNL     1      -9.005  36.952  -4.129  1.00  0.00     0.293 HD
ENDBRANCH  10  25
BRANCH  11  27
ATOM     27  O   UNL     1     -10.358  41.675  -6.918  1.00  0.00    -0.508 OA
ATOM     28  H   UNL     1      -9.657  41.598  -7.649  1.00  0.00     0.293 HD
ENDBRANCH  11  27
ENDBRANCH   1   2
BRANCH   1  29
ATOM     29  C   UNL     1     -13.491  36.471  -0.873  1.00  0.00     0.339 C 
ATOM     30  C   UNL     1     -13.003  35.098  -0.366  1.00  0.00     0.214 C 
ATOM     31  O   UNL     1     -14.632  36.932  -0.159  1.00  0.00    -0.332 OA
ATOM     32  C   UNL     1     -14.161  34.079  -0.354  1.00  0.00     0.180 C 
ATOM     33  C   UNL     1     -15.727  36.033  -0.274  1.00  0.00     0.179 C 
ATOM     34  C   UNL     1     -15.389  34.666   0.364  1.00  0.00     0.177 C 
BRANCH  30  35
ATOM     35  O   UNL     1     -12.471  35.252   0.928  1.00  0.00    -0.384 OA
ATOM     36  H   UNL     1     -11.805  34.523   1.056  1.00  0.00     0.211 HD
ENDBRANCH  30  35
BRANCH  32  37
ATOM     37  O   UNL     1     -13.767  32.884   0.272  1.00  0.00    -0.387 OA
ATOM     38  H   UNL     1     -14.548  32.272   0.252  1.00  0.00     0.211 HD
ENDBRANCH  32  37
BRANCH  33  39
ATOM     39  C   UNL     1     -16.964  36.677   0.378  1.00  0.00     0.191 C 
BRANCH  39  40
ATOM     40  O   UNL     1     -17.899  35.701   0.757  1.00  0.00    -0.394 OA
ATOM     41  H   UNL     1     -18.577  36.160   1.319  1.00  0.00     0.210 HD
ENDBRANCH  39  40
ENDBRANCH  33  39
BRANCH  34  42
ATOM     42  O   UNL     1     -15.129  34.829   1.736  1.00  0.00    -0.387 OA
ATOM     43  H   UNL     1     -14.684  33.997   2.048  1.00  0.00     0.211 HD
ENDBRANCH  34  42
ENDBRANCH   1  29
TORSDOF 13
ENDMDL
MODEL 3
REMARK VINA RESULT:    -6.591      1.659      3.057
REMARK INTER + INTRA:         -11.603
REMARK INTER:                 -10.380
REMARK INTRA:                  -1.223
REMARK UNBOUND:                -1.736
REMARK SMILES O=c1c(O[C@H]2O[C@H](CO)[C@H](O)[C@H](O)[C@@H]2O)c(-c2cc(O)c(O)c(O)c2)oc2cc(O)cc(O)c12
REMARK SMILES IDX 4 1 3 2 16 3 26 4 2 5 27 6 1 7 34 8 28 9 32 10 29 11 31 12
REMARK SMILES IDX 17 13 18 14 19 15 25 16 21 17 23 18 20 19 22 21 24 23 33 25
REMARK SMILES IDX 30 27 5 29 14 30 6 31 12 32 7 33 10 34 15 35 13 37 8 39 9 40
REMARK SMILES IDX 11 42
REMARK H PARENT 20 20 22 22 24 24 33 26 30 28 15 36 13 38 9 41 11 43
REMARK Flexibility Score: inf
ROOT
ATOM      1  O   UNL     1     -14.297  36.847  -0.016  1.00  0.00    -0.454 OA
ENDROOT
BRANCH   1   2
ATOM      2  C   UNL     1     -13.443  37.075  -1.109  1.00  0.00     0.214 A 
ATOM      3  C   UNL     1     -13.971  37.563  -2.317  1.00  0.00     0.181 A 
ATOM      4  O   UNL     1     -13.155  37.876  -3.317  1.00  0.00    -0.452 OA
ATOM      5  C   UNL     1     -12.061  36.817  -1.029  1.00  0.00     0.239 A 
ATOM      6  C   UNL     1     -11.840  37.699  -3.270  1.00  0.00     0.146 A 
ATOM      7  O   UNL     1     -11.596  36.316   0.028  1.00  0.00    -0.285 OA
ATOM      8  C   UNL     1     -11.222  37.116  -2.132  1.00  0.00     0.111 A 
ATOM      9  C   UNL     1     -11.077  38.096  -4.371  1.00  0.00     0.094 A 
ATOM     10  C   UNL     1      -9.809  36.901  -2.162  1.00  0.00     0.134 A 
ATOM     11  C   UNL     1      -9.694  37.931  -4.368  1.00  0.00     0.123 A 
ATOM     12  C   UNL     1      -9.068  37.341  -3.267  1.00  0.00     0.093 A 
BRANCH   3  13
ATOM     13  C   UNL     1     -15.420  37.771  -2.510  1.00  0.00     0.029 A 
ATOM     14  C   UNL     1     -16.243  36.742  -3.002  1.00  0.00     0.062 A 
ATOM     15  C   UNL     1     -17.616  36.954  -3.181  1.00  0.00     0.162 A 
ATOM     16  C   UNL     1     -15.982  39.027  -2.232  1.00  0.00     0.062 A 
ATOM     17  C   UNL     1     -18.179  38.208  -2.882  1.00  0.00     0.200 A 
ATOM     18  C   UNL     1     -17.357  39.246  -2.407  1.00  0.00     0.162 A 
BRANCH  15  19
ATOM     19  O   UNL     1     -18.405  35.905  -3.659  1.00  0.00    -0.504 OA
ATOM     20  H   UNL     1     -18.013  35.006  -3.909  1.00  0.00     0.293 HD
ENDBRANCH  15  19
BRANCH  17  21
ATOM     21  O   UNL     1     -19.549  38.409  -3.065  1.00  0.00    -0.502 OA
ATOM     22  H   UNL     1     -20.233  38.116  -2.375  1.00  0.00     0.293 HD
ENDBRANCH  17  21
BRANCH  18  23
ATOM     23  O   UNL     1     -17.911  40.491  -2.102  1.00  0.00    -0.504 OA
ATOM     24  H   UNL     1     -18.477  41.000  -2.772  1.00  0.00     0.293 HD
ENDBRANCH  18  23
ENDBRANCH   3  13
BRANCH  10  25
ATOM     25  O   UNL     1      -9.090  36.255  -1.152  1.00  0.00    -0.507 OA
ATOM     26  H   UNL     1      -8.129  36.445  -0.913  1.00  0.00     0.293 HD
ENDBRANCH  10  25
BRANCH  11  27
ATOM     27  O   UNL     1      -8.948  38.351  -5.469  1.00  0.00    -0.508 OA
ATOM     28  H   UNL     1      -8.234  39.068  -5.384  1.00  0.00     0.293 HD
ENDBRANCH  11  27
ENDBRANCH   1   2
BRANCH   1  29
ATOM     29  C   UNL     1     -15.293  35.815   0.011  1.00  0.00     0.339 C 
ATOM     30  C   UNL     1     -16.509  36.265   0.846  1.00  0.00     0.214 C 
ATOM     31  O   UNL     1     -14.748  34.587   0.477  1.00  0.00    -0.332 OA
ATOM     32  C   UNL     1     -16.160  36.292   2.348  1.00  0.00     0.180 C 
ATOM     33  C   UNL     1     -14.314  34.679   1.828  1.00  0.00     0.179 C 
ATOM     34  C   UNL     1     -15.504  34.966   2.772  1.00  0.00     0.177 C 
BRANCH  30  35
ATOM     35  O   UNL     1     -17.580  35.384   0.605  1.00  0.00    -0.384 OA
ATOM     36  H   UNL     1     -17.360  34.529   1.065  1.00  0.00     0.211 HD
ENDBRANCH  30  35
BRANCH  32  37
ATOM     37  O   UNL     1     -17.308  36.526   3.123  1.00  0.00    -0.387 OA
ATOM     38  H   UNL     1     -17.110  36.211   4.043  1.00  0.00     0.211 HD
ENDBRANCH  32  37
BRANCH  33  39
ATOM     39  C   UNL     1     -13.588  33.374   2.203  1.00  0.00     0.191 C 
BRANCH  39  40
ATOM     40  O   UNL     1     -14.172  32.271   1.560  1.00  0.00    -0.394 OA
ATOM     41  H   UNL     1     -13.449  31.826   1.045  1.00  0.00     0.210 HD
ENDBRANCH  39  40
ENDBRANCH  33  39
BRANCH  34  42
ATOM     42  O   UNL     1     -16.432  33.911   2.706  1.00  0.00    -0.387 OA
ATOM     43  H   UNL     1     -16.616  33.628   3.640  1.00  0.00     0.211 HD
ENDBRANCH  34  42
ENDBRANCH   1  29
TORSDOF 13
ENDMDL
MODEL 4
REMARK VINA RESULT:    -6.590      1.655      6.434
REMARK INTER + INTRA:         -11.601
REMARK INTER:                 -10.258
REMARK INTRA:                  -1.343
REMARK UNBOUND:                -1.736
REMARK SMILES O=c1c(O[C@H]2O[C@H](CO)[C@H](O)[C@H](O)[C@@H]2O)c(-c2cc(O)c(O)c(O)c2)oc2cc(O)cc(O)c12
REMARK SMILES IDX 4 1 3 2 16 3 26 4 2 5 27 6 1 7 34 8 28 9 32 10 29 11 31 12
REMARK SMILES IDX 17 13 18 14 19 15 25 16 21 17 23 18 20 19 22 21 24 23 33 25
REMARK SMILES IDX 30 27 5 29 14 30 6 31 12 32 7 33 10 34 15 35 13 37 8 39 9 40
REMARK SMILES IDX 11 42
REMARK H PARENT 20 20 22 22 24 24 33 26 30 28 15 36 13 38 9 41 11 43
REMARK Flexibility Score: inf
ROOT
ATOM      1  O   UNL     1     -13.764  38.818  -1.894  1.00  0.00    -0.454 OA
ENDROOT
BRANCH   1   2
ATOM      2  C   UNL     1     -13.975  37.637  -1.162  1.00  0.00     0.214 A 
ATOM      3  C   UNL     1     -15.285  37.241  -0.839  1.00  0.00     0.181 A 
ATOM      4  O   UNL     1     -15.495  36.075  -0.238  1.00  0.00    -0.452 OA
ATOM      5  C   UNL     1     -12.901  36.836  -0.732  1.00  0.00     0.239 A 
ATOM      6  C   UNL     1     -14.517  35.262   0.141  1.00  0.00     0.146 A 
ATOM      7  O   UNL     1     -11.724  37.222  -0.960  1.00  0.00    -0.285 OA
ATOM      8  C   UNL     1     -13.155  35.620  -0.048  1.00  0.00     0.111 A 
ATOM      9  C   UNL     1     -14.857  34.044   0.736  1.00  0.00     0.094 A 
ATOM     10  C   UNL     1     -12.146  34.727   0.429  1.00  0.00     0.134 A 
ATOM     11  C   UNL     1     -13.866  33.158   1.149  1.00  0.00     0.123 A 
ATOM     12  C   UNL     1     -12.520  33.500   0.991  1.00  0.00     0.093 A 
BRANCH   3  13
ATOM     13  C   UNL     1     -16.458  38.073  -1.174  1.00  0.00     0.029 A 
ATOM     14  C   UNL     1     -16.877  39.114  -0.326  1.00  0.00     0.062 A 
ATOM     15  C   UNL     1     -17.993  39.894  -0.655  1.00  0.00     0.162 A 
ATOM     16  C   UNL     1     -17.191  37.799  -2.339  1.00  0.00     0.062 A 
ATOM     17  C   UNL     1     -18.713  39.629  -1.834  1.00  0.00     0.200 A 
ATOM     18  C   UNL     1     -18.309  38.577  -2.677  1.00  0.00     0.162 A 
BRANCH  15  19
ATOM     19  O   UNL     1     -18.371  40.928   0.205  1.00  0.00    -0.504 OA
ATOM     20  H   UNL     1     -19.167  40.850   0.824  1.00  0.00     0.293 HD
ENDBRANCH  15  19
BRANCH  17  21
ATOM     21  O   UNL     1     -19.824  40.412  -2.153  1.00  0.00    -0.502 OA
ATOM     22  H   UNL     1     -20.690  40.007  -2.494  1.00  0.00     0.293 HD
ENDBRANCH  17  21
BRANCH  18  23
ATOM     23  O   UNL     1     -19.015  38.314  -3.851  1.00  0.00    -0.504 OA
ATOM     24  H   UNL     1     -18.984  37.405  -4.300  1.00  0.00     0.293 HD
ENDBRANCH  18  23
ENDBRANCH   3  13
BRANCH  10  25
ATOM     25  O   UNL     1     -10.774  34.998   0.391  1.00  0.00    -0.507 OA
ATOM     26  H   UNL     1     -10.336  35.685  -0.202  1.00  0.00     0.293 HD
ENDBRANCH  10  25
BRANCH  11  27
ATOM     27  O   UNL     1     -14.228  31.940   1.723  1.00  0.00    -0.508 OA
ATOM     28  H   UNL     1     -13.967  31.705   2.677  1.00  0.00     0.293 HD
ENDBRANCH  11  27
ENDBRANCH   1   2
BRANCH   1  29
ATOM     29  C   UNL     1     -14.038  38.941  -3.297  1.00  0.00     0.339 C 
ATOM     30  C   UNL     1     -12.976  38.185  -4.120  1.00  0.00     0.214 C 
ATOM     31  O   UNL     1     -14.145  40.306  -3.682  1.00  0.00    -0.332 OA
ATOM     32  C   UNL     1     -11.625  38.930  -4.081  1.00  0.00     0.180 C 
ATOM     33  C   UNL     1     -12.916  41.001  -3.512  1.00  0.00     0.179 C 
ATOM     34  C   UNL     1     -11.819  40.416  -4.430  1.00  0.00     0.177 C 
BRANCH  30  35
ATOM     35  O   UNL     1     -13.429  38.059  -5.447  1.00  0.00    -0.384 OA
ATOM     36  H   UNL     1     -13.351  37.097  -5.690  1.00  0.00     0.211 HD
ENDBRANCH  30  35
BRANCH  32  37
ATOM     37  O   UNL     1     -10.707  38.345  -4.970  1.00  0.00    -0.387 OA
ATOM     38  H   UNL     1     -10.440  39.047  -5.618  1.00  0.00     0.211 HD
ENDBRANCH  32  37
BRANCH  33  39
ATOM     39  C   UNL     1     -13.153  42.497  -3.785  1.00  0.00     0.191 C 
BRANCH  39  40
ATOM     40  O   UNL     1     -13.718  42.693  -5.056  1.00  0.00    -0.394 OA
ATOM     41  H   UNL     1     -13.065  42.340  -5.715  1.00  0.00     0.210 HD
ENDBRANCH  39  40
ENDBRANCH  33  39
BRANCH  34  42
ATOM     42  O   UNL     1     -12.194  40.562  -5.778  1.00  0.00    -0.387 OA
ATOM     43  H   UNL     1     -13.072  41.027  -5.785  1.00  0.00     0.211 HD
ENDBRANCH  34  42
ENDBRANCH   1  29
TORSDOF 13
ENDMDL
MODEL 5
REMARK VINA RESULT:    -6.405      1.457      2.756
REMARK INTER + INTRA:         -11.324
REMARK INTER:                  -9.881
REMARK INTRA:                  -1.443
REMARK UNBOUND:                -1.736
REMARK SMILES O=c1c(O[C@H]2O[C@H](CO)[C@H](O)[C@H](O)[C@@H]2O)c(-c2cc(O)c(O)c(O)c2)oc2cc(O)cc(O)c12
REMARK SMILES IDX 4 1 3 2 16 3 26 4 2 5 27 6 1 7 34 8 28 9 32 10 29 11 31 12
REMARK SMILES IDX 17 13 18 14 19 15 25 16 21 17 23 18 20 19 22 21 24 23 33 25
REMARK SMILES IDX 30 27 5 29 14 30 6 31 12 32 7 33 10 34 15 35 13 37 8 39 9 40
REMARK SMILES IDX 11 42
REMARK H PARENT 20 20 22 22 24 24 33 26 30 28 15 36 13 38 9 41 11 43
REMARK Flexibility Score: inf
ROOT
ATOM      1  O   UNL     1     -13.244  37.103  -2.539  1.00  0.00    -0.454 OA
ENDROOT
BRANCH   1   2
ATOM      2  C   UNL     1     -12.951  38.178  -3.396  1.00  0.00     0.214 A 
ATOM      3  C   UNL     1     -13.936  39.145  -3.664  1.00  0.00     0.181 A 
ATOM      4  O   UNL     1     -13.633  40.215  -4.389  1.00  0.00    -0.452 OA
ATOM      5  C   UNL     1     -11.689  38.310  -4.005  1.00  0.00     0.239 A 
ATOM      6  C   UNL     1     -12.441  40.409  -4.942  1.00  0.00     0.146 A 
ATOM      7  O   UNL     1     -10.827  37.410  -3.821  1.00  0.00    -0.285 OA
ATOM      8  C   UNL     1     -11.411  39.440  -4.815  1.00  0.00     0.111 A 
ATOM      9  C   UNL     1     -12.225  41.589  -5.658  1.00  0.00     0.094 A 
ATOM     10  C   UNL     1     -10.166  39.680  -5.477  1.00  0.00     0.134 A 
ATOM     11  C   UNL     1     -10.991  41.838  -6.255  1.00  0.00     0.123 A 
ATOM     12  C   UNL     1      -9.970  40.888  -6.159  1.00  0.00     0.093 A 
BRANCH   3  13
ATOM     13  C   UNL     1     -15.311  39.028  -3.138  1.00  0.00     0.029 A 
ATOM     14  C   UNL     1     -16.287  38.274  -3.814  1.00  0.00     0.062 A 
ATOM     15  C   UNL     1     -17.587  38.173  -3.304  1.00  0.00     0.162 A 
ATOM     16  C   UNL     1     -15.662  39.708  -1.961  1.00  0.00     0.062 A 
ATOM     17  C   UNL     1     -17.930  38.840  -2.115  1.00  0.00     0.200 A 
ATOM     18  C   UNL     1     -16.962  39.611  -1.443  1.00  0.00     0.162 A 
BRANCH  15  19
ATOM     19  O   UNL     1     -18.526  37.405  -3.997  1.00  0.00    -0.504 OA
ATOM     20  H   UNL     1     -18.299  36.502  -4.391  1.00  0.00     0.293 HD
ENDBRANCH  15  19
BRANCH  17  21
ATOM     21  O   UNL     1     -19.229  38.734  -1.614  1.00  0.00    -0.502 OA
ATOM     22  H   UNL     1     -19.937  39.438  -1.797  1.00  0.00     0.293 HD
ENDBRANCH  17  21
BRANCH  18  23
ATOM     23  O   UNL     1     -17.294  40.270  -0.259  1.00  0.00    -0.504 OA
ATOM     24  H   UNL     1     -17.931  39.862   0.418  1.00  0.00     0.293 HD
ENDBRANCH  18  23
ENDBRANCH   3  13
BRANCH  10  25
ATOM     25  O   UNL     1      -9.104  38.770  -5.512  1.00  0.00    -0.507 OA
ATOM     26  H   UNL     1      -8.375  38.759  -6.207  1.00  0.00     0.293 HD
ENDBRANCH  10  25
BRANCH  11  27
ATOM     27  O   UNL     1     -10.790  43.030  -6.949  1.00  0.00    -0.508 OA
ATOM     28  H   UNL     1     -11.503  43.753  -6.979  1.00  0.00     0.293 HD
ENDBRANCH  11  27
ENDBRANCH   1   2
BRANCH   1  29
ATOM     29  C   UNL     1     -13.817  35.866  -2.985  1.00  0.00     0.339 C 
ATOM     30  C   UNL     1     -14.723  35.268  -1.889  1.00  0.00     0.214 C 
ATOM     31  O   UNL     1     -12.809  34.954  -3.405  1.00  0.00    -0.332 OA
ATOM     32  C   UNL     1     -13.876  34.724  -0.720  1.00  0.00     0.180 C 
ATOM     33  C   UNL     1     -11.962  34.570  -2.329  1.00  0.00     0.179 C 
ATOM     34  C   UNL     1     -12.757  33.808  -1.245  1.00  0.00     0.177 C 
BRANCH  30  35
ATOM     35  O   UNL     1     -15.503  34.240  -2.451  1.00  0.00    -0.384 OA
ATOM     36  H   UNL     1     -16.289  34.675  -2.881  1.00  0.00     0.211 HD
ENDBRANCH  30  35
BRANCH  32  37
ATOM     37  O   UNL     1     -14.680  34.021   0.194  1.00  0.00    -0.387 OA
ATOM     38  H   UNL     1     -15.265  34.686   0.641  1.00  0.00     0.211 HD
ENDBRANCH  32  37
BRANCH  33  39
ATOM     39  C   UNL     1     -10.805  33.725  -2.891  1.00  0.00     0.191 C 
BRANCH  39  40
ATOM     40  O   UNL     1     -10.266  34.313  -4.046  1.00  0.00    -0.394 OA
ATOM     41  H   UNL     1      -9.827  35.156  -3.758  1.00  0.00     0.210 HD
ENDBRANCH  39  40
ENDBRANCH  33  39
BRANCH  34  42
ATOM     42  O   UNL     1     -13.297  32.628  -1.788  1.00  0.00    -0.387 OA
ATOM     43  H   UNL     1     -14.284  32.740  -1.802  1.00  0.00     0.211 HD
ENDBRANCH  34  42
ENDBRANCH   1  29
TORSDOF 13
ENDMDL
MODEL 6
REMARK VINA RESULT:    -6.194      1.576      2.003
REMARK INTER + INTRA:         -11.009
REMARK INTER:                  -9.417
REMARK INTRA:                  -1.592
REMARK UNBOUND:                -1.736
REMARK SMILES O=c1c(O[C@H]2O[C@H](CO)[C@H](O)[C@H](O)[C@@H]2O)c(-c2cc(O)c(O)c(O)c2)oc2cc(O)cc(O)c12
REMARK SMILES IDX 4 1 3 2 16 3 26 4 2 5 27 6 1 7 34 8 28 9 32 10 29 11 31 12
REMARK SMILES IDX 17 13 18 14 19 15 25 16 21 17 23 18 20 19 22 21 24 23 33 25
REMARK SMILES IDX 30 27 5 29 14 30 6 31 12 32 7 33 10 34 15 35 13 37 8 39 9 40
REMARK SMILES IDX 11 42
REMARK H PARENT 20 20 22 22 24 24 33 26 30 28 15 36 13 38 9 41 11 43
REMARK Flexibility Score: inf
ROOT
ATOM      1  O   UNL     1     -13.948  36.910  -2.515  1.00  0.00    -0.454 OA
ENDROOT
BRANCH   1   2
ATOM      2  C   UNL     1     -13.787  38.163  -3.131  1.00  0.00     0.214 A 
ATOM      3  C   UNL     1     -14.655  39.219  -2.801  1.00  0.00     0.181 A 
ATOM      4  O   UNL     1     -14.444  40.430  -3.302  1.00  0.00    -0.452 OA
ATOM      5  C   UNL     1     -12.776  38.391  -4.083  1.00  0.00     0.239 A 
ATOM      6  C   UNL     1     -13.473  40.705  -4.164  1.00  0.00     0.146 A 
ATOM      7  O   UNL     1     -12.040  37.429  -4.431  1.00  0.00    -0.285 OA
ATOM      8  C   UNL     1     -12.607  39.684  -4.638  1.00  0.00     0.111 A 
ATOM      9  C   UNL     1     -13.325  42.025  -4.600  1.00  0.00     0.094 A 
ATOM     10  C   UNL     1     -11.614  40.031  -5.607  1.00  0.00     0.134 A 
ATOM     11  C   UNL     1     -12.320  42.361  -5.503  1.00  0.00     0.123 A 
ATOM     12  C   UNL     1     -11.470  41.369  -5.998  1.00  0.00     0.093 A 
BRANCH   3  13
ATOM     13  C   UNL     1     -15.796  39.035  -1.881  1.00  0.00     0.029 A 
ATOM     14  C   UNL     1     -17.117  38.987  -2.361  1.00  0.00     0.062 A 
ATOM     15  C   UNL     1     -18.189  38.813  -1.477  1.00  0.00     0.162 A 
ATOM     16  C   UNL     1     -15.563  38.942  -0.500  1.00  0.00     0.062 A 
ATOM     17  C   UNL     1     -17.950  38.701  -0.095  1.00  0.00     0.200 A 
ATOM     18  C   UNL     1     -16.631  38.766   0.392  1.00  0.00     0.162 A 
BRANCH  15  19
ATOM     19  O   UNL     1     -19.487  38.757  -1.991  1.00  0.00    -0.504 OA
ATOM     20  H   UNL     1     -19.883  39.511  -2.537  1.00  0.00     0.293 HD
ENDBRANCH  15  19
BRANCH  17  21
ATOM     21  O   UNL     1     -19.026  38.529   0.778  1.00  0.00    -0.502 OA
ATOM     22  H   UNL     1     -19.043  38.949   1.702  1.00  0.00     0.293 HD
ENDBRANCH  17  21
BRANCH  18  23
ATOM     23  O   UNL     1     -16.387  38.648   1.761  1.00  0.00    -0.504 OA
ATOM     24  H   UNL     1     -17.037  38.174   2.379  1.00  0.00     0.293 HD
ENDBRANCH  18  23
ENDBRANCH   3  13
BRANCH  10  25
ATOM     25  O   UNL     1     -10.760  39.110  -6.224  1.00  0.00    -0.507 OA
ATOM     26  H   UNL     1     -10.465  38.235  -5.821  1.00  0.00     0.293 HD
ENDBRANCH  10  25
BRANCH  11  27
ATOM     27  O   UNL     1     -12.178  43.687  -5.911  1.00  0.00    -0.508 OA
ATOM     28  H   UNL     1     -11.510  43.953  -6.630  1.00  0.00     0.293 HD
ENDBRANCH  11  27
ENDBRANCH   1   2
BRANCH   1  29
ATOM     29  C   UNL     1     -13.102  36.430  -1.460  1.00  0.00     0.339 C 
ATOM     30  C   UNL     1     -12.394  35.129  -1.890  1.00  0.00     0.214 C 
ATOM     31  O   UNL     1     -13.830  36.271  -0.249  1.00  0.00    -0.332 OA
ATOM     32  C   UNL     1     -13.394  33.955  -1.938  1.00  0.00     0.180 C 
ATOM     33  C   UNL     1     -14.834  35.270  -0.363  1.00  0.00     0.179 C 
ATOM     34  C   UNL     1     -14.204  33.884  -0.631  1.00  0.00     0.177 C 
BRANCH  30  35
ATOM     35  O   UNL     1     -11.355  34.852  -0.982  1.00  0.00    -0.384 OA
ATOM     36  H   UNL     1     -10.976  35.729  -0.699  1.00  0.00     0.211 HD
ENDBRANCH  30  35
BRANCH  32  37
ATOM     37  O   UNL     1     -12.725  32.738  -2.153  1.00  0.00    -0.387 OA
ATOM     38  H   UNL     1     -12.518  32.685  -3.121  1.00  0.00     0.211 HD
ENDBRANCH  32  37
BRANCH  33  39
ATOM     39  C   UNL     1     -15.683  35.274   0.920  1.00  0.00     0.191 C 
BRANCH  39  40
ATOM     40  O   UNL     1     -14.982  35.863   1.985  1.00  0.00    -0.394 OA
ATOM     41  H   UNL     1     -15.636  36.423   2.481  1.00  0.00     0.210 HD
ENDBRANCH  39  40
ENDBRANCH  33  39
BRANCH  34  42
ATOM     42  O   UNL     1     -13.376  33.518   0.445  1.00  0.00    -0.387 OA
ATOM     43  H   UNL     1     -12.594  33.041   0.061  1.00  0.00     0.211 HD
ENDBRANCH  34  42
ENDBRANCH   1  29
TORSDOF 13
ENDMDL
MODEL 7
REMARK VINA RESULT:    -6.007      2.014      6.519
REMARK INTER + INTRA:         -10.728
REMARK INTER:                  -9.316
REMARK INTRA:                  -1.412
REMARK UNBOUND:                -1.736
REMARK SMILES O=c1c(O[C@H]2O[C@H](CO)[C@H](O)[C@H](O)[C@@H]2O)c(-c2cc(O)c(O)c(O)c2)oc2cc(O)cc(O)c12
REMARK SMILES IDX 4 1 3 2 16 3 26 4 2 5 27 6 1 7 34 8 28 9 32 10 29 11 31 12
REMARK SMILES IDX 17 13 18 14 19 15 25 16 21 17 23 18 20 19 22 21 24 23 33 25
REMARK SMILES IDX 30 27 5 29 14 30 6 31 12 32 7 33 10 34 15 35 13 37 8 39 9 40
REMARK SMILES IDX 11 42
REMARK H PARENT 20 20 22 22 24 24 33 26 30 28 15 36 13 38 9 41 11 43
REMARK Flexibility Score: inf
ROOT
ATOM      1  O   UNL     1     -13.833  38.401  -2.506  1.00  0.00    -0.454 OA
ENDROOT
BRANCH   1   2
ATOM      2  C   UNL     1     -14.005  37.324  -1.619  1.00  0.00     0.214 A 
ATOM      3  C   UNL     1     -15.277  37.061  -1.080  1.00  0.00     0.181 A 
ATOM      4  O   UNL     1     -15.466  35.985  -0.325  1.00  0.00    -0.452 OA
ATOM      5  C   UNL     1     -12.928  36.498  -1.247  1.00  0.00     0.239 A 
ATOM      6  C   UNL     1     -14.491  35.149   0.012  1.00  0.00     0.146 A 
ATOM      7  O   UNL     1     -11.775  36.772  -1.674  1.00  0.00    -0.285 OA
ATOM      8  C   UNL     1     -13.152  35.385  -0.398  1.00  0.00     0.111 A 
ATOM      9  C   UNL     1     -14.813  34.030   0.785  1.00  0.00     0.094 A 
ATOM     10  C   UNL     1     -12.137  34.478   0.040  1.00  0.00     0.134 A 
ATOM     11  C   UNL     1     -13.825  33.124   1.162  1.00  0.00     0.123 A 
ATOM     12  C   UNL     1     -12.498  33.349   0.787  1.00  0.00     0.093 A 
BRANCH   3  13
ATOM     13  C   UNL     1     -16.436  37.935  -1.349  1.00  0.00     0.029 A 
ATOM     14  C   UNL     1     -16.805  38.952  -0.451  1.00  0.00     0.062 A 
ATOM     15  C   UNL     1     -17.908  39.772  -0.718  1.00  0.00     0.162 A 
ATOM     16  C   UNL     1     -17.207  37.726  -2.504  1.00  0.00     0.062 A 
ATOM     17  C   UNL     1     -18.666  39.572  -1.886  1.00  0.00     0.200 A 
ATOM     18  C   UNL     1     -18.313  38.544  -2.780  1.00  0.00     0.162 A 
BRANCH  15  19
ATOM     19  O   UNL     1     -18.236  40.781   0.191  1.00  0.00    -0.504 OA
ATOM     20  H   UNL     1     -18.878  41.527  -0.041  1.00  0.00     0.293 HD
ENDBRANCH  15  19
BRANCH  17  21
ATOM     21  O   UNL     1     -19.765  40.395  -2.143  1.00  0.00    -0.502 OA
ATOM     22  H   UNL     1     -20.712  40.033  -2.181  1.00  0.00     0.293 HD
ENDBRANCH  17  21
BRANCH  18  23
ATOM     23  O   UNL     1     -19.057  38.345  -3.944  1.00  0.00    -0.504 OA
ATOM     24  H   UNL     1     -20.071  38.365  -3.938  1.00  0.00     0.293 HD
ENDBRANCH  18  23
ENDBRANCH   3  13
BRANCH  10  25
ATOM     25  O   UNL     1     -10.771  34.644  -0.212  1.00  0.00    -0.507 OA
ATOM     26  H   UNL     1     -10.054  34.688   0.495  1.00  0.00     0.293 HD
ENDBRANCH  10  25
BRANCH  11  27
ATOM     27  O   UNL     1     -14.170  32.004   1.918  1.00  0.00    -0.508 OA
ATOM     28  H   UNL     1     -13.815  31.080   1.691  1.00  0.00     0.293 HD
ENDBRANCH  11  27
ENDBRANCH   1   2
BRANCH   1  29
ATOM     29  C   UNL     1     -13.643  39.758  -2.079  1.00  0.00     0.339 C 
ATOM     30  C   UNL     1     -14.068  40.735  -3.194  1.00  0.00     0.214 C 
ATOM     31  O   UNL     1     -12.305  39.980  -1.651  1.00  0.00    -0.332 OA
ATOM     32  C   UNL     1     -13.052  40.712  -4.355  1.00  0.00     0.180 C 
ATOM     33  C   UNL     1     -11.376  39.824  -2.717  1.00  0.00     0.179 C 
ATOM     34  C   UNL     1     -11.619  40.879  -3.820  1.00  0.00     0.177 C 
BRANCH  30  35
ATOM     35  O   UNL     1     -14.166  42.031  -2.653  1.00  0.00    -0.384 OA
ATOM     36  H   UNL     1     -14.275  42.658  -3.419  1.00  0.00     0.211 HD
ENDBRANCH  30  35
BRANCH  32  37
ATOM     37  O   UNL     1     -13.336  41.725  -5.286  1.00  0.00    -0.387 OA
ATOM     38  H   UNL     1     -13.977  41.348  -5.942  1.00  0.00     0.211 HD
ENDBRANCH  32  37
BRANCH  33  39
ATOM     39  C   UNL     1      -9.950  39.911  -2.145  1.00  0.00     0.191 C 
BRANCH  39  40
ATOM     40  O   UNL     1      -9.698  38.853  -1.257  1.00  0.00    -0.394 OA
ATOM     41  H   UNL     1      -8.758  38.573  -1.409  1.00  0.00     0.210 HD
ENDBRANCH  39  40
ENDBRANCH  33  39
BRANCH  34  42
ATOM     42  O   UNL     1     -11.434  42.171  -3.296  1.00  0.00    -0.387 OA
ATOM     43  H   UNL     1     -12.316  42.626  -3.325  1.00  0.00     0.211 HD
ENDBRANCH  34  42
ENDBRANCH   1  29
TORSDOF 13
ENDMDL
MODEL 8
REMARK VINA RESULT:    -5.969      1.376      2.099
REMARK INTER + INTRA:         -10.671
REMARK INTER:                  -9.665
REMARK INTRA:                  -1.006
REMARK UNBOUND:                -1.736
REMARK SMILES O=c1c(O[C@H]2O[C@H](CO)[C@H](O)[C@H](O)[C@@H]2O)c(-c2cc(O)c(O)c(O)c2)oc2cc(O)cc(O)c12
REMARK SMILES IDX 4 1 3 2 16 3 26 4 2 5 27 6 1 7 34 8 28 9 32 10 29 11 31 12
REMARK SMILES IDX 17 13 18 14 19 15 25 16 21 17 23 18 20 19 22 21 24 23 33 25
REMARK SMILES IDX 30 27 5 29 14 30 6 31 12 32 7 33 10 34 15 35 13 37 8 39 9 40
REMARK SMILES IDX 11 42
REMARK H PARENT 20 20 22 22 24 24 33 26 30 28 15 36 13 38 9 41 11 43
REMARK Flexibility Score: inf
ROOT
ATOM      1  O   UNL     1     -13.940  36.026  -1.590  1.00  0.00    -0.454 OA
ENDROOT
BRANCH   1   2
ATOM      2  C   UNL     1     -13.299  36.774  -2.592  1.00  0.00     0.214 A 
ATOM      3  C   UNL     1     -14.030  37.722  -3.331  1.00  0.00     0.181 A 
ATOM      4  O   UNL     1     -13.407  38.502  -4.206  1.00  0.00    -0.452 OA
ATOM      5  C   UNL     1     -11.933  36.595  -2.885  1.00  0.00     0.239 A 
ATOM      6  C   UNL     1     -12.111  38.405  -4.479  1.00  0.00     0.146 A 
ATOM      7  O   UNL     1     -11.292  35.701  -2.272  1.00  0.00    -0.285 OA
ATOM      8  C   UNL     1     -11.307  37.411  -3.860  1.00  0.00     0.111 A 
ATOM      9  C   UNL     1     -11.556  39.303  -5.395  1.00  0.00     0.094 A 
ATOM     10  C   UNL     1      -9.930  37.321  -4.235  1.00  0.00     0.134 A 
ATOM     11  C   UNL     1     -10.201  39.241  -5.712  1.00  0.00     0.123 A 
ATOM     12  C   UNL     1      -9.397  38.257  -5.131  1.00  0.00     0.093 A 
BRANCH   3  13
ATOM     13  C   UNL     1     -15.484  37.903  -3.147  1.00  0.00     0.029 A 
ATOM     14  C   UNL     1     -16.389  36.870  -3.447  1.00  0.00     0.062 A 
ATOM     15  C   UNL     1     -17.765  37.056  -3.270  1.00  0.00     0.162 A 
ATOM     16  C   UNL     1     -15.976  39.139  -2.700  1.00  0.00     0.062 A 
ATOM     17  C   UNL     1     -18.254  38.290  -2.803  1.00  0.00     0.200 A 
ATOM     18  C   UNL     1     -17.353  39.334  -2.519  1.00  0.00     0.162 A 
BRANCH  15  19
ATOM     19  O   UNL     1     -18.634  36.002  -3.565  1.00  0.00    -0.504 OA
ATOM     20  H   UNL     1     -19.511  36.146  -4.048  1.00  0.00     0.293 HD
ENDBRANCH  15  19
BRANCH  17  21
ATOM     21  O   UNL     1     -19.628  38.467  -2.630  1.00  0.00    -0.502 OA
ATOM     22  H   UNL     1     -20.049  39.388  -2.564  1.00  0.00     0.293 HD
ENDBRANCH  17  21
BRANCH  18  23
ATOM     23  O   UNL     1     -17.830  40.558  -2.048  1.00  0.00    -0.504 OA
ATOM     24  H   UNL     1     -17.496  41.440  -2.422  1.00  0.00     0.293 HD
ENDBRANCH  18  23
ENDBRANCH   3  13
BRANCH  10  25
ATOM     25  O   UNL     1      -9.052  36.334  -3.775  1.00  0.00    -0.507 OA
ATOM     26  H   UNL     1      -9.320  35.399  -3.511  1.00  0.00     0.293 HD
ENDBRANCH  10  25
BRANCH  11  27
ATOM     27  O   UNL     1      -9.663  40.158  -6.615  1.00  0.00    -0.508 OA
ATOM     28  H   UNL     1      -9.843  41.154  -6.529  1.00  0.00     0.293 HD
ENDBRANCH  11  27
ENDBRANCH   1   2
BRANCH   1  29
ATOM     29  C   UNL     1     -14.431  36.593  -0.368  1.00  0.00     0.339 C 
ATOM     30  C   UNL     1     -13.296  37.323   0.380  1.00  0.00     0.214 C 
ATOM     31  O   UNL     1     -15.059  35.606   0.442  1.00  0.00    -0.332 OA
ATOM     32  C   UNL     1     -12.298  36.310   0.978  1.00  0.00     0.180 C 
ATOM     33  C   UNL     1     -14.138  34.612   0.873  1.00  0.00     0.179 C 
ATOM     34  C   UNL     1     -13.044  35.227   1.776  1.00  0.00     0.177 C 
BRANCH  30  35
ATOM     35  O   UNL     1     -13.857  38.120   1.395  1.00  0.00    -0.384 OA
ATOM     36  H   UNL     1     -13.604  37.703   2.264  1.00  0.00     0.211 HD
ENDBRANCH  30  35
BRANCH  32  37
ATOM     37  O   UNL     1     -11.367  36.958   1.807  1.00  0.00    -0.387 OA
ATOM     38  H   UNL     1     -11.637  36.782   2.745  1.00  0.00     0.211 HD
ENDBRANCH  32  37
BRANCH  33  39
ATOM     39  C   UNL     1     -14.917  33.498   1.595  1.00  0.00     0.191 C 
BRANCH  39  40
ATOM     40  O   UNL     1     -14.246  32.269   1.495  1.00  0.00    -0.394 OA
ATOM     41  H   UNL     1     -14.403  31.789   2.350  1.00  0.00     0.210 HD
ENDBRANCH  39  40
ENDBRANCH  33  39
BRANCH  34  42
ATOM     42  O   UNL     1     -13.630  35.777   2.930  1.00  0.00    -0.387 OA
ATOM     43  H   UNL     1     -13.096  35.460   3.706  1.00  0.00     0.211 HD
ENDBRANCH  34  42
ENDBRANCH   1  29
TORSDOF 13
ENDMDL
MODEL 9
REMARK VINA RESULT:    -5.916      2.007      3.033
REMARK INTER + INTRA:         -10.591
REMARK INTER:                  -8.854
REMARK INTRA:                  -1.738
REMARK UNBOUND:                -1.736
REMARK SMILES O=c1c(O[C@H]2O[C@H](CO)[C@H](O)[C@H](O)[C@@H]2O)c(-c2cc(O)c(O)c(O)c2)oc2cc(O)cc(O)c12
REMARK SMILES IDX 4 1 3 2 16 3 26 4 2 5 27 6 1 7 34 8 28 9 32 10 29 11 31 12
REMARK SMILES IDX 17 13 18 14 19 15 25 16 21 17 23 18 20 19 22 21 24 23 33 25
REMARK SMILES IDX 30 27 5 29 14 30 6 31 12 32 7 33 10 34 15 35 13 37 8 39 9 40
REMARK SMILES IDX 11 42
REMARK H PARENT 20 20 22 22 24 24 33 26 30 28 15 36 13 38 9 41 11 43
REMARK Flexibility Score: inf
ROOT
ATOM      1  O   UNL     1     -12.744  37.069  -3.220  1.00  0.00    -0.454 OA
ENDROOT
BRANCH   1   2
ATOM      2  C   UNL     1     -13.066  38.405  -3.514  1.00  0.00     0.214 A 
ATOM      3  C   UNL     1     -14.222  38.982  -2.959  1.00  0.00     0.181 A 
ATOM      4  O   UNL     1     -14.475  40.271  -3.151  1.00  0.00    -0.452 OA
ATOM      5  C   UNL     1     -12.259  39.186  -4.363  1.00  0.00     0.239 A 
ATOM      6  C   UNL     1     -13.716  41.061  -3.902  1.00  0.00     0.146 A 
ATOM      7  O   UNL     1     -11.261  38.652  -4.915  1.00  0.00    -0.285 OA
ATOM      8  C   UNL     1     -12.583  40.548  -4.588  1.00  0.00     0.111 A 
ATOM      9  C   UNL     1     -14.061  42.411  -4.006  1.00  0.00     0.094 A 
ATOM     10  C   UNL     1     -11.836  41.435  -5.424  1.00  0.00     0.134 A 
ATOM     11  C   UNL     1     -13.295  43.278  -4.781  1.00  0.00     0.123 A 
ATOM     12  C   UNL     1     -12.188  42.790  -5.481  1.00  0.00     0.093 A 
BRANCH   3  13
ATOM     13  C   UNL     1     -15.167  38.202  -2.135  1.00  0.00     0.029 A 
ATOM     14  C   UNL     1     -15.951  37.180  -2.698  1.00  0.00     0.062 A 
ATOM     15  C   UNL     1     -16.844  36.450  -1.905  1.00  0.00     0.162 A 
ATOM     16  C   UNL     1     -15.312  38.509  -0.773  1.00  0.00     0.062 A 
ATOM     17  C   UNL     1     -16.973  36.746  -0.536  1.00  0.00     0.200 A 
ATOM     18  C   UNL     1     -16.204  37.781   0.029  1.00  0.00     0.162 A 
BRANCH  15  19
ATOM     19  O   UNL     1     -17.598  35.432  -2.496  1.00  0.00    -0.504 OA
ATOM     20  H   UNL     1     -18.608  35.413  -2.449  1.00  0.00     0.293 HD
ENDBRANCH  15  19
BRANCH  17  21
ATOM     21  O   UNL     1     -17.867  36.013   0.247  1.00  0.00    -0.502 OA
ATOM     22  H   UNL     1     -18.472  36.455   0.932  1.00  0.00     0.293 HD
ENDBRANCH  17  21
BRANCH  18  23
ATOM     23  O   UNL     1     -16.322  38.075   1.388  1.00  0.00    -0.504 OA
ATOM     24  H   UNL     1     -16.768  38.927   1.712  1.00  0.00     0.293 HD
ENDBRANCH  18  23
ENDBRANCH   3  13
BRANCH  10  25
ATOM     25  O   UNL     1     -10.759  41.042  -6.225  1.00  0.00    -0.507 OA
ATOM     26  H   UNL     1      -9.877  40.696  -5.880  1.00  0.00     0.293 HD
ENDBRANCH  10  25
BRANCH  11  27
ATOM     27  O   UNL     1     -13.646  44.626  -4.856  1.00  0.00    -0.508 OA
ATOM     28  H   UNL     1     -13.194  45.325  -4.274  1.00  0.00     0.293 HD
ENDBRANCH  11  27
ENDBRANCH   1   2
BRANCH   1  29
ATOM     29  C   UNL     1     -11.798  36.684  -2.212  1.00  0.00     0.339 C 
ATOM     30  C   UNL     1     -10.835  35.611  -2.760  1.00  0.00     0.214 C 
ATOM     31  O   UNL     1     -12.456  36.259  -1.025  1.00  0.00    -0.332 OA
ATOM     32  C   UNL     1     -11.562  34.261  -2.925  1.00  0.00     0.180 C 
ATOM     33  C   UNL     1     -13.224  35.082  -1.239  1.00  0.00     0.179 C 
ATOM     34  C   UNL     1     -12.317  33.894  -1.635  1.00  0.00     0.177 C 
BRANCH  30  35
ATOM     35  O   UNL     1      -9.747  35.480  -1.878  1.00  0.00    -0.384 OA
ATOM     36  H   UNL     1      -9.104  36.207  -2.100  1.00  0.00     0.211 HD
ENDBRANCH  30  35
BRANCH  32  37
ATOM     37  O   UNL     1     -10.651  33.241  -3.252  1.00  0.00    -0.387 OA
ATOM     38  H   UNL     1     -11.078  32.379  -3.010  1.00  0.00     0.211 HD
ENDBRANCH  32  37
BRANCH  33  39
ATOM     39  C   UNL     1     -14.034  34.782   0.036  1.00  0.00     0.191 C 
BRANCH  39  40
ATOM     40  O   UNL     1     -14.186  33.399   0.222  1.00  0.00    -0.394 OA
ATOM     41  H   UNL     1     -14.828  33.088  -0.470  1.00  0.00     0.210 HD
ENDBRANCH  39  40
ENDBRANCH  33  39
BRANCH  34  42
ATOM     42  O   UNL     1     -11.412  33.615  -0.595  1.00  0.00    -0.387 OA
ATOM     43  H   UNL     1     -11.953  33.366   0.201  1.00  0.00     0.211 HD
ENDBRANCH  34  42
ENDBRANCH   1  29
TORSDOF 13
ENDMDL
