MODEL 1
REMARK VINA RESULT:    -5.126      0.000      0.000
REMARK INTER + INTRA:          -5.576
REMARK INTER:                  -5.576
REMARK INTRA:                   0.000
REMARK UNBOUND:                 0.000
REMARK SMILES Cc1cc(O)c2c(c1)C(=O)c1cc(O)cc(O)c1C2=O
REMARK SMILES IDX 1 1 2 2 8 3 7 4 6 5 4 6 3 7 19 8 20 9 18 10 11 11 9 12 10 13
REMARK SMILES IDX 12 14 13 15 15 16 16 17 5 18 17 20 14 22
REMARK H PARENT 5 19 17 21 14 23
REMARK Flexibility Score: inf
ROOT
ATOM      1  C   UNL     1      -5.437  -2.596 -11.183  1.00  0.00     0.044 C 
ATOM      2  C   UNL     1      -5.773  -3.938 -10.603  1.00  0.00    -0.047 A 
ATOM      3  C   UNL     1      -4.810  -4.953 -10.574  1.00  0.00     0.016 A 
ATOM      4  C   UNL     1      -5.106  -6.206 -10.012  1.00  0.00     0.038 A 
ATOM      5  C   UNL     1      -6.389  -6.450  -9.468  1.00  0.00     0.076 A 
ATOM      6  C   UNL     1      -7.325  -5.383  -9.413  1.00  0.00     0.127 A 
ATOM      7  C   UNL     1      -7.016  -4.154 -10.002  1.00  0.00     0.050 A 
ATOM      8  C   UNL     1      -6.719  -7.834  -9.025  1.00  0.00     0.201 C 
ATOM      9  O   UNL     1      -7.922  -8.198  -8.932  1.00  0.00    -0.288 OA
ATOM     10  C   UNL     1      -5.635  -8.826  -8.803  1.00  0.00     0.076 A 
ATOM     11  C   UNL     1      -4.340  -8.548  -9.290  1.00  0.00     0.041 A 
ATOM     12  C   UNL     1      -4.069  -7.266  -9.979  1.00  0.00     0.194 C 
ATOM     13  O   UNL     1      -2.948  -7.069 -10.523  1.00  0.00    -0.289 OA
ATOM     14  C   UNL     1      -3.313  -9.493  -9.120  1.00  0.00     0.059 A 
ATOM     15  C   UNL     1      -3.562 -10.704  -8.468  1.00  0.00     0.120 A 
ATOM     16  C   UNL     1      -4.839 -10.977  -7.979  1.00  0.00     0.093 A 
ATOM     17  C   UNL     1      -5.878 -10.051  -8.138  1.00  0.00     0.131 A 
ENDROOT
BRANCH   6  18
ATOM     18  O   UNL     1      -8.552  -5.482  -8.752  1.00  0.00    -0.507 OA
ATOM     19  H   UNL     1      -9.262  -4.764  -8.776  1.00  0.00     0.293 HD
ENDBRANCH   6  18
BRANCH  17  20
ATOM     20  O   UNL     1      -7.142 -10.345  -7.628  1.00  0.00    -0.507 OA
ATOM     21  H   UNL     1      -7.884 -10.706  -8.218  1.00  0.00     0.293 HD
ENDBRANCH  17  20
BRANCH  15  22
ATOM     22  O   UNL     1      -2.546 -11.642  -8.297  1.00  0.00    -0.508 OA
ATOM     23  H   UNL     1      -2.322 -12.021  -7.385  1.00  0.00     0.293 HD
ENDBRANCH  15  22
TORSDOF 3
ENDMDL
MODEL 2
REMARK VINA RESULT:    -5.056      1.952      2.353
REMARK INTER + INTRA:          -5.500
REMARK INTER:                  -5.500
REMARK INTRA:                   0.000
REMARK UNBOUND:                 0.000
REMARK SMILES Cc1cc(O)c2c(c1)C(=O)c1cc(O)cc(O)c1C2=O
REMARK SMILES IDX 1 1 2 2 8 3 7 4 6 5 4 6 3 7 19 8 20 9 18 10 11 11 9 12 10 13
REMARK SMILES IDX 12 14 13 15 15 16 16 17 5 18 17 20 14 22
REMARK H PARENT 5 19 17 21 14 23
REMARK Flexibility Score: inf
ROOT
ATOM      1  C   UNL     1      -8.455  -3.870  -8.153  1.00  0.00     0.044 C 
ATOM      2  C   UNL     1      -8.028  -5.301  -8.292  1.00  0.00    -0.047 A 
ATOM      3  C   UNL     1      -6.676  -5.619  -8.458  1.00  0.00     0.016 A 
ATOM      4  C   UNL     1      -6.261  -6.957  -8.565  1.00  0.00     0.038 A 
ATOM      5  C   UNL     1      -7.216  -7.998  -8.504  1.00  0.00     0.076 A 
ATOM      6  C   UNL     1      -8.572  -7.671  -8.235  1.00  0.00     0.127 A 
ATOM      7  C   UNL     1      -8.964  -6.331  -8.159  1.00  0.00     0.050 A 
ATOM      8  C   UNL     1      -6.765  -9.391  -8.778  1.00  0.00     0.201 C 
ATOM      9  O   UNL     1      -7.596 -10.265  -9.142  1.00  0.00    -0.288 OA
ATOM     10  C   UNL     1      -5.318  -9.729  -8.737  1.00  0.00     0.076 A 
ATOM     11  C   UNL     1      -4.368  -8.684  -8.731  1.00  0.00     0.041 A 
ATOM     12  C   UNL     1      -4.822  -7.276  -8.729  1.00  0.00     0.194 C 
ATOM     13  O   UNL     1      -3.979  -6.344  -8.848  1.00  0.00    -0.289 OA
ATOM     14  C   UNL     1      -2.996  -8.989  -8.729  1.00  0.00     0.059 A 
ATOM     15  C   UNL     1      -2.563 -10.318  -8.727  1.00  0.00     0.120 A 
ATOM     16  C   UNL     1      -3.499 -11.352  -8.725  1.00  0.00     0.093 A 
ATOM     17  C   UNL     1      -4.871 -11.072  -8.728  1.00  0.00     0.131 A 
ENDROOT
BRANCH   6  18
ATOM     18  O   UNL     1      -9.555  -8.636  -7.997  1.00  0.00    -0.507 OA
ATOM     19  H   UNL     1      -9.353  -9.579  -7.698  1.00  0.00     0.293 HD
ENDBRANCH   6  18
BRANCH  17  20
ATOM     20  O   UNL     1      -5.785 -12.125  -8.713  1.00  0.00    -0.507 OA
ATOM     21  H   UNL     1      -5.483 -13.093  -8.738  1.00  0.00     0.293 HD
ENDBRANCH  17  20
BRANCH  15  22
ATOM     22  O   UNL     1      -1.203 -10.622  -8.724  1.00  0.00    -0.508 OA
ATOM     23  H   UNL     1      -0.701 -10.802  -7.863  1.00  0.00     0.293 HD
ENDBRANCH  15  22
TORSDOF 3
ENDMDL
MODEL 3
REMARK VINA RESULT:    -5.022      1.267      3.347
REMARK INTER + INTRA:          -5.462
REMARK INTER:                  -5.462
REMARK INTRA:                   0.000
REMARK UNBOUND:                 0.000
REMARK SMILES Cc1cc(O)c2c(c1)C(=O)c1cc(O)cc(O)c1C2=O
REMARK SMILES IDX 1 1 2 2 8 3 7 4 6 5 4 6 3 7 19 8 20 9 18 10 11 11 9 12 10 13
REMARK SMILES IDX 12 14 13 15 15 16 16 17 5 18 17 20 14 22
REMARK H PARENT 5 19 17 21 14 23
REMARK Flexibility Score: inf
ROOT
ATOM      1  C   UNL     1      -7.206  -1.903 -10.675  1.00  0.00     0.044 C 
ATOM      2  C   UNL     1      -6.350  -3.131 -10.586  1.00  0.00    -0.047 A 
ATOM      3  C   UNL     1      -6.780  -4.237  -9.844  1.00  0.00     0.016 A 
ATOM      4  C   UNL     1      -5.997  -5.402  -9.774  1.00  0.00     0.038 A 
ATOM      5  C   UNL     1      -4.761  -5.463 -10.459  1.00  0.00     0.076 A 
ATOM      6  C   UNL     1      -4.381  -4.374 -11.288  1.00  0.00     0.127 A 
ATOM      7  C   UNL     1      -5.163  -3.216 -11.321  1.00  0.00     0.050 A 
ATOM      8  C   UNL     1      -3.885  -6.648 -10.235  1.00  0.00     0.201 C 
ATOM      9  O   UNL     1      -2.649  -6.573 -10.466  1.00  0.00    -0.288 OA
ATOM     10  C   UNL     1      -4.443  -7.886  -9.630  1.00  0.00     0.076 A 
ATOM     11  C   UNL     1      -5.708  -7.835  -9.006  1.00  0.00     0.041 A 
ATOM     12  C   UNL     1      -6.474  -6.569  -8.993  1.00  0.00     0.194 C 
ATOM     13  O   UNL     1      -7.546  -6.489  -8.331  1.00  0.00    -0.289 OA
ATOM     14  C   UNL     1      -6.233  -8.989  -8.398  1.00  0.00     0.059 A 
ATOM     15  C   UNL     1      -5.514 -10.188  -8.411  1.00  0.00     0.120 A 
ATOM     16  C   UNL     1      -4.267 -10.242  -9.033  1.00  0.00     0.093 A 
ATOM     17  C   UNL     1      -3.725  -9.104  -9.645  1.00  0.00     0.131 A 
ENDROOT
BRANCH   6  18
ATOM     18  O   UNL     1      -3.262  -4.410 -12.125  1.00  0.00    -0.507 OA
ATOM     19  H   UNL     1      -3.197  -3.903 -12.996  1.00  0.00     0.293 HD
ENDBRANCH   6  18
BRANCH  17  20
ATOM     20  O   UNL     1      -2.482  -9.191 -10.271  1.00  0.00    -0.507 OA
ATOM     21  H   UNL     1      -1.670  -8.698  -9.915  1.00  0.00     0.293 HD
ENDBRANCH  17  20
BRANCH  15  22
ATOM     22  O   UNL     1      -6.032 -11.333  -7.809  1.00  0.00    -0.508 OA
ATOM     23  H   UNL     1      -6.886 -11.306  -7.265  1.00  0.00     0.293 HD
ENDBRANCH  15  22
TORSDOF 3
ENDMDL
MODEL 4
REMARK VINA RESULT:    -4.777      9.867     12.778
REMARK INTER + INTRA:          -5.196
REMARK INTER:                  -5.196
REMARK INTRA:                   0.000
REMARK UNBOUND:                 0.000
REMARK SMILES Cc1cc(O)c2c(c1)C(=O)c1cc(O)cc(O)c1C2=O
REMARK SMILES IDX 1 1 2 2 8 3 7 4 6 5 4 6 3 7 19 8 20 9 18 10 11 11 9 12 10 13
REMARK SMILES IDX 12 14 13 15 15 16 16 17 5 18 17 20 14 22
REMARK H PARENT 5 19 17 21 14 23
REMARK Flexibility Score: inf
ROOT
ATOM      1  C   UNL     1       8.879  -9.304  -7.053  1.00  0.00     0.044 C 
ATOM      2  C   UNL     1       8.260  -8.163  -7.805  1.00  0.00    -0.047 A 
ATOM      3  C   UNL     1       6.869  -8.073  -7.926  1.00  0.00     0.016 A 
ATOM      4  C   UNL     1       6.277  -6.996  -8.608  1.00  0.00     0.038 A 
ATOM      5  C   UNL     1       7.090  -5.991  -9.181  1.00  0.00     0.076 A 
ATOM      6  C   UNL     1       8.494  -6.040  -8.968  1.00  0.00     0.127 A 
ATOM      7  C   UNL     1       9.061  -7.135  -8.308  1.00  0.00     0.050 A 
ATOM      8  C   UNL     1       6.442  -4.952 -10.030  1.00  0.00     0.201 C 
ATOM      9  O   UNL     1       7.122  -4.311 -10.874  1.00  0.00    -0.288 OA
ATOM     10  C   UNL     1       4.971  -4.749  -9.968  1.00  0.00     0.076 A 
ATOM     11  C   UNL     1       4.169  -5.723  -9.336  1.00  0.00     0.041 A 
ATOM     12  C   UNL     1       4.800  -6.909  -8.716  1.00  0.00     0.194 C 
ATOM     13  O   UNL     1       4.079  -7.840  -8.261  1.00  0.00    -0.289 OA
ATOM     14  C   UNL     1       2.773  -5.562  -9.301  1.00  0.00     0.059 A 
ATOM     15  C   UNL     1       2.172  -4.442  -9.883  1.00  0.00     0.120 A 
ATOM     16  C   UNL     1       2.963  -3.474 -10.501  1.00  0.00     0.093 A 
ATOM     17  C   UNL     1       4.356  -3.615 -10.548  1.00  0.00     0.131 A 
ENDROOT
BRANCH   6  18
ATOM     18  O   UNL     1       9.358  -5.012  -9.354  1.00  0.00    -0.507 OA
ATOM     19  H   UNL     1       9.855  -4.422  -8.702  1.00  0.00     0.293 HD
ENDBRANCH   6  18
BRANCH  17  20
ATOM     20  O   UNL     1       5.123  -2.625 -11.161  1.00  0.00    -0.507 OA
ATOM     21  H   UNL     1       5.262  -1.716 -10.733  1.00  0.00     0.293 HD
ENDBRANCH  17  20
BRANCH  15  22
ATOM     22  O   UNL     1       0.788  -4.279  -9.849  1.00  0.00    -0.508 OA
ATOM     23  H   UNL     1       0.160  -5.073  -9.893  1.00  0.00     0.293 HD
ENDBRANCH  15  22
TORSDOF 3
ENDMDL
MODEL 5
REMARK VINA RESULT:    -4.754      4.262      7.048
REMARK INTER + INTRA:          -5.171
REMARK INTER:                  -5.171
REMARK INTRA:                   0.000
REMARK UNBOUND:                 0.000
REMARK SMILES Cc1cc(O)c2c(c1)C(=O)c1cc(O)cc(O)c1C2=O
REMARK SMILES IDX 1 1 2 2 8 3 7 4 6 5 4 6 3 7 19 8 20 9 18 10 11 11 9 12 10 13
REMARK SMILES IDX 12 14 13 15 15 16 16 17 5 18 17 20 14 22
REMARK H PARENT 5 19 17 21 14 23
REMARK Flexibility Score: inf
ROOT
ATOM      1  C   UNL     1       2.349  -3.203 -11.009  1.00  0.00     0.044 C 
ATOM      2  C   UNL     1       0.895  -2.850 -11.113  1.00  0.00    -0.047 A 
ATOM      3  C   UNL     1      -0.062  -3.856 -11.289  1.00  0.00     0.016 A 
ATOM      4  C   UNL     1      -1.429  -3.540 -11.363  1.00  0.00     0.038 A 
ATOM      5  C   UNL     1      -1.849  -2.193 -11.259  1.00  0.00     0.076 A 
ATOM      6  C   UNL     1      -0.879  -1.192 -10.981  1.00  0.00     0.127 A 
ATOM      7  C   UNL     1       0.477  -1.528 -10.938  1.00  0.00     0.050 A 
ATOM      8  C   UNL     1      -3.285  -1.877 -11.499  1.00  0.00     0.201 C 
ATOM      9  O   UNL     1      -3.629  -0.710 -11.826  1.00  0.00    -0.288 OA
ATOM     10  C   UNL     1      -4.303  -2.960 -11.469  1.00  0.00     0.076 A 
ATOM     11  C   UNL     1      -3.876  -4.305 -11.506  1.00  0.00     0.041 A 
ATOM     12  C   UNL     1      -2.430  -4.620 -11.538  1.00  0.00     0.194 C 
ATOM     13  O   UNL     1      -2.050  -5.813 -11.696  1.00  0.00    -0.289 OA
ATOM     14  C   UNL     1      -4.828  -5.339 -11.515  1.00  0.00     0.059 A 
ATOM     15  C   UNL     1      -6.195  -5.046 -11.482  1.00  0.00     0.120 A 
ATOM     16  C   UNL     1      -6.619  -3.718 -11.437  1.00  0.00     0.093 A 
ATOM     17  C   UNL     1      -5.687  -2.672 -11.429  1.00  0.00     0.131 A 
ENDROOT
BRANCH   6  18
ATOM     18  O   UNL     1      -1.216   0.135 -10.702  1.00  0.00    -0.507 OA
ATOM     19  H   UNL     1      -0.949   0.615  -9.854  1.00  0.00     0.293 HD
ENDBRANCH   6  18
BRANCH  17  20
ATOM     20  O   UNL     1      -6.139  -1.354 -11.371  1.00  0.00    -0.507 OA
ATOM     21  H   UNL     1      -7.125  -1.132 -11.290  1.00  0.00     0.293 HD
ENDBRANCH  17  20
BRANCH  15  22
ATOM     22  O   UNL     1      -7.141  -6.069 -11.489  1.00  0.00    -0.508 OA
ATOM     23  H   UNL     1      -7.021  -6.907 -10.933  1.00  0.00     0.293 HD
ENDBRANCH  15  22
TORSDOF 3
ENDMDL
MODEL 6
REMARK VINA RESULT:    -4.741      9.406     11.996
REMARK INTER + INTRA:          -5.157
REMARK INTER:                  -5.157
REMARK INTRA:                   0.000
REMARK UNBOUND:                 0.000
REMARK SMILES Cc1cc(O)c2c(c1)C(=O)c1cc(O)cc(O)c1C2=O
REMARK SMILES IDX 1 1 2 2 8 3 7 4 6 5 4 6 3 7 19 8 20 9 18 10 11 11 9 12 10 13
REMARK SMILES IDX 12 14 13 15 15 16 16 17 5 18 17 20 14 22
REMARK H PARENT 5 19 17 21 14 23
REMARK Flexibility Score: inf
ROOT
ATOM      1  C   UNL     1       6.980 -12.062  -6.375  1.00  0.00     0.044 C 
ATOM      2  C   UNL     1       6.197 -10.843  -6.762  1.00  0.00    -0.047 A 
ATOM      3  C   UNL     1       6.794  -9.836  -7.528  1.00  0.00     0.016 A 
ATOM      4  C   UNL     1       6.063  -8.702  -7.918  1.00  0.00     0.038 A 
ATOM      5  C   UNL     1       4.708  -8.569  -7.533  1.00  0.00     0.076 A 
ATOM      6  C   UNL     1       4.084  -9.641  -6.841  1.00  0.00     0.127 A 
ATOM      7  C   UNL     1       4.839 -10.748  -6.443  1.00  0.00     0.050 A 
ATOM      8  C   UNL     1       4.010  -7.286  -7.826  1.00  0.00     0.201 C 
ATOM      9  O   UNL     1       2.988  -6.958  -7.167  1.00  0.00    -0.288 OA
ATOM     10  C   UNL     1       4.582  -6.333  -8.813  1.00  0.00     0.076 A 
ATOM     11  C   UNL     1       5.915  -6.508  -9.245  1.00  0.00     0.041 A 
ATOM     12  C   UNL     1       6.709  -7.650  -8.740  1.00  0.00     0.194 C 
ATOM     13  O   UNL     1       7.936  -7.738  -9.027  1.00  0.00    -0.289 OA
ATOM     14  C   UNL     1       6.480  -5.594 -10.151  1.00  0.00     0.059 A 
ATOM     15  C   UNL     1       5.732  -4.516 -10.632  1.00  0.00     0.120 A 
ATOM     16  C   UNL     1       4.413  -4.345 -10.214  1.00  0.00     0.093 A 
ATOM     17  C   UNL     1       3.830  -5.243  -9.311  1.00  0.00     0.131 A 
ENDROOT
BRANCH   6  18
ATOM     18  O   UNL     1       2.715  -9.671  -6.563  1.00  0.00    -0.507 OA
ATOM     19  H   UNL     1       2.309 -10.196  -5.802  1.00  0.00     0.293 HD
ENDBRANCH   6  18
BRANCH  17  20
ATOM     20  O   UNL     1       2.504  -5.056  -8.919  1.00  0.00    -0.507 OA
ATOM     21  H   UNL     1       1.755  -4.969  -9.598  1.00  0.00     0.293 HD
ENDBRANCH  17  20
BRANCH  15  22
ATOM     22  O   UNL     1       6.291  -3.609 -11.531  1.00  0.00    -0.508 OA
ATOM     23  H   UNL     1       5.783  -3.290 -12.348  1.00  0.00     0.293 HD
ENDBRANCH  15  22
TORSDOF 3
ENDMDL
MODEL 7
REMARK VINA RESULT:    -4.737      1.667      6.033
REMARK INTER + INTRA:          -5.153
REMARK INTER:                  -5.153
REMARK INTRA:                   0.000
REMARK UNBOUND:                 0.000
REMARK SMILES Cc1cc(O)c2c(c1)C(=O)c1cc(O)cc(O)c1C2=O
REMARK SMILES IDX 1 1 2 2 8 3 7 4 6 5 4 6 3 7 19 8 20 9 18 10 11 11 9 12 10 13
REMARK SMILES IDX 12 14 13 15 15 16 16 17 5 18 17 20 14 22
REMARK H PARENT 5 19 17 21 14 23
REMARK Flexibility Score: inf
ROOT
ATOM      1  C   UNL     1      -8.459 -11.385  -6.657  1.00  0.00     0.044 C 
ATOM      2  C   UNL     1      -7.427 -10.607  -7.418  1.00  0.00    -0.047 A 
ATOM      3  C   UNL     1      -7.740  -9.348  -7.942  1.00  0.00     0.016 A 
ATOM      4  C   UNL     1      -6.774  -8.600  -8.636  1.00  0.00     0.038 A 
ATOM      5  C   UNL     1      -5.470  -9.119  -8.810  1.00  0.00     0.076 A 
ATOM      6  C   UNL     1      -5.134 -10.353  -8.190  1.00  0.00     0.127 A 
ATOM      7  C   UNL     1      -6.120 -11.090  -7.527  1.00  0.00     0.050 A 
ATOM      8  C   UNL     1      -4.520  -8.374  -9.684  1.00  0.00     0.201 C 
ATOM      9  O   UNL     1      -3.536  -8.968 -10.199  1.00  0.00    -0.288 OA
ATOM     10  C   UNL     1      -4.793  -6.958 -10.046  1.00  0.00     0.076 A 
ATOM     11  C   UNL     1      -6.077  -6.424  -9.809  1.00  0.00     0.041 A 
ATOM     12  C   UNL     1      -7.120  -7.262  -9.174  1.00  0.00     0.194 C 
ATOM     13  O   UNL     1      -8.301  -6.828  -9.075  1.00  0.00    -0.289 OA
ATOM     14  C   UNL     1      -6.361  -5.098 -10.179  1.00  0.00     0.059 A 
ATOM     15  C   UNL     1      -5.378  -4.302 -10.775  1.00  0.00     0.120 A 
ATOM     16  C   UNL     1      -4.106  -4.825 -11.003  1.00  0.00     0.093 A 
ATOM     17  C   UNL     1      -3.802  -6.144 -10.643  1.00  0.00     0.131 A 
ENDROOT
BRANCH   6  18
ATOM     18  O   UNL     1      -3.834 -10.864  -8.169  1.00  0.00    -0.507 OA
ATOM     19  H   UNL     1      -3.050 -10.422  -8.627  1.00  0.00     0.293 HD
ENDBRANCH   6  18
BRANCH  17  20
ATOM     20  O   UNL     1      -2.518  -6.637 -10.871  1.00  0.00    -0.507 OA
ATOM     21  H   UNL     1      -1.712  -6.024 -10.917  1.00  0.00     0.293 HD
ENDBRANCH  17  20
BRANCH  15  22
ATOM     22  O   UNL     1      -5.656  -2.986 -11.143  1.00  0.00    -0.508 OA
ATOM     23  H   UNL     1      -5.967  -2.301 -10.465  1.00  0.00     0.293 HD
ENDBRANCH  15  22
TORSDOF 3
ENDMDL
MODEL 8
REMARK VINA RESULT:    -4.614      9.711     11.740
REMARK INTER + INTRA:          -5.019
REMARK INTER:                  -5.019
REMARK INTRA:                   0.000
REMARK UNBOUND:                 0.000
REMARK SMILES Cc1cc(O)c2c(c1)C(=O)c1cc(O)cc(O)c1C2=O
REMARK SMILES IDX 1 1 2 2 8 3 7 4 6 5 4 6 3 7 19 8 20 9 18 10 11 11 9 12 10 13
REMARK SMILES IDX 12 14 13 15 15 16 16 17 5 18 17 20 14 22
REMARK H PARENT 5 19 17 21 14 23
REMARK Flexibility Score: inf
ROOT
ATOM      1  C   UNL     1       1.274  -3.873 -10.253  1.00  0.00     0.044 C 
ATOM      2  C   UNL     1       2.691  -4.327 -10.068  1.00  0.00    -0.047 A 
ATOM      3  C   UNL     1       2.970  -5.471  -9.311  1.00  0.00     0.016 A 
ATOM      4  C   UNL     1       4.291  -5.920  -9.151  1.00  0.00     0.038 A 
ATOM      5  C   UNL     1       5.356  -5.213  -9.758  1.00  0.00     0.076 A 
ATOM      6  C   UNL     1       5.054  -4.113 -10.604  1.00  0.00     0.127 A 
ATOM      7  C   UNL     1       3.733  -3.669 -10.727  1.00  0.00     0.050 A 
ATOM      8  C   UNL     1       6.752  -5.622  -9.438  1.00  0.00     0.201 C 
ATOM      9  O   UNL     1       7.701  -4.810  -9.598  1.00  0.00    -0.288 OA
ATOM     10  C   UNL     1       7.020  -6.948  -8.821  1.00  0.00     0.076 A 
ATOM     11  C   UNL     1       5.943  -7.680  -8.275  1.00  0.00     0.041 A 
ATOM     12  C   UNL     1       4.567  -7.141  -8.356  1.00  0.00     0.194 C 
ATOM     13  O   UNL     1       3.624  -7.733  -7.761  1.00  0.00    -0.289 OA
ATOM     14  C   UNL     1       6.186  -8.919  -7.655  1.00  0.00     0.059 A 
ATOM     15  C   UNL     1       7.484  -9.433  -7.580  1.00  0.00     0.120 A 
ATOM     16  C   UNL     1       8.547  -8.715  -8.125  1.00  0.00     0.093 A 
ATOM     17  C   UNL     1       8.328  -7.479  -8.746  1.00  0.00     0.131 A 
ENDROOT
BRANCH   6  18
ATOM     18  O   UNL     1       6.020  -3.456 -11.371  1.00  0.00    -0.507 OA
ATOM     19  H   UNL     1       7.014  -3.600 -11.264  1.00  0.00     0.293 HD
ENDBRANCH   6  18
BRANCH  17  20
ATOM     20  O   UNL     1       9.409  -6.788  -9.294  1.00  0.00    -0.507 OA
ATOM     21  H   UNL     1       9.997  -6.183  -8.731  1.00  0.00     0.293 HD
ENDBRANCH  17  20
BRANCH  15  22
ATOM     22  O   UNL     1       7.726 -10.661  -6.967  1.00  0.00    -0.508 OA
ATOM     23  H   UNL     1       7.428 -11.533  -7.389  1.00  0.00     0.293 HD
ENDBRANCH  15  22
TORSDOF 3
ENDMDL
MODEL 9
REMARK VINA RESULT:    -4.527      1.501      5.525
REMARK INTER + INTRA:          -4.924
REMARK INTER:                  -4.924
REMARK INTRA:                   0.000
REMARK UNBOUND:                 0.000
REMARK SMILES Cc1cc(O)c2c(c1)C(=O)c1cc(O)cc(O)c1C2=O
REMARK SMILES IDX 1 1 2 2 8 3 7 4 6 5 4 6 3 7 19 8 20 9 18 10 11 11 9 12 10 13
REMARK SMILES IDX 12 14 13 15 15 16 16 17 5 18 17 20 14 22
REMARK H PARENT 5 19 17 21 14 23
REMARK Flexibility Score: inf
ROOT
ATOM      1  C   UNL     1      -3.745 -11.717  -8.997  1.00  0.00     0.044 C 
ATOM      2  C   UNL     1      -4.494 -10.419  -8.927  1.00  0.00    -0.047 A 
ATOM      3  C   UNL     1      -3.973  -9.272  -9.535  1.00  0.00     0.016 A 
ATOM      4  C   UNL     1      -4.677  -8.057  -9.496  1.00  0.00     0.038 A 
ATOM      5  C   UNL     1      -5.926  -7.986  -8.836  1.00  0.00     0.076 A 
ATOM      6  C   UNL     1      -6.492  -9.177  -8.308  1.00  0.00     0.127 A 
ATOM      7  C   UNL     1      -5.760 -10.369  -8.337  1.00  0.00     0.050 A 
ATOM      8  C   UNL     1      -6.569  -6.651  -8.677  1.00  0.00     0.201 C 
ATOM      9  O   UNL     1      -7.427  -6.467  -7.774  1.00  0.00    -0.288 OA
ATOM     10  C   UNL     1      -6.117  -5.501  -9.503  1.00  0.00     0.076 A 
ATOM     11  C   UNL     1      -4.902  -5.602 -10.214  1.00  0.00     0.041 A 
ATOM     12  C   UNL     1      -4.115  -6.854 -10.157  1.00  0.00     0.194 C 
ATOM     13  O   UNL     1      -2.971  -6.903 -10.689  1.00  0.00    -0.289 OA
ATOM     14  C   UNL     1      -4.444  -4.509 -10.971  1.00  0.00     0.059 A 
ATOM     15  C   UNL     1      -5.186  -3.325 -11.030  1.00  0.00     0.120 A 
ATOM     16  C   UNL     1      -6.390  -3.227 -10.335  1.00  0.00     0.093 A 
ATOM     17  C   UNL     1      -6.865  -4.302  -9.574  1.00  0.00     0.131 A 
ENDROOT
BRANCH   6  18
ATOM     18  O   UNL     1      -7.786  -9.237  -7.785  1.00  0.00    -0.507 OA
ATOM     19  H   UNL     1      -8.460  -9.947  -8.035  1.00  0.00     0.293 HD
ENDBRANCH   6  18
BRANCH  17  20
ATOM     20  O   UNL     1      -8.079  -4.181  -8.900  1.00  0.00    -0.507 OA
ATOM     21  H   UNL     1      -8.169  -4.413  -7.916  1.00  0.00     0.293 HD
ENDBRANCH  17  20
BRANCH  15  22
ATOM     22  O   UNL     1      -4.734  -2.241 -11.781  1.00  0.00    -0.508 OA
ATOM     23  H   UNL     1      -5.305  -1.823 -12.505  1.00  0.00     0.293 HD
ENDBRANCH  15  22
TORSDOF 3
ENDMDL
