MODEL 1
REMARK VINA RESULT:    -5.479      0.000      0.000
REMARK INTER + INTRA:          -5.959
REMARK INTER:                  -5.959
REMARK INTRA:                   0.000
REMARK UNBOUND:                 0.000
REMARK SMILES Cc1cc(O)c2c(c1)C(=O)c1cc(O)cc(O)c1C2=O
REMARK SMILES IDX 1 1 2 2 8 3 7 4 6 5 4 6 3 7 19 8 20 9 18 10 11 11 9 12 10 13
REMARK SMILES IDX 12 14 13 15 15 16 16 17 5 18 17 20 14 22
REMARK H PARENT 5 19 17 21 14 23
REMARK Flexibility Score: inf
ROOT
ATOM      1  C   UNL     1      39.375 -79.876  42.374  1.00  0.00     0.044 C 
ATOM      2  C   UNL     1      39.415 -79.289  40.994  1.00  0.00    -0.047 A 
ATOM      3  C   UNL     1      38.226 -78.927  40.349  1.00  0.00     0.016 A 
ATOM      4  C   UNL     1      38.250 -78.404  39.045  1.00  0.00     0.038 A 
ATOM      5  C   UNL     1      39.484 -78.240  38.375  1.00  0.00     0.076 A 
ATOM      6  C   UNL     1      40.676 -78.687  39.003  1.00  0.00     0.127 A 
ATOM      7  C   UNL     1      40.629 -79.187  40.307  1.00  0.00     0.050 A 
ATOM      8  C   UNL     1      39.484 -77.548  37.061  1.00  0.00     0.201 C 
ATOM      9  O   UNL     1      40.492 -76.883  36.703  1.00  0.00    -0.288 OA
ATOM     10  C   UNL     1      38.234 -77.485  36.261  1.00  0.00     0.076 A 
ATOM     11  C   UNL     1      37.002 -77.651  36.933  1.00  0.00     0.041 A 
ATOM     12  C   UNL     1      36.987 -78.029  38.366  1.00  0.00     0.194 C 
ATOM     13  O   UNL     1      35.897 -78.056  39.001  1.00  0.00    -0.289 OA
ATOM     14  C   UNL     1      35.795 -77.463  36.238  1.00  0.00     0.059 A 
ATOM     15  C   UNL     1      35.803 -77.127  34.881  1.00  0.00     0.120 A 
ATOM     16  C   UNL     1      37.016 -77.000  34.205  1.00  0.00     0.093 A 
ATOM     17  C   UNL     1      38.231 -77.204  34.869  1.00  0.00     0.131 A 
ENDROOT
BRANCH   6  18
ATOM     18  O   UNL     1      41.914 -78.689  38.355  1.00  0.00    -0.507 OA
ATOM     19  H   UNL     1      42.788 -78.896  38.820  1.00  0.00     0.293 HD
ENDBRANCH   6  18
BRANCH  17  20
ATOM     20  O   UNL     1      39.399 -77.151  34.106  1.00  0.00    -0.507 OA
ATOM     21  H   UNL     1      40.242 -77.656  34.339  1.00  0.00     0.293 HD
ENDBRANCH  17  20
BRANCH  15  22
ATOM     22  O   UNL     1      34.609 -76.926  34.192  1.00  0.00    -0.508 OA
ATOM     23  H   UNL     1      34.551 -77.042  33.187  1.00  0.00     0.293 HD
ENDBRANCH  15  22
TORSDOF 3
ENDMDL
MODEL 2
REMARK VINA RESULT:    -5.278     18.327     18.848
REMARK INTER + INTRA:          -5.741
REMARK INTER:                  -5.741
REMARK INTRA:                   0.000
REMARK UNBOUND:                 0.000
REMARK SMILES Cc1cc(O)c2c(c1)C(=O)c1cc(O)cc(O)c1C2=O
REMARK SMILES IDX 1 1 2 2 8 3 7 4 6 5 4 6 3 7 19 8 20 9 18 10 11 11 9 12 10 13
REMARK SMILES IDX 12 14 13 15 15 16 16 17 5 18 17 20 14 22
REMARK H PARENT 5 19 17 21 14 23
REMARK Flexibility Score: inf
ROOT
ATOM      1  C   UNL     1      41.643 -94.871  36.144  1.00  0.00     0.044 C 
ATOM      2  C   UNL     1      41.071 -94.839  34.756  1.00  0.00    -0.047 A 
ATOM      3  C   UNL     1      41.783 -95.400  33.689  1.00  0.00     0.016 A 
ATOM      4  C   UNL     1      41.270 -95.350  32.382  1.00  0.00     0.038 A 
ATOM      5  C   UNL     1      40.024 -94.729  32.139  1.00  0.00     0.076 A 
ATOM      6  C   UNL     1      39.348 -94.090  33.211  1.00  0.00     0.127 A 
ATOM      7  C   UNL     1      39.869 -94.170  34.506  1.00  0.00     0.050 A 
ATOM      8  C   UNL     1      39.445 -94.826  30.775  1.00  0.00     0.201 C 
ATOM      9  O   UNL     1      38.194 -94.831  30.623  1.00  0.00    -0.288 OA
ATOM     10  C   UNL     1      40.331 -95.107  29.615  1.00  0.00     0.076 A 
ATOM     11  C   UNL     1      41.577 -95.726  29.862  1.00  0.00     0.041 A 
ATOM     12  C   UNL     1      42.032 -95.940  31.257  1.00  0.00     0.194 C 
ATOM     13  O   UNL     1      43.082 -96.603  31.483  1.00  0.00    -0.289 OA
ATOM     14  C   UNL     1      42.383 -96.132  28.784  1.00  0.00     0.059 A 
ATOM     15  C   UNL     1      41.968 -95.913  27.468  1.00  0.00     0.120 A 
ATOM     16  C   UNL     1      40.757 -95.268  27.220  1.00  0.00     0.093 A 
ATOM     17  C   UNL     1      39.946 -94.835  28.276  1.00  0.00     0.131 A 
ENDROOT
BRANCH   6  18
ATOM     18  O   UNL     1      38.185 -93.338  33.028  1.00  0.00    -0.507 OA
ATOM     19  H   UNL     1      37.921 -92.923  32.145  1.00  0.00     0.293 HD
ENDBRANCH   6  18
BRANCH  17  20
ATOM     20  O   UNL     1      38.795 -94.115  27.951  1.00  0.00    -0.507 OA
ATOM     21  H   UNL     1      38.467 -93.983  27.005  1.00  0.00     0.293 HD
ENDBRANCH  17  20
BRANCH  15  22
ATOM     22  O   UNL     1      42.757 -96.326  26.396  1.00  0.00    -0.508 OA
ATOM     23  H   UNL     1      42.349 -96.736  25.564  1.00  0.00     0.293 HD
ENDBRANCH  15  22
TORSDOF 3
ENDMDL
MODEL 3
REMARK VINA RESULT:    -5.118     18.310     18.523
REMARK INTER + INTRA:          -5.566
REMARK INTER:                  -5.566
REMARK INTRA:                   0.000
REMARK UNBOUND:                 0.000
REMARK SMILES Cc1cc(O)c2c(c1)C(=O)c1cc(O)cc(O)c1C2=O
REMARK SMILES IDX 1 1 2 2 8 3 7 4 6 5 4 6 3 7 19 8 20 9 18 10 11 11 9 12 10 13
REMARK SMILES IDX 12 14 13 15 15 16 16 17 5 18 17 20 14 22
REMARK H PARENT 5 19 17 21 14 23
REMARK Flexibility Score: inf
ROOT
ATOM      1  C   UNL     1      43.113 -95.269  34.815  1.00  0.00     0.044 C 
ATOM      2  C   UNL     1      42.283 -95.293  33.565  1.00  0.00    -0.047 A 
ATOM      3  C   UNL     1      40.924 -94.960  33.616  1.00  0.00     0.016 A 
ATOM      4  C   UNL     1      40.131 -95.007  32.457  1.00  0.00     0.038 A 
ATOM      5  C   UNL     1      40.708 -95.394  31.226  1.00  0.00     0.076 A 
ATOM      6  C   UNL     1      42.064 -95.811  31.198  1.00  0.00     0.127 A 
ATOM      7  C   UNL     1      42.837 -95.737  32.360  1.00  0.00     0.050 A 
ATOM      8  C   UNL     1      39.879 -95.290  29.998  1.00  0.00     0.201 C 
ATOM      9  O   UNL     1      40.429 -95.057  28.888  1.00  0.00    -0.288 OA
ATOM     10  C   UNL     1      38.398 -95.271  30.107  1.00  0.00     0.076 A 
ATOM     11  C   UNL     1      37.824 -94.885  31.340  1.00  0.00     0.041 A 
ATOM     12  C   UNL     1      38.692 -94.659  32.520  1.00  0.00     0.194 C 
ATOM     13  O   UNL     1      38.201 -94.196  33.586  1.00  0.00    -0.289 OA
ATOM     14  C   UNL     1      36.432 -94.722  31.444  1.00  0.00     0.059 A 
ATOM     15  C   UNL     1      35.607 -94.954  30.340  1.00  0.00     0.120 A 
ATOM     16  C   UNL     1      36.165 -95.372  29.132  1.00  0.00     0.093 A 
ATOM     17  C   UNL     1      37.546 -95.562  29.009  1.00  0.00     0.131 A 
ENDROOT
BRANCH   6  18
ATOM     18  O   UNL     1      42.668 -96.338  30.054  1.00  0.00    -0.507 OA
ATOM     19  H   UNL     1      42.168 -96.859  29.347  1.00  0.00     0.293 HD
ENDBRANCH   6  18
BRANCH  17  20
ATOM     20  O   UNL     1      38.021 -96.070  27.799  1.00  0.00    -0.507 OA
ATOM     21  H   UNL     1      38.442 -95.499  27.079  1.00  0.00     0.293 HD
ENDBRANCH  17  20
BRANCH  15  22
ATOM     22  O   UNL     1      34.228 -94.781  30.434  1.00  0.00    -0.508 OA
ATOM     23  H   UNL     1      33.643 -95.446  30.926  1.00  0.00     0.293 HD
ENDBRANCH  15  22
TORSDOF 3
ENDMDL
MODEL 4
REMARK VINA RESULT:    -4.847     17.003     18.296
REMARK INTER + INTRA:          -5.272
REMARK INTER:                  -5.272
REMARK INTRA:                   0.000
REMARK UNBOUND:                 0.000
REMARK SMILES Cc1cc(O)c2c(c1)C(=O)c1cc(O)cc(O)c1C2=O
REMARK SMILES IDX 1 1 2 2 8 3 7 4 6 5 4 6 3 7 19 8 20 9 18 10 11 11 9 12 10 13
REMARK SMILES IDX 12 14 13 15 15 16 16 17 5 18 17 20 14 22
REMARK H PARENT 5 19 17 21 14 23
REMARK Flexibility Score: inf
ROOT
ATOM      1  C   UNL     1      39.417 -95.109  31.145  1.00  0.00     0.044 C 
ATOM      2  C   UNL     1      39.728 -95.096  32.613  1.00  0.00    -0.047 A 
ATOM      3  C   UNL     1      38.851 -95.696  33.524  1.00  0.00     0.016 A 
ATOM      4  C   UNL     1      39.118 -95.664  34.903  1.00  0.00     0.038 A 
ATOM      5  C   UNL     1      40.283 -95.019  35.378  1.00  0.00     0.076 A 
ATOM      6  C   UNL     1      41.122 -94.341  34.458  1.00  0.00     0.127 A 
ATOM      7  C   UNL     1      40.846 -94.404  33.089  1.00  0.00     0.050 A 
ATOM      8  C   UNL     1      40.609 -95.133  36.823  1.00  0.00     0.201 C 
ATOM      9  O   UNL     1      41.811 -95.112  37.198  1.00  0.00    -0.288 OA
ATOM     10  C   UNL     1      39.536 -95.461  37.797  1.00  0.00     0.076 A 
ATOM     11  C   UNL     1      38.371 -96.103  37.318  1.00  0.00     0.041 A 
ATOM     12  C   UNL     1      38.182 -96.297  35.861  1.00  0.00     0.194 C 
ATOM     13  O   UNL     1      37.208 -96.979  35.436  1.00  0.00    -0.289 OA
ATOM     14  C   UNL     1      37.396 -96.552  38.225  1.00  0.00     0.059 A 
ATOM     15  C   UNL     1      37.561 -96.354  39.599  1.00  0.00     0.120 A 
ATOM     16  C   UNL     1      38.690 -95.685  40.073  1.00  0.00     0.093 A 
ATOM     17  C   UNL     1      39.665 -95.210  39.189  1.00  0.00     0.131 A 
ENDROOT
BRANCH   6  18
ATOM     18  O   UNL     1      42.213 -93.566  34.861  1.00  0.00    -0.507 OA
ATOM     19  H   UNL     1      42.204 -92.971  35.678  1.00  0.00     0.293 HD
ENDBRANCH   6  18
BRANCH  17  20
ATOM     20  O   UNL     1      40.719 -94.470  39.729  1.00  0.00    -0.507 OA
ATOM     21  H   UNL     1      41.623 -94.864  39.949  1.00  0.00     0.293 HD
ENDBRANCH  17  20
BRANCH  15  22
ATOM     22  O   UNL     1      36.603 -96.808  40.502  1.00  0.00    -0.508 OA
ATOM     23  H   UNL     1      36.853 -97.091  41.443  1.00  0.00     0.293 HD
ENDBRANCH  15  22
TORSDOF 3
ENDMDL
MODEL 5
REMARK VINA RESULT:    -4.837     18.193     19.059
REMARK INTER + INTRA:          -5.261
REMARK INTER:                  -5.261
REMARK INTRA:                   0.000
REMARK UNBOUND:                 0.000
REMARK SMILES Cc1cc(O)c2c(c1)C(=O)c1cc(O)cc(O)c1C2=O
REMARK SMILES IDX 1 1 2 2 8 3 7 4 6 5 4 6 3 7 19 8 20 9 18 10 11 11 9 12 10 13
REMARK SMILES IDX 12 14 13 15 15 16 16 17 5 18 17 20 14 22
REMARK H PARENT 5 19 17 21 14 23
REMARK Flexibility Score: inf
ROOT
ATOM      1  C   UNL     1      34.147 -94.457  29.117  1.00  0.00     0.044 C 
ATOM      2  C   UNL     1      35.542 -94.858  29.497  1.00  0.00    -0.047 A 
ATOM      3  C   UNL     1      36.039 -94.555  30.770  1.00  0.00     0.016 A 
ATOM      4  C   UNL     1      37.354 -94.901  31.126  1.00  0.00     0.038 A 
ATOM      5  C   UNL     1      38.185 -95.560  30.192  1.00  0.00     0.076 A 
ATOM      6  C   UNL     1      37.703 -95.788  28.877  1.00  0.00     0.127 A 
ATOM      7  C   UNL     1      36.385 -95.453  28.553  1.00  0.00     0.050 A 
ATOM      8  C   UNL     1      39.513 -96.041  30.651  1.00  0.00     0.201 C 
ATOM      9  O   UNL     1      40.025 -97.064  30.125  1.00  0.00    -0.288 OA
ATOM     10  C   UNL     1      40.145 -95.432  31.850  1.00  0.00     0.076 A 
ATOM     11  C   UNL     1      39.311 -94.771  32.781  1.00  0.00     0.041 A 
ATOM     12  C   UNL     1      37.874 -94.571  32.473  1.00  0.00     0.194 C 
ATOM     13  O   UNL     1      37.102 -94.095  33.351  1.00  0.00    -0.289 OA
ATOM     14  C   UNL     1      39.848 -94.303  33.992  1.00  0.00     0.059 A 
ATOM     15  C   UNL     1      41.206 -94.471  34.278  1.00  0.00     0.120 A 
ATOM     16  C   UNL     1      42.040 -95.088  33.345  1.00  0.00     0.093 A 
ATOM     17  C   UNL     1      41.533 -95.544  32.123  1.00  0.00     0.131 A 
ENDROOT
BRANCH   6  18
ATOM     18  O   UNL     1      38.506 -96.307  27.859  1.00  0.00    -0.507 OA
ATOM     19  H   UNL     1      38.201 -96.402  26.900  1.00  0.00     0.293 HD
ENDBRANCH   6  18
BRANCH  17  20
ATOM     20  O   UNL     1      42.444 -96.066  31.203  1.00  0.00    -0.507 OA
ATOM     21  H   UNL     1      43.350 -95.658  31.020  1.00  0.00     0.293 HD
ENDBRANCH  17  20
BRANCH  15  22
ATOM     22  O   UNL     1      41.740 -94.020  35.483  1.00  0.00    -0.508 OA
ATOM     23  H   UNL     1      42.656 -93.590  35.529  1.00  0.00     0.293 HD
ENDBRANCH  15  22
TORSDOF 3
ENDMDL
MODEL 6
REMARK VINA RESULT:    -4.712     18.498     18.689
REMARK INTER + INTRA:          -5.125
REMARK INTER:                  -5.125
REMARK INTRA:                   0.000
REMARK UNBOUND:                 0.000
REMARK SMILES Cc1cc(O)c2c(c1)C(=O)c1cc(O)cc(O)c1C2=O
REMARK SMILES IDX 1 1 2 2 8 3 7 4 6 5 4 6 3 7 19 8 20 9 18 10 11 11 9 12 10 13
REMARK SMILES IDX 12 14 13 15 15 16 16 17 5 18 17 20 14 22
REMARK H PARENT 5 19 17 21 14 23
REMARK Flexibility Score: inf
ROOT
ATOM      1  C   UNL     1      40.122 -94.112  36.205  1.00  0.00     0.044 C 
ATOM      2  C   UNL     1      40.330 -94.489  34.767  1.00  0.00    -0.047 A 
ATOM      3  C   UNL     1      39.256 -94.463  33.870  1.00  0.00     0.016 A 
ATOM      4  C   UNL     1      39.434 -94.841  32.529  1.00  0.00     0.038 A 
ATOM      5  C   UNL     1      40.708 -95.252  32.077  1.00  0.00     0.076 A 
ATOM      6  C   UNL     1      41.773 -95.355  33.010  1.00  0.00     0.127 A 
ATOM      7  C   UNL     1      41.576 -94.955  34.335  1.00  0.00     0.050 A 
ATOM      8  C   UNL     1      40.892 -95.500  30.624  1.00  0.00     0.201 C 
ATOM      9  O   UNL     1      42.016 -95.302  30.091  1.00  0.00    -0.288 OA
ATOM     10  C   UNL     1      39.713 -95.798  29.771  1.00  0.00     0.076 A 
ATOM     11  C   UNL     1      38.439 -95.388  30.227  1.00  0.00     0.041 A 
ATOM     12  C   UNL     1      38.289 -94.817  31.587  1.00  0.00     0.194 C 
ATOM     13  O   UNL     1      37.181 -94.336  31.952  1.00  0.00    -0.289 OA
ATOM     14  C   UNL     1      37.318 -95.527  29.391  1.00  0.00     0.059 A 
ATOM     15  C   UNL     1      37.450 -96.083  28.115  1.00  0.00     0.120 A 
ATOM     16  C   UNL     1      38.698 -96.524  27.677  1.00  0.00     0.093 A 
ATOM     17  C   UNL     1      39.826 -96.416  28.499  1.00  0.00     0.131 A 
ENDROOT
BRANCH   6  18
ATOM     18  O   UNL     1      43.022 -95.883  32.673  1.00  0.00    -0.507 OA
ATOM     19  H   UNL     1      43.525 -95.636  31.832  1.00  0.00     0.293 HD
ENDBRANCH   6  18
BRANCH  17  20
ATOM     20  O   UNL     1      41.021 -96.964  28.028  1.00  0.00    -0.507 OA
ATOM     21  H   UNL     1      41.934 -96.623  28.293  1.00  0.00     0.293 HD
ENDBRANCH  17  20
BRANCH  15  22
ATOM     22  O   UNL     1      36.344 -96.210  27.278  1.00  0.00    -0.508 OA
ATOM     23  H   UNL     1      35.623 -95.500  27.240  1.00  0.00     0.293 HD
ENDBRANCH  15  22
TORSDOF 3
ENDMDL
MODEL 7
REMARK VINA RESULT:    -4.565      2.121      4.016
REMARK INTER + INTRA:          -4.965
REMARK INTER:                  -4.965
REMARK INTRA:                   0.000
REMARK UNBOUND:                 0.000
REMARK SMILES Cc1cc(O)c2c(c1)C(=O)c1cc(O)cc(O)c1C2=O
REMARK SMILES IDX 1 1 2 2 8 3 7 4 6 5 4 6 3 7 19 8 20 9 18 10 11 11 9 12 10 13
REMARK SMILES IDX 12 14 13 15 15 16 16 17 5 18 17 20 14 22
REMARK H PARENT 5 19 17 21 14 23
REMARK Flexibility Score: inf
ROOT
ATOM      1  C   UNL     1      40.803 -76.880  41.566  1.00  0.00     0.044 C 
ATOM      2  C   UNL     1      40.154 -77.008  40.219  1.00  0.00    -0.047 A 
ATOM      3  C   UNL     1      40.939 -77.088  39.064  1.00  0.00     0.016 A 
ATOM      4  C   UNL     1      40.341 -77.178  37.796  1.00  0.00     0.038 A 
ATOM      5  C   UNL     1      38.932 -77.189  37.682  1.00  0.00     0.076 A 
ATOM      6  C   UNL     1      38.143 -77.023  38.850  1.00  0.00     0.127 A 
ATOM      7  C   UNL     1      38.761 -76.954  40.102  1.00  0.00     0.050 A 
ATOM      8  C   UNL     1      38.336 -77.435  36.344  1.00  0.00     0.201 C 
ATOM      9  O   UNL     1      37.218 -78.007  36.251  1.00  0.00    -0.288 OA
ATOM     10  C   UNL     1      39.140 -77.180  35.121  1.00  0.00     0.076 A 
ATOM     11  C   UNL     1      40.549 -77.167  35.238  1.00  0.00     0.041 A 
ATOM     12  C   UNL     1      41.180 -77.256  36.577  1.00  0.00     0.194 C 
ATOM     13  O   UNL     1      42.432 -77.371  36.678  1.00  0.00    -0.289 OA
ATOM     14  C   UNL     1      41.346 -77.067  34.085  1.00  0.00     0.059 A 
ATOM     15  C   UNL     1      40.756 -76.962  32.822  1.00  0.00     0.120 A 
ATOM     16  C   UNL     1      39.367 -76.934  32.706  1.00  0.00     0.093 A 
ATOM     17  C   UNL     1      38.551 -77.012  33.840  1.00  0.00     0.131 A 
ENDROOT
BRANCH   6  18
ATOM     18  O   UNL     1      36.753 -76.884  38.808  1.00  0.00    -0.507 OA
ATOM     19  H   UNL     1      36.112 -77.551  39.215  1.00  0.00     0.293 HD
ENDBRANCH   6  18
BRANCH  17  20
ATOM     20  O   UNL     1      37.174 -76.885  33.653  1.00  0.00    -0.507 OA
ATOM     21  H   UNL     1      36.610 -76.183  34.112  1.00  0.00     0.293 HD
ENDBRANCH  17  20
BRANCH  15  22
ATOM     22  O   UNL     1      41.543 -76.875  31.676  1.00  0.00    -0.508 OA
ATOM     23  H   UNL     1      41.701 -75.991  31.207  1.00  0.00     0.293 HD
ENDBRANCH  15  22
TORSDOF 3
ENDMDL
MODEL 8
REMARK VINA RESULT:    -4.548     17.323     18.539
REMARK INTER + INTRA:          -4.947
REMARK INTER:                  -4.947
REMARK INTRA:                   0.000
REMARK UNBOUND:                 0.000
REMARK SMILES Cc1cc(O)c2c(c1)C(=O)c1cc(O)cc(O)c1C2=O
REMARK SMILES IDX 1 1 2 2 8 3 7 4 6 5 4 6 3 7 19 8 20 9 18 10 11 11 9 12 10 13
REMARK SMILES IDX 12 14 13 15 15 16 16 17 5 18 17 20 14 22
REMARK H PARENT 5 19 17 21 14 23
REMARK Flexibility Score: inf
ROOT
ATOM      1  C   UNL     1      41.789 -95.660  29.965  1.00  0.00     0.044 C 
ATOM      2  C   UNL     1      40.897 -95.616  31.171  1.00  0.00    -0.047 A 
ATOM      3  C   UNL     1      41.392 -95.153  32.395  1.00  0.00     0.016 A 
ATOM      4  C   UNL     1      40.574 -95.134  33.538  1.00  0.00     0.038 A 
ATOM      5  C   UNL     1      39.237 -95.586  33.453  1.00  0.00     0.076 A 
ATOM      6  C   UNL     1      38.768 -96.132  32.230  1.00  0.00     0.127 A 
ATOM      7  C   UNL     1      39.595 -96.122  31.102  1.00  0.00     0.050 A 
ATOM      8  C   UNL     1      38.360 -95.414  34.639  1.00  0.00     0.201 C 
ATOM      9  O   UNL     1      37.122 -95.245  34.484  1.00  0.00    -0.288 OA
ATOM     10  C   UNL     1      38.965 -95.251  35.986  1.00  0.00     0.076 A 
ATOM     11  C   UNL     1      40.303 -94.800  36.067  1.00  0.00     0.041 A 
ATOM     12  C   UNL     1      41.107 -94.648  34.832  1.00  0.00     0.194 C 
ATOM     13  O   UNL     1      42.256 -94.129  34.887  1.00  0.00    -0.289 OA
ATOM     14  C   UNL     1      40.866 -94.502  37.320  1.00  0.00     0.059 A 
ATOM     15  C   UNL     1      40.118 -94.664  38.490  1.00  0.00     0.120 A 
ATOM     16  C   UNL     1      38.811 -95.145  38.417  1.00  0.00     0.093 A 
ATOM     17  C   UNL     1      38.235 -95.469  37.183  1.00  0.00     0.131 A 
ENDROOT
BRANCH   6  18
ATOM     18  O   UNL     1      37.510 -96.726  32.102  1.00  0.00    -0.507 OA
ATOM     19  H   UNL     1      37.033 -96.840  31.218  1.00  0.00     0.293 HD
ENDBRANCH   6  18
BRANCH  17  20
ATOM     20  O   UNL     1      36.957 -96.032  37.197  1.00  0.00    -0.507 OA
ATOM     21  H   UNL     1      36.748 -96.932  37.605  1.00  0.00     0.293 HD
ENDBRANCH  17  20
BRANCH  15  22
ATOM     22  O   UNL     1      40.668 -94.357  39.733  1.00  0.00    -0.508 OA
ATOM     23  H   UNL     1      40.344 -93.565  40.275  1.00  0.00     0.293 HD
ENDBRANCH  15  22
TORSDOF 3
ENDMDL
MODEL 9
REMARK VINA RESULT:    -4.518     17.221     17.757
REMARK INTER + INTRA:          -4.914
REMARK INTER:                  -4.914
REMARK INTRA:                   0.000
REMARK UNBOUND:                 0.000
REMARK SMILES Cc1cc(O)c2c(c1)C(=O)c1cc(O)cc(O)c1C2=O
REMARK SMILES IDX 1 1 2 2 8 3 7 4 6 5 4 6 3 7 19 8 20 9 18 10 11 11 9 12 10 13
REMARK SMILES IDX 12 14 13 15 15 16 16 17 5 18 17 20 14 22
REMARK H PARENT 5 19 17 21 14 23
REMARK Flexibility Score: inf
ROOT
ATOM      1  C   UNL     1      38.425 -94.899  39.424  1.00  0.00     0.044 C 
ATOM      2  C   UNL     1      39.246 -94.891  38.168  1.00  0.00    -0.047 A 
ATOM      3  C   UNL     1      38.627 -95.050  36.922  1.00  0.00     0.016 A 
ATOM      4  C   UNL     1      39.390 -95.072  35.742  1.00  0.00     0.038 A 
ATOM      5  C   UNL     1      40.795 -94.935  35.810  1.00  0.00     0.076 A 
ATOM      6  C   UNL     1      41.422 -94.859  37.081  1.00  0.00     0.127 A 
ATOM      7  C   UNL     1      40.640 -94.819  38.239  1.00  0.00     0.050 A 
ATOM      8  C   UNL     1      41.552 -94.814  34.538  1.00  0.00     0.201 C 
ATOM      9  O   UNL     1      42.621 -94.150  34.505  1.00  0.00    -0.288 OA
ATOM     10  C   UNL     1      40.953 -95.314  33.273  1.00  0.00     0.076 A 
ATOM     11  C   UNL     1      39.547 -95.452  33.209  1.00  0.00     0.041 A 
ATOM     12  C   UNL     1      38.728 -95.246  34.427  1.00  0.00     0.194 C 
ATOM     13  O   UNL     1      37.469 -95.246  34.349  1.00  0.00    -0.289 OA
ATOM     14  C   UNL     1      38.932 -95.790  31.991  1.00  0.00     0.059 A 
ATOM     15  C   UNL     1      39.702 -96.005  30.844  1.00  0.00     0.120 A 
ATOM     16  C   UNL     1      41.091 -95.907  30.912  1.00  0.00     0.093 A 
ATOM     17  C   UNL     1      41.729 -95.594  32.118  1.00  0.00     0.131 A 
ENDROOT
BRANCH   6  18
ATOM     18  O   UNL     1      42.810 -94.860  37.238  1.00  0.00    -0.507 OA
ATOM     19  H   UNL     1      43.458 -94.677  36.485  1.00  0.00     0.293 HD
ENDBRANCH   6  18
BRANCH  17  20
ATOM     20  O   UNL     1      43.125 -95.605  32.130  1.00  0.00    -0.507 OA
ATOM     21  H   UNL     1      43.691 -95.670  31.295  1.00  0.00     0.293 HD
ENDBRANCH  17  20
BRANCH  15  22
ATOM     22  O   UNL     1      39.095 -96.326  29.632  1.00  0.00    -0.508 OA
ATOM     23  H   UNL     1      38.992 -97.288  29.329  1.00  0.00     0.293 HD
ENDBRANCH  15  22
TORSDOF 3
ENDMDL
