MODEL 1
REMARK VINA RESULT:    -4.988      0.000      0.000
REMARK INTER + INTRA:          -5.643
REMARK INTER:                  -5.279
REMARK INTRA:                  -0.364
REMARK UNBOUND:                -0.364
REMARK SMILES CC1=CC[C@@H]2[C@H]3[C@H](C(C)C)CC[C@]2(C)[C@@H]13
REMARK SMILES IDX 1 1 2 2 3 3 4 4 5 5 6 6 15 7 13 8 12 9 11 10 7 11 14 12 8 13
REMARK SMILES IDX 9 14 10 15
REMARK H PARENT
REMARK Flexibility Score: inf
ROOT
ATOM      1  C   UNL     1      12.075   5.929  20.186  1.00  0.00     0.039 C 
ATOM      2  C   UNL     1      12.033   6.114  18.698  1.00  0.00    -0.073 C 
ATOM      3  C   UNL     1      10.875   5.969  18.002  1.00  0.00    -0.027 C 
ATOM      4  C   UNL     1      10.891   6.189  16.487  1.00  0.00     0.031 C 
ATOM      5  C   UNL     1      12.337   6.525  16.000  1.00  0.00     0.003 C 
ATOM      6  C   UNL     1      13.299   5.511  16.662  1.00  0.00     0.004 C 
ATOM      7  C   UNL     1      13.291   6.453  17.895  1.00  0.00     0.024 C 
ATOM      8  C   UNL     1      13.003   7.599  16.895  1.00  0.00    -0.022 C 
ATOM      9  C   UNL     1      14.324   8.079  16.217  1.00  0.00     0.008 C 
ATOM     10  C   UNL     1      15.350   6.928  16.030  1.00  0.00     0.005 C 
ATOM     11  C   UNL     1      14.667   5.529  15.917  1.00  0.00    -0.005 C 
ATOM     12  C   UNL     1      12.154   8.804  17.364  1.00  0.00     0.012 C 
ENDROOT
BRANCH  11  13
ATOM     13  C   UNL     1      15.580   4.335  16.329  1.00  0.00    -0.014 C 
ATOM     14  C   UNL     1      14.954   3.390  17.369  1.00  0.00     0.007 C 
ATOM     15  C   UNL     1      16.959   4.815  16.805  1.00  0.00     0.007 C 
ENDBRANCH  11  13
TORSDOF 1
ENDMDL
MODEL 2
REMARK VINA RESULT:    -4.911      1.427      4.505
REMARK INTER + INTRA:          -5.562
REMARK INTER:                  -5.141
REMARK INTRA:                  -0.421
REMARK UNBOUND:                -0.364
REMARK SMILES CC1=CC[C@@H]2[C@H]3[C@H](C(C)C)CC[C@]2(C)[C@@H]13
REMARK SMILES IDX 1 1 2 2 3 3 4 4 5 5 6 6 15 7 13 8 12 9 11 10 7 11 14 12 8 13
REMARK SMILES IDX 9 14 10 15
REMARK H PARENT
REMARK Flexibility Score: inf
ROOT
ATOM      1  C   UNL     1      16.231   6.810  18.743  1.00  0.00     0.039 C 
ATOM      2  C   UNL     1      15.401   5.998  17.793  1.00  0.00    -0.073 C 
ATOM      3  C   UNL     1      15.976   5.266  16.803  1.00  0.00    -0.027 C 
ATOM      4  C   UNL     1      15.078   4.442  15.876  1.00  0.00     0.031 C 
ATOM      5  C   UNL     1      13.574   4.645  16.251  1.00  0.00     0.003 C 
ATOM      6  C   UNL     1      13.341   6.162  16.436  1.00  0.00     0.004 C 
ATOM      7  C   UNL     1      13.873   5.972  17.881  1.00  0.00     0.024 C 
ATOM      8  C   UNL     1      13.348   4.519  17.778  1.00  0.00    -0.022 C 
ATOM      9  C   UNL     1      11.815   4.469  18.063  1.00  0.00     0.008 C 
ATOM     10  C   UNL     1      11.079   5.751  17.588  1.00  0.00     0.005 C 
ATOM     11  C   UNL     1      11.812   6.460  16.407  1.00  0.00    -0.005 C 
ATOM     12  C   UNL     1      14.090   3.401  18.548  1.00  0.00     0.012 C 
ENDROOT
BRANCH  11  13
ATOM     13  C   UNL     1      11.509   7.984  16.287  1.00  0.00    -0.014 C 
ATOM     14  C   UNL     1      12.721   8.839  15.876  1.00  0.00     0.007 C 
ATOM     15  C   UNL     1      10.875   8.538  17.571  1.00  0.00     0.007 C 
ENDBRANCH  11  13
TORSDOF 1
ENDMDL
MODEL 3
REMARK VINA RESULT:    -4.858      1.091      1.408
REMARK INTER + INTRA:          -5.506
REMARK INTER:                  -5.190
REMARK INTRA:                  -0.317
REMARK UNBOUND:                -0.364
REMARK SMILES CC1=CC[C@@H]2[C@H]3[C@H](C(C)C)CC[C@]2(C)[C@@H]13
REMARK SMILES IDX 1 1 2 2 3 3 4 4 5 5 6 6 15 7 13 8 12 9 11 10 7 11 14 12 8 13
REMARK SMILES IDX 9 14 10 15
REMARK H PARENT
REMARK Flexibility Score: inf
ROOT
ATOM      1  C   UNL     1      12.117   7.622  20.087  1.00  0.00     0.039 C 
ATOM      2  C   UNL     1      12.053   7.058  18.699  1.00  0.00    -0.073 C 
ATOM      3  C   UNL     1      10.876   6.978  18.024  1.00  0.00    -0.027 C 
ATOM      4  C   UNL     1      10.876   6.410  16.602  1.00  0.00     0.031 C 
ATOM      5  C   UNL     1      12.319   5.971  16.191  1.00  0.00     0.003 C 
ATOM      6  C   UNL     1      12.912   5.161  17.367  1.00  0.00     0.004 C 
ATOM      7  C   UNL     1      13.301   6.528  17.989  1.00  0.00     0.024 C 
ATOM      8  C   UNL     1      13.365   7.059  16.536  1.00  0.00    -0.022 C 
ATOM      9  C   UNL     1      14.727   6.684  15.875  1.00  0.00     0.008 C 
ATOM     10  C   UNL     1      15.283   5.327  16.386  1.00  0.00     0.005 C 
ATOM     11  C   UNL     1      14.157   4.363  16.874  1.00  0.00    -0.005 C 
ATOM     12  C   UNL     1      13.010   8.540  16.267  1.00  0.00     0.012 C 
ENDROOT
BRANCH  11  13
ATOM     13  C   UNL     1      14.627   3.301  17.912  1.00  0.00    -0.014 C 
ATOM     14  C   UNL     1      13.912   3.386  19.273  1.00  0.00     0.007 C 
ATOM     15  C   UNL     1      16.151   3.336  18.107  1.00  0.00     0.007 C 
ENDBRANCH  11  13
TORSDOF 1
ENDMDL
MODEL 4
REMARK VINA RESULT:    -4.706      2.053      3.594
REMARK INTER + INTRA:          -5.345
REMARK INTER:                  -5.030
REMARK INTRA:                  -0.315
REMARK UNBOUND:                -0.364
REMARK SMILES CC1=CC[C@@H]2[C@H]3[C@H](C(C)C)CC[C@]2(C)[C@@H]13
REMARK SMILES IDX 1 1 2 2 3 3 4 4 5 5 6 6 15 7 13 8 12 9 11 10 7 11 14 12 8 13
REMARK SMILES IDX 9 14 10 15
REMARK H PARENT
REMARK Flexibility Score: inf
ROOT
ATOM      1  C   UNL     1      13.269   8.367  19.093  1.00  0.00     0.039 C 
ATOM      2  C   UNL     1      12.697   7.062  18.625  1.00  0.00    -0.073 C 
ATOM      3  C   UNL     1      11.399   6.961  18.237  1.00  0.00    -0.027 C 
ATOM      4  C   UNL     1      10.876   5.606  17.751  1.00  0.00     0.031 C 
ATOM      5  C   UNL     1      12.002   4.525  17.836  1.00  0.00     0.003 C 
ATOM      6  C   UNL     1      12.675   4.663  19.221  1.00  0.00     0.004 C 
ATOM      7  C   UNL     1      13.538   5.784  18.584  1.00  0.00     0.024 C 
ATOM      8  C   UNL     1      13.334   5.043  17.240  1.00  0.00    -0.022 C 
ATOM      9  C   UNL     1      14.333   3.852  17.114  1.00  0.00     0.008 C 
ATOM     10  C   UNL     1      14.659   3.201  18.486  1.00  0.00     0.005 C 
ATOM     11  C   UNL     1      13.508   3.381  19.524  1.00  0.00    -0.005 C 
ATOM     12  C   UNL     1      13.290   5.868  15.933  1.00  0.00     0.012 C 
ENDROOT
BRANCH  11  13
ATOM     13  C   UNL     1      13.969   3.314  21.011  1.00  0.00    -0.014 C 
ATOM     14  C   UNL     1      14.026   1.890  21.592  1.00  0.00     0.007 C 
ATOM     15  C   UNL     1      13.118   4.223  21.910  1.00  0.00     0.007 C 
ENDBRANCH  11  13
TORSDOF 1
ENDMDL
MODEL 5
REMARK VINA RESULT:    -4.645      1.347      4.634
REMARK INTER + INTRA:          -5.281
REMARK INTER:                  -4.905
REMARK INTRA:                  -0.376
REMARK UNBOUND:                -0.364
REMARK SMILES CC1=CC[C@@H]2[C@H]3[C@H](C(C)C)CC[C@]2(C)[C@@H]13
REMARK SMILES IDX 1 1 2 2 3 3 4 4 5 5 6 6 15 7 13 8 12 9 11 10 7 11 14 12 8 13
REMARK SMILES IDX 9 14 10 15
REMARK H PARENT
REMARK Flexibility Score: inf
ROOT
ATOM      1  C   UNL     1      16.332   7.365  17.231  1.00  0.00     0.039 C 
ATOM      2  C   UNL     1      15.399   6.211  17.015  1.00  0.00    -0.073 C 
ATOM      3  C   UNL     1      15.632   5.289  16.044  1.00  0.00    -0.027 C 
ATOM      4  C   UNL     1      14.653   4.122  15.883  1.00  0.00     0.031 C 
ATOM      5  C   UNL     1      13.482   4.246  16.911  1.00  0.00     0.003 C 
ATOM      6  C   UNL     1      12.983   5.709  16.872  1.00  0.00     0.004 C 
ATOM      7  C   UNL     1      14.136   6.029  17.859  1.00  0.00     0.024 C 
ATOM      8  C   UNL     1      14.006   4.562  18.333  1.00  0.00    -0.022 C 
ATOM      9  C   UNL     1      12.832   4.416  19.351  1.00  0.00     0.008 C 
ATOM     10  C   UNL     1      11.665   5.397  19.058  1.00  0.00     0.005 C 
ATOM     11  C   UNL     1      11.584   5.799  17.552  1.00  0.00    -0.005 C 
ATOM     12  C   UNL     1      15.269   3.826  18.838  1.00  0.00     0.012 C 
ENDROOT
BRANCH  11  13
ATOM     13  C   UNL     1      10.886   7.167  17.291  1.00  0.00    -0.014 C 
ATOM     14  C   UNL     1      11.109   7.731  15.876  1.00  0.00     0.007 C 
ATOM     15  C   UNL     1      11.274   8.212  18.348  1.00  0.00     0.007 C 
ENDBRANCH  11  13
TORSDOF 1
ENDMDL
MODEL 6
REMARK VINA RESULT:    -4.472      1.496      4.521
REMARK INTER + INTRA:          -5.098
REMARK INTER:                  -4.680
REMARK INTRA:                  -0.418
REMARK UNBOUND:                -0.364
REMARK SMILES CC1=CC[C@@H]2[C@H]3[C@H](C(C)C)CC[C@]2(C)[C@@H]13
REMARK SMILES IDX 1 1 2 2 3 3 4 4 5 5 6 6 15 7 13 8 12 9 11 10 7 11 14 12 8 13
REMARK SMILES IDX 9 14 10 15
REMARK H PARENT
REMARK Flexibility Score: inf
ROOT
ATOM      1  C   UNL     1      14.223   8.234  16.271  1.00  0.00     0.039 C 
ATOM      2  C   UNL     1      13.152   7.267  16.680  1.00  0.00    -0.073 C 
ATOM      3  C   UNL     1      12.086   7.014  15.875  1.00  0.00    -0.027 C 
ATOM      4  C   UNL     1      11.034   6.003  16.338  1.00  0.00     0.031 C 
ATOM      5  C   UNL     1      11.396   5.449  17.754  1.00  0.00     0.003 C 
ATOM      6  C   UNL     1      11.778   6.655  18.642  1.00  0.00     0.004 C 
ATOM      7  C   UNL     1      13.197   6.539  18.025  1.00  0.00     0.024 C 
ATOM      8  C   UNL     1      12.885   5.034  17.838  1.00  0.00    -0.022 C 
ATOM      9  C   UNL     1      13.122   4.256  19.169  1.00  0.00     0.008 C 
ATOM     10  C   UNL     1      12.807   5.114  20.425  1.00  0.00     0.005 C 
ATOM     11  C   UNL     1      11.751   6.228  20.140  1.00  0.00    -0.005 C 
ATOM     12  C   UNL     1      13.515   4.285  16.641  1.00  0.00     0.012 C 
ENDROOT
BRANCH  11  13
ATOM     13  C   UNL     1      11.831   7.448  21.105  1.00  0.00    -0.014 C 
ATOM     14  C   UNL     1      11.265   8.754  20.521  1.00  0.00     0.007 C 
ATOM     15  C   UNL     1      13.261   7.670  21.620  1.00  0.00     0.007 C 
ENDBRANCH  11  13
TORSDOF 1
ENDMDL
MODEL 7
REMARK VINA RESULT:    -4.459      1.775      3.184
REMARK INTER + INTRA:          -5.083
REMARK INTER:                  -4.668
REMARK INTRA:                  -0.415
REMARK UNBOUND:                -0.364
REMARK SMILES CC1=CC[C@@H]2[C@H]3[C@H](C(C)C)CC[C@]2(C)[C@@H]13
REMARK SMILES IDX 1 1 2 2 3 3 4 4 5 5 6 6 15 7 13 8 12 9 11 10 7 11 14 12 8 13
REMARK SMILES IDX 9 14 10 15
REMARK H PARENT
REMARK Flexibility Score: inf
ROOT
ATOM      1  C   UNL     1      14.856   9.115  19.054  1.00  0.00     0.039 C 
ATOM      2  C   UNL     1      13.411   8.731  18.939  1.00  0.00    -0.073 C 
ATOM      3  C   UNL     1      12.480   9.225  19.796  1.00  0.00    -0.027 C 
ATOM      4  C   UNL     1      11.017   8.811  19.618  1.00  0.00     0.031 C 
ATOM      5  C   UNL     1      10.875   7.808  18.427  1.00  0.00     0.003 C 
ATOM      6  C   UNL     1      11.985   6.743  18.582  1.00  0.00     0.004 C 
ATOM      7  C   UNL     1      12.922   7.753  17.868  1.00  0.00     0.024 C 
ATOM      8  C   UNL     1      11.648   8.297  17.177  1.00  0.00    -0.022 C 
ATOM      9  C   UNL     1      11.261   7.403  15.958  1.00  0.00     0.008 C 
ATOM     10  C   UNL     1      11.626   5.909  16.176  1.00  0.00     0.005 C 
ATOM     11  C   UNL     1      11.654   5.512  17.685  1.00  0.00    -0.005 C 
ATOM     12  C   UNL     1      11.583   9.797  16.805  1.00  0.00     0.012 C 
ENDROOT
BRANCH  11  13
ATOM     13  C   UNL     1      12.557   4.285  18.008  1.00  0.00    -0.014 C 
ATOM     14  C   UNL     1      13.057   4.233  19.463  1.00  0.00     0.007 C 
ATOM     15  C   UNL     1      13.740   4.179  17.034  1.00  0.00     0.007 C 
ENDBRANCH  11  13
TORSDOF 1
ENDMDL
MODEL 8
REMARK VINA RESULT:    -4.458      1.762      3.605
REMARK INTER + INTRA:          -5.082
REMARK INTER:                  -4.823
REMARK INTRA:                  -0.260
REMARK UNBOUND:                -0.364
REMARK SMILES CC1=CC[C@@H]2[C@H]3[C@H](C(C)C)CC[C@]2(C)[C@@H]13
REMARK SMILES IDX 1 1 2 2 3 3 4 4 5 5 6 6 15 7 13 8 12 9 11 10 7 11 14 12 8 13
REMARK SMILES IDX 9 14 10 15
REMARK H PARENT
REMARK Flexibility Score: inf
ROOT
ATOM      1  C   UNL     1      14.824   8.664  16.739  1.00  0.00     0.039 C 
ATOM      2  C   UNL     1      13.585   8.316  17.509  1.00  0.00    -0.073 C 
ATOM      3  C   UNL     1      12.940   9.243  18.264  1.00  0.00    -0.027 C 
ATOM      4  C   UNL     1      11.669   8.833  19.013  1.00  0.00     0.031 C 
ATOM      5  C   UNL     1      11.361   7.319  18.775  1.00  0.00     0.003 C 
ATOM      6  C   UNL     1      12.681   6.539  18.972  1.00  0.00     0.004 C 
ATOM      7  C   UNL     1      13.003   6.900  17.497  1.00  0.00     0.024 C 
ATOM      8  C   UNL     1      11.472   6.945  17.277  1.00  0.00    -0.022 C 
ATOM      9  C   UNL     1      10.906   5.506  17.068  1.00  0.00     0.008 C 
ATOM     10  C   UNL     1      11.690   4.435  17.874  1.00  0.00     0.005 C 
ATOM     11  C   UNL     1      12.368   5.024  19.151  1.00  0.00    -0.005 C 
ATOM     12  C   UNL     1      10.898   7.922  16.224  1.00  0.00     0.012 C 
ENDROOT
BRANCH  11  13
ATOM     13  C   UNL     1      13.606   4.219  19.648  1.00  0.00    -0.014 C 
ATOM     14  C   UNL     1      14.273   3.353  18.565  1.00  0.00     0.007 C 
ATOM     15  C   UNL     1      13.270   3.366  20.881  1.00  0.00     0.007 C 
ENDBRANCH  11  13
TORSDOF 1
ENDMDL
MODEL 9
REMARK VINA RESULT:    -4.233      1.492      2.786
REMARK INTER + INTRA:          -4.844
REMARK INTER:                  -4.470
REMARK INTRA:                  -0.374
REMARK UNBOUND:                -0.364
REMARK SMILES CC1=CC[C@@H]2[C@H]3[C@H](C(C)C)CC[C@]2(C)[C@@H]13
REMARK SMILES IDX 1 1 2 2 3 3 4 4 5 5 6 6 15 7 13 8 12 9 11 10 7 11 14 12 8 13
REMARK SMILES IDX 9 14 10 15
REMARK H PARENT
REMARK Flexibility Score: inf
ROOT
ATOM      1  C   UNL     1      15.144   8.341  19.991  1.00  0.00     0.039 C 
ATOM      2  C   UNL     1      13.876   7.550  19.859  1.00  0.00    -0.073 C 
ATOM      3  C   UNL     1      13.167   7.167  20.953  1.00  0.00    -0.027 C 
ATOM      4  C   UNL     1      11.870   6.378  20.754  1.00  0.00     0.031 C 
ATOM      5  C   UNL     1      11.617   6.119  19.233  1.00  0.00     0.003 C 
ATOM      6  C   UNL     1      12.946   5.625  18.618  1.00  0.00     0.004 C 
ATOM      7  C   UNL     1      13.335   7.122  18.493  1.00  0.00     0.024 C 
ATOM      8  C   UNL     1      11.816   7.407  18.397  1.00  0.00    -0.022 C 
ATOM      9  C   UNL     1      11.302   7.155  16.945  1.00  0.00     0.008 C 
ATOM     10  C   UNL     1      12.072   6.012  16.230  1.00  0.00     0.005 C 
ATOM     11  C   UNL     1      12.666   4.972  17.231  1.00  0.00    -0.005 C 
ATOM     12  C   UNL     1      11.271   8.743  18.952  1.00  0.00     0.012 C 
ENDROOT
BRANCH  11  13
ATOM     13  C   UNL     1      13.898   4.189  16.686  1.00  0.00    -0.014 C 
ATOM     14  C   UNL     1      14.691   3.428  17.763  1.00  0.00     0.007 C 
ATOM     15  C   UNL     1      14.835   5.100  15.878  1.00  0.00     0.007 C 
ENDBRANCH  11  13
TORSDOF 1
ENDMDL
