MODEL 1
REMARK VINA RESULT:    -7.271      0.000      0.000
REMARK INTER + INTRA:         -12.099
REMARK INTER:                 -10.883
REMARK INTRA:                  -1.215
REMARK UNBOUND:                -1.215
REMARK SMILES O=c1c(O[C@H]2O[C@H](CO)[C@H](O)[C@H](O)[C@@H]2O)c(-c2cc(O)c(O)c(O)c2)oc2cc(O)cc(O)c12
REMARK SMILES IDX 4 1 3 2 16 3 26 4 2 5 27 6 1 7 34 8 28 9 32 10 29 11 31 12
REMARK SMILES IDX 17 13 18 14 19 15 25 16 21 17 23 18 20 19 22 21 24 23 33 25
REMARK SMILES IDX 30 27 5 29 14 30 6 31 12 32 7 33 10 34 15 35 13 37 8 39 9 40
REMARK SMILES IDX 11 42
REMARK H PARENT 20 20 22 22 24 24 33 26 30 28 15 36 13 38 9 41 11 43
REMARK Flexibility Score: inf
ROOT
ATOM      1  O   UNL     1     -38.066   6.035  81.515  1.00  0.00    -0.454 OA
ENDROOT
BRANCH   1   2
ATOM      2  C   UNL     1     -38.759   5.293  80.549  1.00  0.00     0.214 A 
ATOM      3  C   UNL     1     -38.172   5.063  79.294  1.00  0.00     0.181 A 
ATOM      4  O   UNL     1     -38.848   4.409  78.358  1.00  0.00    -0.452 OA
ATOM      5  C   UNL     1     -40.030   4.753  80.812  1.00  0.00     0.239 A 
ATOM      6  C   UNL     1     -40.063   3.909  78.546  1.00  0.00     0.146 A 
ATOM      7  O   UNL     1     -40.523   4.906  81.958  1.00  0.00    -0.285 OA
ATOM      8  C   UNL     1     -40.719   4.038  79.800  1.00  0.00     0.111 A 
ATOM      9  C   UNL     1     -40.681   3.245  77.484  1.00  0.00     0.094 A 
ATOM     10  C   UNL     1     -42.016   3.455  79.949  1.00  0.00     0.134 A 
ATOM     11  C   UNL     1     -41.957   2.701  77.635  1.00  0.00     0.123 A 
ATOM     12  C   UNL     1     -42.616   2.816  78.857  1.00  0.00     0.093 A 
BRANCH   3  13
ATOM     13  C   UNL     1     -36.815   5.552  78.964  1.00  0.00     0.029 A 
ATOM     14  C   UNL     1     -35.700   4.781  79.315  1.00  0.00     0.062 A 
ATOM     15  C   UNL     1     -34.408   5.228  79.036  1.00  0.00     0.162 A 
ATOM     16  C   UNL     1     -36.619   6.802  78.354  1.00  0.00     0.062 A 
ATOM     17  C   UNL     1     -34.209   6.465  78.396  1.00  0.00     0.200 A 
ATOM     18  C   UNL     1     -35.330   7.263  78.062  1.00  0.00     0.162 A 
BRANCH  15  19
ATOM     19  O   UNL     1     -33.327   4.427  79.404  1.00  0.00    -0.504 OA
ATOM     20  H   UNL     1     -33.205   4.086  80.348  1.00  0.00     0.293 HD
ENDBRANCH  15  19
BRANCH  17  21
ATOM     21  O   UNL     1     -32.899   6.862  78.109  1.00  0.00    -0.502 OA
ATOM     22  H   UNL     1     -32.321   6.433  77.402  1.00  0.00     0.293 HD
ENDBRANCH  17  21
BRANCH  18  23
ATOM     23  O   UNL     1     -35.212   8.513  77.451  1.00  0.00    -0.504 OA
ATOM     24  H   UNL     1     -34.926   9.352  77.936  1.00  0.00     0.293 HD
ENDBRANCH  18  23
ENDBRANCH   3  13
BRANCH  10  25
ATOM     25  O   UNL     1     -42.758   3.462  81.135  1.00  0.00    -0.507 OA
ATOM     26  H   UNL     1     -42.891   2.682  81.749  1.00  0.00     0.293 HD
ENDBRANCH  10  25
BRANCH  11  27
ATOM     27  O   UNL     1     -42.579   2.035  76.580  1.00  0.00    -0.508 OA
ATOM     28  H   UNL     1     -43.343   1.387  76.738  1.00  0.00     0.293 HD
ENDBRANCH  11  27
ENDBRANCH   1   2
BRANCH   1  29
ATOM     29  C   UNL     1     -37.982   5.667  82.898  1.00  0.00     0.339 C 
ATOM     30  C   UNL     1     -37.596   6.879  83.777  1.00  0.00     0.214 C 
ATOM     31  O   UNL     1     -37.082   4.583  83.073  1.00  0.00    -0.332 OA
ATOM     32  C   UNL     1     -36.115   7.265  83.549  1.00  0.00     0.180 C 
ATOM     33  C   UNL     1     -35.765   4.924  82.661  1.00  0.00     0.179 C 
ATOM     34  C   UNL     1     -35.178   6.034  83.566  1.00  0.00     0.177 C 
BRANCH  30  35
ATOM     35  O   UNL     1     -37.835   6.555  85.125  1.00  0.00    -0.384 OA
ATOM     36  H   UNL     1     -37.448   5.651  85.283  1.00  0.00     0.211 HD
ENDBRANCH  30  35
BRANCH  32  37
ATOM     37  O   UNL     1     -35.684   8.270  84.438  1.00  0.00    -0.387 OA
ATOM     38  H   UNL     1     -36.355   8.999  84.430  1.00  0.00     0.211 HD
ENDBRANCH  32  37
BRANCH  33  39
ATOM     39  C   UNL     1     -34.887   3.663  82.689  1.00  0.00     0.191 C 
BRANCH  39  40
ATOM     40  O   UNL     1     -33.551   4.000  82.464  1.00  0.00    -0.394 OA
ATOM     41  H   UNL     1     -33.166   3.283  81.899  1.00  0.00     0.210 HD
ENDBRANCH  39  40
ENDBRANCH  33  39
BRANCH  34  42
ATOM     42  O   UNL     1     -34.935   5.571  84.876  1.00  0.00    -0.387 OA
ATOM     43  H   UNL     1     -35.450   4.737  85.014  1.00  0.00     0.211 HD
ENDBRANCH  34  42
ENDBRANCH   1  29
TORSDOF 13
ENDMDL
MODEL 2
REMARK VINA RESULT:    -7.025      2.222      6.428
REMARK INTER + INTRA:         -11.731
REMARK INTER:                 -10.403
REMARK INTRA:                  -1.328
REMARK UNBOUND:                -1.215
REMARK SMILES O=c1c(O[C@H]2O[C@H](CO)[C@H](O)[C@H](O)[C@@H]2O)c(-c2cc(O)c(O)c(O)c2)oc2cc(O)cc(O)c12
REMARK SMILES IDX 4 1 3 2 16 3 26 4 2 5 27 6 1 7 34 8 28 9 32 10 29 11 31 12
REMARK SMILES IDX 17 13 18 14 19 15 25 16 21 17 23 18 20 19 22 21 24 23 33 25
REMARK SMILES IDX 30 27 5 29 14 30 6 31 12 32 7 33 10 34 15 35 13 37 8 39 9 40
REMARK SMILES IDX 11 42
REMARK H PARENT 20 20 22 22 24 24 33 26 30 28 15 36 13 38 9 41 11 43
REMARK Flexibility Score: inf
ROOT
ATOM      1  O   UNL     1     -36.850   4.637  81.494  1.00  0.00    -0.454 OA
ENDROOT
BRANCH   1   2
ATOM      2  C   UNL     1     -36.433   5.569  80.532  1.00  0.00     0.214 A 
ATOM      3  C   UNL     1     -36.982   5.530  79.240  1.00  0.00     0.181 A 
ATOM      4  O   UNL     1     -36.549   6.374  78.313  1.00  0.00    -0.452 OA
ATOM      5  C   UNL     1     -35.485   6.561  80.837  1.00  0.00     0.239 A 
ATOM      6  C   UNL     1     -35.632   7.307  78.541  1.00  0.00     0.146 A 
ATOM      7  O   UNL     1     -35.045   6.633  82.011  1.00  0.00    -0.285 OA
ATOM      8  C   UNL     1     -35.058   7.465  79.831  1.00  0.00     0.111 A 
ATOM      9  C   UNL     1     -35.249   8.135  77.484  1.00  0.00     0.094 A 
ATOM     10  C   UNL     1     -34.095   8.505  80.021  1.00  0.00     0.134 A 
ATOM     11  C   UNL     1     -34.290   9.131  77.677  1.00  0.00     0.123 A 
ATOM     12  C   UNL     1     -33.718   9.303  78.933  1.00  0.00     0.093 A 
BRANCH   3  13
ATOM     13  C   UNL     1     -38.025   4.551  78.863  1.00  0.00     0.029 A 
ATOM     14  C   UNL     1     -39.374   4.919  78.933  1.00  0.00     0.062 A 
ATOM     15  C   UNL     1     -40.380   4.008  78.603  1.00  0.00     0.162 A 
ATOM     16  C   UNL     1     -37.691   3.239  78.489  1.00  0.00     0.062 A 
ATOM     17  C   UNL     1     -40.047   2.703  78.197  1.00  0.00     0.200 A 
ATOM     18  C   UNL     1     -38.687   2.314  78.151  1.00  0.00     0.162 A 
BRANCH  15  19
ATOM     19  O   UNL     1     -41.710   4.419  78.687  1.00  0.00    -0.504 OA
ATOM     20  H   UNL     1     -42.036   5.046  79.410  1.00  0.00     0.293 HD
ENDBRANCH  15  19
BRANCH  17  21
ATOM     21  O   UNL     1     -41.084   1.831  77.849  1.00  0.00    -0.502 OA
ATOM     22  H   UNL     1     -41.249   1.496  76.912  1.00  0.00     0.293 HD
ENDBRANCH  17  21
BRANCH  18  23
ATOM     23  O   UNL     1     -38.281   1.030  77.785  1.00  0.00    -0.504 OA
ATOM     24  H   UNL     1     -37.526   0.839  77.141  1.00  0.00     0.293 HD
ENDBRANCH  18  23
ENDBRANCH   3  13
BRANCH  10  25
ATOM     25  O   UNL     1     -33.485   8.808  81.242  1.00  0.00    -0.507 OA
ATOM     26  H   UNL     1     -33.582   9.665  81.751  1.00  0.00     0.293 HD
ENDBRANCH  10  25
BRANCH  11  27
ATOM     27  O   UNL     1     -33.904   9.962  76.626  1.00  0.00    -0.508 OA
ATOM     28  H   UNL     1     -34.318   9.879  75.704  1.00  0.00     0.293 HD
ENDBRANCH  11  27
ENDBRANCH   1   2
BRANCH   1  29
ATOM     29  C   UNL     1     -37.421   4.995  82.759  1.00  0.00     0.339 C 
ATOM     30  C   UNL     1     -36.937   4.046  83.880  1.00  0.00     0.214 C 
ATOM     31  O   UNL     1     -38.838   5.028  82.675  1.00  0.00    -0.332 OA
ATOM     32  C   UNL     1     -37.578   2.647  83.721  1.00  0.00     0.180 C 
ATOM     33  C   UNL     1     -39.373   3.757  82.331  1.00  0.00     0.179 C 
ATOM     34  C   UNL     1     -39.100   2.725  83.450  1.00  0.00     0.177 C 
BRANCH  30  35
ATOM     35  O   UNL     1     -37.259   4.615  85.125  1.00  0.00    -0.384 OA
ATOM     36  H   UNL     1     -37.741   5.467  84.943  1.00  0.00     0.211 HD
ENDBRANCH  30  35
BRANCH  32  37
ATOM     37  O   UNL     1     -37.277   1.797  84.804  1.00  0.00    -0.387 OA
ATOM     38  H   UNL     1     -37.678   0.910  84.622  1.00  0.00     0.211 HD
ENDBRANCH  32  37
BRANCH  33  39
ATOM     39  C   UNL     1     -40.880   3.901  82.064  1.00  0.00     0.191 C 
BRANCH  39  40
ATOM     40  O   UNL     1     -41.466   2.644  81.912  1.00  0.00    -0.394 OA
ATOM     41  H   UNL     1     -40.731   2.006  81.723  1.00  0.00     0.210 HD
ENDBRANCH  39  40
ENDBRANCH  33  39
BRANCH  34  42
ATOM     42  O   UNL     1     -39.831   3.013  84.621  1.00  0.00    -0.387 OA
ATOM     43  H   UNL     1     -39.317   3.664  85.159  1.00  0.00     0.211 HD
ENDBRANCH  34  42
ENDBRANCH   1  29
TORSDOF 13
ENDMDL
MODEL 3
REMARK VINA RESULT:    -6.741      1.240      2.394
REMARK INTER + INTRA:         -11.306
REMARK INTER:                  -9.967
REMARK INTRA:                  -1.339
REMARK UNBOUND:                -1.215
REMARK SMILES O=c1c(O[C@H]2O[C@H](CO)[C@H](O)[C@H](O)[C@@H]2O)c(-c2cc(O)c(O)c(O)c2)oc2cc(O)cc(O)c12
REMARK SMILES IDX 4 1 3 2 16 3 26 4 2 5 27 6 1 7 34 8 28 9 32 10 29 11 31 12
REMARK SMILES IDX 17 13 18 14 19 15 25 16 21 17 23 18 20 19 22 21 24 23 33 25
REMARK SMILES IDX 30 27 5 29 14 30 6 31 12 32 7 33 10 34 15 35 13 37 8 39 9 40
REMARK SMILES IDX 11 42
REMARK H PARENT 20 20 22 22 24 24 33 26 30 28 15 36 13 38 9 41 11 43
REMARK Flexibility Score: inf
ROOT
ATOM      1  O   UNL     1     -37.882   5.752  81.844  1.00  0.00    -0.454 OA
ENDROOT
BRANCH   1   2
ATOM      2  C   UNL     1     -38.589   5.110  80.817  1.00  0.00     0.214 A 
ATOM      3  C   UNL     1     -38.002   4.975  79.548  1.00  0.00     0.181 A 
ATOM      4  O   UNL     1     -38.690   4.419  78.559  1.00  0.00    -0.452 OA
ATOM      5  C   UNL     1     -39.872   4.578  81.032  1.00  0.00     0.239 A 
ATOM      6  C   UNL     1     -39.916   3.931  78.702  1.00  0.00     0.146 A 
ATOM      7  O   UNL     1     -40.365   4.644  82.185  1.00  0.00    -0.285 OA
ATOM      8  C   UNL     1     -40.573   3.968  79.961  1.00  0.00     0.111 A 
ATOM      9  C   UNL     1     -40.545   3.374  77.586  1.00  0.00     0.094 A 
ATOM     10  C   UNL     1     -41.883   3.403  80.058  1.00  0.00     0.134 A 
ATOM     11  C   UNL     1     -41.833   2.847  77.689  1.00  0.00     0.123 A 
ATOM     12  C   UNL     1     -42.493   2.872  78.915  1.00  0.00     0.093 A 
BRANCH   3  13
ATOM     13  C   UNL     1     -36.634   5.460  79.262  1.00  0.00     0.029 A 
ATOM     14  C   UNL     1     -36.457   6.735  78.711  1.00  0.00     0.062 A 
ATOM     15  C   UNL     1     -35.179   7.211  78.411  1.00  0.00     0.162 A 
ATOM     16  C   UNL     1     -35.512   4.646  79.481  1.00  0.00     0.062 A 
ATOM     17  C   UNL     1     -34.050   6.410  78.659  1.00  0.00     0.200 A 
ATOM     18  C   UNL     1     -34.222   5.109  79.191  1.00  0.00     0.162 A 
BRANCH  15  19
ATOM     19  O   UNL     1     -35.050   8.487  77.863  1.00  0.00    -0.504 OA
ATOM     20  H   UNL     1     -34.157   8.861  77.573  1.00  0.00     0.293 HD
ENDBRANCH  15  19
BRANCH  17  21
ATOM     21  O   UNL     1     -32.786   6.935  78.370  1.00  0.00    -0.502 OA
ATOM     22  H   UNL     1     -31.979   6.827  78.966  1.00  0.00     0.293 HD
ENDBRANCH  17  21
BRANCH  18  23
ATOM     23  O   UNL     1     -33.153   4.246  79.438  1.00  0.00    -0.504 OA
ATOM     24  H   UNL     1     -32.409   4.444  80.091  1.00  0.00     0.293 HD
ENDBRANCH  18  23
ENDBRANCH   3  13
BRANCH  10  25
ATOM     25  O   UNL     1     -42.628   3.325  81.240  1.00  0.00    -0.507 OA
ATOM     26  H   UNL     1     -42.319   2.924  82.104  1.00  0.00     0.293 HD
ENDBRANCH  10  25
BRANCH  11  27
ATOM     27  O   UNL     1     -42.466   2.288  76.580  1.00  0.00    -0.508 OA
ATOM     28  H   UNL     1     -42.162   2.496  75.634  1.00  0.00     0.293 HD
ENDBRANCH  11  27
ENDBRANCH   1   2
BRANCH   1  29
ATOM     29  C   UNL     1     -38.413   6.828  82.629  1.00  0.00     0.339 C 
ATOM     30  C   UNL     1     -38.328   8.171  81.868  1.00  0.00     0.214 C 
ATOM     31  O   UNL     1     -37.760   6.895  83.889  1.00  0.00    -0.332 OA
ATOM     32  C   UNL     1     -36.860   8.650  81.776  1.00  0.00     0.180 C 
ATOM     33  C   UNL     1     -36.368   7.143  83.745  1.00  0.00     0.179 C 
ATOM     34  C   UNL     1     -36.120   8.542  83.132  1.00  0.00     0.177 C 
BRANCH  30  35
ATOM     35  O   UNL     1     -39.132   9.117  82.529  1.00  0.00    -0.384 OA
ATOM     36  H   UNL     1     -39.988   9.178  82.025  1.00  0.00     0.211 HD
ENDBRANCH  30  35
BRANCH  32  37
ATOM     37  O   UNL     1     -36.755   9.941  81.219  1.00  0.00    -0.387 OA
ATOM     38  H   UNL     1     -35.836  10.051  80.864  1.00  0.00     0.211 HD
ENDBRANCH  32  37
BRANCH  33  39
ATOM     39  C   UNL     1     -35.689   7.011  85.117  1.00  0.00     0.191 C 
BRANCH  39  40
ATOM     40  O   UNL     1     -34.476   7.701  85.125  1.00  0.00    -0.394 OA
ATOM     41  H   UNL     1     -34.499   8.312  85.905  1.00  0.00     0.210 HD
ENDBRANCH  39  40
ENDBRANCH  33  39
BRANCH  34  42
ATOM     42  O   UNL     1     -36.484   9.577  84.017  1.00  0.00    -0.387 OA
ATOM     43  H   UNL     1     -35.736  10.222  84.069  1.00  0.00     0.211 HD
ENDBRANCH  34  42
ENDBRANCH   1  29
TORSDOF 13
ENDMDL
MODEL 4
REMARK VINA RESULT:    -6.440      1.013      2.083
REMARK INTER + INTRA:         -10.856
REMARK INTER:                 -10.307
REMARK INTRA:                  -0.549
REMARK UNBOUND:                -1.215
REMARK SMILES O=c1c(O[C@H]2O[C@H](CO)[C@H](O)[C@H](O)[C@@H]2O)c(-c2cc(O)c(O)c(O)c2)oc2cc(O)cc(O)c12
REMARK SMILES IDX 4 1 3 2 16 3 26 4 2 5 27 6 1 7 34 8 28 9 32 10 29 11 31 12
REMARK SMILES IDX 17 13 18 14 19 15 25 16 21 17 23 18 20 19 22 21 24 23 33 25
REMARK SMILES IDX 30 27 5 29 14 30 6 31 12 32 7 33 10 34 15 35 13 37 8 39 9 40
REMARK SMILES IDX 11 42
REMARK H PARENT 20 20 22 22 24 24 33 26 30 28 15 36 13 38 9 41 11 43
REMARK Flexibility Score: inf
ROOT
ATOM      1  O   UNL     1     -37.777   6.047  81.537  1.00  0.00    -0.454 OA
ENDROOT
BRANCH   1   2
ATOM      2  C   UNL     1     -38.547   5.354  80.593  1.00  0.00     0.214 A 
ATOM      3  C   UNL     1     -38.110   5.272  79.261  1.00  0.00     0.181 A 
ATOM      4  O   UNL     1     -38.864   4.665  78.354  1.00  0.00    -0.452 OA
ATOM      5  C   UNL     1     -39.748   4.716  80.953  1.00  0.00     0.239 A 
ATOM      6  C   UNL     1     -40.020   4.077  78.636  1.00  0.00     0.146 A 
ATOM      7  O   UNL     1     -40.101   4.736  82.158  1.00  0.00    -0.285 OA
ATOM      8  C   UNL     1     -40.521   4.054  79.965  1.00  0.00     0.111 A 
ATOM      9  C   UNL     1     -40.731   3.474  77.596  1.00  0.00     0.094 A 
ATOM     10  C   UNL     1     -41.759   3.382  80.211  1.00  0.00     0.134 A 
ATOM     11  C   UNL     1     -41.950   2.842  77.846  1.00  0.00     0.123 A 
ATOM     12  C   UNL     1     -42.457   2.807  79.142  1.00  0.00     0.093 A 
BRANCH   3  13
ATOM     13  C   UNL     1     -36.831   5.871  78.820  1.00  0.00     0.029 A 
ATOM     14  C   UNL     1     -35.635   5.172  79.029  1.00  0.00     0.062 A 
ATOM     15  C   UNL     1     -34.411   5.722  78.643  1.00  0.00     0.162 A 
ATOM     16  C   UNL     1     -36.785   7.152  78.247  1.00  0.00     0.062 A 
ATOM     17  C   UNL     1     -34.365   6.992  78.039  1.00  0.00     0.200 A 
ATOM     18  C   UNL     1     -35.566   7.716  77.849  1.00  0.00     0.162 A 
BRANCH  15  19
ATOM     19  O   UNL     1     -33.246   4.990  78.870  1.00  0.00    -0.504 OA
ATOM     20  H   UNL     1     -32.343   5.295  78.532  1.00  0.00     0.293 HD
ENDBRANCH  15  19
BRANCH  17  21
ATOM     21  O   UNL     1     -33.121   7.493  77.642  1.00  0.00    -0.502 OA
ATOM     22  H   UNL     1     -32.591   7.136  76.861  1.00  0.00     0.293 HD
ENDBRANCH  17  21
BRANCH  18  23
ATOM     23  O   UNL     1     -35.597   8.992  77.283  1.00  0.00    -0.504 OA
ATOM     24  H   UNL     1     -36.138   9.232  76.464  1.00  0.00     0.293 HD
ENDBRANCH  18  23
ENDBRANCH   3  13
BRANCH  10  25
ATOM     25  O   UNL     1     -42.347   3.237  81.472  1.00  0.00    -0.507 OA
ATOM     26  H   UNL     1     -41.872   2.982  82.317  1.00  0.00     0.293 HD
ENDBRANCH  10  25
BRANCH  11  27
ATOM     27  O   UNL     1     -42.664   2.237  76.813  1.00  0.00    -0.508 OA
ATOM     28  H   UNL     1     -43.675   2.300  76.758  1.00  0.00     0.293 HD
ENDBRANCH  11  27
ENDBRANCH   1   2
BRANCH   1  29
ATOM     29  C   UNL     1     -36.415   5.727  81.849  1.00  0.00     0.339 C 
ATOM     30  C   UNL     1     -36.259   4.230  82.205  1.00  0.00     0.214 C 
ATOM     31  O   UNL     1     -35.931   6.567  82.887  1.00  0.00    -0.332 OA
ATOM     32  C   UNL     1     -36.892   3.932  83.585  1.00  0.00     0.180 C 
ATOM     33  C   UNL     1     -36.674   6.400  84.086  1.00  0.00     0.179 C 
ATOM     34  C   UNL     1     -36.485   4.974  84.655  1.00  0.00     0.177 C 
BRANCH  30  35
ATOM     35  O   UNL     1     -34.892   3.902  82.190  1.00  0.00    -0.384 OA
ATOM     36  H   UNL     1     -34.816   2.946  82.460  1.00  0.00     0.211 HD
ENDBRANCH  30  35
BRANCH  32  37
ATOM     37  O   UNL     1     -36.642   2.612  84.011  1.00  0.00    -0.387 OA
ATOM     38  H   UNL     1     -37.321   2.373  84.693  1.00  0.00     0.211 HD
ENDBRANCH  32  37
BRANCH  33  39
ATOM     39  C   UNL     1     -36.234   7.466  85.103  1.00  0.00     0.191 C 
BRANCH  39  40
ATOM     40  O   UNL     1     -34.843   7.566  85.125  1.00  0.00    -0.394 OA
ATOM     41  H   UNL     1     -34.523   6.962  85.842  1.00  0.00     0.210 HD
ENDBRANCH  39  40
ENDBRANCH  33  39
BRANCH  34  42
ATOM     42  O   UNL     1     -35.172   4.764  85.125  1.00  0.00    -0.387 OA
ATOM     43  H   UNL     1     -34.614   4.457  84.368  1.00  0.00     0.211 HD
ENDBRANCH  34  42
ENDBRANCH   1  29
TORSDOF 13
ENDMDL
MODEL 5
REMARK VINA RESULT:    -6.417      2.697      7.685
REMARK INTER + INTRA:         -10.821
REMARK INTER:                  -9.745
REMARK INTRA:                  -1.076
REMARK UNBOUND:                -1.215
REMARK SMILES O=c1c(O[C@H]2O[C@H](CO)[C@H](O)[C@H](O)[C@@H]2O)c(-c2cc(O)c(O)c(O)c2)oc2cc(O)cc(O)c12
REMARK SMILES IDX 4 1 3 2 16 3 26 4 2 5 27 6 1 7 34 8 28 9 32 10 29 11 31 12
REMARK SMILES IDX 17 13 18 14 19 15 25 16 21 17 23 18 20 19 22 21 24 23 33 25
REMARK SMILES IDX 30 27 5 29 14 30 6 31 12 32 7 33 10 34 15 35 13 37 8 39 9 40
REMARK SMILES IDX 11 42
REMARK H PARENT 20 20 22 22 24 24 33 26 30 28 15 36 13 38 9 41 11 43
REMARK Flexibility Score: inf
ROOT
ATOM      1  O   UNL     1     -38.836   7.114  79.400  1.00  0.00    -0.454 OA
ENDROOT
BRANCH   1   2
ATOM      2  C   UNL     1     -37.903   6.315  80.076  1.00  0.00     0.214 A 
ATOM      3  C   UNL     1     -38.236   4.994  80.419  1.00  0.00     0.181 A 
ATOM      4  O   UNL     1     -37.377   4.254  81.108  1.00  0.00    -0.452 OA
ATOM      5  C   UNL     1     -36.625   6.799  80.406  1.00  0.00     0.239 A 
ATOM      6  C   UNL     1     -36.172   4.676  81.471  1.00  0.00     0.146 A 
ATOM      7  O   UNL     1     -36.309   7.958  80.039  1.00  0.00    -0.285 OA
ATOM      8  C   UNL     1     -35.719   5.976  81.122  1.00  0.00     0.111 A 
ATOM      9  C   UNL     1     -35.356   3.809  82.201  1.00  0.00     0.094 A 
ATOM     10  C   UNL     1     -34.401   6.364  81.519  1.00  0.00     0.134 A 
ATOM     11  C   UNL     1     -34.081   4.208  82.603  1.00  0.00     0.123 A 
ATOM     12  C   UNL     1     -33.618   5.478  82.269  1.00  0.00     0.093 A 
BRANCH   3  13
ATOM     13  C   UNL     1     -39.540   4.397  80.056  1.00  0.00     0.029 A 
ATOM     14  C   UNL     1     -40.547   4.300  81.026  1.00  0.00     0.062 A 
ATOM     15  C   UNL     1     -41.780   3.722  80.718  1.00  0.00     0.162 A 
ATOM     16  C   UNL     1     -39.771   3.874  78.774  1.00  0.00     0.062 A 
ATOM     17  C   UNL     1     -42.026   3.226  79.424  1.00  0.00     0.200 A 
ATOM     18  C   UNL     1     -41.004   3.295  78.447  1.00  0.00     0.162 A 
BRANCH  15  19
ATOM     19  O   UNL     1     -42.753   3.647  81.715  1.00  0.00    -0.504 OA
ATOM     20  H   UNL     1     -42.531   3.766  82.694  1.00  0.00     0.293 HD
ENDBRANCH  15  19
BRANCH  17  21
ATOM     21  O   UNL     1     -43.284   2.680  79.151  1.00  0.00    -0.502 OA
ATOM     22  H   UNL     1     -43.441   1.916  78.511  1.00  0.00     0.293 HD
ENDBRANCH  17  21
BRANCH  18  23
ATOM     23  O   UNL     1     -41.164   2.800  77.151  1.00  0.00    -0.504 OA
ATOM     24  H   UNL     1     -41.261   3.384  76.333  1.00  0.00     0.293 HD
ENDBRANCH  18  23
ENDBRANCH   3  13
BRANCH  10  25
ATOM     25  O   UNL     1     -33.806   7.590  81.205  1.00  0.00    -0.507 OA
ATOM     26  H   UNL     1     -32.886   7.882  81.472  1.00  0.00     0.293 HD
ENDBRANCH  10  25
BRANCH  11  27
ATOM     27  O   UNL     1     -33.260   3.348  83.331  1.00  0.00    -0.508 OA
ATOM     28  H   UNL     1     -33.553   2.404  83.562  1.00  0.00     0.293 HD
ENDBRANCH  11  27
ENDBRANCH   1   2
BRANCH   1  29
ATOM     29  C   UNL     1     -39.121   7.000  78.000  1.00  0.00     0.339 C 
ATOM     30  C   UNL     1     -37.953   7.541  77.144  1.00  0.00     0.214 C 
ATOM     31  O   UNL     1     -40.346   7.647  77.686  1.00  0.00    -0.332 OA
ATOM     32  C   UNL     1     -37.878   9.083  77.242  1.00  0.00     0.180 C 
ATOM     33  C   UNL     1     -40.295   9.036  77.980  1.00  0.00     0.179 C 
ATOM     34  C   UNL     1     -39.264   9.751  77.075  1.00  0.00     0.177 C 
BRANCH  30  35
ATOM     35  O   UNL     1     -38.136   7.124  75.813  1.00  0.00    -0.384 OA
ATOM     36  H   UNL     1     -37.291   6.682  75.525  1.00  0.00     0.211 HD
ENDBRANCH  30  35
BRANCH  32  37
ATOM     37  O   UNL     1     -36.919   9.626  76.362  1.00  0.00    -0.387 OA
ATOM     38  H   UNL     1     -36.147   9.936  76.900  1.00  0.00     0.211 HD
ENDBRANCH  32  37
BRANCH  33  39
ATOM     39  C   UNL     1     -41.698   9.639  77.807  1.00  0.00     0.191 C 
BRANCH  39  40
ATOM     40  O   UNL     1     -42.211   9.314  76.550  1.00  0.00    -0.394 OA
ATOM     41  H   UNL     1     -42.423   8.346  76.569  1.00  0.00     0.210 HD
ENDBRANCH  39  40
ENDBRANCH  33  39
BRANCH  34  42
ATOM     42  O   UNL     1     -39.678   9.779  75.727  1.00  0.00    -0.387 OA
ATOM     43  H   UNL     1     -39.737   8.848  75.398  1.00  0.00     0.211 HD
ENDBRANCH  34  42
ENDBRANCH   1  29
TORSDOF 13
ENDMDL
MODEL 6
REMARK VINA RESULT:    -6.391      2.150      6.400
REMARK INTER + INTRA:         -10.782
REMARK INTER:                  -9.920
REMARK INTRA:                  -0.862
REMARK UNBOUND:                -1.215
REMARK SMILES O=c1c(O[C@H]2O[C@H](CO)[C@H](O)[C@H](O)[C@@H]2O)c(-c2cc(O)c(O)c(O)c2)oc2cc(O)cc(O)c12
REMARK SMILES IDX 4 1 3 2 16 3 26 4 2 5 27 6 1 7 34 8 28 9 32 10 29 11 31 12
REMARK SMILES IDX 17 13 18 14 19 15 25 16 21 17 23 18 20 19 22 21 24 23 33 25
REMARK SMILES IDX 30 27 5 29 14 30 6 31 12 32 7 33 10 34 15 35 13 37 8 39 9 40
REMARK SMILES IDX 11 42
REMARK H PARENT 20 20 22 22 24 24 33 26 30 28 15 36 13 38 9 41 11 43
REMARK Flexibility Score: inf
ROOT
ATOM      1  O   UNL     1     -38.848   6.029  81.999  1.00  0.00    -0.454 OA
ENDROOT
BRANCH   1   2
ATOM      2  C   UNL     1     -37.589   6.231  81.416  1.00  0.00     0.214 A 
ATOM      3  C   UNL     1     -37.235   5.522  80.257  1.00  0.00     0.181 A 
ATOM      4  O   UNL     1     -36.024   5.669  79.736  1.00  0.00    -0.452 OA
ATOM      5  C   UNL     1     -36.670   7.148  81.957  1.00  0.00     0.239 A 
ATOM      6  C   UNL     1     -35.110   6.497  80.228  1.00  0.00     0.146 A 
ATOM      7  O   UNL     1     -37.016   7.828  82.955  1.00  0.00    -0.285 OA
ATOM      8  C   UNL     1     -35.391   7.302  81.364  1.00  0.00     0.111 A 
ATOM      9  C   UNL     1     -33.865   6.563  79.599  1.00  0.00     0.094 A 
ATOM     10  C   UNL     1     -34.375   8.193  81.832  1.00  0.00     0.134 A 
ATOM     11  C   UNL     1     -32.874   7.420  80.079  1.00  0.00     0.123 A 
ATOM     12  C   UNL     1     -33.131   8.218  81.189  1.00  0.00     0.093 A 
BRANCH   3  13
ATOM     13  C   UNL     1     -38.170   4.581  79.600  1.00  0.00     0.029 A 
ATOM     14  C   UNL     1     -37.677   3.390  79.054  1.00  0.00     0.062 A 
ATOM     15  C   UNL     1     -38.533   2.494  78.409  1.00  0.00     0.162 A 
ATOM     16  C   UNL     1     -39.533   4.886  79.463  1.00  0.00     0.062 A 
ATOM     17  C   UNL     1     -39.905   2.782  78.298  1.00  0.00     0.200 A 
ATOM     18  C   UNL     1     -40.406   3.997  78.824  1.00  0.00     0.162 A 
BRANCH  15  19
ATOM     19  O   UNL     1     -37.998   1.319  77.880  1.00  0.00    -0.504 OA
ATOM     20  H   UNL     1     -37.690   1.252  76.920  1.00  0.00     0.293 HD
ENDBRANCH  15  19
BRANCH  17  21
ATOM     21  O   UNL     1     -40.731   1.844  77.670  1.00  0.00    -0.502 OA
ATOM     22  H   UNL     1     -41.011   0.969  78.086  1.00  0.00     0.293 HD
ENDBRANCH  17  21
BRANCH  18  23
ATOM     23  O   UNL     1     -41.750   4.364  78.728  1.00  0.00    -0.504 OA
ATOM     24  H   UNL     1     -42.133   5.208  79.129  1.00  0.00     0.293 HD
ENDBRANCH  18  23
ENDBRANCH   3  13
BRANCH  10  25
ATOM     25  O   UNL     1     -34.527   9.077  82.904  1.00  0.00    -0.507 OA
ATOM     26  H   UNL     1     -34.952   8.864  83.786  1.00  0.00     0.293 HD
ENDBRANCH  10  25
BRANCH  11  27
ATOM     27  O   UNL     1     -31.630   7.492  79.454  1.00  0.00    -0.508 OA
ATOM     28  H   UNL     1     -30.903   8.115  79.790  1.00  0.00     0.293 HD
ENDBRANCH  11  27
ENDBRANCH   1   2
BRANCH   1  29
ATOM     29  C   UNL     1     -39.044   5.532  83.329  1.00  0.00     0.339 C 
ATOM     30  C   UNL     1     -37.914   4.558  83.735  1.00  0.00     0.214 C 
ATOM     31  O   UNL     1     -40.325   4.932  83.454  1.00  0.00    -0.332 OA
ATOM     32  C   UNL     1     -38.046   3.222  82.965  1.00  0.00     0.180 C 
ATOM     33  C   UNL     1     -40.471   3.822  82.578  1.00  0.00     0.179 C 
ATOM     34  C   UNL     1     -39.497   2.685  82.967  1.00  0.00     0.177 C 
BRANCH  30  35
ATOM     35  O   UNL     1     -37.971   4.352  85.125  1.00  0.00    -0.384 OA
ATOM     36  H   UNL     1     -37.711   5.209  85.560  1.00  0.00     0.211 HD
ENDBRANCH  30  35
BRANCH  32  37
ATOM     37  O   UNL     1     -37.123   2.256  83.413  1.00  0.00    -0.387 OA
ATOM     38  H   UNL     1     -37.627   1.539  83.876  1.00  0.00     0.211 HD
ENDBRANCH  32  37
BRANCH  33  39
ATOM     39  C   UNL     1     -41.930   3.341  82.616  1.00  0.00     0.191 C 
BRANCH  39  40
ATOM     40  O   UNL     1     -42.603   3.750  81.464  1.00  0.00    -0.394 OA
ATOM     41  H   UNL     1     -43.511   4.032  81.747  1.00  0.00     0.210 HD
ENDBRANCH  39  40
ENDBRANCH  33  39
BRANCH  34  42
ATOM     42  O   UNL     1     -39.841   2.096  84.202  1.00  0.00    -0.387 OA
ATOM     43  H   UNL     1     -40.640   2.560  84.558  1.00  0.00     0.211 HD
ENDBRANCH  34  42
ENDBRANCH   1  29
TORSDOF 13
ENDMDL
MODEL 7
REMARK VINA RESULT:    -6.319      2.852      5.765
REMARK INTER + INTRA:         -10.674
REMARK INTER:                  -9.196
REMARK INTRA:                  -1.478
REMARK UNBOUND:                -1.215
REMARK SMILES O=c1c(O[C@H]2O[C@H](CO)[C@H](O)[C@H](O)[C@@H]2O)c(-c2cc(O)c(O)c(O)c2)oc2cc(O)cc(O)c12
REMARK SMILES IDX 4 1 3 2 16 3 26 4 2 5 27 6 1 7 34 8 28 9 32 10 29 11 31 12
REMARK SMILES IDX 17 13 18 14 19 15 25 16 21 17 23 18 20 19 22 21 24 23 33 25
REMARK SMILES IDX 30 27 5 29 14 30 6 31 12 32 7 33 10 34 15 35 13 37 8 39 9 40
REMARK SMILES IDX 11 42
REMARK H PARENT 20 20 22 22 24 24 33 26 30 28 15 36 13 38 9 41 11 43
REMARK Flexibility Score: inf
ROOT
ATOM      1  O   UNL     1     -37.224   5.884  79.822  1.00  0.00    -0.454 OA
ENDROOT
BRANCH   1   2
ATOM      2  C   UNL     1     -38.294   6.635  79.314  1.00  0.00     0.214 A 
ATOM      3  C   UNL     1     -39.541   6.594  79.957  1.00  0.00     0.181 A 
ATOM      4  O   UNL     1     -40.570   7.259  79.447  1.00  0.00    -0.452 OA
ATOM      5  C   UNL     1     -38.143   7.449  78.177  1.00  0.00     0.239 A 
ATOM      6  C   UNL     1     -40.488   8.014  78.359  1.00  0.00     0.146 A 
ATOM      7  O   UNL     1     -37.009   7.533  77.644  1.00  0.00    -0.285 OA
ATOM      8  C   UNL     1     -39.255   8.167  77.669  1.00  0.00     0.111 A 
ATOM      9  C   UNL     1     -41.641   8.662  77.910  1.00  0.00     0.094 A 
ATOM     10  C   UNL     1     -39.224   9.015  76.517  1.00  0.00     0.134 A 
ATOM     11  C   UNL     1     -41.602   9.468  76.772  1.00  0.00     0.123 A 
ATOM     12  C   UNL     1     -40.404   9.632  76.083  1.00  0.00     0.093 A 
BRANCH   3  13
ATOM     13  C   UNL     1     -39.760   5.804  81.189  1.00  0.00     0.029 A 
ATOM     14  C   UNL     1     -40.456   4.592  81.115  1.00  0.00     0.062 A 
ATOM     15  C   UNL     1     -40.696   3.836  82.264  1.00  0.00     0.162 A 
ATOM     16  C   UNL     1     -39.332   6.273  82.441  1.00  0.00     0.062 A 
ATOM     17  C   UNL     1     -40.241   4.288  83.516  1.00  0.00     0.200 A 
ATOM     18  C   UNL     1     -39.560   5.526  83.604  1.00  0.00     0.162 A 
BRANCH  15  19
ATOM     19  O   UNL     1     -41.394   2.634  82.143  1.00  0.00    -0.504 OA
ATOM     20  H   UNL     1     -41.546   2.018  82.930  1.00  0.00     0.293 HD
ENDBRANCH  15  19
BRANCH  17  21
ATOM     21  O   UNL     1     -40.478   3.487  84.638  1.00  0.00    -0.502 OA
ATOM     22  H   UNL     1     -39.866   2.743  84.941  1.00  0.00     0.293 HD
ENDBRANCH  17  21
BRANCH  18  23
ATOM     23  O   UNL     1     -39.103   6.053  84.813  1.00  0.00    -0.504 OA
ATOM     24  H   UNL     1     -38.132   6.067  85.090  1.00  0.00     0.293 HD
ENDBRANCH  18  23
ENDBRANCH   3  13
BRANCH  10  25
ATOM     25  O   UNL     1     -38.076   9.296  75.770  1.00  0.00    -0.507 OA
ATOM     26  H   UNL     1     -37.642   8.684  75.106  1.00  0.00     0.293 HD
ENDBRANCH  10  25
BRANCH  11  27
ATOM     27  O   UNL     1     -42.749  10.119  76.319  1.00  0.00    -0.508 OA
ATOM     28  H   UNL     1     -42.811  11.132  76.297  1.00  0.00     0.293 HD
ENDBRANCH  11  27
ENDBRANCH   1   2
BRANCH   1  29
ATOM     29  C   UNL     1     -36.109   6.452  80.521  1.00  0.00     0.339 C 
ATOM     30  C   UNL     1     -34.778   6.139  79.800  1.00  0.00     0.214 C 
ATOM     31  O   UNL     1     -36.091   6.014  81.871  1.00  0.00    -0.332 OA
ATOM     32  C   UNL     1     -34.415   4.643  79.957  1.00  0.00     0.180 C 
ATOM     33  C   UNL     1     -35.953   4.602  81.962  1.00  0.00     0.179 C 
ATOM     34  C   UNL     1     -34.579   4.149  81.415  1.00  0.00     0.177 C 
BRANCH  30  35
ATOM     35  O   UNL     1     -33.770   6.965  80.329  1.00  0.00    -0.384 OA
ATOM     36  H   UNL     1     -33.444   7.543  79.587  1.00  0.00     0.211 HD
ENDBRANCH  30  35
BRANCH  32  37
ATOM     37  O   UNL     1     -33.137   4.348  79.440  1.00  0.00    -0.387 OA
ATOM     38  H   UNL     1     -32.896   5.055  78.788  1.00  0.00     0.211 HD
ENDBRANCH  32  37
BRANCH  33  39
ATOM     39  C   UNL     1     -36.137   4.173  83.427  1.00  0.00     0.191 C 
BRANCH  39  40
ATOM     40  O   UNL     1     -35.407   3.011  83.684  1.00  0.00    -0.394 OA
ATOM     41  H   UNL     1     -35.928   2.256  83.309  1.00  0.00     0.210 HD
ENDBRANCH  39  40
ENDBRANCH  33  39
BRANCH  34  42
ATOM     42  O   UNL     1     -33.518   4.573  82.240  1.00  0.00    -0.387 OA
ATOM     43  H   UNL     1     -33.751   4.371  83.180  1.00  0.00     0.211 HD
ENDBRANCH  34  42
ENDBRANCH   1  29
TORSDOF 13
ENDMDL
MODEL 8
REMARK VINA RESULT:    -6.276      2.568      5.423
REMARK INTER + INTRA:         -10.610
REMARK INTER:                  -9.001
REMARK INTRA:                  -1.609
REMARK UNBOUND:                -1.215
REMARK SMILES O=c1c(O[C@H]2O[C@H](CO)[C@H](O)[C@H](O)[C@@H]2O)c(-c2cc(O)c(O)c(O)c2)oc2cc(O)cc(O)c12
REMARK SMILES IDX 4 1 3 2 16 3 26 4 2 5 27 6 1 7 34 8 28 9 32 10 29 11 31 12
REMARK SMILES IDX 17 13 18 14 19 15 25 16 21 17 23 18 20 19 22 21 24 23 33 25
REMARK SMILES IDX 30 27 5 29 14 30 6 31 12 32 7 33 10 34 15 35 13 37 8 39 9 40
REMARK SMILES IDX 11 42
REMARK H PARENT 20 20 22 22 24 24 33 26 30 28 15 36 13 38 9 41 11 43
REMARK Flexibility Score: inf
ROOT
ATOM      1  O   UNL     1     -37.595   6.115  79.253  1.00  0.00    -0.454 OA
ENDROOT
BRANCH   1   2
ATOM      2  C   UNL     1     -37.604   5.269  80.371  1.00  0.00     0.214 A 
ATOM      3  C   UNL     1     -36.488   5.231  81.224  1.00  0.00     0.181 A 
ATOM      4  O   UNL     1     -36.470   4.391  82.251  1.00  0.00    -0.452 OA
ATOM      5  C   UNL     1     -38.717   4.466  80.674  1.00  0.00     0.239 A 
ATOM      6  C   UNL     1     -37.482   3.589  82.560  1.00  0.00     0.146 A 
ATOM      7  O   UNL     1     -39.737   4.552  79.947  1.00  0.00    -0.285 OA
ATOM      8  C   UNL     1     -38.678   3.595  81.793  1.00  0.00     0.111 A 
ATOM      9  C   UNL     1     -37.346   2.741  83.661  1.00  0.00     0.094 A 
ATOM     10  C   UNL     1     -39.742   2.727  82.191  1.00  0.00     0.134 A 
ATOM     11  C   UNL     1     -38.383   1.882  84.025  1.00  0.00     0.123 A 
ATOM     12  C   UNL     1     -39.564   1.875  83.288  1.00  0.00     0.093 A 
BRANCH   3  13
ATOM     13  C   UNL     1     -35.303   6.088  81.000  1.00  0.00     0.029 A 
ATOM     14  C   UNL     1     -35.039   7.143  81.883  1.00  0.00     0.062 A 
ATOM     15  C   UNL     1     -33.941   7.981  81.684  1.00  0.00     0.162 A 
ATOM     16  C   UNL     1     -34.468   5.901  79.887  1.00  0.00     0.062 A 
ATOM     17  C   UNL     1     -33.083   7.776  80.588  1.00  0.00     0.200 A 
ATOM     18  C   UNL     1     -33.359   6.729  79.675  1.00  0.00     0.162 A 
BRANCH  15  19
ATOM     19  O   UNL     1     -33.716   9.018  82.589  1.00  0.00    -0.504 OA
ATOM     20  H   UNL     1     -32.854   9.101  83.111  1.00  0.00     0.293 HD
ENDBRANCH  15  19
BRANCH  17  21
ATOM     21  O   UNL     1     -31.978   8.621  80.442  1.00  0.00    -0.502 OA
ATOM     22  H   UNL     1     -31.885   9.308  79.708  1.00  0.00     0.293 HD
ENDBRANCH  17  21
BRANCH  18  23
ATOM     23  O   UNL     1     -32.571   6.482  78.550  1.00  0.00    -0.504 OA
ATOM     24  H   UNL     1     -31.649   6.070  78.587  1.00  0.00     0.293 HD
ENDBRANCH  18  23
ENDBRANCH   3  13
BRANCH  10  25
ATOM     25  O   UNL     1     -40.990   2.662  81.563  1.00  0.00    -0.507 OA
ATOM     26  H   UNL     1     -41.691   3.378  81.572  1.00  0.00     0.293 HD
ENDBRANCH  10  25
BRANCH  11  27
ATOM     27  O   UNL     1     -38.255   1.034  85.125  1.00  0.00    -0.508 OA
ATOM     28  H   UNL     1     -39.000   0.933  85.806  1.00  0.00     0.293 HD
ENDBRANCH  11  27
ENDBRANCH   1   2
BRANCH   1  29
ATOM     29  C   UNL     1     -38.226   7.402  79.219  1.00  0.00     0.339 C 
ATOM     30  C   UNL     1     -39.253   7.492  78.067  1.00  0.00     0.214 C 
ATOM     31  O   UNL     1     -37.251   8.432  79.136  1.00  0.00    -0.332 OA
ATOM     32  C   UNL     1     -38.531   7.549  76.699  1.00  0.00     0.180 C 
ATOM     33  C   UNL     1     -36.476   8.326  77.949  1.00  0.00     0.179 C 
ATOM     34  C   UNL     1     -37.355   8.555  76.697  1.00  0.00     0.177 C 
BRANCH  30  35
ATOM     35  O   UNL     1     -40.057   8.629  78.265  1.00  0.00    -0.384 OA
ATOM     36  H   UNL     1     -39.468   9.426  78.170  1.00  0.00     0.211 HD
ENDBRANCH  30  35
BRANCH  32  37
ATOM     37  O   UNL     1     -39.425   7.778  75.634  1.00  0.00    -0.387 OA
ATOM     38  H   UNL     1     -39.350   7.021  74.999  1.00  0.00     0.211 HD
ENDBRANCH  32  37
BRANCH  33  39
ATOM     39  C   UNL     1     -35.322   9.339  78.010  1.00  0.00     0.191 C 
BRANCH  39  40
ATOM     40  O   UNL     1     -34.242   8.887  77.250  1.00  0.00    -0.394 OA
ATOM     41  H   UNL     1     -33.497   8.719  77.882  1.00  0.00     0.210 HD
ENDBRANCH  39  40
ENDBRANCH  33  39
BRANCH  34  42
ATOM     42  O   UNL     1     -37.801   9.889  76.604  1.00  0.00    -0.387 OA
ATOM     43  H   UNL     1     -38.526   9.931  75.933  1.00  0.00     0.211 HD
ENDBRANCH  34  42
ENDBRANCH   1  29
TORSDOF 13
ENDMDL
MODEL 9
REMARK VINA RESULT:    -6.073      2.965      5.700
REMARK INTER + INTRA:         -10.306
REMARK INTER:                  -8.751
REMARK INTRA:                  -1.554
REMARK UNBOUND:                -1.215
REMARK SMILES O=c1c(O[C@H]2O[C@H](CO)[C@H](O)[C@H](O)[C@@H]2O)c(-c2cc(O)c(O)c(O)c2)oc2cc(O)cc(O)c12
REMARK SMILES IDX 4 1 3 2 16 3 26 4 2 5 27 6 1 7 34 8 28 9 32 10 29 11 31 12
REMARK SMILES IDX 17 13 18 14 19 15 25 16 21 17 23 18 20 19 22 21 24 23 33 25
REMARK SMILES IDX 30 27 5 29 14 30 6 31 12 32 7 33 10 34 15 35 13 37 8 39 9 40
REMARK SMILES IDX 11 42
REMARK H PARENT 20 20 22 22 24 24 33 26 30 28 15 36 13 38 9 41 11 43
REMARK Flexibility Score: inf
ROOT
ATOM      1  O   UNL     1     -35.859   6.819  81.945  1.00  0.00    -0.454 OA
ENDROOT
BRANCH   1   2
ATOM      2  C   UNL     1     -36.667   7.058  80.825  1.00  0.00     0.214 A 
ATOM      3  C   UNL     1     -37.899   6.396  80.700  1.00  0.00     0.181 A 
ATOM      4  O   UNL     1     -38.640   6.578  79.614  1.00  0.00    -0.452 OA
ATOM      5  C   UNL     1     -36.280   7.967  79.824  1.00  0.00     0.239 A 
ATOM      6  C   UNL     1     -38.303   7.398  78.627  1.00  0.00     0.146 A 
ATOM      7  O   UNL     1     -35.209   8.605  79.972  1.00  0.00    -0.285 OA
ATOM      8  C   UNL     1     -37.105   8.158  78.686  1.00  0.00     0.111 A 
ATOM      9  C   UNL     1     -39.160   7.503  77.528  1.00  0.00     0.094 A 
ATOM     10  C   UNL     1     -36.810   9.044  77.603  1.00  0.00     0.134 A 
ATOM     11  C   UNL     1     -38.850   8.354  76.467  1.00  0.00     0.123 A 
ATOM     12  C   UNL     1     -37.681   9.109  76.507  1.00  0.00     0.093 A 
BRANCH   3  13
ATOM     13  C   UNL     1     -38.397   5.469  81.740  1.00  0.00     0.029 A 
ATOM     14  C   UNL     1     -38.423   4.093  81.480  1.00  0.00     0.062 A 
ATOM     15  C   UNL     1     -38.908   3.196  82.435  1.00  0.00     0.162 A 
ATOM     16  C   UNL     1     -38.898   5.945  82.962  1.00  0.00     0.062 A 
ATOM     17  C   UNL     1     -39.380   3.668  83.673  1.00  0.00     0.200 A 
ATOM     18  C   UNL     1     -39.384   5.060  83.932  1.00  0.00     0.162 A 
BRANCH  15  19
ATOM     19  O   UNL     1     -38.914   1.834  82.133  1.00  0.00    -0.504 OA
ATOM     20  H   UNL     1     -39.616   1.205  82.497  1.00  0.00     0.293 HD
ENDBRANCH  15  19
BRANCH  17  21
ATOM     21  O   UNL     1     -39.831   2.734  84.611  1.00  0.00    -0.502 OA
ATOM     22  H   UNL     1     -39.262   1.991  84.987  1.00  0.00     0.293 HD
ENDBRANCH  17  21
BRANCH  18  23
ATOM     23  O   UNL     1     -39.862   5.605  85.125  1.00  0.00    -0.504 OA
ATOM     24  H   UNL     1     -39.277   5.825  85.918  1.00  0.00     0.293 HD
ENDBRANCH  18  23
ENDBRANCH   3  13
BRANCH  10  25
ATOM     25  O   UNL     1     -35.695   9.887  77.547  1.00  0.00    -0.507 OA
ATOM     26  H   UNL     1     -34.870   9.735  77.000  1.00  0.00     0.293 HD
ENDBRANCH  10  25
BRANCH  11  27
ATOM     27  O   UNL     1     -39.701   8.465  75.369  1.00  0.00    -0.508 OA
ATOM     28  H   UNL     1     -39.502   7.994  74.493  1.00  0.00     0.293 HD
ENDBRANCH  11  27
ENDBRANCH   1   2
BRANCH   1  29
ATOM     29  C   UNL     1     -34.671   6.017  81.919  1.00  0.00     0.339 C 
ATOM     30  C   UNL     1     -34.993   4.531  82.198  1.00  0.00     0.214 C 
ATOM     31  O   UNL     1     -33.706   6.525  82.828  1.00  0.00    -0.332 OA
ATOM     32  C   UNL     1     -35.378   4.329  83.683  1.00  0.00     0.180 C 
ATOM     33  C   UNL     1     -34.183   6.502  84.166  1.00  0.00     0.179 C 
ATOM     34  C   UNL     1     -34.404   5.048  84.646  1.00  0.00     0.177 C 
BRANCH  30  35
ATOM     35  O   UNL     1     -33.874   3.753  81.852  1.00  0.00    -0.384 OA
ATOM     36  H   UNL     1     -33.601   3.251  82.668  1.00  0.00     0.211 HD
ENDBRANCH  30  35
BRANCH  32  37
ATOM     37  O   UNL     1     -35.537   2.967  84.011  1.00  0.00    -0.387 OA
ATOM     38  H   UNL     1     -36.354   2.633  83.560  1.00  0.00     0.211 HD
ENDBRANCH  32  37
BRANCH  33  39
ATOM     39  C   UNL     1     -33.182   7.239  85.070  1.00  0.00     0.191 C 
BRANCH  39  40
ATOM     40  O   UNL     1     -31.879   6.833  84.778  1.00  0.00    -0.394 OA
ATOM     41  H   UNL     1     -31.707   6.016  85.313  1.00  0.00     0.210 HD
ENDBRANCH  39  40
ENDBRANCH  33  39
BRANCH  34  42
ATOM     42  O   UNL     1     -33.187   4.350  84.786  1.00  0.00    -0.387 OA
ATOM     43  H   UNL     1     -32.782   4.597  85.654  1.00  0.00     0.211 HD
ENDBRANCH  34  42
ENDBRANCH   1  29
TORSDOF 13
ENDMDL
