MODEL 1
REMARK VINA RESULT:    -3.667      0.000      0.000
REMARK INTER + INTRA:         -10.771
REMARK INTER:                  -7.954
REMARK INTRA:                  -2.816
REMARK UNBOUND:                -2.816
REMARK SMILES CCCCCCCCCCCCCCCCCCCCCC(=O)[O-]
REMARK SMILES IDX 12 1 11 2 10 3 9 4 8 5 7 6 6 7 5 8 4 9 3 10 2 11 1 12 13 13
REMARK SMILES IDX 14 14 15 15 16 16 17 17 18 18 19 19 20 20 21 21 22 22 23 23
REMARK SMILES IDX 24 24
REMARK H PARENT
REMARK Flexibility Score: inf
ROOT
ATOM      1  C   UNL     1      21.627   2.380  23.769  1.00  0.00     0.000 C 
ENDROOT
BRANCH   1   2
ATOM      2  C   UNL     1      22.350   3.401  24.661  1.00  0.00     0.000 C 
BRANCH   2   3
ATOM      3  C   UNL     1      23.806   2.999  24.957  1.00  0.00     0.000 C 
BRANCH   3   4
ATOM      4  C   UNL     1      24.243   3.384  26.382  1.00  0.00    -0.000 C 
BRANCH   4   5
ATOM      5  C   UNL     1      23.053   3.657  27.319  1.00  0.00    -0.000 C 
BRANCH   5   6
ATOM      6  C   UNL     1      23.132   4.978  28.110  1.00  0.00    -0.000 C 
BRANCH   6   7
ATOM      7  C   UNL     1      23.814   6.145  27.367  1.00  0.00    -0.000 C 
BRANCH   7   8
ATOM      8  C   UNL     1      23.042   7.480  27.398  1.00  0.00    -0.000 C 
BRANCH   8   9
ATOM      9  C   UNL     1      23.804   8.655  28.038  1.00  0.00    -0.000 C 
BRANCH   9  10
ATOM     10  C   UNL     1      25.322   8.587  27.794  1.00  0.00    -0.000 C 
BRANCH  10  11
ATOM     11  C   UNL     1      25.840   9.785  26.982  1.00  0.00    -0.003 C 
ATOM     12  C   UNL     1      25.383   9.751  25.521  1.00  0.00     0.004 C 
ENDBRANCH  10  11
ENDBRANCH   9  10
ENDBRANCH   8   9
ENDBRANCH   7   8
ENDBRANCH   6   7
ENDBRANCH   5   6
ENDBRANCH   4   5
ENDBRANCH   3   4
ENDBRANCH   2   3
ENDBRANCH   1   2
BRANCH   1  13
ATOM     13  C   UNL     1      21.248   1.124  24.566  1.00  0.00     0.000 C 
BRANCH  13  14
ATOM     14  C   UNL     1      20.678   1.498  25.942  1.00  0.00     0.000 C 
BRANCH  14  15
ATOM     15  C   UNL     1      19.138   1.609  25.939  1.00  0.00     0.000 C 
BRANCH  15  16
ATOM     16  C   UNL     1      18.621   3.059  25.889  1.00  0.00     0.000 C 
BRANCH  16  17
ATOM     17  C   UNL     1      19.260   4.012  26.916  1.00  0.00     0.000 C 
BRANCH  17  18
ATOM     18  C   UNL     1      19.843   5.312  26.324  1.00  0.00     0.000 C 
BRANCH  18  19
ATOM     19  C   UNL     1      19.447   5.602  24.863  1.00  0.00     0.000 C 
BRANCH  19  20
ATOM     20  C   UNL     1      19.915   6.967  24.317  1.00  0.00     0.006 C 
BRANCH  20  21
ATOM     21  C   UNL     1      18.823   7.770  23.592  1.00  0.00     0.053 C 
BRANCH  21  22
ATOM     22  C   UNL     1      19.276   9.158  23.260  1.00  0.00     0.041 C 
ATOM     23  O   UNL     1      18.472  10.125  23.351  1.00  0.00    -0.550 OA
ATOM     24  O   UNL     1      20.567   9.378  22.801  1.00  0.00    -0.550 OA
ENDBRANCH  21  22
ENDBRANCH  20  21
ENDBRANCH  19  20
ENDBRANCH  18  19
ENDBRANCH  17  18
ENDBRANCH  16  17
ENDBRANCH  15  16
ENDBRANCH  14  15
ENDBRANCH  13  14
ENDBRANCH   1  13
TORSDOF 20
ENDMDL
MODEL 2
REMARK VINA RESULT:    -3.644      2.920      4.875
REMARK INTER + INTRA:         -10.721
REMARK INTER:                  -7.224
REMARK INTRA:                  -3.497
REMARK UNBOUND:                -2.816
REMARK SMILES CCCCCCCCCCCCCCCCCCCCCC(=O)[O-]
REMARK SMILES IDX 12 1 11 2 10 3 9 4 8 5 7 6 6 7 5 8 4 9 3 10 2 11 1 12 13 13
REMARK SMILES IDX 14 14 15 15 16 16 17 17 18 18 19 19 20 20 21 21 22 22 23 23
REMARK SMILES IDX 24 24
REMARK H PARENT
REMARK Flexibility Score: inf
ROOT
ATOM      1  C   UNL     1      21.871   2.144  23.747  1.00  0.00     0.000 C 
ENDROOT
BRANCH   1   2
ATOM      2  C   UNL     1      21.726   3.558  24.329  1.00  0.00     0.000 C 
BRANCH   2   3
ATOM      3  C   UNL     1      20.541   4.328  23.720  1.00  0.00     0.000 C 
BRANCH   3   4
ATOM      4  C   UNL     1      20.235   5.632  24.479  1.00  0.00    -0.000 C 
BRANCH   4   5
ATOM      5  C   UNL     1      18.747   6.020  24.427  1.00  0.00    -0.000 C 
BRANCH   5   6
ATOM      6  C   UNL     1      18.461   7.458  23.950  1.00  0.00    -0.000 C 
BRANCH   6   7
ATOM      7  C   UNL     1      19.648   8.172  23.274  1.00  0.00    -0.000 C 
BRANCH   7   8
ATOM      8  C   UNL     1      20.198   9.394  24.037  1.00  0.00    -0.000 C 
BRANCH   8   9
ATOM      9  C   UNL     1      21.286   9.072  25.078  1.00  0.00    -0.000 C 
BRANCH   9  10
ATOM     10  C   UNL     1      20.754   9.079  26.521  1.00  0.00    -0.000 C 
BRANCH  10  11
ATOM     11  C   UNL     1      21.882   9.153  27.563  1.00  0.00    -0.003 C 
ATOM     12  C   UNL     1      23.245   8.765  26.985  1.00  0.00     0.004 C 
ENDBRANCH  10  11
ENDBRANCH   9  10
ENDBRANCH   8   9
ENDBRANCH   7   8
ENDBRANCH   6   7
ENDBRANCH   5   6
ENDBRANCH   4   5
ENDBRANCH   3   4
ENDBRANCH   2   3
ENDBRANCH   1   2
BRANCH   1  13
ATOM     13  C   UNL     1      21.254   1.096  24.683  1.00  0.00     0.000 C 
BRANCH  13  14
ATOM     14  C   UNL     1      20.729   1.751  25.970  1.00  0.00     0.000 C 
BRANCH  14  15
ATOM     15  C   UNL     1      19.186   1.781  26.037  1.00  0.00     0.000 C 
BRANCH  15  16
ATOM     16  C   UNL     1      18.623   2.980  26.823  1.00  0.00     0.000 C 
BRANCH  16  17
ATOM     17  C   UNL     1      19.559   3.542  27.909  1.00  0.00     0.000 C 
BRANCH  17  18
ATOM     18  C   UNL     1      19.611   5.081  27.993  1.00  0.00     0.000 C 
BRANCH  18  19
ATOM     19  C   UNL     1      21.028   5.689  28.037  1.00  0.00     0.000 C 
BRANCH  19  20
ATOM     20  C   UNL     1      22.175   4.662  28.124  1.00  0.00     0.006 C 
BRANCH  20  21
ATOM     21  C   UNL     1      23.307   4.888  27.107  1.00  0.00     0.053 C 
BRANCH  21  22
ATOM     22  C   UNL     1      24.245   3.722  27.045  1.00  0.00     0.041 C 
ATOM     23  O   UNL     1      25.256   3.762  26.293  1.00  0.00    -0.550 OA
ATOM     24  O   UNL     1      23.977   2.573  27.776  1.00  0.00    -0.550 OA
ENDBRANCH  21  22
ENDBRANCH  20  21
ENDBRANCH  19  20
ENDBRANCH  18  19
ENDBRANCH  17  18
ENDBRANCH  16  17
ENDBRANCH  15  16
ENDBRANCH  14  15
ENDBRANCH  13  14
ENDBRANCH   1  13
TORSDOF 20
ENDMDL
MODEL 3
REMARK VINA RESULT:    -3.597      3.445      5.864
REMARK INTER + INTRA:         -10.619
REMARK INTER:                  -7.431
REMARK INTRA:                  -3.188
REMARK UNBOUND:                -2.816
REMARK SMILES CCCCCCCCCCCCCCCCCCCCCC(=O)[O-]
REMARK SMILES IDX 12 1 11 2 10 3 9 4 8 5 7 6 6 7 5 8 4 9 3 10 2 11 1 12 13 13
REMARK SMILES IDX 14 14 15 15 16 16 17 17 18 18 19 19 20 20 21 21 22 22 23 23
REMARK SMILES IDX 24 24
REMARK H PARENT
REMARK Flexibility Score: inf
ROOT
ATOM      1  C   UNL     1      21.619   2.361  23.669  1.00  0.00     0.000 C 
ENDROOT
BRANCH   1   2
ATOM      2  C   UNL     1      21.482   3.658  24.482  1.00  0.00     0.000 C 
BRANCH   2   3
ATOM      3  C   UNL     1      20.305   4.528  24.008  1.00  0.00     0.000 C 
BRANCH   3   4
ATOM      4  C   UNL     1      20.600   6.034  24.132  1.00  0.00    -0.000 C 
BRANCH   4   5
ATOM      5  C   UNL     1      19.403   6.913  23.728  1.00  0.00    -0.000 C 
BRANCH   5   6
ATOM      6  C   UNL     1      19.765   8.337  23.258  1.00  0.00    -0.000 C 
BRANCH   6   7
ATOM      7  C   UNL     1      19.209   9.476  24.135  1.00  0.00    -0.000 C 
BRANCH   7   8
ATOM      8  C   UNL     1      17.707   9.773  23.946  1.00  0.00    -0.000 C 
BRANCH   8   9
ATOM      9  C   UNL     1      16.849   9.605  25.213  1.00  0.00    -0.000 C 
BRANCH   9  10
ATOM     10  C   UNL     1      16.336   8.166  25.401  1.00  0.00    -0.000 C 
BRANCH  10  11
ATOM     11  C   UNL     1      17.014   7.451  26.581  1.00  0.00    -0.003 C 
ATOM     12  C   UNL     1      17.937   8.374  27.381  1.00  0.00     0.004 C 
ENDBRANCH  10  11
ENDBRANCH   9  10
ENDBRANCH   8   9
ENDBRANCH   7   8
ENDBRANCH   6   7
ENDBRANCH   5   6
ENDBRANCH   4   5
ENDBRANCH   3   4
ENDBRANCH   2   3
ENDBRANCH   1   2
BRANCH   1  13
ATOM     13  C   UNL     1      21.025   1.169  24.430  1.00  0.00     0.000 C 
BRANCH  13  14
ATOM     14  C   UNL     1      20.594   1.580  25.846  1.00  0.00     0.000 C 
BRANCH  14  15
ATOM     15  C   UNL     1      19.063   1.539  26.039  1.00  0.00     0.000 C 
BRANCH  15  16
ATOM     16  C   UNL     1      18.513   2.703  26.883  1.00  0.00     0.000 C 
BRANCH  16  17
ATOM     17  C   UNL     1      19.563   3.441  27.734  1.00  0.00     0.000 C 
BRANCH  17  18
ATOM     18  C   UNL     1      19.575   4.975  27.569  1.00  0.00     0.000 C 
BRANCH  18  19
ATOM     19  C   UNL     1      20.952   5.643  27.757  1.00  0.00     0.000 C 
BRANCH  19  20
ATOM     20  C   UNL     1      22.100   4.682  28.124  1.00  0.00     0.006 C 
BRANCH  20  21
ATOM     21  C   UNL     1      23.387   4.889  27.308  1.00  0.00     0.053 C 
BRANCH  21  22
ATOM     22  C   UNL     1      24.138   3.608  27.113  1.00  0.00     0.041 C 
ATOM     23  O   UNL     1      23.784   2.566  27.727  1.00  0.00    -0.550 OA
ATOM     24  O   UNL     1      25.259   3.576  26.295  1.00  0.00    -0.550 OA
ENDBRANCH  21  22
ENDBRANCH  20  21
ENDBRANCH  19  20
ENDBRANCH  18  19
ENDBRANCH  17  18
ENDBRANCH  16  17
ENDBRANCH  15  16
ENDBRANCH  14  15
ENDBRANCH  13  14
ENDBRANCH   1  13
TORSDOF 20
ENDMDL
MODEL 4
REMARK VINA RESULT:    -3.544      2.327      5.639
REMARK INTER + INTRA:         -10.504
REMARK INTER:                  -7.114
REMARK INTRA:                  -3.391
REMARK UNBOUND:                -2.816
REMARK SMILES CCCCCCCCCCCCCCCCCCCCCC(=O)[O-]
REMARK SMILES IDX 12 1 11 2 10 3 9 4 8 5 7 6 6 7 5 8 4 9 3 10 2 11 1 12 13 13
REMARK SMILES IDX 14 14 15 15 16 16 17 17 18 18 19 19 20 20 21 21 22 22 23 23
REMARK SMILES IDX 24 24
REMARK H PARENT
REMARK Flexibility Score: inf
ROOT
ATOM      1  C   UNL     1      22.144   3.308  23.970  1.00  0.00     0.000 C 
ENDROOT
BRANCH   1   2
ATOM      2  C   UNL     1      21.360   4.585  24.310  1.00  0.00     0.000 C 
BRANCH   2   3
ATOM      3  C   UNL     1      19.839   4.357  24.325  1.00  0.00     0.000 C 
BRANCH   3   4
ATOM      4  C   UNL     1      19.050   5.667  24.509  1.00  0.00    -0.000 C 
BRANCH   4   5
ATOM      5  C   UNL     1      19.634   6.567  25.613  1.00  0.00    -0.000 C 
BRANCH   5   6
ATOM      6  C   UNL     1      20.058   7.976  25.153  1.00  0.00    -0.000 C 
BRANCH   6   7
ATOM      7  C   UNL     1      20.127   8.173  23.626  1.00  0.00    -0.000 C 
BRANCH   7   8
ATOM      8  C   UNL     1      19.160   9.233  23.059  1.00  0.00    -0.000 C 
BRANCH   8   9
ATOM      9  C   UNL     1      17.838   9.384  23.833  1.00  0.00    -0.000 C 
BRANCH   9  10
ATOM     10  C   UNL     1      16.818   8.283  23.497  1.00  0.00    -0.000 C 
BRANCH  10  11
ATOM     11  C   UNL     1      15.735   8.136  24.578  1.00  0.00    -0.003 C 
ATOM     12  C   UNL     1      16.319   8.037  25.990  1.00  0.00     0.004 C 
ENDBRANCH  10  11
ENDBRANCH   9  10
ENDBRANCH   8   9
ENDBRANCH   7   8
ENDBRANCH   6   7
ENDBRANCH   5   6
ENDBRANCH   4   5
ENDBRANCH   3   4
ENDBRANCH   2   3
ENDBRANCH   1   2
BRANCH   1  13
ATOM     13  C   UNL     1      21.201   2.107  23.816  1.00  0.00     0.000 C 
BRANCH  13  14
ATOM     14  C   UNL     1      21.551   1.001  24.824  1.00  0.00     0.000 C 
BRANCH  14  15
ATOM     15  C   UNL     1      21.887   1.556  26.225  1.00  0.00     0.000 C 
BRANCH  15  16
ATOM     16  C   UNL     1      20.647   1.930  27.058  1.00  0.00     0.000 C 
BRANCH  16  17
ATOM     17  C   UNL     1      20.811   3.179  27.943  1.00  0.00     0.000 C 
BRANCH  17  18
ATOM     18  C   UNL     1      22.167   3.902  27.804  1.00  0.00     0.000 C 
BRANCH  18  19
ATOM     19  C   UNL     1      22.106   5.439  27.923  1.00  0.00     0.000 C 
BRANCH  19  20
ATOM     20  C   UNL     1      23.340   6.186  27.378  1.00  0.00     0.006 C 
BRANCH  20  21
ATOM     21  C   UNL     1      23.192   7.716  27.344  1.00  0.00     0.053 C 
BRANCH  21  22
ATOM     22  C   UNL     1      24.503   8.401  27.110  1.00  0.00     0.041 C 
ATOM     23  O   UNL     1      25.460   8.226  27.912  1.00  0.00    -0.550 OA
ATOM     24  O   UNL     1      24.654   9.271  26.039  1.00  0.00    -0.550 OA
ENDBRANCH  21  22
ENDBRANCH  20  21
ENDBRANCH  19  20
ENDBRANCH  18  19
ENDBRANCH  17  18
ENDBRANCH  16  17
ENDBRANCH  15  16
ENDBRANCH  14  15
ENDBRANCH  13  14
ENDBRANCH   1  13
TORSDOF 20
ENDMDL
MODEL 5
REMARK VINA RESULT:    -3.541      2.422      4.006
REMARK INTER + INTRA:         -10.498
REMARK INTER:                  -7.235
REMARK INTRA:                  -3.263
REMARK UNBOUND:                -2.816
REMARK SMILES CCCCCCCCCCCCCCCCCCCCCC(=O)[O-]
REMARK SMILES IDX 12 1 11 2 10 3 9 4 8 5 7 6 6 7 5 8 4 9 3 10 2 11 1 12 13 13
REMARK SMILES IDX 14 14 15 15 16 16 17 17 18 18 19 19 20 20 21 21 22 22 23 23
REMARK SMILES IDX 24 24
REMARK H PARENT
REMARK Flexibility Score: inf
ROOT
ATOM      1  C   UNL     1      21.840   1.912  24.543  1.00  0.00     0.000 C 
ENDROOT
BRANCH   1   2
ATOM      2  C   UNL     1      20.546   1.243  25.031  1.00  0.00     0.000 C 
BRANCH   2   3
ATOM      3  C   UNL     1      20.257   1.532  26.515  1.00  0.00     0.000 C 
BRANCH   3   4
ATOM      4  C   UNL     1      18.807   1.990  26.753  1.00  0.00    -0.000 C 
BRANCH   4   5
ATOM      5  C   UNL     1      18.667   2.928  27.965  1.00  0.00    -0.000 C 
BRANCH   5   6
ATOM      6  C   UNL     1      18.438   4.414  27.622  1.00  0.00    -0.000 C 
BRANCH   6   7
ATOM      7  C   UNL     1      19.531   5.378  28.125  1.00  0.00    -0.000 C 
BRANCH   7   8
ATOM      8  C   UNL     1      20.970   4.827  28.057  1.00  0.00    -0.000 C 
BRANCH   8   9
ATOM      9  C   UNL     1      22.072   5.900  27.990  1.00  0.00    -0.000 C 
BRANCH   9  10
ATOM     10  C   UNL     1      23.273   5.471  27.128  1.00  0.00    -0.000 C 
BRANCH  10  11
ATOM     11  C   UNL     1      23.529   3.957  27.191  1.00  0.00    -0.003 C 
ATOM     12  C   UNL     1      24.861   3.556  26.552  1.00  0.00     0.004 C 
ENDBRANCH  10  11
ENDBRANCH   9  10
ENDBRANCH   8   9
ENDBRANCH   7   8
ENDBRANCH   6   7
ENDBRANCH   5   6
ENDBRANCH   4   5
ENDBRANCH   3   4
ENDBRANCH   2   3
ENDBRANCH   1   2
BRANCH   1  13
ATOM     13  C   UNL     1      21.534   3.078  23.594  1.00  0.00     0.000 C 
BRANCH  13  14
ATOM     14  C   UNL     1      21.126   4.333  24.380  1.00  0.00     0.000 C 
BRANCH  14  15
ATOM     15  C   UNL     1      19.614   4.634  24.281  1.00  0.00     0.000 C 
BRANCH  15  16
ATOM     16  C   UNL     1      19.282   6.137  24.244  1.00  0.00     0.000 C 
BRANCH  16  17
ATOM     17  C   UNL     1      20.381   7.059  24.802  1.00  0.00     0.000 C 
BRANCH  17  18
ATOM     18  C   UNL     1      20.471   8.446  24.132  1.00  0.00     0.000 C 
BRANCH  18  19
ATOM     19  C   UNL     1      19.479   9.498  24.667  1.00  0.00     0.000 C 
BRANCH  19  20
ATOM     20  C   UNL     1      18.376   9.919  23.675  1.00  0.00     0.006 C 
BRANCH  20  21
ATOM     21  C   UNL     1      17.192   8.942  23.589  1.00  0.00     0.053 C 
BRANCH  21  22
ATOM     22  C   UNL     1      16.430   8.870  24.877  1.00  0.00     0.041 C 
ATOM     23  O   UNL     1      15.353   9.510  25.012  1.00  0.00    -0.550 OA
ATOM     24  O   UNL     1      16.935   8.140  25.945  1.00  0.00    -0.550 OA
ENDBRANCH  21  22
ENDBRANCH  20  21
ENDBRANCH  19  20
ENDBRANCH  18  19
ENDBRANCH  17  18
ENDBRANCH  16  17
ENDBRANCH  15  16
ENDBRANCH  14  15
ENDBRANCH  13  14
ENDBRANCH   1  13
TORSDOF 20
ENDMDL
MODEL 6
REMARK VINA RESULT:    -3.539      2.033      5.117
REMARK INTER + INTRA:         -10.493
REMARK INTER:                  -7.317
REMARK INTRA:                  -3.176
REMARK UNBOUND:                -2.816
REMARK SMILES CCCCCCCCCCCCCCCCCCCCCC(=O)[O-]
REMARK SMILES IDX 12 1 11 2 10 3 9 4 8 5 7 6 6 7 5 8 4 9 3 10 2 11 1 12 13 13
REMARK SMILES IDX 14 14 15 15 16 16 17 17 18 18 19 19 20 20 21 21 22 22 23 23
REMARK SMILES IDX 24 24
REMARK H PARENT
REMARK Flexibility Score: inf
ROOT
ATOM      1  C   UNL     1      20.889   1.136  24.378  1.00  0.00     0.000 C 
ENDROOT
BRANCH   1   2
ATOM      2  C   UNL     1      20.424   1.501  25.797  1.00  0.00     0.000 C 
BRANCH   2   3
ATOM      3  C   UNL     1      18.892   1.587  25.911  1.00  0.00     0.000 C 
BRANCH   3   4
ATOM      4  C   UNL     1      18.437   2.663  26.913  1.00  0.00    -0.000 C 
BRANCH   4   5
ATOM      5  C   UNL     1      19.452   3.812  27.059  1.00  0.00    -0.000 C 
BRANCH   5   6
ATOM      6  C   UNL     1      19.108   5.093  26.273  1.00  0.00    -0.000 C 
BRANCH   6   7
ATOM      7  C   UNL     1      19.342   5.011  24.752  1.00  0.00    -0.000 C 
BRANCH   7   8
ATOM      8  C   UNL     1      18.760   6.183  23.936  1.00  0.00    -0.000 C 
BRANCH   8   9
ATOM      9  C   UNL     1      19.768   7.292  23.584  1.00  0.00    -0.000 C 
BRANCH   9  10
ATOM     10  C   UNL     1      19.255   8.700  23.934  1.00  0.00    -0.000 C 
BRANCH  10  11
ATOM     11  C   UNL     1      18.558   8.747  25.303  1.00  0.00    -0.003 C 
ATOM     12  C   UNL     1      19.184   9.773  26.251  1.00  0.00     0.004 C 
ENDBRANCH  10  11
ENDBRANCH   9  10
ENDBRANCH   8   9
ENDBRANCH   7   8
ENDBRANCH   6   7
ENDBRANCH   5   6
ENDBRANCH   4   5
ENDBRANCH   3   4
ENDBRANCH   2   3
ENDBRANCH   1   2
BRANCH   1  13
ATOM     13  C   UNL     1      22.167   1.898  24.003  1.00  0.00     0.000 C 
BRANCH  13  14
ATOM     14  C   UNL     1      22.283   3.204  24.805  1.00  0.00     0.000 C 
BRANCH  14  15
ATOM     15  C   UNL     1      23.604   3.301  25.598  1.00  0.00     0.000 C 
BRANCH  15  16
ATOM     16  C   UNL     1      23.447   3.010  27.102  1.00  0.00     0.000 C 
BRANCH  16  17
ATOM     17  C   UNL     1      22.922   4.190  27.941  1.00  0.00     0.000 C 
BRANCH  17  18
ATOM     18  C   UNL     1      23.300   5.588  27.407  1.00  0.00     0.000 C 
BRANCH  18  19
ATOM     19  C   UNL     1      22.256   6.693  27.666  1.00  0.00     0.000 C 
BRANCH  19  20
ATOM     20  C   UNL     1      22.284   7.866  26.665  1.00  0.00     0.006 C 
BRANCH  20  21
ATOM     21  C   UNL     1      23.089   9.087  27.141  1.00  0.00     0.053 C 
BRANCH  21  22
ATOM     22  C   UNL     1      24.512   9.035  26.676  1.00  0.00     0.041 C 
ATOM     23  O   UNL     1      25.375   8.409  27.348  1.00  0.00    -0.550 OA
ATOM     24  O   UNL     1      24.896   9.720  25.531  1.00  0.00    -0.550 OA
ENDBRANCH  21  22
ENDBRANCH  20  21
ENDBRANCH  19  20
ENDBRANCH  18  19
ENDBRANCH  17  18
ENDBRANCH  16  17
ENDBRANCH  15  16
ENDBRANCH  14  15
ENDBRANCH  13  14
ENDBRANCH   1  13
TORSDOF 20
ENDMDL
MODEL 7
REMARK VINA RESULT:    -3.531      1.964      5.203
REMARK INTER + INTRA:         -10.476
REMARK INTER:                  -7.473
REMARK INTRA:                  -3.003
REMARK UNBOUND:                -2.816
REMARK SMILES CCCCCCCCCCCCCCCCCCCCCC(=O)[O-]
REMARK SMILES IDX 12 1 11 2 10 3 9 4 8 5 7 6 6 7 5 8 4 9 3 10 2 11 1 12 13 13
REMARK SMILES IDX 14 14 15 15 16 16 17 17 18 18 19 19 20 20 21 21 22 22 23 23
REMARK SMILES IDX 24 24
REMARK H PARENT
REMARK Flexibility Score: inf
ROOT
ATOM      1  C   UNL     1      23.873   4.195  26.840  1.00  0.00     0.000 C 
ENDROOT
BRANCH   1   2
ATOM      2  C   UNL     1      24.193   3.022  27.780  1.00  0.00     0.000 C 
BRANCH   2   3
ATOM      3  C   UNL     1      23.097   1.942  27.770  1.00  0.00     0.000 C 
BRANCH   3   4
ATOM      4  C   UNL     1      21.943   2.285  26.812  1.00  0.00    -0.000 C 
BRANCH   4   5
ATOM      5  C   UNL     1      22.033   1.531  25.473  1.00  0.00    -0.000 C 
BRANCH   5   6
ATOM      6  C   UNL     1      21.148   2.094  24.343  1.00  0.00    -0.000 C 
BRANCH   6   7
ATOM      7  C   UNL     1      21.358   3.589  24.031  1.00  0.00    -0.000 C 
BRANCH   7   8
ATOM      8  C   UNL     1      20.159   4.501  24.361  1.00  0.00    -0.000 C 
BRANCH   8   9
ATOM      9  C   UNL     1      18.990   3.800  25.078  1.00  0.00    -0.000 C 
BRANCH   9  10
ATOM     10  C   UNL     1      19.017   4.001  26.603  1.00  0.00    -0.000 C 
BRANCH  10  11
ATOM     11  C   UNL     1      18.214   2.924  27.351  1.00  0.00    -0.003 C 
ATOM     12  C   UNL     1      18.532   1.507  26.868  1.00  0.00     0.004 C 
ENDBRANCH  10  11
ENDBRANCH   9  10
ENDBRANCH   8   9
ENDBRANCH   7   8
ENDBRANCH   6   7
ENDBRANCH   5   6
ENDBRANCH   4   5
ENDBRANCH   3   4
ENDBRANCH   2   3
ENDBRANCH   1   2
BRANCH   1  13
ATOM     13  C   UNL     1      23.553   5.467  27.635  1.00  0.00     0.000 C 
BRANCH  13  14
ATOM     14  C   UNL     1      22.107   5.923  27.385  1.00  0.00     0.000 C 
BRANCH  14  15
ATOM     15  C   UNL     1      22.014   7.403  26.956  1.00  0.00     0.000 C 
BRANCH  15  16
ATOM     16  C   UNL     1      20.710   7.754  26.217  1.00  0.00     0.000 C 
BRANCH  16  17
ATOM     17  C   UNL     1      19.427   7.598  27.055  1.00  0.00     0.000 C 
BRANCH  17  18
ATOM     18  C   UNL     1      18.121   7.510  26.237  1.00  0.00     0.000 C 
BRANCH  18  19
ATOM     19  C   UNL     1      17.903   8.655  25.227  1.00  0.00     0.000 C 
BRANCH  19  20
ATOM     20  C   UNL     1      18.044   8.253  23.744  1.00  0.00     0.006 C 
BRANCH  20  21
ATOM     21  C   UNL     1      18.176   9.440  22.775  1.00  0.00     0.053 C 
BRANCH  21  22
ATOM     22  C   UNL     1      19.573   9.582  22.252  1.00  0.00     0.041 C 
ATOM     23  O   UNL     1      19.768   9.867  21.039  1.00  0.00    -0.550 OA
ATOM     24  O   UNL     1      20.657   9.353  23.088  1.00  0.00    -0.550 OA
ENDBRANCH  21  22
ENDBRANCH  20  21
ENDBRANCH  19  20
ENDBRANCH  18  19
ENDBRANCH  17  18
ENDBRANCH  16  17
ENDBRANCH  15  16
ENDBRANCH  14  15
ENDBRANCH  13  14
ENDBRANCH   1  13
TORSDOF 20
ENDMDL
MODEL 8
REMARK VINA RESULT:    -3.504      3.017      6.091
REMARK INTER + INTRA:         -10.416
REMARK INTER:                  -6.307
REMARK INTRA:                  -4.110
REMARK UNBOUND:                -2.816
REMARK SMILES CCCCCCCCCCCCCCCCCCCCCC(=O)[O-]
REMARK SMILES IDX 12 1 11 2 10 3 9 4 8 5 7 6 6 7 5 8 4 9 3 10 2 11 1 12 13 13
REMARK SMILES IDX 14 14 15 15 16 16 17 17 18 18 19 19 20 20 21 21 22 22 23 23
REMARK SMILES IDX 24 24
REMARK H PARENT
REMARK Flexibility Score: inf
ROOT
ATOM      1  C   UNL     1      20.364   5.624  25.185  1.00  0.00     0.000 C 
ENDROOT
BRANCH   1   2
ATOM      2  C   UNL     1      20.150   6.576  23.998  1.00  0.00     0.000 C 
BRANCH   2   3
ATOM      3  C   UNL     1      18.667   6.919  23.777  1.00  0.00     0.000 C 
BRANCH   3   4
ATOM      4  C   UNL     1      18.446   8.416  23.492  1.00  0.00    -0.000 C 
BRANCH   4   5
ATOM      5  C   UNL     1      17.087   8.928  24.002  1.00  0.00    -0.000 C 
BRANCH   5   6
ATOM      6  C   UNL     1      16.138   7.839  24.543  1.00  0.00    -0.000 C 
BRANCH   6   7
ATOM      7  C   UNL     1      15.711   8.016  26.013  1.00  0.00    -0.000 C 
BRANCH   7   8
ATOM      8  C   UNL     1      16.731   7.514  27.056  1.00  0.00    -0.000 C 
BRANCH   8   9
ATOM      9  C   UNL     1      17.613   8.611  27.680  1.00  0.00    -0.000 C 
BRANCH   9  10
ATOM     10  C   UNL     1      19.115   8.286  27.602  1.00  0.00    -0.000 C 
BRANCH  10  11
ATOM     11  C   UNL     1      19.895   9.313  26.765  1.00  0.00    -0.003 C 
ATOM     12  C   UNL     1      21.374   8.951  26.613  1.00  0.00     0.004 C 
ENDBRANCH  10  11
ENDBRANCH   9  10
ENDBRANCH   8   9
ENDBRANCH   7   8
ENDBRANCH   6   7
ENDBRANCH   5   6
ENDBRANCH   4   5
ENDBRANCH   3   4
ENDBRANCH   2   3
ENDBRANCH   1   2
BRANCH   1  13
ATOM     13  C   UNL     1      19.025   5.107  25.725  1.00  0.00     0.000 C 
BRANCH  13  14
ATOM     14  C   UNL     1      19.180   4.572  27.157  1.00  0.00     0.000 C 
BRANCH  14  15
ATOM     15  C   UNL     1      18.714   3.106  27.300  1.00  0.00     0.000 C 
BRANCH  15  16
ATOM     16  C   UNL     1      18.616   2.354  25.960  1.00  0.00     0.000 C 
BRANCH  16  17
ATOM     17  C   UNL     1      19.822   1.455  25.630  1.00  0.00     0.000 C 
BRANCH  17  18
ATOM     18  C   UNL     1      20.829   2.057  24.628  1.00  0.00     0.000 C 
BRANCH  18  19
ATOM     19  C   UNL     1      22.187   2.469  25.230  1.00  0.00     0.000 C 
BRANCH  19  20
ATOM     20  C   UNL     1      22.365   2.140  26.727  1.00  0.00     0.006 C 
BRANCH  20  21
ATOM     21  C   UNL     1      22.684   3.357  27.611  1.00  0.00     0.053 C 
BRANCH  21  22
ATOM     22  C   UNL     1      23.893   4.098  27.129  1.00  0.00     0.041 C 
ATOM     23  O   UNL     1      23.835   5.341  26.928  1.00  0.00    -0.550 OA
ATOM     24  O   UNL     1      25.068   3.411  26.855  1.00  0.00    -0.550 OA
ENDBRANCH  21  22
ENDBRANCH  20  21
ENDBRANCH  19  20
ENDBRANCH  18  19
ENDBRANCH  17  18
ENDBRANCH  16  17
ENDBRANCH  15  16
ENDBRANCH  14  15
ENDBRANCH  13  14
ENDBRANCH   1  13
TORSDOF 20
ENDMDL
MODEL 9
REMARK VINA RESULT:    -3.498      2.957      6.163
REMARK INTER + INTRA:         -10.405
REMARK INTER:                  -6.525
REMARK INTRA:                  -3.880
REMARK UNBOUND:                -2.816
REMARK SMILES CCCCCCCCCCCCCCCCCCCCCC(=O)[O-]
REMARK SMILES IDX 12 1 11 2 10 3 9 4 8 5 7 6 6 7 5 8 4 9 3 10 2 11 1 12 13 13
REMARK SMILES IDX 14 14 15 15 16 16 17 17 18 18 19 19 20 20 21 21 22 22 23 23
REMARK SMILES IDX 24 24
REMARK H PARENT
REMARK Flexibility Score: inf
ROOT
ATOM      1  C   UNL     1      18.652   5.814  26.196  1.00  0.00     0.000 C 
ENDROOT
BRANCH   1   2
ATOM      2  C   UNL     1      17.881   6.614  27.258  1.00  0.00     0.000 C 
BRANCH   2   3
ATOM      3  C   UNL     1      17.922   8.130  26.999  1.00  0.00     0.000 C 
BRANCH   3   4
ATOM      4  C   UNL     1      16.850   8.583  25.991  1.00  0.00    -0.000 C 
BRANCH   4   5
ATOM      5  C   UNL     1      17.449   9.265  24.747  1.00  0.00    -0.000 C 
BRANCH   5   6
ATOM      6  C   UNL     1      17.824   8.312  23.595  1.00  0.00    -0.000 C 
BRANCH   6   7
ATOM      7  C   UNL     1      19.335   8.065  23.416  1.00  0.00    -0.000 C 
BRANCH   7   8
ATOM      8  C   UNL     1      20.237   9.277  23.726  1.00  0.00    -0.000 C 
BRANCH   8   9
ATOM      9  C   UNL     1      21.276   9.045  24.839  1.00  0.00    -0.000 C 
BRANCH   9  10
ATOM     10  C   UNL     1      20.967   9.839  26.120  1.00  0.00    -0.000 C 
BRANCH  10  11
ATOM     11  C   UNL     1      21.449   9.117  27.389  1.00  0.00    -0.003 C 
ATOM     12  C   UNL     1      22.721   8.299  27.156  1.00  0.00     0.004 C 
ENDBRANCH  10  11
ENDBRANCH   9  10
ENDBRANCH   8   9
ENDBRANCH   7   8
ENDBRANCH   6   7
ENDBRANCH   5   6
ENDBRANCH   4   5
ENDBRANCH   3   4
ENDBRANCH   2   3
ENDBRANCH   1   2
BRANCH   1  13
ATOM     13  C   UNL     1      20.129   5.664  26.584  1.00  0.00     0.000 C 
BRANCH  13  14
ATOM     14  C   UNL     1      20.993   5.359  25.350  1.00  0.00     0.000 C 
BRANCH  14  15
ATOM     15  C   UNL     1      20.300   4.398  24.360  1.00  0.00     0.000 C 
BRANCH  15  16
ATOM     16  C   UNL     1      21.259   3.392  23.697  1.00  0.00     0.000 C 
BRANCH  16  17
ATOM     17  C   UNL     1      21.274   1.991  24.336  1.00  0.00     0.000 C 
BRANCH  17  18
ATOM     18  C   UNL     1      20.190   1.751  25.407  1.00  0.00     0.000 C 
BRANCH  18  19
ATOM     19  C   UNL     1      20.709   1.649  26.855  1.00  0.00     0.000 C 
BRANCH  19  20
ATOM     20  C   UNL     1      22.219   1.914  27.028  1.00  0.00     0.006 C 
BRANCH  20  21
ATOM     21  C   UNL     1      22.553   3.187  27.823  1.00  0.00     0.053 C 
BRANCH  21  22
ATOM     22  C   UNL     1      23.924   3.702  27.506  1.00  0.00     0.041 C 
ATOM     23  O   UNL     1      24.936   2.985  27.728  1.00  0.00    -0.550 OA
ATOM     24  O   UNL     1      24.087   4.989  27.013  1.00  0.00    -0.550 OA
ENDBRANCH  21  22
ENDBRANCH  20  21
ENDBRANCH  19  20
ENDBRANCH  18  19
ENDBRANCH  17  18
ENDBRANCH  16  17
ENDBRANCH  15  16
ENDBRANCH  14  15
ENDBRANCH  13  14
ENDBRANCH   1  13
TORSDOF 20
ENDMDL
