MODEL 1
REMARK VINA RESULT:    -4.625      0.000      0.000
REMARK INTER + INTRA:          -7.497
REMARK INTER:                  -7.058
REMARK INTRA:                  -0.439
REMARK UNBOUND:                -0.439
REMARK SMILES O=C([O-])CCCCCCCCC(=O)[O-]
REMARK SMILES IDX 7 1 6 2 5 3 4 4 2 5 1 6 3 7 8 8 9 9 10 10 11 11 12 12 13 13
REMARK SMILES IDX 14 14
REMARK H PARENT
REMARK Flexibility Score: inf
ROOT
ATOM      1  C   UNL     1      16.765 117.889 295.039  1.00  0.00     0.000 C 
ENDROOT
BRANCH   1   2
ATOM      2  C   UNL     1      16.899 117.988 293.505  1.00  0.00     0.000 C 
BRANCH   2   3
ATOM      3  C   UNL     1      17.957 117.061 292.882  1.00  0.00     0.006 C 
BRANCH   3   4
ATOM      4  C   UNL     1      17.341 115.909 292.078  1.00  0.00     0.053 C 
BRANCH   4   5
ATOM      5  C   UNL     1      18.144 115.647 290.842  1.00  0.00     0.041 C 
ATOM      6  O   UNL     1      19.392 115.808 290.853  1.00  0.00    -0.550 OA
ATOM      7  O   UNL     1      17.508 115.274 289.665  1.00  0.00    -0.550 OA
ENDBRANCH   4   5
ENDBRANCH   3   4
ENDBRANCH   2   3
ENDBRANCH   1   2
BRANCH   1   8
ATOM      8  C   UNL     1      17.672 116.840 295.707  1.00  0.00     0.000 C 
BRANCH   8   9
ATOM      9  C   UNL     1      18.784 117.468 296.558  1.00  0.00     0.000 C 
BRANCH   9  10
ATOM     10  C   UNL     1      19.767 116.396 297.054  1.00  0.00     0.006 C 
BRANCH  10  11
ATOM     11  C   UNL     1      21.217 116.897 297.063  1.00  0.00     0.053 C 
BRANCH  11  12
ATOM     12  C   UNL     1      21.392 118.071 297.977  1.00  0.00     0.041 C 
ATOM     13  O   UNL     1      21.752 119.187 297.516  1.00  0.00    -0.550 OA
ATOM     14  O   UNL     1      21.125 117.943 299.334  1.00  0.00    -0.550 OA
ENDBRANCH  11  12
ENDBRANCH  10  11
ENDBRANCH   9  10
ENDBRANCH   8   9
ENDBRANCH   1   8
TORSDOF 9
ENDMDL
MODEL 2
REMARK VINA RESULT:    -4.600      0.489      6.765
REMARK INTER + INTRA:          -7.459
REMARK INTER:                  -7.027
REMARK INTRA:                  -0.432
REMARK UNBOUND:                -0.439
REMARK SMILES O=C([O-])CCCCCCCCC(=O)[O-]
REMARK SMILES IDX 7 1 6 2 5 3 4 4 2 5 1 6 3 7 8 8 9 9 10 10 11 11 12 12 13 13
REMARK SMILES IDX 14 14
REMARK H PARENT
REMARK Flexibility Score: inf
ROOT
ATOM      1  C   UNL     1      17.379 117.636 296.386  1.00  0.00     0.000 C 
ENDROOT
BRANCH   1   2
ATOM      2  C   UNL     1      18.884 117.970 296.434  1.00  0.00     0.000 C 
BRANCH   2   3
ATOM      3  C   UNL     1      19.791 116.825 296.915  1.00  0.00     0.006 C 
BRANCH   3   4
ATOM      4  C   UNL     1      21.279 117.198 296.902  1.00  0.00     0.053 C 
BRANCH   4   5
ATOM      5  C   UNL     1      21.585 118.166 298.001  1.00  0.00     0.041 C 
ATOM      6  O   UNL     1      22.313 119.168 297.777  1.00  0.00    -0.550 OA
ATOM      7  O   UNL     1      21.105 117.937 299.284  1.00  0.00    -0.550 OA
ENDBRANCH   4   5
ENDBRANCH   3   4
ENDBRANCH   2   3
ENDBRANCH   1   2
BRANCH   1   8
ATOM      8  C   UNL     1      16.924 116.854 295.140  1.00  0.00     0.000 C 
BRANCH   8   9
ATOM      9  C   UNL     1      16.938 117.706 293.863  1.00  0.00     0.000 C 
BRANCH   9  10
ATOM     10  C   UNL     1      17.931 117.141 292.837  1.00  0.00     0.006 C 
BRANCH  10  11
ATOM     11  C   UNL     1      17.376 115.911 292.106  1.00  0.00     0.053 C 
BRANCH  11  12
ATOM     12  C   UNL     1      18.146 115.614 290.857  1.00  0.00     0.041 C 
ATOM     13  O   UNL     1      19.392 115.796 290.821  1.00  0.00    -0.550 OA
ATOM     14  O   UNL     1      17.494 115.105 289.742  1.00  0.00    -0.550 OA
ENDBRANCH  11  12
ENDBRANCH  10  11
ENDBRANCH   9  10
ENDBRANCH   8   9
ENDBRANCH   1   8
TORSDOF 9
ENDMDL
MODEL 3
REMARK VINA RESULT:    -4.349      1.980      2.384
REMARK INTER + INTRA:          -7.076
REMARK INTER:                  -6.571
REMARK INTRA:                  -0.505
REMARK UNBOUND:                -0.439
REMARK SMILES O=C([O-])CCCCCCCCC(=O)[O-]
REMARK SMILES IDX 7 1 6 2 5 3 4 4 2 5 1 6 3 7 8 8 9 9 10 10 11 11 12 12 13 13
REMARK SMILES IDX 14 14
REMARK H PARENT
REMARK Flexibility Score: inf
ROOT
ATOM      1  C   UNL     1      17.060 117.441 295.131  1.00  0.00     0.000 C 
ENDROOT
BRANCH   1   2
ATOM      2  C   UNL     1      17.046 117.796 293.629  1.00  0.00     0.000 C 
BRANCH   2   3
ATOM      3  C   UNL     1      17.990 116.956 292.752  1.00  0.00     0.006 C 
BRANCH   3   4
ATOM      4  C   UNL     1      17.260 115.853 291.976  1.00  0.00     0.053 C 
BRANCH   4   5
ATOM      5  C   UNL     1      18.079 115.408 290.806  1.00  0.00     0.041 C 
ATOM      6  O   UNL     1      19.288 115.748 290.714  1.00  0.00    -0.550 OA
ATOM      7  O   UNL     1      17.495 114.658 289.792  1.00  0.00    -0.550 OA
ENDBRANCH   4   5
ENDBRANCH   3   4
ENDBRANCH   2   3
ENDBRANCH   1   2
BRANCH   1   8
ATOM      8  C   UNL     1      18.460 117.322 295.760  1.00  0.00     0.000 C 
BRANCH   8   9
ATOM      9  C   UNL     1      19.232 118.649 295.754  1.00  0.00     0.000 C 
BRANCH   9  10
ATOM     10  C   UNL     1      20.727 118.415 296.016  1.00  0.00     0.006 C 
BRANCH  10  11
ATOM     11  C   UNL     1      21.540 118.340 294.717  1.00  0.00     0.053 C 
BRANCH  11  12
ATOM     12  C   UNL     1      22.463 119.511 294.572  1.00  0.00     0.041 C 
ATOM     13  O   UNL     1      22.274 120.555 295.250  1.00  0.00    -0.550 OA
ATOM     14  O   UNL     1      23.552 119.436 293.713  1.00  0.00    -0.550 OA
ENDBRANCH  11  12
ENDBRANCH  10  11
ENDBRANCH   9  10
ENDBRANCH   8   9
ENDBRANCH   1   8
TORSDOF 9
ENDMDL
MODEL 4
REMARK VINA RESULT:    -4.210      1.646      2.183
REMARK INTER + INTRA:          -6.864
REMARK INTER:                  -6.258
REMARK INTRA:                  -0.605
REMARK UNBOUND:                -0.439
REMARK SMILES O=C([O-])CCCCCCCCC(=O)[O-]
REMARK SMILES IDX 7 1 6 2 5 3 4 4 2 5 1 6 3 7 8 8 9 9 10 10 11 11 12 12 13 13
REMARK SMILES IDX 14 14
REMARK H PARENT
REMARK Flexibility Score: inf
ROOT
ATOM      1  C   UNL     1      16.479 118.251 294.544  1.00  0.00     0.000 C 
ENDROOT
BRANCH   1   2
ATOM      2  C   UNL     1      17.222 116.952 294.169  1.00  0.00     0.000 C 
BRANCH   2   3
ATOM      3  C   UNL     1      17.798 116.919 292.743  1.00  0.00     0.006 C 
BRANCH   3   4
ATOM      4  C   UNL     1      17.230 115.772 291.897  1.00  0.00     0.053 C 
BRANCH   4   5
ATOM      5  C   UNL     1      18.092 115.531 290.698  1.00  0.00     0.041 C 
ATOM      6  O   UNL     1      17.599 115.026 289.656  1.00  0.00    -0.550 OA
ATOM      7  O   UNL     1      19.450 115.819 290.748  1.00  0.00    -0.550 OA
ENDBRANCH   4   5
ENDBRANCH   3   4
ENDBRANCH   2   3
ENDBRANCH   1   2
BRANCH   1   8
ATOM      8  C   UNL     1      17.379 119.487 294.729  1.00  0.00     0.000 C 
BRANCH   8   9
ATOM      9  C   UNL     1      18.626 119.195 295.575  1.00  0.00     0.000 C 
BRANCH   9  10
ATOM     10  C   UNL     1      19.908 119.507 294.787  1.00  0.00     0.006 C 
BRANCH  10  11
ATOM     11  C   UNL     1      20.908 118.344 294.820  1.00  0.00     0.053 C 
BRANCH  11  12
ATOM     12  C   UNL     1      21.846 118.451 295.983  1.00  0.00     0.041 C 
ATOM     13  O   UNL     1      22.582 117.479 296.296  1.00  0.00    -0.550 OA
ATOM     14  O   UNL     1      21.931 119.637 296.700  1.00  0.00    -0.550 OA
ENDBRANCH  11  12
ENDBRANCH  10  11
ENDBRANCH   9  10
ENDBRANCH   8   9
ENDBRANCH   1   8
TORSDOF 9
ENDMDL
MODEL 5
REMARK VINA RESULT:    -4.165      2.031      6.539
REMARK INTER + INTRA:          -6.796
REMARK INTER:                  -6.352
REMARK INTRA:                  -0.443
REMARK UNBOUND:                -0.439
REMARK SMILES O=C([O-])CCCCCCCCC(=O)[O-]
REMARK SMILES IDX 7 1 6 2 5 3 4 4 2 5 1 6 3 7 8 8 9 9 10 10 11 11 12 12 13 13
REMARK SMILES IDX 14 14
REMARK H PARENT
REMARK Flexibility Score: inf
ROOT
ATOM      1  C   UNL     1      19.874 118.554 295.457  1.00  0.00     0.000 C 
ENDROOT
BRANCH   1   2
ATOM      2  C   UNL     1      20.409 117.452 296.396  1.00  0.00     0.000 C 
BRANCH   2   3
ATOM      3  C   UNL     1      21.913 117.534 296.707  1.00  0.00     0.006 C 
BRANCH   3   4
ATOM      4  C   UNL     1      22.790 117.350 295.461  1.00  0.00     0.053 C 
BRANCH   4   5
ATOM      5  C   UNL     1      23.692 118.530 295.279  1.00  0.00     0.041 C 
ATOM      6  O   UNL     1      24.114 118.832 294.132  1.00  0.00    -0.550 OA
ATOM      7  O   UNL     1      24.106 119.266 296.381  1.00  0.00    -0.550 OA
ENDBRANCH   4   5
ENDBRANCH   3   4
ENDBRANCH   2   3
ENDBRANCH   1   2
BRANCH   1   8
ATOM      8  C   UNL     1      19.107 118.045 294.224  1.00  0.00     0.000 C 
BRANCH   8   9
ATOM      9  C   UNL     1      17.702 117.529 294.566  1.00  0.00     0.000 C 
BRANCH   9  10
ATOM     10  C   UNL     1      17.291 116.388 293.624  1.00  0.00     0.006 C 
BRANCH  10  11
ATOM     11  C   UNL     1      17.419 116.780 292.146  1.00  0.00     0.053 C 
BRANCH  11  12
ATOM     12  C   UNL     1      17.957 115.654 291.318  1.00  0.00     0.041 C 
ATOM     13  O   UNL     1      19.133 115.702 290.869  1.00  0.00    -0.550 OA
ATOM     14  O   UNL     1      17.172 114.535 291.071  1.00  0.00    -0.550 OA
ENDBRANCH  11  12
ENDBRANCH  10  11
ENDBRANCH   9  10
ENDBRANCH   8   9
ENDBRANCH   1   8
TORSDOF 9
ENDMDL
MODEL 6
REMARK VINA RESULT:    -4.132      4.330      5.960
REMARK INTER + INTRA:          -6.745
REMARK INTER:                  -6.476
REMARK INTRA:                  -0.269
REMARK UNBOUND:                -0.439
REMARK SMILES O=C([O-])CCCCCCCCC(=O)[O-]
REMARK SMILES IDX 7 1 6 2 5 3 4 4 2 5 1 6 3 7 8 8 9 9 10 10 11 11 12 12 13 13
REMARK SMILES IDX 14 14
REMARK H PARENT
REMARK Flexibility Score: inf
ROOT
ATOM      1  C   UNL     1      16.559 118.986 293.534  1.00  0.00     0.000 C 
ENDROOT
BRANCH   1   2
ATOM      2  C   UNL     1      16.945 117.517 293.805  1.00  0.00     0.000 C 
BRANCH   2   3
ATOM      3  C   UNL     1      17.891 116.890 292.766  1.00  0.00     0.006 C 
BRANCH   3   4
ATOM      4  C   UNL     1      17.231 115.760 291.965  1.00  0.00     0.053 C 
BRANCH   4   5
ATOM      5  C   UNL     1      18.081 115.387 290.792  1.00  0.00     0.041 C 
ATOM      6  O   UNL     1      19.277 115.774 290.728  1.00  0.00    -0.550 OA
ATOM      7  O   UNL     1      17.539 114.652 289.745  1.00  0.00    -0.550 OA
ENDBRANCH   4   5
ENDBRANCH   3   4
ENDBRANCH   2   3
ENDBRANCH   1   2
BRANCH   1   8
ATOM      8  C   UNL     1      15.333 119.493 294.316  1.00  0.00     0.000 C 
BRANCH   8   9
ATOM      9  C   UNL     1      15.230 121.025 294.335  1.00  0.00     0.000 C 
BRANCH   9  10
ATOM     10  C   UNL     1      15.699 121.623 293.001  1.00  0.00     0.006 C 
BRANCH  10  11
ATOM     11  C   UNL     1      15.205 123.063 292.803  1.00  0.00     0.053 C 
BRANCH  11  12
ATOM     12  C   UNL     1      16.226 123.908 292.108  1.00  0.00     0.041 C 
ATOM     13  O   UNL     1      15.967 125.106 291.816  1.00  0.00    -0.550 OA
ATOM     14  O   UNL     1      17.478 123.385 291.811  1.00  0.00    -0.550 OA
ENDBRANCH  11  12
ENDBRANCH  10  11
ENDBRANCH   9  10
ENDBRANCH   8   9
ENDBRANCH   1   8
TORSDOF 9
ENDMDL
MODEL 7
REMARK VINA RESULT:    -4.119      6.613      7.502
REMARK INTER + INTRA:          -6.725
REMARK INTER:                  -6.328
REMARK INTRA:                  -0.397
REMARK UNBOUND:                -0.439
REMARK SMILES O=C([O-])CCCCCCCCC(=O)[O-]
REMARK SMILES IDX 7 1 6 2 5 3 4 4 2 5 1 6 3 7 8 8 9 9 10 10 11 11 12 12 13 13
REMARK SMILES IDX 14 14
REMARK H PARENT
REMARK Flexibility Score: inf
ROOT
ATOM      1  C   UNL     1      24.347 118.404 292.186  1.00  0.00     0.000 C 
ENDROOT
BRANCH   1   2
ATOM      2  C   UNL     1      25.331 118.172 291.020  1.00  0.00     0.000 C 
BRANCH   2   3
ATOM      3  C   UNL     1      24.678 117.784 289.683  1.00  0.00     0.006 C 
BRANCH   3   4
ATOM      4  C   UNL     1      24.558 118.967 288.713  1.00  0.00     0.053 C 
BRANCH   4   5
ATOM      5  C   UNL     1      23.212 118.971 288.058  1.00  0.00     0.041 C 
ATOM      6  O   UNL     1      22.471 117.956 288.129  1.00  0.00    -0.550 OA
ATOM      7  O   UNL     1      22.797 120.078 287.329  1.00  0.00    -0.550 OA
ENDBRANCH   4   5
ENDBRANCH   3   4
ENDBRANCH   2   3
ENDBRANCH   1   2
BRANCH   1   8
ATOM      8  C   UNL     1      24.872 119.314 293.311  1.00  0.00     0.000 C 
BRANCH   8   9
ATOM      9  C   UNL     1      26.302 119.811 293.059  1.00  0.00     0.000 C 
BRANCH   9  10
ATOM     10  C   UNL     1      27.046 120.039 294.383  1.00  0.00     0.006 C 
BRANCH  10  11
ATOM     11  C   UNL     1      27.230 121.530 294.697  1.00  0.00     0.053 C 
BRANCH  11  12
ATOM     12  C   UNL     1      26.125 122.054 295.562  1.00  0.00     0.041 C 
ATOM     13  O   UNL     1      25.455 123.056 295.197  1.00  0.00    -0.550 OA
ATOM     14  O   UNL     1      25.813 121.417 296.755  1.00  0.00    -0.550 OA
ENDBRANCH  11  12
ENDBRANCH  10  11
ENDBRANCH   9  10
ENDBRANCH   8   9
ENDBRANCH   1   8
TORSDOF 9
ENDMDL
MODEL 8
REMARK VINA RESULT:    -4.111      4.014      6.711
REMARK INTER + INTRA:          -6.714
REMARK INTER:                  -6.387
REMARK INTRA:                  -0.326
REMARK UNBOUND:                -0.439
REMARK SMILES O=C([O-])CCCCCCCCC(=O)[O-]
REMARK SMILES IDX 7 1 6 2 5 3 4 4 2 5 1 6 3 7 8 8 9 9 10 10 11 11 12 12 13 13
REMARK SMILES IDX 14 14
REMARK H PARENT
REMARK Flexibility Score: inf
ROOT
ATOM      1  C   UNL     1      15.431 119.462 293.751  1.00  0.00     0.000 C 
ENDROOT
BRANCH   1   2
ATOM      2  C   UNL     1      15.140 120.977 293.755  1.00  0.00     0.000 C 
BRANCH   2   3
ATOM      3  C   UNL     1      16.037 121.815 292.828  1.00  0.00     0.006 C 
BRANCH   3   4
ATOM      4  C   UNL     1      16.952 122.778 293.595  1.00  0.00     0.053 C 
BRANCH   4   5
ATOM      5  C   UNL     1      17.837 123.524 292.646  1.00  0.00     0.041 C 
ATOM      6  O   UNL     1      18.922 124.019 293.050  1.00  0.00    -0.550 OA
ATOM      7  O   UNL     1      17.442 123.714 291.329  1.00  0.00    -0.550 OA
ENDBRANCH   4   5
ENDBRANCH   3   4
ENDBRANCH   2   3
ENDBRANCH   1   2
BRANCH   1   8
ATOM      8  C   UNL     1      16.918 119.083 293.880  1.00  0.00     0.000 C 
BRANCH   8   9
ATOM      9  C   UNL     1      17.141 117.568 293.986  1.00  0.00     0.000 C 
BRANCH   9  10
ATOM     10  C   UNL     1      17.998 117.056 292.820  1.00  0.00     0.006 C 
BRANCH  10  11
ATOM     11  C   UNL     1      17.243 116.048 291.942  1.00  0.00     0.053 C 
BRANCH  11  12
ATOM     12  C   UNL     1      18.119 115.487 290.864  1.00  0.00     0.041 C 
ATOM     13  O   UNL     1      19.342 115.784 290.821  1.00  0.00    -0.550 OA
ATOM     14  O   UNL     1      17.592 114.608 289.927  1.00  0.00    -0.550 OA
ENDBRANCH  11  12
ENDBRANCH  10  11
ENDBRANCH   9  10
ENDBRANCH   8   9
ENDBRANCH   1   8
TORSDOF 9
ENDMDL
MODEL 9
REMARK VINA RESULT:    -3.958      1.745      6.893
REMARK INTER + INTRA:          -6.480
REMARK INTER:                  -6.011
REMARK INTRA:                  -0.469
REMARK UNBOUND:                -0.439
REMARK SMILES O=C([O-])CCCCCCCCC(=O)[O-]
REMARK SMILES IDX 7 1 6 2 5 3 4 4 2 5 1 6 3 7 8 8 9 9 10 10 11 11 12 12 13 13
REMARK SMILES IDX 14 14
REMARK H PARENT
REMARK Flexibility Score: inf
ROOT
ATOM      1  C   UNL     1      20.015 118.936 294.683  1.00  0.00     0.000 C 
ENDROOT
BRANCH   1   2
ATOM      2  C   UNL     1      20.280 120.216 295.503  1.00  0.00     0.000 C 
BRANCH   2   3
ATOM      3  C   UNL     1      19.542 120.290 296.851  1.00  0.00     0.006 C 
BRANCH   3   4
ATOM      4  C   UNL     1      20.496 120.403 298.047  1.00  0.00     0.053 C 
BRANCH   4   5
ATOM      5  C   UNL     1      21.513 119.305 298.009  1.00  0.00     0.041 C 
ATOM      6  O   UNL     1      22.703 119.557 297.686  1.00  0.00    -0.550 OA
ATOM      7  O   UNL     1      21.135 117.997 298.284  1.00  0.00    -0.550 OA
ENDBRANCH   4   5
ENDBRANCH   3   4
ENDBRANCH   2   3
ENDBRANCH   1   2
BRANCH   1   8
ATOM      8  C   UNL     1      19.040 117.936 295.331  1.00  0.00     0.000 C 
BRANCH   8   9
ATOM      9  C   UNL     1      17.857 117.581 294.419  1.00  0.00     0.000 C 
BRANCH   9  10
ATOM     10  C   UNL     1      18.340 117.237 293.002  1.00  0.00     0.006 C 
BRANCH  10  11
ATOM     11  C   UNL     1      17.311 116.407 292.222  1.00  0.00     0.053 C 
BRANCH  11  12
ATOM     12  C   UNL     1      17.967 115.528 291.202  1.00  0.00     0.041 C 
ATOM     13  O   UNL     1      19.148 115.759 290.830  1.00  0.00    -0.550 OA
ATOM     14  O   UNL     1      17.286 114.433 290.687  1.00  0.00    -0.550 OA
ENDBRANCH  11  12
ENDBRANCH  10  11
ENDBRANCH   9  10
ENDBRANCH   8   9
ENDBRANCH   1   8
TORSDOF 9
ENDMDL
