MODEL 1
REMARK VINA RESULT:    -7.803      0.000      0.000
REMARK INTER + INTRA:          -9.628
REMARK INTER:                  -9.399
REMARK INTRA:                  -0.229
REMARK UNBOUND:                -0.229
REMARK SMILES O=c1c(O)c(-c2ccc(O)c(O)c2)oc2cc(O)cc(O)c12
REMARK SMILES IDX 5 1 3 2 2 3 1 4 22 5 20 6 19 7 17 8 16 9 15 10 14 11 6 12
REMARK SMILES IDX 7 13 8 14 9 15 13 16 11 17 10 18 12 20 4 22 21 24 18 26
REMARK H PARENT 10 19 12 21 4 23 21 25 18 27
REMARK Flexibility Score: inf
ROOT
ATOM      1  C   UNL     1     -15.366  -0.840 -21.515  1.00  0.00     0.180 A 
ATOM      2  C   UNL     1     -14.677   0.384 -21.575  1.00  0.00     0.208 A 
ATOM      3  C   UNL     1     -13.433   0.434 -22.225  1.00  0.00     0.238 A 
ATOM      4  O   UNL     1     -12.796   1.520 -22.229  1.00  0.00    -0.285 OA
ATOM      5  C   UNL     1     -12.902  -0.735 -22.822  1.00  0.00     0.111 A 
ATOM      6  C   UNL     1     -11.671  -0.790 -23.541  1.00  0.00     0.134 A 
ATOM      7  C   UNL     1     -11.180  -2.028 -23.976  1.00  0.00     0.093 A 
ATOM      8  C   UNL     1     -11.905  -3.201 -23.775  1.00  0.00     0.123 A 
ATOM      9  C   UNL     1     -13.140  -3.151 -23.126  1.00  0.00     0.094 A 
ATOM     10  C   UNL     1     -13.638  -1.936 -22.648  1.00  0.00     0.146 A 
ATOM     11  O   UNL     1     -14.811  -1.933 -22.026  1.00  0.00    -0.452 OA
ENDROOT
BRANCH   1  12
ATOM     12  C   UNL     1     -16.691  -0.967 -20.868  1.00  0.00     0.025 A 
ATOM     13  C   UNL     1     -17.815  -0.386 -21.476  1.00  0.00     0.016 A 
ATOM     14  C   UNL     1     -19.073  -0.475 -20.872  1.00  0.00     0.051 A 
ATOM     15  C   UNL     1     -19.223  -1.130 -19.646  1.00  0.00     0.157 A 
ATOM     16  C   UNL     1     -16.842  -1.607 -19.625  1.00  0.00     0.062 A 
ATOM     17  C   UNL     1     -18.102  -1.696 -19.016  1.00  0.00     0.158 A 
BRANCH  15  18
ATOM     18  O   UNL     1     -20.490  -1.205 -19.069  1.00  0.00    -0.504 OA
ATOM     19  H   UNL     1     -21.238  -1.748 -19.483  1.00  0.00     0.293 HD
ENDBRANCH  15  18
BRANCH  17  20
ATOM     20  O   UNL     1     -18.243  -2.339 -17.787  1.00  0.00    -0.504 OA
ATOM     21  H   UNL     1     -18.758  -3.207 -17.698  1.00  0.00     0.293 HD
ENDBRANCH  17  20
ENDBRANCH   1  12
BRANCH   2  22
ATOM     22  O   UNL     1     -15.208   1.520 -20.960  1.00  0.00    -0.502 OA
ATOM     23  H   UNL     1     -16.138   1.867 -21.168  1.00  0.00     0.293 HD
ENDBRANCH   2  22
BRANCH   6  24
ATOM     24  O   UNL     1     -10.912   0.335 -23.876  1.00  0.00    -0.507 OA
ATOM     25  H   UNL     1     -11.273   1.154 -24.341  1.00  0.00     0.293 HD
ENDBRANCH   6  24
BRANCH   8  26
ATOM     26  O   UNL     1     -11.394  -4.412 -24.235  1.00  0.00    -0.508 OA
ATOM     27  H   UNL     1     -10.733  -4.452 -25.002  1.00  0.00     0.293 HD
ENDBRANCH   8  26
TORSDOF 6
ENDMDL
MODEL 2
REMARK VINA RESULT:    -7.600      1.086      1.726
REMARK INTER + INTRA:          -9.384
REMARK INTER:                  -9.155
REMARK INTRA:                  -0.229
REMARK UNBOUND:                -0.229
REMARK SMILES O=c1c(O)c(-c2ccc(O)c(O)c2)oc2cc(O)cc(O)c12
REMARK SMILES IDX 5 1 3 2 2 3 1 4 22 5 20 6 19 7 17 8 16 9 15 10 14 11 6 12
REMARK SMILES IDX 7 13 8 14 9 15 13 16 11 17 10 18 12 20 4 22 21 24 18 26
REMARK H PARENT 10 19 12 21 4 23 21 25 18 27
REMARK Flexibility Score: inf
ROOT
ATOM      1  C   UNL     1     -14.801  -0.881 -21.840  1.00  0.00     0.180 A 
ATOM      2  C   UNL     1     -13.960   0.243 -21.922  1.00  0.00     0.208 A 
ATOM      3  C   UNL     1     -12.682   0.098 -22.486  1.00  0.00     0.238 A 
ATOM      4  O   UNL     1     -11.915   1.095 -22.508  1.00  0.00    -0.285 OA
ATOM      5  C   UNL     1     -12.267  -1.163 -22.976  1.00  0.00     0.111 A 
ATOM      6  C   UNL     1     -11.011  -1.415 -23.605  1.00  0.00     0.134 A 
ATOM      7  C   UNL     1     -10.654  -2.729 -23.933  1.00  0.00     0.093 A 
ATOM      8  C   UNL     1     -11.532  -3.789 -23.717  1.00  0.00     0.123 A 
ATOM      9  C   UNL     1     -12.789  -3.546 -23.159  1.00  0.00     0.094 A 
ATOM     10  C   UNL     1     -13.159  -2.252 -22.786  1.00  0.00     0.146 A 
ATOM     11  O   UNL     1     -14.358  -2.064 -22.248  1.00  0.00    -0.452 OA
ENDROOT
BRANCH   1  12
ATOM     12  C   UNL     1     -16.169  -0.802 -21.281  1.00  0.00     0.025 A 
ATOM     13  C   UNL     1     -16.470  -1.485 -20.092  1.00  0.00     0.016 A 
ATOM     14  C   UNL     1     -17.761  -1.441 -19.557  1.00  0.00     0.051 A 
ATOM     15  C   UNL     1     -18.772  -0.730 -20.209  1.00  0.00     0.157 A 
ATOM     16  C   UNL     1     -17.193  -0.104 -21.946  1.00  0.00     0.062 A 
ATOM     17  C   UNL     1     -18.489  -0.061 -21.412  1.00  0.00     0.158 A 
BRANCH  15  18
ATOM     18  O   UNL     1     -20.049  -0.701 -19.651  1.00  0.00    -0.504 OA
ATOM     19  H   UNL     1     -20.438  -1.496 -19.157  1.00  0.00     0.293 HD
ENDBRANCH  15  18
BRANCH  17  20
ATOM     20  O   UNL     1     -19.497   0.640 -22.075  1.00  0.00    -0.504 OA
ATOM     21  H   UNL     1     -20.284   0.163 -22.499  1.00  0.00     0.293 HD
ENDBRANCH  17  20
ENDBRANCH   1  12
BRANCH   2  22
ATOM     22  O   UNL     1     -14.381   1.474 -21.411  1.00  0.00    -0.502 OA
ATOM     23  H   UNL     1     -15.161   1.558 -20.770  1.00  0.00     0.293 HD
ENDBRANCH   2  22
BRANCH   6  24
ATOM     24  O   UNL     1     -10.096  -0.416 -23.950  1.00  0.00    -0.507 OA
ATOM     25  H   UNL     1     -10.110   0.101 -24.816  1.00  0.00     0.293 HD
ENDBRANCH   6  24
BRANCH   8  26
ATOM     26  O   UNL     1     -11.151  -5.081 -24.070  1.00  0.00    -0.508 OA
ATOM     27  H   UNL     1     -11.625  -5.895 -23.696  1.00  0.00     0.293 HD
ENDBRANCH   8  26
TORSDOF 6
ENDMDL
MODEL 3
REMARK VINA RESULT:    -7.464      2.192      3.601
REMARK INTER + INTRA:          -9.220
REMARK INTER:                  -9.084
REMARK INTRA:                  -0.136
REMARK UNBOUND:                -0.229
REMARK SMILES O=c1c(O)c(-c2ccc(O)c(O)c2)oc2cc(O)cc(O)c12
REMARK SMILES IDX 5 1 3 2 2 3 1 4 22 5 20 6 19 7 17 8 16 9 15 10 14 11 6 12
REMARK SMILES IDX 7 13 8 14 9 15 13 16 11 17 10 18 12 20 4 22 21 24 18 26
REMARK H PARENT 10 19 12 21 4 23 21 25 18 27
REMARK Flexibility Score: inf
ROOT
ATOM      1  C   UNL     1     -12.715  -0.936 -22.759  1.00  0.00     0.180 A 
ATOM      2  C   UNL     1     -11.586  -0.103 -22.672  1.00  0.00     0.208 A 
ATOM      3  C   UNL     1     -10.335  -0.609 -23.061  1.00  0.00     0.238 A 
ATOM      4  O   UNL     1      -9.320   0.124 -22.930  1.00  0.00    -0.285 OA
ATOM      5  C   UNL     1     -10.231  -1.933 -23.549  1.00  0.00     0.111 A 
ATOM      6  C   UNL     1      -9.022  -2.534 -24.010  1.00  0.00     0.134 A 
ATOM      7  C   UNL     1      -9.012  -3.894 -24.347  1.00  0.00     0.093 A 
ATOM      8  C   UNL     1     -10.178  -4.656 -24.303  1.00  0.00     0.123 A 
ATOM      9  C   UNL     1     -11.379  -4.063 -23.912  1.00  0.00     0.094 A 
ATOM     10  C   UNL     1     -11.414  -2.718 -23.534  1.00  0.00     0.146 A 
ATOM     11  O   UNL     1     -12.575  -2.195 -23.157  1.00  0.00    -0.452 OA
ENDROOT
BRANCH   1  12
ATOM     12  C   UNL     1     -14.070  -0.467 -22.389  1.00  0.00     0.025 A 
ATOM     13  C   UNL     1     -14.799  -1.163 -21.413  1.00  0.00     0.016 A 
ATOM     14  C   UNL     1     -16.088  -0.751 -21.064  1.00  0.00     0.051 A 
ATOM     15  C   UNL     1     -16.673   0.351 -21.695  1.00  0.00     0.157 A 
ATOM     16  C   UNL     1     -14.668   0.628 -23.038  1.00  0.00     0.062 A 
ATOM     17  C   UNL     1     -15.963   1.042 -22.690  1.00  0.00     0.158 A 
BRANCH  15  18
ATOM     18  O   UNL     1     -17.960   0.741 -21.324  1.00  0.00    -0.504 OA
ATOM     19  H   UNL     1     -18.216   0.897 -20.356  1.00  0.00     0.293 HD
ENDBRANCH  15  18
BRANCH  17  20
ATOM     20  O   UNL     1     -16.545   2.134 -23.334  1.00  0.00    -0.504 OA
ATOM     21  H   UNL     1     -17.403   2.553 -22.995  1.00  0.00     0.293 HD
ENDBRANCH  17  20
ENDBRANCH   1  12
BRANCH   2  22
ATOM     22  O   UNL     1     -11.707   1.194 -22.166  1.00  0.00    -0.502 OA
ATOM     23  H   UNL     1     -11.594   2.017 -22.747  1.00  0.00     0.293 HD
ENDBRANCH   2  22
BRANCH   6  24
ATOM     24  O   UNL     1      -7.820  -1.841 -24.179  1.00  0.00    -0.507 OA
ATOM     25  H   UNL     1      -7.719  -0.987 -24.706  1.00  0.00     0.293 HD
ENDBRANCH   6  24
BRANCH   8  26
ATOM     26  O   UNL     1     -10.134  -6.001 -24.662  1.00  0.00    -0.508 OA
ATOM     27  H   UNL     1     -10.963  -6.494 -24.975  1.00  0.00     0.293 HD
ENDBRANCH   8  26
TORSDOF 6
ENDMDL
MODEL 4
REMARK VINA RESULT:    -7.438      2.381      3.337
REMARK INTER + INTRA:          -9.188
REMARK INTER:                  -8.870
REMARK INTRA:                  -0.319
REMARK UNBOUND:                -0.229
REMARK SMILES O=c1c(O)c(-c2ccc(O)c(O)c2)oc2cc(O)cc(O)c12
REMARK SMILES IDX 5 1 3 2 2 3 1 4 22 5 20 6 19 7 17 8 16 9 15 10 14 11 6 12
REMARK SMILES IDX 7 13 8 14 9 15 13 16 11 17 10 18 12 20 4 22 21 24 18 26
REMARK H PARENT 10 19 12 21 4 23 21 25 18 27
REMARK Flexibility Score: inf
ROOT
ATOM      1  C   UNL     1     -13.568   0.349 -22.176  1.00  0.00     0.180 A 
ATOM      2  C   UNL     1     -13.499   1.553 -22.899  1.00  0.00     0.208 A 
ATOM      3  C   UNL     1     -12.241   2.051 -23.274  1.00  0.00     0.238 A 
ATOM      4  O   UNL     1     -12.182   3.155 -23.874  1.00  0.00    -0.285 OA
ATOM      5  C   UNL     1     -11.069   1.331 -22.937  1.00  0.00     0.111 A 
ATOM      6  C   UNL     1      -9.746   1.720 -23.303  1.00  0.00     0.134 A 
ATOM      7  C   UNL     1      -8.652   1.002 -22.804  1.00  0.00     0.093 A 
ATOM      8  C   UNL     1      -8.835  -0.128 -22.008  1.00  0.00     0.123 A 
ATOM      9  C   UNL     1     -10.127  -0.554 -21.695  1.00  0.00     0.094 A 
ATOM     10  C   UNL     1     -11.237   0.163 -22.147  1.00  0.00     0.146 A 
ATOM     11  O   UNL     1     -12.448  -0.268 -21.817  1.00  0.00    -0.452 OA
ENDROOT
BRANCH   1  12
ATOM     12  C   UNL     1     -14.858  -0.250 -21.765  1.00  0.00     0.025 A 
ATOM     13  C   UNL     1     -15.307  -0.086 -20.445  1.00  0.00     0.016 A 
ATOM     14  C   UNL     1     -16.512  -0.662 -20.031  1.00  0.00     0.051 A 
ATOM     15  C   UNL     1     -17.277  -1.421 -20.922  1.00  0.00     0.157 A 
ATOM     16  C   UNL     1     -15.619  -1.031 -22.654  1.00  0.00     0.062 A 
ATOM     17  C   UNL     1     -16.827  -1.611 -22.239  1.00  0.00     0.158 A 
BRANCH  15  18
ATOM     18  O   UNL     1     -18.475  -1.980 -20.481  1.00  0.00    -0.504 OA
ATOM     19  H   UNL     1     -19.326  -1.930 -21.029  1.00  0.00     0.293 HD
ENDBRANCH  15  18
BRANCH  17  20
ATOM     20  O   UNL     1     -17.577  -2.378 -23.129  1.00  0.00    -0.504 OA
ATOM     21  H   UNL     1     -18.499  -2.722 -22.887  1.00  0.00     0.293 HD
ENDBRANCH  17  20
ENDBRANCH   1  12
BRANCH   2  22
ATOM     22  O   UNL     1     -14.667   2.259 -23.201  1.00  0.00    -0.502 OA
ATOM     23  H   UNL     1     -15.563   2.028 -22.789  1.00  0.00     0.293 HD
ENDBRANCH   2  22
BRANCH   6  24
ATOM     24  O   UNL     1      -9.454   2.780 -24.167  1.00  0.00    -0.507 OA
ATOM     25  H   UNL     1      -8.530   3.148 -24.332  1.00  0.00     0.293 HD
ENDBRANCH   6  24
BRANCH   8  26
ATOM     26  O   UNL     1      -7.724  -0.828 -21.543  1.00  0.00    -0.508 OA
ATOM     27  H   UNL     1      -7.772  -1.405 -20.711  1.00  0.00     0.293 HD
ENDBRANCH   8  26
TORSDOF 6
ENDMDL
MODEL 5
REMARK VINA RESULT:    -7.418      1.586      2.092
REMARK INTER + INTRA:          -9.165
REMARK INTER:                  -8.873
REMARK INTRA:                  -0.291
REMARK UNBOUND:                -0.229
REMARK SMILES O=c1c(O)c(-c2ccc(O)c(O)c2)oc2cc(O)cc(O)c12
REMARK SMILES IDX 5 1 3 2 2 3 1 4 22 5 20 6 19 7 17 8 16 9 15 10 14 11 6 12
REMARK SMILES IDX 7 13 8 14 9 15 13 16 11 17 10 18 12 20 4 22 21 24 18 26
REMARK H PARENT 10 19 12 21 4 23 21 25 18 27
REMARK Flexibility Score: inf
ROOT
ATOM      1  C   UNL     1     -16.225  -0.602 -21.157  1.00  0.00     0.180 A 
ATOM      2  C   UNL     1     -15.683   0.695 -21.116  1.00  0.00     0.208 A 
ATOM      3  C   UNL     1     -14.728   1.064 -22.078  1.00  0.00     0.238 A 
ATOM      4  O   UNL     1     -14.207   2.207 -22.004  1.00  0.00    -0.285 OA
ATOM      5  C   UNL     1     -14.340   0.140 -23.077  1.00  0.00     0.111 A 
ATOM      6  C   UNL     1     -13.413   0.421 -24.125  1.00  0.00     0.134 A 
ATOM      7  C   UNL     1     -13.005  -0.610 -24.981  1.00  0.00     0.093 A 
ATOM      8  C   UNL     1     -13.539  -1.893 -24.869  1.00  0.00     0.123 A 
ATOM      9  C   UNL     1     -14.493  -2.164 -23.887  1.00  0.00     0.094 A 
ATOM     10  C   UNL     1     -14.892  -1.166 -22.994  1.00  0.00     0.146 A 
ATOM     11  O   UNL     1     -15.792  -1.467 -22.066  1.00  0.00    -0.452 OA
ENDROOT
BRANCH   1  12
ATOM     12  C   UNL     1     -17.252  -1.056 -20.193  1.00  0.00     0.025 A 
ATOM     13  C   UNL     1     -16.893  -1.945 -19.168  1.00  0.00     0.016 A 
ATOM     14  C   UNL     1     -17.851  -2.404 -18.260  1.00  0.00     0.051 A 
ATOM     15  C   UNL     1     -19.183  -1.995 -18.371  1.00  0.00     0.157 A 
ATOM     16  C   UNL     1     -18.597  -0.662 -20.315  1.00  0.00     0.062 A 
ATOM     17  C   UNL     1     -19.561  -1.123 -19.406  1.00  0.00     0.158 A 
BRANCH  15  18
ATOM     18  O   UNL     1     -20.117  -2.466 -17.449  1.00  0.00    -0.504 OA
ATOM     19  H   UNL     1     -20.936  -1.929 -17.190  1.00  0.00     0.293 HD
ENDBRANCH  15  18
BRANCH  17  20
ATOM     20  O   UNL     1     -20.890  -0.722 -19.531  1.00  0.00    -0.504 OA
ATOM     21  H   UNL     1     -21.633  -1.390 -19.703  1.00  0.00     0.293 HD
ENDBRANCH  17  20
ENDBRANCH   1  12
BRANCH   2  22
ATOM     22  O   UNL     1     -16.062   1.583 -20.107  1.00  0.00    -0.502 OA
ATOM     23  H   UNL     1     -16.842   2.223 -20.211  1.00  0.00     0.293 HD
ENDBRANCH   2  22
BRANCH   6  24
ATOM     24  O   UNL     1     -12.888   1.690 -24.383  1.00  0.00    -0.507 OA
ATOM     25  H   UNL     1     -12.638   2.363 -23.674  1.00  0.00     0.293 HD
ENDBRANCH   6  24
BRANCH   8  26
ATOM     26  O   UNL     1     -13.122  -2.890 -25.748  1.00  0.00    -0.508 OA
ATOM     27  H   UNL     1     -12.153  -2.976 -26.031  1.00  0.00     0.293 HD
ENDBRANCH   8  26
TORSDOF 6
ENDMDL
MODEL 6
REMARK VINA RESULT:    -7.287      1.519      7.038
REMARK INTER + INTRA:          -9.007
REMARK INTER:                  -8.822
REMARK INTRA:                  -0.184
REMARK UNBOUND:                -0.229
REMARK SMILES O=c1c(O)c(-c2ccc(O)c(O)c2)oc2cc(O)cc(O)c12
REMARK SMILES IDX 5 1 3 2 2 3 1 4 22 5 20 6 19 7 17 8 16 9 15 10 14 11 6 12
REMARK SMILES IDX 7 13 8 14 9 15 13 16 11 17 10 18 12 20 4 22 21 24 18 26
REMARK H PARENT 10 19 12 21 4 23 21 25 18 27
REMARK Flexibility Score: inf
ROOT
ATOM      1  C   UNL     1     -16.217  -0.787 -21.219  1.00  0.00     0.180 A 
ATOM      2  C   UNL     1     -17.305  -0.049 -21.716  1.00  0.00     0.208 A 
ATOM      3  C   UNL     1     -18.550  -0.156 -21.076  1.00  0.00     0.238 A 
ATOM      4  O   UNL     1     -19.533   0.466 -21.557  1.00  0.00    -0.285 OA
ATOM      5  C   UNL     1     -18.688  -0.985 -19.937  1.00  0.00     0.111 A 
ATOM      6  C   UNL     1     -19.891  -1.136 -19.185  1.00  0.00     0.134 A 
ATOM      7  C   UNL     1     -19.948  -2.084 -18.155  1.00  0.00     0.093 A 
ATOM      8  C   UNL     1     -18.828  -2.838 -17.808  1.00  0.00     0.123 A 
ATOM      9  C   UNL     1     -17.628  -2.655 -18.497  1.00  0.00     0.094 A 
ATOM     10  C   UNL     1     -17.551  -1.744 -19.553  1.00  0.00     0.146 A 
ATOM     11  O   UNL     1     -16.394  -1.608 -20.190  1.00  0.00    -0.452 OA
ENDROOT
BRANCH   1  12
ATOM     12  C   UNL     1     -14.869  -0.709 -21.826  1.00  0.00     0.025 A 
ATOM     13  C   UNL     1     -14.288  -1.865 -22.371  1.00  0.00     0.016 A 
ATOM     14  C   UNL     1     -13.008  -1.818 -22.930  1.00  0.00     0.051 A 
ATOM     15  C   UNL     1     -12.284  -0.622 -22.939  1.00  0.00     0.157 A 
ATOM     16  C   UNL     1     -14.131   0.489 -21.818  1.00  0.00     0.062 A 
ATOM     17  C   UNL     1     -12.845   0.537 -22.376  1.00  0.00     0.158 A 
BRANCH  15  18
ATOM     18  O   UNL     1     -11.010  -0.605 -23.506  1.00  0.00    -0.504 OA
ATOM     19  H   UNL     1     -10.527   0.261 -23.717  1.00  0.00     0.293 HD
ENDBRANCH  15  18
BRANCH  17  20
ATOM     20  O   UNL     1     -12.123   1.730 -22.370  1.00  0.00    -0.504 OA
ATOM     21  H   UNL     1     -11.230   1.807 -21.898  1.00  0.00     0.293 HD
ENDBRANCH  17  20
ENDBRANCH   1  12
BRANCH   2  22
ATOM     22  O   UNL     1     -17.153   0.746 -22.855  1.00  0.00    -0.502 OA
ATOM     23  H   UNL     1     -17.843   0.771 -23.597  1.00  0.00     0.293 HD
ENDBRANCH   2  22
BRANCH   6  24
ATOM     24  O   UNL     1     -21.041  -0.368 -19.389  1.00  0.00    -0.507 OA
ATOM     25  H   UNL     1     -21.978  -0.663 -19.157  1.00  0.00     0.293 HD
ENDBRANCH   6  24
BRANCH   8  26
ATOM     26  O   UNL     1     -18.916  -3.760 -16.768  1.00  0.00    -0.508 OA
ATOM     27  H   UNL     1     -19.598  -3.658 -16.025  1.00  0.00     0.293 HD
ENDBRANCH   8  26
TORSDOF 6
ENDMDL
MODEL 7
REMARK VINA RESULT:    -7.276      2.003      3.795
REMARK INTER + INTRA:          -8.994
REMARK INTER:                  -8.936
REMARK INTRA:                  -0.058
REMARK UNBOUND:                -0.229
REMARK SMILES O=c1c(O)c(-c2ccc(O)c(O)c2)oc2cc(O)cc(O)c12
REMARK SMILES IDX 5 1 3 2 2 3 1 4 22 5 20 6 19 7 17 8 16 9 15 10 14 11 6 12
REMARK SMILES IDX 7 13 8 14 9 15 13 16 11 17 10 18 12 20 4 22 21 24 18 26
REMARK H PARENT 10 19 12 21 4 23 21 25 18 27
REMARK Flexibility Score: inf
ROOT
ATOM      1  C   UNL     1     -15.253   0.346 -21.688  1.00  0.00     0.180 A 
ATOM      2  C   UNL     1     -14.107  -0.425 -21.951  1.00  0.00     0.208 A 
ATOM      3  C   UNL     1     -12.988   0.195 -22.531  1.00  0.00     0.238 A 
ATOM      4  O   UNL     1     -11.985  -0.511 -22.812  1.00  0.00    -0.285 OA
ATOM      5  C   UNL     1     -13.022   1.579 -22.824  1.00  0.00     0.111 A 
ATOM      6  C   UNL     1     -11.932   2.318 -23.372  1.00  0.00     0.134 A 
ATOM      7  C   UNL     1     -12.121   3.655 -23.744  1.00  0.00     0.093 A 
ATOM      8  C   UNL     1     -13.339   4.298 -23.526  1.00  0.00     0.123 A 
ATOM      9  C   UNL     1     -14.394   3.602 -22.934  1.00  0.00     0.094 A 
ATOM     10  C   UNL     1     -14.247   2.256 -22.587  1.00  0.00     0.146 A 
ATOM     11  O   UNL     1     -15.278   1.627 -22.036  1.00  0.00    -0.452 OA
ENDROOT
BRANCH   1  12
ATOM     12  C   UNL     1     -16.463  -0.231 -21.058  1.00  0.00     0.025 A 
ATOM     13  C   UNL     1     -17.718  -0.016 -21.648  1.00  0.00     0.016 A 
ATOM     14  C   UNL     1     -18.875  -0.534 -21.058  1.00  0.00     0.051 A 
ATOM     15  C   UNL     1     -18.797  -1.258 -19.865  1.00  0.00     0.157 A 
ATOM     16  C   UNL     1     -16.389  -0.942 -19.847  1.00  0.00     0.062 A 
ATOM     17  C   UNL     1     -17.549  -1.460 -19.253  1.00  0.00     0.158 A 
BRANCH  15  18
ATOM     18  O   UNL     1     -19.968  -1.764 -19.302  1.00  0.00    -0.504 OA
ATOM     19  H   UNL     1     -20.776  -2.003 -19.865  1.00  0.00     0.293 HD
ENDBRANCH  15  18
BRANCH  17  20
ATOM     20  O   UNL     1     -17.466  -2.170 -18.055  1.00  0.00    -0.504 OA
ATOM     21  H   UNL     1     -17.634  -3.169 -18.018  1.00  0.00     0.293 HD
ENDBRANCH  17  20
ENDBRANCH   1  12
BRANCH   2  22
ATOM     22  O   UNL     1     -14.103  -1.795 -21.674  1.00  0.00    -0.502 OA
ATOM     23  H   UNL     1     -14.903  -2.271 -21.274  1.00  0.00     0.293 HD
ENDBRANCH   2  22
BRANCH   6  24
ATOM     24  O   UNL     1     -10.645   1.799 -23.547  1.00  0.00    -0.507 OA
ATOM     25  H   UNL     1     -10.431   0.818 -23.644  1.00  0.00     0.293 HD
ENDBRANCH   6  24
BRANCH   8  26
ATOM     26  O   UNL     1     -13.487   5.633 -23.893  1.00  0.00    -0.508 OA
ATOM     27  H   UNL     1     -14.323   5.966 -24.358  1.00  0.00     0.293 HD
ENDBRANCH   8  26
TORSDOF 6
ENDMDL
MODEL 8
REMARK VINA RESULT:    -7.057      2.256      7.027
REMARK INTER + INTRA:          -8.730
REMARK INTER:                  -8.410
REMARK INTRA:                  -0.320
REMARK UNBOUND:                -0.229
REMARK SMILES O=c1c(O)c(-c2ccc(O)c(O)c2)oc2cc(O)cc(O)c12
REMARK SMILES IDX 5 1 3 2 2 3 1 4 22 5 20 6 19 7 17 8 16 9 15 10 14 11 6 12
REMARK SMILES IDX 7 13 8 14 9 15 13 16 11 17 10 18 12 20 4 22 21 24 18 26
REMARK H PARENT 10 19 12 21 4 23 21 25 18 27
REMARK Flexibility Score: inf
ROOT
ATOM      1  C   UNL     1     -12.803   0.003 -22.385  1.00  0.00     0.180 A 
ATOM      2  C   UNL     1     -13.437   0.812 -23.345  1.00  0.00     0.208 A 
ATOM      3  C   UNL     1     -14.835   0.938 -23.313  1.00  0.00     0.238 A 
ATOM      4  O   UNL     1     -15.400   1.621 -24.207  1.00  0.00    -0.285 OA
ATOM      5  C   UNL     1     -15.581   0.270 -22.313  1.00  0.00     0.111 A 
ATOM      6  C   UNL     1     -16.997   0.361 -22.161  1.00  0.00     0.134 A 
ATOM      7  C   UNL     1     -17.643  -0.447 -21.217  1.00  0.00     0.093 A 
ATOM      8  C   UNL     1     -16.921  -1.292 -20.377  1.00  0.00     0.123 A 
ATOM      9  C   UNL     1     -15.530  -1.344 -20.475  1.00  0.00     0.094 A 
ATOM     10  C   UNL     1     -14.859  -0.578 -21.432  1.00  0.00     0.146 A 
ATOM     11  O   UNL     1     -13.536  -0.664 -21.500  1.00  0.00    -0.452 OA
ENDROOT
BRANCH   1  12
ATOM     12  C   UNL     1     -11.333  -0.161 -22.339  1.00  0.00     0.025 A 
ATOM     13  C   UNL     1     -10.564   0.713 -21.556  1.00  0.00     0.016 A 
ATOM     14  C   UNL     1      -9.173   0.590 -21.515  1.00  0.00     0.051 A 
ATOM     15  C   UNL     1      -8.528  -0.396 -22.267  1.00  0.00     0.157 A 
ATOM     16  C   UNL     1     -10.681  -1.140 -23.112  1.00  0.00     0.062 A 
ATOM     17  C   UNL     1      -9.284  -1.263 -23.074  1.00  0.00     0.158 A 
BRANCH  15  18
ATOM     18  O   UNL     1      -7.139  -0.497 -22.205  1.00  0.00    -0.504 OA
ATOM     19  H   UNL     1      -6.676  -1.244 -21.699  1.00  0.00     0.293 HD
ENDBRANCH  15  18
BRANCH  17  20
ATOM     20  O   UNL     1      -8.647  -2.241 -23.838  1.00  0.00    -0.504 OA
ATOM     21  H   UNL     1      -8.438  -3.157 -23.459  1.00  0.00     0.293 HD
ENDBRANCH  17  20
ENDBRANCH   1  12
BRANCH   2  22
ATOM     22  O   UNL     1     -12.684   1.444 -24.337  1.00  0.00    -0.502 OA
ATOM     23  H   UNL     1     -12.453   2.430 -24.299  1.00  0.00     0.293 HD
ENDBRANCH   2  22
BRANCH   6  24
ATOM     24  O   UNL     1     -17.805   1.241 -22.887  1.00  0.00    -0.507 OA
ATOM     25  H   UNL     1     -18.080   2.159 -22.574  1.00  0.00     0.293 HD
ENDBRANCH   6  24
BRANCH   8  26
ATOM     26  O   UNL     1     -17.595  -2.070 -19.438  1.00  0.00    -0.508 OA
ATOM     27  H   UNL     1     -18.608  -2.107 -19.410  1.00  0.00     0.293 HD
ENDBRANCH   8  26
TORSDOF 6
ENDMDL
MODEL 9
REMARK VINA RESULT:    -6.931      2.387      2.968
REMARK INTER + INTRA:          -8.578
REMARK INTER:                  -8.497
REMARK INTRA:                  -0.082
REMARK UNBOUND:                -0.229
REMARK SMILES O=c1c(O)c(-c2ccc(O)c(O)c2)oc2cc(O)cc(O)c12
REMARK SMILES IDX 5 1 3 2 2 3 1 4 22 5 20 6 19 7 17 8 16 9 15 10 14 11 6 12
REMARK SMILES IDX 7 13 8 14 9 15 13 16 11 17 10 18 12 20 4 22 21 24 18 26
REMARK H PARENT 10 19 12 21 4 23 21 25 18 27
REMARK Flexibility Score: inf
ROOT
ATOM      1  C   UNL     1     -14.791   0.545 -22.378  1.00  0.00     0.180 A 
ATOM      2  C   UNL     1     -15.096   1.652 -23.190  1.00  0.00     0.208 A 
ATOM      3  C   UNL     1     -14.048   2.347 -23.816  1.00  0.00     0.238 A 
ATOM      4  O   UNL     1     -14.323   3.368 -24.499  1.00  0.00    -0.285 OA
ATOM      5  C   UNL     1     -12.711   1.916 -23.637  1.00  0.00     0.111 A 
ATOM      6  C   UNL     1     -11.576   2.519 -24.256  1.00  0.00     0.134 A 
ATOM      7  C   UNL     1     -10.289   2.093 -23.904  1.00  0.00     0.093 A 
ATOM      8  C   UNL     1     -10.099   1.043 -23.007  1.00  0.00     0.123 A 
ATOM      9  C   UNL     1     -11.204   0.405 -22.441  1.00  0.00     0.094 A 
ATOM     10  C   UNL     1     -12.499   0.833 -22.744  1.00  0.00     0.146 A 
ATOM     11  O   UNL     1     -13.523   0.207 -22.176  1.00  0.00    -0.452 OA
ENDROOT
BRANCH   1  12
ATOM     12  C   UNL     1     -15.842  -0.250 -21.705  1.00  0.00     0.025 A 
ATOM     13  C   UNL     1     -16.856  -0.845 -22.472  1.00  0.00     0.016 A 
ATOM     14  C   UNL     1     -17.871  -1.583 -21.854  1.00  0.00     0.051 A 
ATOM     15  C   UNL     1     -17.896  -1.724 -20.464  1.00  0.00     0.157 A 
ATOM     16  C   UNL     1     -15.881  -0.377 -20.304  1.00  0.00     0.062 A 
ATOM     17  C   UNL     1     -16.899  -1.115 -19.683  1.00  0.00     0.158 A 
BRANCH  15  18
ATOM     18  O   UNL     1     -18.918  -2.468 -19.876  1.00  0.00    -0.504 OA
ATOM     19  H   UNL     1     -19.796  -2.048 -19.594  1.00  0.00     0.293 HD
ENDBRANCH  15  18
BRANCH  17  20
ATOM     20  O   UNL     1     -16.926  -1.240 -18.295  1.00  0.00    -0.504 OA
ATOM     21  H   UNL     1     -17.762  -1.535 -17.804  1.00  0.00     0.293 HD
ENDBRANCH  17  20
ENDBRANCH   1  12
BRANCH   2  22
ATOM     22  O   UNL     1     -16.420   2.073 -23.335  1.00  0.00    -0.502 OA
ATOM     23  H   UNL     1     -16.983   1.831 -24.142  1.00  0.00     0.293 HD
ENDBRANCH   2  22
BRANCH   6  24
ATOM     24  O   UNL     1     -11.657   3.514 -25.235  1.00  0.00    -0.507 OA
ATOM     25  H   UNL     1     -12.443   3.648 -25.854  1.00  0.00     0.293 HD
ENDBRANCH   6  24
BRANCH   8  26
ATOM     26  O   UNL     1      -8.805   0.634 -22.692  1.00  0.00    -0.508 OA
ATOM     27  H   UNL     1      -8.022   0.835 -23.302  1.00  0.00     0.293 HD
ENDBRANCH   8  26
TORSDOF 6
ENDMDL
