MODEL 1
REMARK VINA RESULT:     1.967      0.000      0.000
REMARK INTER + INTRA:           4.513
REMARK INTER:                   4.668
REMARK INTRA:                  -0.155
REMARK UNBOUND:                -0.155
REMARK SMILES O=C(OC[C@@H]1O[C@@H](OC(=O)c2cc(O)c(O)c(O)c2)[C@@H](OC(=O)c2cc(O)c(O)c(O)c2)[C@H](OC(=O)c2cc(O)c(O)c(O)c2)[C@@H]1OC(=O)c1cc(O)c(O)c(O)c1)c1cc(O)c(O)c(O)c1
REMARK SMILES IDX 5 1 46 2 33 3 20 4 7 5 6 6 4 7 3 8 2 9 1 10 59 11 60 12
REMARK SMILES IDX 61 13 67 14 63 15 65 16 62 17 64 19 66 21 47 23 48 24 49 25
REMARK SMILES IDX 50 26 58 27 51 28 56 29 52 30 54 31 57 32 53 34 55 36 34 38
REMARK SMILES IDX 35 39 36 40 37 41 45 42 38 43 43 44 39 45 41 46 44 47 40 49
REMARK SMILES IDX 42 51 8 53 9 54 10 55 11 56 19 57 12 58 17 59 13 60 15 61
REMARK SMILES IDX 18 62 14 64 16 66 21 68 22 69 23 70 24 71 32 72 25 73 30 74
REMARK SMILES IDX 26 75 28 76 31 77 27 79 29 81
REMARK H PARENT 62 18 64 20 66 22 57 33 53 35 55 37 44 48 40 50 42 52 18 63
REMARK H PARENT 14 65 16 67 31 78 27 80 29 82
REMARK Flexibility Score: inf
ROOT
ATOM      1  C   UNL     1     -20.039  13.498 -30.992  1.00  0.00     0.205 C 
ATOM      2  C   UNL     1     -20.363  12.071 -30.497  1.00  0.00     0.254 C 
ATOM      3  C   UNL     1     -21.880  11.826 -30.619  1.00  0.00     0.267 C 
ATOM      4  C   UNL     1     -22.656  12.956 -29.917  1.00  0.00     0.290 C 
ATOM      5  C   UNL     1     -22.155  14.326 -30.408  1.00  0.00     0.357 C 
ATOM      6  O   UNL     1     -20.754  14.460 -30.231  1.00  0.00    -0.329 OA
ENDROOT
BRANCH   1   7
ATOM      7  C   UNL     1     -18.532  13.790 -30.889  1.00  0.00     0.269 C 
BRANCH   7   8
ATOM      8  O   UNL     1     -17.924  13.761 -32.179  1.00  0.00    -0.459 OA
BRANCH   8   9
ATOM      9  C   UNL     1     -16.807  12.982 -32.503  1.00  0.00     0.338 C 
ATOM     10  O   UNL     1     -16.956  11.812 -32.949  1.00  0.00    -0.246 OA
BRANCH   9  11
ATOM     11  C   UNL     1     -15.451  13.553 -32.353  1.00  0.00     0.067 A 
ATOM     12  C   UNL     1     -15.276  14.807 -31.752  1.00  0.00     0.066 A 
ATOM     13  C   UNL     1     -14.003  15.364 -31.619  1.00  0.00     0.162 A 
ATOM     14  C   UNL     1     -14.325  12.855 -32.815  1.00  0.00     0.066 A 
ATOM     15  C   UNL     1     -12.875  14.670 -32.092  1.00  0.00     0.200 A 
ATOM     16  C   UNL     1     -13.040  13.395 -32.689  1.00  0.00     0.162 A 
BRANCH  13  17
ATOM     17  O   UNL     1     -13.877  16.624 -31.029  1.00  0.00    -0.504 OA
ATOM     18  H   UNL     1     -14.558  16.984 -30.370  1.00  0.00     0.293 HD
ENDBRANCH  13  17
BRANCH  15  19
ATOM     19  O   UNL     1     -11.620  15.272 -31.959  1.00  0.00    -0.502 OA
ATOM     20  H   UNL     1     -10.751  14.831 -32.219  1.00  0.00     0.293 HD
ENDBRANCH  15  19
BRANCH  16  21
ATOM     21  O   UNL     1     -11.966  12.635 -33.160  1.00  0.00    -0.504 OA
ATOM     22  H   UNL     1     -12.001  11.642 -33.323  1.00  0.00     0.293 HD
ENDBRANCH  16  21
ENDBRANCH   9  11
ENDBRANCH   8   9
ENDBRANCH   7   8
ENDBRANCH   1   7
BRANCH   2  23
ATOM     23  O   UNL     1     -19.958  11.936 -29.135  1.00  0.00    -0.452 OA
BRANCH  23  24
ATOM     24  C   UNL     1     -19.337  10.793 -28.612  1.00  0.00     0.338 C 
ATOM     25  O   UNL     1     -20.028   9.877 -28.087  1.00  0.00    -0.246 OA
BRANCH  24  26
ATOM     26  C   UNL     1     -17.867  10.666 -28.681  1.00  0.00     0.067 A 
ATOM     27  C   UNL     1     -17.086  10.727 -27.514  1.00  0.00     0.066 A 
ATOM     28  C   UNL     1     -17.235  10.473 -29.918  1.00  0.00     0.066 A 
ATOM     29  C   UNL     1     -15.696  10.597 -27.580  1.00  0.00     0.162 A 
ATOM     30  C   UNL     1     -15.845  10.349 -29.995  1.00  0.00     0.162 A 
ATOM     31  C   UNL     1     -15.069  10.412 -28.825  1.00  0.00     0.200 A 
BRANCH  29  32
ATOM     32  O   UNL     1     -14.955  10.634 -26.398  1.00  0.00    -0.504 OA
ATOM     33  H   UNL     1     -15.383  10.476 -25.494  1.00  0.00     0.293 HD
ENDBRANCH  29  32
BRANCH  30  34
ATOM     34  O   UNL     1     -15.227  10.169 -31.234  1.00  0.00    -0.504 OA
ATOM     35  H   UNL     1     -15.450   9.372 -31.822  1.00  0.00     0.293 HD
ENDBRANCH  30  34
BRANCH  31  36
ATOM     36  O   UNL     1     -13.680  10.285 -28.884  1.00  0.00    -0.502 OA
ATOM     37  H   UNL     1     -13.212   9.818 -29.655  1.00  0.00     0.293 HD
ENDBRANCH  31  36
ENDBRANCH  24  26
ENDBRANCH  23  24
ENDBRANCH   2  23
BRANCH   3  38
ATOM     38  O   UNL     1     -22.241  10.578 -30.027  1.00  0.00    -0.450 OA
BRANCH  38  39
ATOM     39  C   UNL     1     -23.065  10.442 -28.904  1.00  0.00     0.338 C 
ATOM     40  O   UNL     1     -22.564  10.462 -27.746  1.00  0.00    -0.246 OA
BRANCH  39  41
ATOM     41  C   UNL     1     -24.525  10.265 -29.086  1.00  0.00     0.067 A 
ATOM     42  C   UNL     1     -25.088  10.127 -30.366  1.00  0.00     0.066 A 
ATOM     43  C   UNL     1     -25.370  10.241 -27.966  1.00  0.00     0.066 A 
ATOM     44  C   UNL     1     -26.475  10.002 -30.529  1.00  0.00     0.162 A 
ATOM     45  C   UNL     1     -26.754  10.119 -28.117  1.00  0.00     0.162 A 
ATOM     46  C   UNL     1     -27.313  10.004 -29.401  1.00  0.00     0.200 A 
BRANCH  44  47
ATOM     47  O   UNL     1     -27.026   9.876 -31.808  1.00  0.00    -0.504 OA
ATOM     48  H   UNL     1     -27.047   8.987 -32.297  1.00  0.00     0.293 HD
ENDBRANCH  44  47
BRANCH  45  49
ATOM     49  O   UNL     1     -27.563  10.108 -26.980  1.00  0.00    -0.504 OA
ATOM     50  H   UNL     1     -27.722   9.265 -26.444  1.00  0.00     0.293 HD
ENDBRANCH  45  49
BRANCH  46  51
ATOM     51  O   UNL     1     -28.696   9.889 -29.539  1.00  0.00    -0.502 OA
ATOM     52  H   UNL     1     -29.271   9.384 -28.873  1.00  0.00     0.293 HD
ENDBRANCH  46  51
ENDBRANCH  39  41
ENDBRANCH  38  39
ENDBRANCH   3  38
BRANCH   5  53
ATOM     53  O   UNL     1     -22.513  14.539 -31.775  1.00  0.00    -0.428 OA
BRANCH  53  54
ATOM     54  C   UNL     1     -23.576  15.359 -32.175  1.00  0.00     0.340 C 
ATOM     55  O   UNL     1     -24.693  14.851 -32.467  1.00  0.00    -0.246 OA
BRANCH  54  56
ATOM     56  C   UNL     1     -23.368  16.821 -32.281  1.00  0.00     0.067 A 
ATOM     57  C   UNL     1     -22.999  17.564 -31.148  1.00  0.00     0.066 A 
ATOM     58  C   UNL     1     -23.525  17.477 -33.513  1.00  0.00     0.066 A 
ATOM     59  C   UNL     1     -22.798  18.948 -31.240  1.00  0.00     0.162 A 
ATOM     60  C   UNL     1     -23.317  18.859 -33.613  1.00  0.00     0.162 A 
ATOM     61  C   UNL     1     -22.961  19.600 -32.475  1.00  0.00     0.200 A 
BRANCH  59  62
ATOM     62  O   UNL     1     -22.436  19.680 -30.112  1.00  0.00    -0.504 OA
ATOM     63  H   UNL     1     -21.708  20.384 -30.144  1.00  0.00     0.293 HD
ENDBRANCH  59  62
BRANCH  60  64
ATOM     64  O   UNL     1     -23.483  19.490 -34.846  1.00  0.00    -0.504 OA
ATOM     65  H   UNL     1     -22.706  19.635 -35.481  1.00  0.00     0.293 HD
ENDBRANCH  60  64
BRANCH  61  66
ATOM     66  O   UNL     1     -22.769  20.980 -32.587  1.00  0.00    -0.502 OA
ATOM     67  H   UNL     1     -21.872  21.377 -32.866  1.00  0.00     0.293 HD
ENDBRANCH  61  66
ENDBRANCH  54  56
ENDBRANCH  53  54
ENDBRANCH   5  53
BRANCH   4  68
ATOM     68  O   UNL     1     -24.056  12.838 -30.187  1.00  0.00    -0.448 OA
BRANCH  68  69
ATOM     69  C   UNL     1     -25.041  13.570 -29.506  1.00  0.00     0.339 C 
ATOM     70  O   UNL     1     -24.853  13.919 -28.310  1.00  0.00    -0.246 OA
BRANCH  69  71
ATOM     71  C   UNL     1     -26.282  13.967 -30.203  1.00  0.00     0.067 A 
ATOM     72  C   UNL     1     -27.364  13.074 -30.302  1.00  0.00     0.066 A 
ATOM     73  C   UNL     1     -26.399  15.245 -30.773  1.00  0.00     0.066 A 
ATOM     74  C   UNL     1     -28.555  13.465 -30.930  1.00  0.00     0.162 A 
ATOM     75  C   UNL     1     -27.577  15.643 -31.418  1.00  0.00     0.162 A 
ATOM     76  C   UNL     1     -28.675  14.749 -31.480  1.00  0.00     0.200 A 
BRANCH  74  77
ATOM     77  O   UNL     1     -29.635  12.585 -31.002  1.00  0.00    -0.504 OA
ATOM     78  H   UNL     1     -29.571  11.712 -31.503  1.00  0.00     0.293 HD
ENDBRANCH  74  77
BRANCH  75  79
ATOM     79  O   UNL     1     -27.604  16.921 -31.986  1.00  0.00    -0.504 OA
ATOM     80  H   UNL     1     -27.572  17.776 -31.454  1.00  0.00     0.293 HD
ENDBRANCH  75  79
BRANCH  76  81
ATOM     81  O   UNL     1     -29.893  15.104 -32.065  1.00  0.00    -0.502 OA
ATOM     82  H   UNL     1     -30.435  15.900 -31.778  1.00  0.00     0.293 HD
ENDBRANCH  76  81
ENDBRANCH  69  71
ENDBRANCH  68  69
ENDBRANCH   4  68
TORSDOF 31
ENDMDL
MODEL 2
REMARK VINA RESULT:     2.263      1.236     11.068
REMARK INTER + INTRA:           5.217
REMARK INTER:                   5.042
REMARK INTRA:                   0.175
REMARK UNBOUND:                -0.155
REMARK SMILES O=C(OC[C@@H]1O[C@@H](OC(=O)c2cc(O)c(O)c(O)c2)[C@@H](OC(=O)c2cc(O)c(O)c(O)c2)[C@H](OC(=O)c2cc(O)c(O)c(O)c2)[C@@H]1OC(=O)c1cc(O)c(O)c(O)c1)c1cc(O)c(O)c(O)c1
REMARK SMILES IDX 5 1 46 2 33 3 20 4 7 5 6 6 4 7 3 8 2 9 1 10 59 11 60 12
REMARK SMILES IDX 61 13 67 14 63 15 65 16 62 17 64 19 66 21 47 23 48 24 49 25
REMARK SMILES IDX 50 26 58 27 51 28 56 29 52 30 54 31 57 32 53 34 55 36 34 38
REMARK SMILES IDX 35 39 36 40 37 41 45 42 38 43 43 44 39 45 41 46 44 47 40 49
REMARK SMILES IDX 42 51 8 53 9 54 10 55 11 56 19 57 12 58 17 59 13 60 15 61
REMARK SMILES IDX 18 62 14 64 16 66 21 68 22 69 23 70 24 71 32 72 25 73 30 74
REMARK SMILES IDX 26 75 28 76 31 77 27 79 29 81
REMARK H PARENT 62 18 64 20 66 22 57 33 53 35 55 37 44 48 40 50 42 52 18 63
REMARK H PARENT 14 65 16 67 31 78 27 80 29 82
REMARK Flexibility Score: inf
ROOT
ATOM      1  C   UNL     1     -22.074  11.447 -30.589  1.00  0.00     0.205 C 
ATOM      2  C   UNL     1     -22.561  12.903 -30.752  1.00  0.00     0.254 C 
ATOM      3  C   UNL     1     -21.354  13.807 -31.075  1.00  0.00     0.267 C 
ATOM      4  C   UNL     1     -20.244  13.599 -30.030  1.00  0.00     0.290 C 
ATOM      5  C   UNL     1     -19.936  12.099 -29.874  1.00  0.00     0.357 C 
ATOM      6  O   UNL     1     -21.105  11.361 -29.554  1.00  0.00    -0.329 OA
ENDROOT
BRANCH   1   7
ATOM      7  C   UNL     1     -23.245  10.504 -30.263  1.00  0.00     0.269 C 
BRANCH   7   8
ATOM      8  O   UNL     1     -23.060   9.893 -28.988  1.00  0.00    -0.459 OA
BRANCH   8   9
ATOM      9  C   UNL     1     -24.026   9.880 -27.975  1.00  0.00     0.338 C 
ATOM     10  O   UNL     1     -23.676   9.901 -26.764  1.00  0.00    -0.246 OA
BRANCH   9  11
ATOM     11  C   UNL     1     -25.461   9.876 -28.334  1.00  0.00     0.067 A 
ATOM     12  C   UNL     1     -25.851   9.877 -29.680  1.00  0.00     0.066 A 
ATOM     13  C   UNL     1     -27.202   9.891 -30.033  1.00  0.00     0.162 A 
ATOM     14  C   UNL     1     -26.449   9.878 -27.338  1.00  0.00     0.066 A 
ATOM     15  C   UNL     1     -28.192   9.904 -29.035  1.00  0.00     0.200 A 
ATOM     16  C   UNL     1     -27.807   9.889 -27.671  1.00  0.00     0.162 A 
BRANCH  13  17
ATOM     17  O   UNL     1     -27.544   9.909 -31.387  1.00  0.00    -0.504 OA
ATOM     18  H   UNL     1     -27.446   9.095 -31.982  1.00  0.00     0.293 HD
ENDBRANCH  13  17
BRANCH  15  19
ATOM     19  O   UNL     1     -29.533   9.938 -29.429  1.00  0.00    -0.502 OA
ATOM     20  H   UNL     1     -29.842  10.170 -30.360  1.00  0.00     0.293 HD
ENDBRANCH  15  19
BRANCH  16  21
ATOM     21  O   UNL     1     -28.733   9.876 -26.624  1.00  0.00    -0.504 OA
ATOM     22  H   UNL     1     -28.820  10.604 -25.933  1.00  0.00     0.293 HD
ENDBRANCH  16  21
ENDBRANCH   9  11
ENDBRANCH   8   9
ENDBRANCH   7   8
ENDBRANCH   1   7
BRANCH   2  23
ATOM     23  O   UNL     1     -23.180  13.336 -29.541  1.00  0.00    -0.452 OA
BRANCH  23  24
ATOM     24  C   UNL     1     -24.548  13.199 -29.267  1.00  0.00     0.338 C 
ATOM     25  O   UNL     1     -24.941  12.417 -28.359  1.00  0.00    -0.246 OA
BRANCH  24  26
ATOM     26  C   UNL     1     -25.528  13.981 -30.047  1.00  0.00     0.067 A 
ATOM     27  C   UNL     1     -26.593  13.343 -30.707  1.00  0.00     0.066 A 
ATOM     28  C   UNL     1     -25.410  15.376 -30.131  1.00  0.00     0.066 A 
ATOM     29  C   UNL     1     -27.526  14.084 -31.437  1.00  0.00     0.162 A 
ATOM     30  C   UNL     1     -26.334  16.126 -30.864  1.00  0.00     0.162 A 
ATOM     31  C   UNL     1     -27.396  15.482 -31.523  1.00  0.00     0.200 A 
BRANCH  29  32
ATOM     32  O   UNL     1     -28.586  13.420 -32.055  1.00  0.00    -0.504 OA
ATOM     33  H   UNL     1     -28.483  12.970 -32.957  1.00  0.00     0.293 HD
ENDBRANCH  29  32
BRANCH  30  34
ATOM     34  O   UNL     1     -26.199  17.513 -30.949  1.00  0.00    -0.504 OA
ATOM     35  H   UNL     1     -26.631  18.126 -30.265  1.00  0.00     0.293 HD
ENDBRANCH  30  34
BRANCH  31  36
ATOM     36  O   UNL     1     -28.330  16.216 -32.255  1.00  0.00    -0.502 OA
ATOM     37  H   UNL     1     -29.280  15.888 -32.405  1.00  0.00     0.293 HD
ENDBRANCH  31  36
ENDBRANCH  24  26
ENDBRANCH  23  24
ENDBRANCH   2  23
BRANCH   3  38
ATOM     38  O   UNL     1     -21.738  15.182 -31.079  1.00  0.00    -0.450 OA
BRANCH  38  39
ATOM     39  C   UNL     1     -22.774  15.713 -31.854  1.00  0.00     0.338 C 
ATOM     40  O   UNL     1     -23.611  14.946 -32.404  1.00  0.00    -0.246 OA
BRANCH  39  41
ATOM     41  C   UNL     1     -22.876  17.181 -32.031  1.00  0.00     0.067 A 
ATOM     42  C   UNL     1     -22.236  18.067 -31.147  1.00  0.00     0.066 A 
ATOM     43  C   UNL     1     -23.629  17.707 -33.092  1.00  0.00     0.066 A 
ATOM     44  C   UNL     1     -22.372  19.454 -31.299  1.00  0.00     0.162 A 
ATOM     45  C   UNL     1     -23.773  19.087 -33.251  1.00  0.00     0.162 A 
ATOM     46  C   UNL     1     -23.150  19.968 -32.352  1.00  0.00     0.200 A 
BRANCH  44  47
ATOM     47  O   UNL     1     -21.740  20.327 -30.408  1.00  0.00    -0.504 OA
ATOM     48  H   UNL     1     -20.961  20.030 -29.831  1.00  0.00     0.293 HD
ENDBRANCH  44  47
BRANCH  45  49
ATOM     49  O   UNL     1     -24.537  19.571 -34.314  1.00  0.00    -0.504 OA
ATOM     50  H   UNL     1     -25.501  19.856 -34.196  1.00  0.00     0.293 HD
ENDBRANCH  45  49
BRANCH  46  51
ATOM     51  O   UNL     1     -23.307  21.343 -32.517  1.00  0.00    -0.502 OA
ATOM     52  H   UNL     1     -22.602  21.923 -32.960  1.00  0.00     0.293 HD
ENDBRANCH  46  51
ENDBRANCH  39  41
ENDBRANCH  38  39
ENDBRANCH   3  38
BRANCH   5  53
ATOM     53  O   UNL     1     -19.319  11.580 -31.054  1.00  0.00    -0.428 OA
BRANCH  53  54
ATOM     54  C   UNL     1     -18.243  10.684 -31.031  1.00  0.00     0.340 C 
ATOM     55  O   UNL     1     -18.000   9.961 -32.036  1.00  0.00    -0.246 OA
BRANCH  54  56
ATOM     56  C   UNL     1     -17.415  10.571 -29.810  1.00  0.00     0.067 A 
ATOM     57  C   UNL     1     -18.016  10.275 -28.576  1.00  0.00     0.066 A 
ATOM     58  C   UNL     1     -16.023  10.747 -29.873  1.00  0.00     0.066 A 
ATOM     59  C   UNL     1     -17.238  10.164 -27.414  1.00  0.00     0.162 A 
ATOM     60  C   UNL     1     -15.239  10.629 -28.717  1.00  0.00     0.162 A 
ATOM     61  C   UNL     1     -15.846  10.345 -27.483  1.00  0.00     0.200 A 
BRANCH  59  62
ATOM     62  O   UNL     1     -17.841   9.875 -26.193  1.00  0.00    -0.504 OA
ATOM     63  H   UNL     1     -17.470   9.166 -25.571  1.00  0.00     0.293 HD
ENDBRANCH  59  62
BRANCH  60  64
ATOM     64  O   UNL     1     -13.859  10.811 -28.803  1.00  0.00    -0.504 OA
ATOM     65  H   UNL     1     -13.451  11.707 -29.044  1.00  0.00     0.293 HD
ENDBRANCH  60  64
BRANCH  61  66
ATOM     66  O   UNL     1     -15.053  10.243 -26.337  1.00  0.00    -0.502 OA
ATOM     67  H   UNL     1     -14.311   9.549 -26.256  1.00  0.00     0.293 HD
ENDBRANCH  61  66
ENDBRANCH  54  56
ENDBRANCH  53  54
ENDBRANCH   5  53
BRANCH   4  68
ATOM     68  O   UNL     1     -19.054  14.288 -30.427  1.00  0.00    -0.448 OA
BRANCH  68  69
ATOM     69  C   UNL     1     -17.787  14.021 -29.888  1.00  0.00     0.339 C 
ATOM     70  O   UNL     1     -17.663  13.771 -28.659  1.00  0.00    -0.246 OA
BRANCH  69  71
ATOM     71  C   UNL     1     -16.599  13.990 -30.768  1.00  0.00     0.067 A 
ATOM     72  C   UNL     1     -15.345  14.413 -30.292  1.00  0.00     0.066 A 
ATOM     73  C   UNL     1     -16.708  13.534 -32.092  1.00  0.00     0.066 A 
ATOM     74  C   UNL     1     -14.212  14.349 -31.116  1.00  0.00     0.162 A 
ATOM     75  C   UNL     1     -15.587  13.480 -32.931  1.00  0.00     0.162 A 
ATOM     76  C   UNL     1     -14.320  13.873 -32.431  1.00  0.00     0.200 A 
BRANCH  74  77
ATOM     77  O   UNL     1     -12.965  14.744 -30.630  1.00  0.00    -0.504 OA
ATOM     78  H   UNL     1     -12.517  15.588 -30.954  1.00  0.00     0.293 HD
ENDBRANCH  74  77
BRANCH  75  79
ATOM     79  O   UNL     1     -15.782  13.042 -34.244  1.00  0.00    -0.504 OA
ATOM     80  H   UNL     1     -15.063  13.031 -34.949  1.00  0.00     0.293 HD
ENDBRANCH  75  79
BRANCH  76  81
ATOM     81  O   UNL     1     -13.158  13.795 -33.201  1.00  0.00    -0.502 OA
ATOM     82  H   UNL     1     -13.112  14.076 -34.165  1.00  0.00     0.293 HD
ENDBRANCH  76  81
ENDBRANCH  69  71
ENDBRANCH  68  69
ENDBRANCH   4  68
TORSDOF 31
ENDMDL
MODEL 3
REMARK VINA RESULT:     2.274      1.206     10.961
REMARK INTER + INTRA:           5.243
REMARK INTER:                   2.839
REMARK INTRA:                   2.404
REMARK UNBOUND:                -0.155
REMARK SMILES O=C(OC[C@@H]1O[C@@H](OC(=O)c2cc(O)c(O)c(O)c2)[C@@H](OC(=O)c2cc(O)c(O)c(O)c2)[C@H](OC(=O)c2cc(O)c(O)c(O)c2)[C@@H]1OC(=O)c1cc(O)c(O)c(O)c1)c1cc(O)c(O)c(O)c1
REMARK SMILES IDX 5 1 46 2 33 3 20 4 7 5 6 6 4 7 3 8 2 9 1 10 59 11 60 12
REMARK SMILES IDX 61 13 67 14 63 15 65 16 62 17 64 19 66 21 47 23 48 24 49 25
REMARK SMILES IDX 50 26 58 27 51 28 56 29 52 30 54 31 57 32 53 34 55 36 34 38
REMARK SMILES IDX 35 39 36 40 37 41 45 42 38 43 43 44 39 45 41 46 44 47 40 49
REMARK SMILES IDX 42 51 8 53 9 54 10 55 11 56 19 57 12 58 17 59 13 60 15 61
REMARK SMILES IDX 18 62 14 64 16 66 21 68 22 69 23 70 24 71 32 72 25 73 30 74
REMARK SMILES IDX 26 75 28 76 31 77 27 79 29 81
REMARK H PARENT 62 18 64 20 66 22 57 33 53 35 55 37 44 48 40 50 42 52 18 63
REMARK H PARENT 14 65 16 67 31 78 27 80 29 82
REMARK Flexibility Score: inf
ROOT
ATOM      1  C   UNL     1     -21.950  11.650 -30.564  1.00  0.00     0.205 C 
ATOM      2  C   UNL     1     -22.455  13.094 -30.771  1.00  0.00     0.254 C 
ATOM      3  C   UNL     1     -21.254  14.011 -31.080  1.00  0.00     0.267 C 
ATOM      4  C   UNL     1     -20.169  13.842 -30.000  1.00  0.00     0.290 C 
ATOM      5  C   UNL     1     -19.843  12.351 -29.804  1.00  0.00     0.357 C 
ATOM      6  O   UNL     1     -21.009  11.601 -29.501  1.00  0.00    -0.329 OA
ENDROOT
BRANCH   1   7
ATOM      7  C   UNL     1     -23.115  10.696 -30.251  1.00  0.00     0.269 C 
BRANCH   7   8
ATOM      8  O   UNL     1     -22.935  10.083 -28.975  1.00  0.00    -0.459 OA
BRANCH   8   9
ATOM      9  C   UNL     1     -23.946   9.959 -28.015  1.00  0.00     0.338 C 
ATOM     10  O   UNL     1     -23.652   9.877 -26.791  1.00  0.00    -0.246 OA
BRANCH   9  11
ATOM     11  C   UNL     1     -25.362   9.957 -28.440  1.00  0.00     0.067 A 
ATOM     12  C   UNL     1     -26.386   9.989 -27.484  1.00  0.00     0.066 A 
ATOM     13  C   UNL     1     -27.727   9.971 -27.871  1.00  0.00     0.162 A 
ATOM     14  C   UNL     1     -25.702   9.919 -29.801  1.00  0.00     0.066 A 
ATOM     15  C   UNL     1     -28.068   9.921 -29.235  1.00  0.00     0.200 A 
ATOM     16  C   UNL     1     -27.039   9.903 -30.210  1.00  0.00     0.162 A 
BRANCH  13  17
ATOM     17  O   UNL     1     -28.714   9.986 -26.883  1.00  0.00    -0.504 OA
ATOM     18  H   UNL     1     -29.653   9.645 -27.049  1.00  0.00     0.293 HD
ENDBRANCH  13  17
BRANCH  15  19
ATOM     19  O   UNL     1     -29.422   9.883 -29.581  1.00  0.00    -0.502 OA
ATOM     20  H   UNL     1     -29.994  10.703 -29.713  1.00  0.00     0.293 HD
ENDBRANCH  15  19
BRANCH  16  21
ATOM     21  O   UNL     1     -27.299   9.877 -31.583  1.00  0.00    -0.504 OA
ATOM     22  H   UNL     1     -27.781   9.131 -32.056  1.00  0.00     0.293 HD
ENDBRANCH  16  21
ENDBRANCH   9  11
ENDBRANCH   8   9
ENDBRANCH   7   8
ENDBRANCH   1   7
BRANCH   2  23
ATOM     23  O   UNL     1     -23.114  13.542 -29.587  1.00  0.00    -0.452 OA
BRANCH  23  24
ATOM     24  C   UNL     1     -24.422  13.182 -29.234  1.00  0.00     0.338 C 
ATOM     25  O   UNL     1     -24.626  12.368 -28.292  1.00  0.00    -0.246 OA
BRANCH  24  26
ATOM     26  C   UNL     1     -25.561  13.766 -29.970  1.00  0.00     0.067 A 
ATOM     27  C   UNL     1     -25.491  15.073 -30.483  1.00  0.00     0.066 A 
ATOM     28  C   UNL     1     -26.727  13.013 -30.174  1.00  0.00     0.066 A 
ATOM     29  C   UNL     1     -26.566  15.620 -31.188  1.00  0.00     0.162 A 
ATOM     30  C   UNL     1     -27.810  13.554 -30.872  1.00  0.00     0.162 A 
ATOM     31  C   UNL     1     -27.735  14.863 -31.381  1.00  0.00     0.200 A 
BRANCH  29  32
ATOM     32  O   UNL     1     -26.450  16.910 -31.707  1.00  0.00    -0.504 OA
ATOM     33  H   UNL     1     -26.107  17.683 -31.149  1.00  0.00     0.293 HD
ENDBRANCH  29  32
BRANCH  30  34
ATOM     34  O   UNL     1     -28.970  12.799 -31.059  1.00  0.00    -0.504 OA
ATOM     35  H   UNL     1     -29.393  12.288 -30.291  1.00  0.00     0.293 HD
ENDBRANCH  30  34
BRANCH  31  36
ATOM     36  O   UNL     1     -28.805  15.416 -32.085  1.00  0.00    -0.502 OA
ATOM     37  H   UNL     1     -29.772  15.214 -31.847  1.00  0.00     0.293 HD
ENDBRANCH  31  36
ENDBRANCH  24  26
ENDBRANCH  23  24
ENDBRANCH   2  23
BRANCH   3  38
ATOM     38  O   UNL     1     -21.658  15.379 -31.124  1.00  0.00    -0.450 OA
BRANCH  38  39
ATOM     39  C   UNL     1     -22.774  15.854 -31.821  1.00  0.00     0.338 C 
ATOM     40  O   UNL     1     -23.641  15.046 -32.252  1.00  0.00    -0.246 OA
BRANCH  39  41
ATOM     41  C   UNL     1     -22.925  17.309 -32.055  1.00  0.00     0.067 A 
ATOM     42  C   UNL     1     -23.472  17.801 -33.253  1.00  0.00     0.066 A 
ATOM     43  C   UNL     1     -22.509  18.222 -31.074  1.00  0.00     0.066 A 
ATOM     44  C   UNL     1     -23.572  19.181 -33.482  1.00  0.00     0.162 A 
ATOM     45  C   UNL     1     -22.602  19.599 -31.293  1.00  0.00     0.162 A 
ATOM     46  C   UNL     1     -23.130  20.084 -32.500  1.00  0.00     0.200 A 
BRANCH  44  47
ATOM     47  O   UNL     1     -24.108  19.659 -34.681  1.00  0.00    -0.504 OA
ATOM     48  H   UNL     1     -24.836  20.366 -34.698  1.00  0.00     0.293 HD
ENDBRANCH  44  47
BRANCH  45  49
ATOM     49  O   UNL     1     -22.171  20.475 -30.296  1.00  0.00    -0.504 OA
ATOM     50  H   UNL     1     -21.539  21.240 -30.492  1.00  0.00     0.293 HD
ENDBRANCH  45  49
BRANCH  46  51
ATOM     51  O   UNL     1     -23.211  21.461 -32.710  1.00  0.00    -0.502 OA
ATOM     52  H   UNL     1     -24.039  22.000 -32.477  1.00  0.00     0.293 HD
ENDBRANCH  46  51
ENDBRANCH  39  41
ENDBRANCH  38  39
ENDBRANCH   3  38
BRANCH   5  53
ATOM     53  O   UNL     1     -19.185  11.818 -30.955  1.00  0.00    -0.428 OA
BRANCH  53  54
ATOM     54  C   UNL     1     -18.241  10.786 -30.895  1.00  0.00     0.340 C 
ATOM     55  O   UNL     1     -18.240   9.876 -31.768  1.00  0.00    -0.246 OA
BRANCH  54  56
ATOM     56  C   UNL     1     -17.264  10.757 -29.783  1.00  0.00     0.067 A 
ATOM     57  C   UNL     1     -17.690  10.452 -28.480  1.00  0.00     0.066 A 
ATOM     58  C   UNL     1     -15.905  11.019 -30.019  1.00  0.00     0.066 A 
ATOM     59  C   UNL     1     -16.771  10.420 -27.421  1.00  0.00     0.162 A 
ATOM     60  C   UNL     1     -14.981  10.981 -28.966  1.00  0.00     0.162 A 
ATOM     61  C   UNL     1     -15.412  10.688 -27.663  1.00  0.00     0.200 A 
BRANCH  59  62
ATOM     62  O   UNL     1     -17.200  10.122 -26.130  1.00  0.00    -0.504 OA
ATOM     63  H   UNL     1     -17.412  10.850 -25.458  1.00  0.00     0.293 HD
ENDBRANCH  59  62
BRANCH  60  64
ATOM     64  O   UNL     1     -13.637  11.249 -29.224  1.00  0.00    -0.504 OA
ATOM     65  H   UNL     1     -13.294  12.194 -29.354  1.00  0.00     0.293 HD
ENDBRANCH  60  64
BRANCH  61  66
ATOM     66  O   UNL     1     -14.481  10.665 -26.621  1.00  0.00    -0.502 OA
ATOM     67  H   UNL     1     -14.745  10.415 -25.669  1.00  0.00     0.293 HD
ENDBRANCH  61  66
ENDBRANCH  54  56
ENDBRANCH  53  54
ENDBRANCH   5  53
BRANCH   4  68
ATOM     68  O   UNL     1     -18.980  14.542 -30.379  1.00  0.00    -0.448 OA
BRANCH  68  69
ATOM     69  C   UNL     1     -17.714  14.267 -29.841  1.00  0.00     0.339 C 
ATOM     70  O   UNL     1     -17.588  14.041 -28.607  1.00  0.00    -0.246 OA
BRANCH  69  71
ATOM     71  C   UNL     1     -16.532  14.201 -30.725  1.00  0.00     0.067 A 
ATOM     72  C   UNL     1     -16.663  13.802 -32.067  1.00  0.00     0.066 A 
ATOM     73  C   UNL     1     -15.260  14.542 -30.237  1.00  0.00     0.066 A 
ATOM     74  C   UNL     1     -15.548  13.775 -32.916  1.00  0.00     0.162 A 
ATOM     75  C   UNL     1     -14.133  14.505 -31.069  1.00  0.00     0.162 A 
ATOM     76  C   UNL     1     -14.282  14.136 -32.430  1.00  0.00     0.200 A 
BRANCH  74  77
ATOM     77  O   UNL     1     -15.688  13.404 -34.253  1.00  0.00    -0.504 OA
ATOM     78  H   UNL     1     -14.961  13.584 -34.929  1.00  0.00     0.293 HD
ENDBRANCH  74  77
BRANCH  75  79
ATOM     79  O   UNL     1     -12.898  14.830 -30.501  1.00  0.00    -0.504 OA
ATOM     80  H   UNL     1     -12.788  15.265 -29.599  1.00  0.00     0.293 HD
ENDBRANCH  75  79
BRANCH  76  81
ATOM     81  O   UNL     1     -13.208  14.128 -33.322  1.00  0.00    -0.502 OA
ATOM     82  H   UNL     1     -12.505  13.409 -33.337  1.00  0.00     0.293 HD
ENDBRANCH  76  81
ENDBRANCH  69  71
ENDBRANCH  68  69
ENDBRANCH   4  68
TORSDOF 31
ENDMDL
MODEL 4
REMARK VINA RESULT:     2.896      1.166      6.496
REMARK INTER + INTRA:           6.719
REMARK INTER:                  -1.452
REMARK INTRA:                   8.172
REMARK UNBOUND:                -0.155
REMARK SMILES O=C(OC[C@@H]1O[C@@H](OC(=O)c2cc(O)c(O)c(O)c2)[C@@H](OC(=O)c2cc(O)c(O)c(O)c2)[C@H](OC(=O)c2cc(O)c(O)c(O)c2)[C@@H]1OC(=O)c1cc(O)c(O)c(O)c1)c1cc(O)c(O)c(O)c1
REMARK SMILES IDX 5 1 46 2 33 3 20 4 7 5 6 6 4 7 3 8 2 9 1 10 59 11 60 12
REMARK SMILES IDX 61 13 67 14 63 15 65 16 62 17 64 19 66 21 47 23 48 24 49 25
REMARK SMILES IDX 50 26 58 27 51 28 56 29 52 30 54 31 57 32 53 34 55 36 34 38
REMARK SMILES IDX 35 39 36 40 37 41 45 42 38 43 43 44 39 45 41 46 44 47 40 49
REMARK SMILES IDX 42 51 8 53 9 54 10 55 11 56 19 57 12 58 17 59 13 60 15 61
REMARK SMILES IDX 18 62 14 64 16 66 21 68 22 69 23 70 24 71 32 72 25 73 30 74
REMARK SMILES IDX 26 75 28 76 31 77 27 79 29 81
REMARK H PARENT 62 18 64 20 66 22 57 33 53 35 55 37 44 48 40 50 42 52 18 63
REMARK H PARENT 14 65 16 67 31 78 27 80 29 82
REMARK Flexibility Score: inf
ROOT
ATOM      1  C   UNL     1     -20.186  12.225 -29.355  1.00  0.00     0.205 C 
ATOM      2  C   UNL     1     -20.329  13.399 -30.348  1.00  0.00     0.254 C 
ATOM      3  C   UNL     1     -21.826  13.664 -30.605  1.00  0.00     0.267 C 
ATOM      4  C   UNL     1     -22.530  12.360 -31.023  1.00  0.00     0.290 C 
ATOM      5  C   UNL     1     -22.209  11.240 -30.018  1.00  0.00     0.357 C 
ATOM      6  O   UNL     1     -20.810  11.059 -29.871  1.00  0.00    -0.329 OA
ENDROOT
BRANCH   1   7
ATOM      7  C   UNL     1     -18.706  11.921 -29.067  1.00  0.00     0.269 C 
BRANCH   7   8
ATOM      8  O   UNL     1     -18.583  10.983 -27.999  1.00  0.00    -0.459 OA
BRANCH   8   9
ATOM      9  C   UNL     1     -17.362  10.563 -27.459  1.00  0.00     0.338 C 
ATOM     10  O   UNL     1     -17.334   9.933 -26.367  1.00  0.00    -0.246 OA
BRANCH   9  11
ATOM     11  C   UNL     1     -16.107  10.832 -28.194  1.00  0.00     0.067 A 
ATOM     12  C   UNL     1     -15.029  11.450 -27.546  1.00  0.00     0.066 A 
ATOM     13  C   UNL     1     -13.844  11.725 -28.232  1.00  0.00     0.162 A 
ATOM     14  C   UNL     1     -15.979  10.482 -29.546  1.00  0.00     0.066 A 
ATOM     15  C   UNL     1     -13.720  11.384 -29.591  1.00  0.00     0.200 A 
ATOM     16  C   UNL     1     -14.800  10.747 -30.251  1.00  0.00     0.162 A 
BRANCH  13  17
ATOM     17  O   UNL     1     -12.802  12.358 -27.551  1.00  0.00    -0.504 OA
ATOM     18  H   UNL     1     -12.029  12.801 -28.033  1.00  0.00     0.293 HD
ENDBRANCH  13  17
BRANCH  15  19
ATOM     19  O   UNL     1     -12.526  11.696 -30.248  1.00  0.00    -0.502 OA
ATOM     20  H   UNL     1     -12.031  11.059 -30.853  1.00  0.00     0.293 HD
ENDBRANCH  15  19
BRANCH  16  21
ATOM     21  O   UNL     1     -14.742  10.356 -31.592  1.00  0.00    -0.504 OA
ATOM     22  H   UNL     1     -13.898  10.087 -32.070  1.00  0.00     0.293 HD
ENDBRANCH  16  21
ENDBRANCH   9  11
ENDBRANCH   8   9
ENDBRANCH   7   8
ENDBRANCH   1   7
BRANCH   2  23
ATOM     23  O   UNL     1     -19.679  13.065 -31.575  1.00  0.00    -0.452 OA
BRANCH  23  24
ATOM     24  C   UNL     1     -18.524  12.274 -31.660  1.00  0.00     0.338 C 
ATOM     25  O   UNL     1     -18.595  11.025 -31.495  1.00  0.00    -0.246 OA
BRANCH  24  26
ATOM     26  C   UNL     1     -17.224  12.912 -31.948  1.00  0.00     0.067 A 
ATOM     27  C   UNL     1     -16.497  12.570 -33.102  1.00  0.00     0.066 A 
ATOM     28  C   UNL     1     -16.704  13.877 -31.072  1.00  0.00     0.066 A 
ATOM     29  C   UNL     1     -15.271  13.182 -33.378  1.00  0.00     0.162 A 
ATOM     30  C   UNL     1     -15.476  14.489 -31.337  1.00  0.00     0.162 A 
ATOM     31  C   UNL     1     -14.752  14.142 -32.491  1.00  0.00     0.200 A 
BRANCH  29  32
ATOM     32  O   UNL     1     -14.591  12.839 -34.547  1.00  0.00    -0.504 OA
ATOM     33  H   UNL     1     -14.903  13.151 -35.459  1.00  0.00     0.293 HD
ENDBRANCH  29  32
BRANCH  30  34
ATOM     34  O   UNL     1     -14.963  15.439 -30.452  1.00  0.00    -0.504 OA
ATOM     35  H   UNL     1     -15.529  15.814 -29.697  1.00  0.00     0.293 HD
ENDBRANCH  30  34
BRANCH  31  36
ATOM     36  O   UNL     1     -13.527  14.748 -32.773  1.00  0.00    -0.502 OA
ATOM     37  H   UNL     1     -13.294  15.094 -33.699  1.00  0.00     0.293 HD
ENDBRANCH  31  36
ENDBRANCH  24  26
ENDBRANCH  23  24
ENDBRANCH   2  23
BRANCH   3  38
ATOM     38  O   UNL     1     -21.999  14.636 -31.636  1.00  0.00    -0.450 OA
BRANCH  38  39
ATOM     39  C   UNL     1     -23.143  15.425 -31.799  1.00  0.00     0.338 C 
ATOM     40  O   UNL     1     -24.285  14.890 -31.801  1.00  0.00    -0.246 OA
BRANCH  39  41
ATOM     41  C   UNL     1     -23.002  16.889 -31.976  1.00  0.00     0.067 A 
ATOM     42  C   UNL     1     -22.500  17.703 -30.947  1.00  0.00     0.066 A 
ATOM     43  C   UNL     1     -23.382  17.486 -33.189  1.00  0.00     0.066 A 
ATOM     44  C   UNL     1     -22.409  19.093 -31.110  1.00  0.00     0.162 A 
ATOM     45  C   UNL     1     -23.297  18.870 -33.362  1.00  0.00     0.162 A 
ATOM     46  C   UNL     1     -22.816  19.680 -32.321  1.00  0.00     0.200 A 
BRANCH  44  47
ATOM     47  O   UNL     1     -21.918  19.894 -30.075  1.00  0.00    -0.504 OA
ATOM     48  H   UNL     1     -21.759  19.526 -29.143  1.00  0.00     0.293 HD
ENDBRANCH  44  47
BRANCH  45  49
ATOM     49  O   UNL     1     -23.693  19.427 -34.579  1.00  0.00    -0.504 OA
ATOM     50  H   UNL     1     -23.241  20.244 -34.966  1.00  0.00     0.293 HD
ENDBRANCH  45  49
BRANCH  46  51
ATOM     51  O   UNL     1     -22.743  21.061 -32.503  1.00  0.00    -0.502 OA
ATOM     52  H   UNL     1     -22.716  21.489 -33.422  1.00  0.00     0.293 HD
ENDBRANCH  46  51
ENDBRANCH  39  41
ENDBRANCH  38  39
ENDBRANCH   3  38
BRANCH   5  53
ATOM     53  O   UNL     1     -22.819  11.502 -28.752  1.00  0.00    -0.428 OA
BRANCH  53  54
ATOM     54  C   UNL     1     -23.613  10.570 -28.070  1.00  0.00     0.340 C 
ATOM     55  O   UNL     1     -23.118   9.875 -27.141  1.00  0.00    -0.246 OA
BRANCH  54  56
ATOM     56  C   UNL     1     -25.026  10.388 -28.469  1.00  0.00     0.067 A 
ATOM     57  C   UNL     1     -26.039  10.393 -27.496  1.00  0.00     0.066 A 
ATOM     58  C   UNL     1     -25.372  10.221 -29.820  1.00  0.00     0.066 A 
ATOM     59  C   UNL     1     -27.381  10.224 -27.865  1.00  0.00     0.162 A 
ATOM     60  C   UNL     1     -26.712  10.059 -30.196  1.00  0.00     0.162 A 
ATOM     61  C   UNL     1     -27.720  10.052 -29.219  1.00  0.00     0.200 A 
BRANCH  59  62
ATOM     62  O   UNL     1     -28.380  10.225 -26.895  1.00  0.00    -0.504 OA
ATOM     63  H   UNL     1     -29.285   9.799 -27.061  1.00  0.00     0.293 HD
ENDBRANCH  59  62
BRANCH  60  64
ATOM     64  O   UNL     1     -27.030   9.891 -31.543  1.00  0.00    -0.504 OA
ATOM     65  H   UNL     1     -27.545   9.083 -31.875  1.00  0.00     0.293 HD
ENDBRANCH  60  64
BRANCH  61  66
ATOM     66  O   UNL     1     -29.051   9.878 -29.608  1.00  0.00    -0.502 OA
ATOM     67  H   UNL     1     -29.646  10.667 -29.858  1.00  0.00     0.293 HD
ENDBRANCH  61  66
ENDBRANCH  54  56
ENDBRANCH  53  54
ENDBRANCH   5  53
BRANCH   4  68
ATOM     68  O   UNL     1     -23.946  12.558 -31.078  1.00  0.00    -0.448 OA
BRANCH  68  69
ATOM     69  C   UNL     1     -24.657  13.339 -30.154  1.00  0.00     0.339 C 
ATOM     70  O   UNL     1     -24.109  13.696 -29.076  1.00  0.00    -0.246 OA
BRANCH  69  71
ATOM     71  C   UNL     1     -26.034  13.778 -30.460  1.00  0.00     0.067 A 
ATOM     72  C   UNL     1     -27.137  12.987 -30.090  1.00  0.00     0.066 A 
ATOM     73  C   UNL     1     -26.260  14.995 -31.122  1.00  0.00     0.066 A 
ATOM     74  C   UNL     1     -28.444  13.422 -30.347  1.00  0.00     0.162 A 
ATOM     75  C   UNL     1     -27.562  15.435 -31.401  1.00  0.00     0.162 A 
ATOM     76  C   UNL     1     -28.667  14.648 -30.991  1.00  0.00     0.200 A 
BRANCH  74  77
ATOM     77  O   UNL     1     -29.535  12.646 -29.954  1.00  0.00    -0.504 OA
ATOM     78  H   UNL     1     -29.730  12.466 -28.981  1.00  0.00     0.293 HD
ENDBRANCH  74  77
BRANCH  75  79
ATOM     79  O   UNL     1     -27.703  16.643 -32.089  1.00  0.00    -0.504 OA
ATOM     80  H   UNL     1     -27.331  17.523 -31.769  1.00  0.00     0.293 HD
ENDBRANCH  75  79
BRANCH  76  81
ATOM     81  O   UNL     1     -29.987  15.055 -31.194  1.00  0.00    -0.502 OA
ATOM     82  H   UNL     1     -30.669  14.501 -31.683  1.00  0.00     0.293 HD
ENDBRANCH  76  81
ENDBRANCH  69  71
ENDBRANCH  68  69
ENDBRANCH   4  68
TORSDOF 31
ENDMDL
MODEL 5
REMARK VINA RESULT:     4.502      1.254      2.143
REMARK INTER + INTRA:          10.531
REMARK INTER:                  10.265
REMARK INTRA:                   0.266
REMARK UNBOUND:                -0.155
REMARK SMILES O=C(OC[C@@H]1O[C@@H](OC(=O)c2cc(O)c(O)c(O)c2)[C@@H](OC(=O)c2cc(O)c(O)c(O)c2)[C@H](OC(=O)c2cc(O)c(O)c(O)c2)[C@@H]1OC(=O)c1cc(O)c(O)c(O)c1)c1cc(O)c(O)c(O)c1
REMARK SMILES IDX 5 1 46 2 33 3 20 4 7 5 6 6 4 7 3 8 2 9 1 10 59 11 60 12
REMARK SMILES IDX 61 13 67 14 63 15 65 16 62 17 64 19 66 21 47 23 48 24 49 25
REMARK SMILES IDX 50 26 58 27 51 28 56 29 52 30 54 31 57 32 53 34 55 36 34 38
REMARK SMILES IDX 35 39 36 40 37 41 45 42 38 43 43 44 39 45 41 46 44 47 40 49
REMARK SMILES IDX 42 51 8 53 9 54 10 55 11 56 19 57 12 58 17 59 13 60 15 61
REMARK SMILES IDX 18 62 14 64 16 66 21 68 22 69 23 70 24 71 32 72 25 73 30 74
REMARK SMILES IDX 26 75 28 76 31 77 27 79 29 81
REMARK H PARENT 62 18 64 20 66 22 57 33 53 35 55 37 44 48 40 50 42 52 18 63
REMARK H PARENT 14 65 16 67 31 78 27 80 29 82
REMARK Flexibility Score: inf
ROOT
ATOM      1  C   UNL     1     -19.877  14.162 -30.850  1.00  0.00     0.205 C 
ATOM      2  C   UNL     1     -20.121  12.639 -30.769  1.00  0.00     0.254 C 
ATOM      3  C   UNL     1     -21.639  12.369 -30.782  1.00  0.00     0.267 C 
ATOM      4  C   UNL     1     -22.335  13.204 -29.692  1.00  0.00     0.290 C 
ATOM      5  C   UNL     1     -21.915  14.680 -29.807  1.00  0.00     0.357 C 
ATOM      6  O   UNL     1     -20.504  14.823 -29.760  1.00  0.00    -0.329 OA
ENDROOT
BRANCH   1   7
ATOM      7  C   UNL     1     -18.373  14.483 -30.838  1.00  0.00     0.269 C 
BRANCH   7   8
ATOM      8  O   UNL     1     -17.780  14.160 -32.094  1.00  0.00    -0.459 OA
BRANCH   8   9
ATOM      9  C   UNL     1     -16.735  13.242 -32.257  1.00  0.00     0.338 C 
ATOM     10  O   UNL     1     -16.981  12.008 -32.335  1.00  0.00    -0.246 OA
BRANCH   9  11
ATOM     11  C   UNL     1     -15.344  13.731 -32.371  1.00  0.00     0.067 A 
ATOM     12  C   UNL     1     -14.397  13.000 -33.100  1.00  0.00     0.066 A 
ATOM     13  C   UNL     1     -13.077  13.442 -33.202  1.00  0.00     0.162 A 
ATOM     14  C   UNL     1     -14.951  14.925 -31.749  1.00  0.00     0.066 A 
ATOM     15  C   UNL     1     -12.679  14.633 -32.569  1.00  0.00     0.200 A 
ATOM     16  C   UNL     1     -13.634  15.387 -31.840  1.00  0.00     0.162 A 
BRANCH  13  17
ATOM     17  O   UNL     1     -12.163  12.672 -33.925  1.00  0.00    -0.504 OA
ATOM     18  H   UNL     1     -11.693  13.021 -34.752  1.00  0.00     0.293 HD
ENDBRANCH  13  17
BRANCH  15  19
ATOM     19  O   UNL     1     -11.343  15.030 -32.677  1.00  0.00    -0.502 OA
ATOM     20  H   UNL     1     -10.558  14.411 -32.549  1.00  0.00     0.293 HD
ENDBRANCH  15  19
BRANCH  16  21
ATOM     21  O   UNL     1     -13.320  16.591 -31.205  1.00  0.00    -0.504 OA
ATOM     22  H   UNL     1     -13.957  17.108 -30.621  1.00  0.00     0.293 HD
ENDBRANCH  16  21
ENDBRANCH   9  11
ENDBRANCH   8   9
ENDBRANCH   7   8
ENDBRANCH   1   7
BRANCH   2  23
ATOM     23  O   UNL     1     -19.549  12.129 -29.564  1.00  0.00    -0.452 OA
BRANCH  23  24
ATOM     24  C   UNL     1     -18.590  11.108 -29.523  1.00  0.00     0.338 C 
ATOM     25  O   UNL     1     -18.821   9.994 -30.070  1.00  0.00    -0.246 OA
BRANCH  24  26
ATOM     26  C   UNL     1     -17.303  11.345 -28.838  1.00  0.00     0.067 A 
ATOM     27  C   UNL     1     -17.028  10.739 -27.599  1.00  0.00     0.066 A 
ATOM     28  C   UNL     1     -16.335  12.173 -29.424  1.00  0.00     0.066 A 
ATOM     29  C   UNL     1     -15.807  10.956 -26.956  1.00  0.00     0.162 A 
ATOM     30  C   UNL     1     -15.113  12.402 -28.785  1.00  0.00     0.162 A 
ATOM     31  C   UNL     1     -14.845  11.794 -27.546  1.00  0.00     0.200 A 
BRANCH  29  32
ATOM     32  O   UNL     1     -15.557  10.316 -25.741  1.00  0.00    -0.504 OA
ATOM     33  H   UNL     1     -15.530   9.306 -25.665  1.00  0.00     0.293 HD
ENDBRANCH  29  32
BRANCH  30  34
ATOM     34  O   UNL     1     -14.162  13.237 -29.374  1.00  0.00    -0.504 OA
ATOM     35  H   UNL     1     -14.286  14.245 -29.389  1.00  0.00     0.293 HD
ENDBRANCH  30  34
BRANCH  31  36
ATOM     36  O   UNL     1     -13.627  12.008 -26.897  1.00  0.00    -0.502 OA
ATOM     37  H   UNL     1     -13.541  12.631 -26.100  1.00  0.00     0.293 HD
ENDBRANCH  31  36
ENDBRANCH  24  26
ENDBRANCH  23  24
ENDBRANCH   2  23
BRANCH   3  38
ATOM     38  O   UNL     1     -21.910  10.986 -30.551  1.00  0.00    -0.450 OA
BRANCH  38  39
ATOM     39  C   UNL     1     -22.450  10.471 -29.368  1.00  0.00     0.338 C 
ATOM     40  O   UNL     1     -21.693  10.162 -28.408  1.00  0.00    -0.246 OA
BRANCH  39  41
ATOM     41  C   UNL     1     -23.916  10.283 -29.255  1.00  0.00     0.067 A 
ATOM     42  C   UNL     1     -24.722  10.141 -30.397  1.00  0.00     0.066 A 
ATOM     43  C   UNL     1     -24.521  10.254 -27.989  1.00  0.00     0.066 A 
ATOM     44  C   UNL     1     -26.113  10.005 -30.281  1.00  0.00     0.162 A 
ATOM     45  C   UNL     1     -25.906  10.121 -27.862  1.00  0.00     0.162 A 
ATOM     46  C   UNL     1     -26.709  10.002 -29.008  1.00  0.00     0.200 A 
BRANCH  44  47
ATOM     47  O   UNL     1     -26.907   9.875 -31.424  1.00  0.00    -0.504 OA
ATOM     48  H   UNL     1     -27.557   9.104 -31.540  1.00  0.00     0.293 HD
ENDBRANCH  44  47
BRANCH  45  49
ATOM     49  O   UNL     1     -26.472  10.104 -26.586  1.00  0.00    -0.504 OA
ATOM     50  H   UNL     1     -26.441  10.910 -25.975  1.00  0.00     0.293 HD
ENDBRANCH  45  49
BRANCH  46  51
ATOM     51  O   UNL     1     -28.091   9.876 -28.868  1.00  0.00    -0.502 OA
ATOM     52  H   UNL     1     -28.744  10.509 -29.316  1.00  0.00     0.293 HD
ENDBRANCH  46  51
ENDBRANCH  39  41
ENDBRANCH  38  39
ENDBRANCH   3  38
BRANCH   5  53
ATOM     53  O   UNL     1     -22.442  15.269 -30.999  1.00  0.00    -0.428 OA
BRANCH  53  54
ATOM     54  C   UNL     1     -22.414  16.645 -31.257  1.00  0.00     0.340 C 
ATOM     55  O   UNL     1     -21.410  17.332 -30.922  1.00  0.00    -0.246 OA
BRANCH  54  56
ATOM     56  C   UNL     1     -23.582  17.289 -31.898  1.00  0.00     0.067 A 
ATOM     57  C   UNL     1     -23.400  18.143 -32.998  1.00  0.00     0.066 A 
ATOM     58  C   UNL     1     -24.881  17.046 -31.424  1.00  0.00     0.066 A 
ATOM     59  C   UNL     1     -24.501  18.756 -33.613  1.00  0.00     0.162 A 
ATOM     60  C   UNL     1     -25.986  17.649 -32.039  1.00  0.00     0.162 A 
ATOM     61  C   UNL     1     -25.799  18.512 -33.131  1.00  0.00     0.200 A 
BRANCH  59  62
ATOM     62  O   UNL     1     -24.313  19.605 -34.701  1.00  0.00    -0.504 OA
ATOM     63  H   UNL     1     -24.875  20.438 -34.829  1.00  0.00     0.293 HD
ENDBRANCH  59  62
BRANCH  60  64
ATOM     64  O   UNL     1     -27.267  17.396 -31.549  1.00  0.00    -0.504 OA
ATOM     65  H   UNL     1     -28.094  17.793 -31.979  1.00  0.00     0.293 HD
ENDBRANCH  60  64
BRANCH  61  66
ATOM     66  O   UNL     1     -26.909  19.115 -33.727  1.00  0.00    -0.502 OA
ATOM     67  H   UNL     1     -26.860  19.537 -34.654  1.00  0.00     0.293 HD
ENDBRANCH  61  66
ENDBRANCH  54  56
ENDBRANCH  53  54
ENDBRANCH   5  53
BRANCH   4  68
ATOM     68  O   UNL     1     -23.757  13.104 -29.822  1.00  0.00    -0.448 OA
BRANCH  68  69
ATOM     69  C   UNL     1     -24.456  13.468 -30.983  1.00  0.00     0.339 C 
ATOM     70  O   UNL     1     -23.836  13.632 -32.068  1.00  0.00    -0.246 OA
BRANCH  69  71
ATOM     71  C   UNL     1     -25.926  13.620 -30.944  1.00  0.00     0.067 A 
ATOM     72  C   UNL     1     -26.679  13.033 -29.912  1.00  0.00     0.066 A 
ATOM     73  C   UNL     1     -26.589  14.358 -31.938  1.00  0.00     0.066 A 
ATOM     74  C   UNL     1     -28.069  13.209 -29.855  1.00  0.00     0.162 A 
ATOM     75  C   UNL     1     -27.980  14.529 -31.902  1.00  0.00     0.162 A 
ATOM     76  C   UNL     1     -28.726  13.964 -30.838  1.00  0.00     0.200 A 
BRANCH  74  77
ATOM     77  O   UNL     1     -28.808  12.648 -28.814  1.00  0.00    -0.504 OA
ATOM     78  H   UNL     1     -29.215  13.219 -28.088  1.00  0.00     0.293 HD
ENDBRANCH  74  77
BRANCH  75  79
ATOM     79  O   UNL     1     -28.570  15.251 -32.944  1.00  0.00    -0.504 OA
ATOM     80  H   UNL     1     -29.564  15.348 -33.071  1.00  0.00     0.293 HD
ENDBRANCH  75  79
BRANCH  76  81
ATOM     81  O   UNL     1     -30.106  14.140 -30.719  1.00  0.00    -0.502 OA
ATOM     82  H   UNL     1     -30.528  14.835 -30.127  1.00  0.00     0.293 HD
ENDBRANCH  76  81
ENDBRANCH  69  71
ENDBRANCH  68  69
ENDBRANCH   4  68
TORSDOF 31
ENDMDL
MODEL 6
REMARK VINA RESULT:     4.630      1.427      9.725
REMARK INTER + INTRA:          10.834
REMARK INTER:                   9.050
REMARK INTRA:                   1.784
REMARK UNBOUND:                -0.155
REMARK SMILES O=C(OC[C@@H]1O[C@@H](OC(=O)c2cc(O)c(O)c(O)c2)[C@@H](OC(=O)c2cc(O)c(O)c(O)c2)[C@H](OC(=O)c2cc(O)c(O)c(O)c2)[C@@H]1OC(=O)c1cc(O)c(O)c(O)c1)c1cc(O)c(O)c(O)c1
REMARK SMILES IDX 5 1 46 2 33 3 20 4 7 5 6 6 4 7 3 8 2 9 1 10 59 11 60 12
REMARK SMILES IDX 61 13 67 14 63 15 65 16 62 17 64 19 66 21 47 23 48 24 49 25
REMARK SMILES IDX 50 26 58 27 51 28 56 29 52 30 54 31 57 32 53 34 55 36 34 38
REMARK SMILES IDX 35 39 36 40 37 41 45 42 38 43 43 44 39 45 41 46 44 47 40 49
REMARK SMILES IDX 42 51 8 53 9 54 10 55 11 56 19 57 12 58 17 59 13 60 15 61
REMARK SMILES IDX 18 62 14 64 16 66 21 68 22 69 23 70 24 71 32 72 25 73 30 74
REMARK SMILES IDX 26 75 28 76 31 77 27 79 29 81
REMARK H PARENT 62 18 64 20 66 22 57 33 53 35 55 37 44 48 40 50 42 52 18 63
REMARK H PARENT 14 65 16 67 31 78 27 80 29 82
REMARK Flexibility Score: inf
ROOT
ATOM      1  C   UNL     1     -23.893  13.535 -30.114  1.00  0.00     0.205 C 
ATOM      2  C   UNL     1     -22.896  12.714 -29.268  1.00  0.00     0.254 C 
ATOM      3  C   UNL     1     -21.457  13.099 -29.668  1.00  0.00     0.267 C 
ATOM      4  C   UNL     1     -21.281  12.977 -31.193  1.00  0.00     0.290 C 
ATOM      5  C   UNL     1     -22.406  13.737 -31.918  1.00  0.00     0.357 C 
ATOM      6  O   UNL     1     -23.686  13.293 -31.498  1.00  0.00    -0.329 OA
ENDROOT
BRANCH   1   7
ATOM      7  C   UNL     1     -25.346  13.184 -29.752  1.00  0.00     0.269 C 
BRANCH   7   8
ATOM      8  O   UNL     1     -26.258  14.010 -30.473  1.00  0.00    -0.459 OA
BRANCH   8   9
ATOM      9  C   UNL     1     -26.148  15.402 -30.571  1.00  0.00     0.338 C 
ATOM     10  O   UNL     1     -25.297  16.022 -29.878  1.00  0.00    -0.246 OA
BRANCH   9  11
ATOM     11  C   UNL     1     -27.012  16.138 -31.519  1.00  0.00     0.067 A 
ATOM     12  C   UNL     1     -28.172  15.538 -32.029  1.00  0.00     0.066 A 
ATOM     13  C   UNL     1     -28.987  16.216 -32.937  1.00  0.00     0.162 A 
ATOM     14  C   UNL     1     -26.683  17.440 -31.927  1.00  0.00     0.066 A 
ATOM     15  C   UNL     1     -28.651  17.516 -33.355  1.00  0.00     0.200 A 
ATOM     16  C   UNL     1     -27.488  18.136 -32.835  1.00  0.00     0.162 A 
BRANCH  13  17
ATOM     17  O   UNL     1     -30.124  15.572 -33.432  1.00  0.00    -0.504 OA
ATOM     18  H   UNL     1     -30.545  14.779 -32.963  1.00  0.00     0.293 HD
ENDBRANCH  13  17
BRANCH  15  19
ATOM     19  O   UNL     1     -29.482  18.152 -34.282  1.00  0.00    -0.502 OA
ATOM     20  H   UNL     1     -29.232  18.319 -35.244  1.00  0.00     0.293 HD
ENDBRANCH  15  19
BRANCH  16  21
ATOM     21  O   UNL     1     -27.102  19.434 -33.183  1.00  0.00    -0.504 OA
ATOM     22  H   UNL     1     -26.523  19.661 -33.975  1.00  0.00     0.293 HD
ENDBRANCH  16  21
ENDBRANCH   9  11
ENDBRANCH   8   9
ENDBRANCH   7   8
ENDBRANCH   1   7
BRANCH   2  23
ATOM     23  O   UNL     1     -23.107  11.321 -29.503  1.00  0.00    -0.452 OA
BRANCH  23  24
ATOM     24  C   UNL     1     -23.835  10.484 -28.645  1.00  0.00     0.338 C 
ATOM     25  O   UNL     1     -23.254   9.875 -27.705  1.00  0.00    -0.246 OA
BRANCH  24  26
ATOM     26  C   UNL     1     -25.288  10.321 -28.848  1.00  0.00     0.067 A 
ATOM     27  C   UNL     1     -26.169  10.314 -27.751  1.00  0.00     0.066 A 
ATOM     28  C   UNL     1     -25.808  10.182 -30.143  1.00  0.00     0.066 A 
ATOM     29  C   UNL     1     -27.545  10.170 -27.945  1.00  0.00     0.162 A 
ATOM     30  C   UNL     1     -27.182  10.030 -30.346  1.00  0.00     0.162 A 
ATOM     31  C   UNL     1     -28.058  10.022 -29.246  1.00  0.00     0.200 A 
BRANCH  29  32
ATOM     32  O   UNL     1     -28.392  10.196 -26.836  1.00  0.00    -0.504 OA
ATOM     33  H   UNL     1     -29.064   9.459 -26.659  1.00  0.00     0.293 HD
ENDBRANCH  29  32
BRANCH  30  34
ATOM     34  O   UNL     1     -27.686   9.880 -31.639  1.00  0.00    -0.504 OA
ATOM     35  H   UNL     1     -28.278   9.093 -31.885  1.00  0.00     0.293 HD
ENDBRANCH  30  34
BRANCH  31  36
ATOM     36  O   UNL     1     -29.433   9.877 -29.431  1.00  0.00    -0.502 OA
ATOM     37  H   UNL     1     -30.071   9.720 -28.656  1.00  0.00     0.293 HD
ENDBRANCH  31  36
ENDBRANCH  24  26
ENDBRANCH  23  24
ENDBRANCH   2  23
BRANCH   3  38
ATOM     38  O   UNL     1     -20.507  12.251 -29.022  1.00  0.00    -0.450 OA
BRANCH  38  39
ATOM     39  C   UNL     1     -19.983  11.080 -29.579  1.00  0.00     0.338 C 
ATOM     40  O   UNL     1     -20.733  10.290 -30.215  1.00  0.00    -0.246 OA
BRANCH  39  41
ATOM     41  C   UNL     1     -18.544  10.770 -29.408  1.00  0.00     0.067 A 
ATOM     42  C   UNL     1     -17.943  10.776 -28.137  1.00  0.00     0.066 A 
ATOM     43  C   UNL     1     -17.755  10.472 -30.530  1.00  0.00     0.066 A 
ATOM     44  C   UNL     1     -16.572  10.522 -27.991  1.00  0.00     0.162 A 
ATOM     45  C   UNL     1     -16.387  10.219 -30.395  1.00  0.00     0.162 A 
ATOM     46  C   UNL     1     -15.788  10.249 -29.125  1.00  0.00     0.200 A 
BRANCH  44  47
ATOM     47  O   UNL     1     -15.983  10.541 -26.723  1.00  0.00    -0.504 OA
ATOM     48  H   UNL     1     -15.514  11.366 -26.363  1.00  0.00     0.293 HD
ENDBRANCH  44  47
BRANCH  45  49
ATOM     49  O   UNL     1     -15.635   9.935 -31.536  1.00  0.00    -0.504 OA
ATOM     50  H   UNL     1     -14.781  10.431 -31.752  1.00  0.00     0.293 HD
ENDBRANCH  45  49
BRANCH  46  51
ATOM     51  O   UNL     1     -14.421  10.002 -29.005  1.00  0.00    -0.502 OA
ATOM     52  H   UNL     1     -14.004   9.111 -29.254  1.00  0.00     0.293 HD
ENDBRANCH  46  51
ENDBRANCH  39  41
ENDBRANCH  38  39
ENDBRANCH   3  38
BRANCH   5  53
ATOM     53  O   UNL     1     -22.273  15.147 -31.726  1.00  0.00    -0.428 OA
BRANCH  53  54
ATOM     54  C   UNL     1     -23.123  16.090 -32.319  1.00  0.00     0.340 C 
ATOM     55  O   UNL     1     -24.036  15.714 -33.105  1.00  0.00    -0.246 OA
BRANCH  54  56
ATOM     56  C   UNL     1     -22.922  17.529 -32.039  1.00  0.00     0.067 A 
ATOM     57  C   UNL     1     -22.457  17.944 -30.780  1.00  0.00     0.066 A 
ATOM     58  C   UNL     1     -23.181  18.492 -33.028  1.00  0.00     0.066 A 
ATOM     59  C   UNL     1     -22.262  19.305 -30.507  1.00  0.00     0.162 A 
ATOM     60  C   UNL     1     -22.980  19.854 -32.763  1.00  0.00     0.162 A 
ATOM     61  C   UNL     1     -22.527  20.265 -31.500  1.00  0.00     0.200 A 
BRANCH  59  62
ATOM     62  O   UNL     1     -21.805  19.710 -29.255  1.00  0.00    -0.504 OA
ATOM     63  H   UNL     1     -20.966  20.267 -29.150  1.00  0.00     0.293 HD
ENDBRANCH  59  62
BRANCH  60  64
ATOM     64  O   UNL     1     -23.248  20.792 -33.760  1.00  0.00    -0.504 OA
ATOM     65  H   UNL     1     -22.956  21.759 -33.677  1.00  0.00     0.293 HD
ENDBRANCH  60  64
BRANCH  61  66
ATOM     66  O   UNL     1     -22.343  21.626 -31.247  1.00  0.00    -0.502 OA
ATOM     67  H   UNL     1     -21.533  22.134 -31.600  1.00  0.00     0.293 HD
ENDBRANCH  61  66
ENDBRANCH  54  56
ENDBRANCH  53  54
ENDBRANCH   5  53
BRANCH   4  68
ATOM     68  O   UNL     1     -20.014  13.511 -31.590  1.00  0.00    -0.448 OA
BRANCH  68  69
ATOM     69  C   UNL     1     -18.957  13.744 -30.698  1.00  0.00     0.339 C 
ATOM     70  O   UNL     1     -19.197  13.984 -29.484  1.00  0.00    -0.246 OA
BRANCH  69  71
ATOM     71  C   UNL     1     -17.559  13.668 -31.171  1.00  0.00     0.067 A 
ATOM     72  C   UNL     1     -17.274  13.450 -32.531  1.00  0.00     0.066 A 
ATOM     73  C   UNL     1     -16.495  13.816 -30.267  1.00  0.00     0.066 A 
ATOM     74  C   UNL     1     -15.948  13.415 -32.985  1.00  0.00     0.162 A 
ATOM     75  C   UNL     1     -15.164  13.768 -30.704  1.00  0.00     0.162 A 
ATOM     76  C   UNL     1     -14.888  13.585 -32.082  1.00  0.00     0.200 A 
BRANCH  74  77
ATOM     77  O   UNL     1     -15.672  13.226 -34.339  1.00  0.00    -0.504 OA
ATOM     78  H   UNL     1     -14.814  13.557 -34.753  1.00  0.00     0.293 HD
ENDBRANCH  74  77
BRANCH  75  79
ATOM     79  O   UNL     1     -14.161  13.895 -29.739  1.00  0.00    -0.504 OA
ATOM     80  H   UNL     1     -13.187  14.041 -29.952  1.00  0.00     0.293 HD
ENDBRANCH  75  79
BRANCH  76  81
ATOM     81  O   UNL     1     -13.586  13.577 -32.587  1.00  0.00    -0.502 OA
ATOM     82  H   UNL     1     -12.808  13.158 -32.108  1.00  0.00     0.293 HD
ENDBRANCH  76  81
ENDBRANCH  69  71
ENDBRANCH  68  69
ENDBRANCH   4  68
TORSDOF 31
ENDMDL
MODEL 7
REMARK VINA RESULT:     4.868      0.276      2.067
REMARK INTER + INTRA:          11.402
REMARK INTER:                  11.525
REMARK INTRA:                  -0.123
REMARK UNBOUND:                -0.155
REMARK SMILES O=C(OC[C@@H]1O[C@@H](OC(=O)c2cc(O)c(O)c(O)c2)[C@@H](OC(=O)c2cc(O)c(O)c(O)c2)[C@H](OC(=O)c2cc(O)c(O)c(O)c2)[C@@H]1OC(=O)c1cc(O)c(O)c(O)c1)c1cc(O)c(O)c(O)c1
REMARK SMILES IDX 5 1 46 2 33 3 20 4 7 5 6 6 4 7 3 8 2 9 1 10 59 11 60 12
REMARK SMILES IDX 61 13 67 14 63 15 65 16 62 17 64 19 66 21 47 23 48 24 49 25
REMARK SMILES IDX 50 26 58 27 51 28 56 29 52 30 54 31 57 32 53 34 55 36 34 38
REMARK SMILES IDX 35 39 36 40 37 41 45 42 38 43 43 44 39 45 41 46 44 47 40 49
REMARK SMILES IDX 42 51 8 53 9 54 10 55 11 56 19 57 12 58 17 59 13 60 15 61
REMARK SMILES IDX 18 62 14 64 16 66 21 68 22 69 23 70 24 71 32 72 25 73 30 74
REMARK SMILES IDX 26 75 28 76 31 77 27 79 29 81
REMARK H PARENT 62 18 64 20 66 22 57 33 53 35 55 37 44 48 40 50 42 52 18 63
REMARK H PARENT 14 65 16 67 31 78 27 80 29 82
REMARK Flexibility Score: inf
ROOT
ATOM      1  C   UNL     1     -20.080  13.600 -31.046  1.00  0.00     0.205 C 
ATOM      2  C   UNL     1     -20.462  12.173 -30.597  1.00  0.00     0.254 C 
ATOM      3  C   UNL     1     -21.985  11.985 -30.753  1.00  0.00     0.267 C 
ATOM      4  C   UNL     1     -22.734  13.122 -30.036  1.00  0.00     0.290 C 
ATOM      5  C   UNL     1     -22.178  14.487 -30.480  1.00  0.00     0.357 C 
ATOM      6  O   UNL     1     -20.776  14.567 -30.273  1.00  0.00    -0.329 OA
ENDROOT
BRANCH   1   7
ATOM      7  C   UNL     1     -18.567  13.837 -30.908  1.00  0.00     0.269 C 
BRANCH   7   8
ATOM      8  O   UNL     1     -17.928  13.768 -32.181  1.00  0.00    -0.459 OA
BRANCH   8   9
ATOM      9  C   UNL     1     -16.823  12.956 -32.462  1.00  0.00     0.338 C 
ATOM     10  O   UNL     1     -16.991  11.768 -32.850  1.00  0.00    -0.246 OA
BRANCH   9  11
ATOM     11  C   UNL     1     -15.457  13.510 -32.336  1.00  0.00     0.067 A 
ATOM     12  C   UNL     1     -15.221  14.624 -31.519  1.00  0.00     0.066 A 
ATOM     13  C   UNL     1     -13.940  15.167 -31.404  1.00  0.00     0.162 A 
ATOM     14  C   UNL     1     -14.384  12.936 -33.033  1.00  0.00     0.066 A 
ATOM     15  C   UNL     1     -12.866  14.599 -32.112  1.00  0.00     0.200 A 
ATOM     16  C   UNL     1     -13.092  13.464 -32.929  1.00  0.00     0.162 A 
BRANCH  13  17
ATOM     17  O   UNL     1     -13.755  16.289 -30.592  1.00  0.00    -0.504 OA
ATOM     18  H   UNL     1     -13.973  17.227 -30.905  1.00  0.00     0.293 HD
ENDBRANCH  13  17
BRANCH  15  19
ATOM     19  O   UNL     1     -11.603  15.186 -31.986  1.00  0.00    -0.502 OA
ATOM     20  H   UNL     1     -10.914  14.903 -31.306  1.00  0.00     0.293 HD
ENDBRANCH  15  19
BRANCH  16  21
ATOM     21  O   UNL     1     -12.071  12.830 -33.643  1.00  0.00    -0.504 OA
ATOM     22  H   UNL     1     -12.218  12.268 -34.465  1.00  0.00     0.293 HD
ENDBRANCH  16  21
ENDBRANCH   9  11
ENDBRANCH   8   9
ENDBRANCH   7   8
ENDBRANCH   1   7
BRANCH   2  23
ATOM     23  O   UNL     1     -20.089  11.988 -29.231  1.00  0.00    -0.452 OA
BRANCH  23  24
ATOM     24  C   UNL     1     -19.511  10.814 -28.729  1.00  0.00     0.338 C 
ATOM     25  O   UNL     1     -20.241   9.875 -28.306  1.00  0.00    -0.246 OA
BRANCH  24  26
ATOM     26  C   UNL     1     -18.041  10.680 -28.701  1.00  0.00     0.067 A 
ATOM     27  C   UNL     1     -17.309  10.549 -29.895  1.00  0.00     0.066 A 
ATOM     28  C   UNL     1     -17.356  10.693 -27.477  1.00  0.00     0.066 A 
ATOM     29  C   UNL     1     -15.917  10.433 -29.867  1.00  0.00     0.162 A 
ATOM     30  C   UNL     1     -15.964  10.570 -27.439  1.00  0.00     0.162 A 
ATOM     31  C   UNL     1     -15.238  10.437 -28.636  1.00  0.00     0.200 A 
BRANCH  29  32
ATOM     32  O   UNL     1     -15.222  10.333 -31.073  1.00  0.00    -0.504 OA
ATOM     33  H   UNL     1     -15.034  11.144 -31.651  1.00  0.00     0.293 HD
ENDBRANCH  29  32
BRANCH  30  34
ATOM     34  O   UNL     1     -15.295  10.571 -26.214  1.00  0.00    -0.504 OA
ATOM     35  H   UNL     1     -15.088   9.705 -25.727  1.00  0.00     0.293 HD
ENDBRANCH  30  34
BRANCH  31  36
ATOM     36  O   UNL     1     -13.848  10.319 -28.616  1.00  0.00    -0.502 OA
ATOM     37  H   UNL     1     -13.236  11.129 -28.594  1.00  0.00     0.293 HD
ENDBRANCH  31  36
ENDBRANCH  24  26
ENDBRANCH  23  24
ENDBRANCH   2  23
BRANCH   3  38
ATOM     38  O   UNL     1     -22.400  10.735 -30.202  1.00  0.00    -0.450 OA
BRANCH  38  39
ATOM     39  C   UNL     1     -23.177  10.597 -29.047  1.00  0.00     0.338 C 
ATOM     40  O   UNL     1     -22.628  10.597 -27.911  1.00  0.00    -0.246 OA
BRANCH  39  41
ATOM     41  C   UNL     1     -24.646  10.443 -29.168  1.00  0.00     0.067 A 
ATOM     42  C   UNL     1     -25.477  10.471 -28.035  1.00  0.00     0.066 A 
ATOM     43  C   UNL     1     -25.227  10.257 -30.431  1.00  0.00     0.066 A 
ATOM     44  C   UNL     1     -26.861  10.283 -28.156  1.00  0.00     0.162 A 
ATOM     45  C   UNL     1     -26.605  10.066 -30.563  1.00  0.00     0.162 A 
ATOM     46  C   UNL     1     -27.428  10.073 -29.425  1.00  0.00     0.200 A 
BRANCH  44  47
ATOM     47  O   UNL     1     -27.677  10.302 -27.021  1.00  0.00    -0.504 OA
ATOM     48  H   UNL     1     -27.436  10.843 -26.197  1.00  0.00     0.293 HD
ENDBRANCH  44  47
BRANCH  45  49
ATOM     49  O   UNL     1     -27.145   9.876 -31.836  1.00  0.00    -0.504 OA
ATOM     50  H   UNL     1     -27.793  10.534 -32.247  1.00  0.00     0.293 HD
ENDBRANCH  45  49
BRANCH  46  51
ATOM     51  O   UNL     1     -28.801   9.875 -29.569  1.00  0.00    -0.502 OA
ATOM     52  H   UNL     1     -29.466  10.114 -28.841  1.00  0.00     0.293 HD
ENDBRANCH  46  51
ENDBRANCH  39  41
ENDBRANCH  38  39
ENDBRANCH   3  38
BRANCH   5  53
ATOM     53  O   UNL     1     -22.502  14.748 -31.847  1.00  0.00    -0.428 OA
BRANCH  53  54
ATOM     54  C   UNL     1     -23.573  15.558 -32.245  1.00  0.00     0.340 C 
ATOM     55  O   UNL     1     -24.696  15.043 -32.499  1.00  0.00    -0.246 OA
BRANCH  54  56
ATOM     56  C   UNL     1     -23.368  17.016 -32.392  1.00  0.00     0.067 A 
ATOM     57  C   UNL     1     -23.744  17.664 -33.580  1.00  0.00     0.066 A 
ATOM     58  C   UNL     1     -22.810  17.768 -31.346  1.00  0.00     0.066 A 
ATOM     59  C   UNL     1     -23.556  19.046 -33.727  1.00  0.00     0.162 A 
ATOM     60  C   UNL     1     -22.627  19.151 -31.484  1.00  0.00     0.162 A 
ATOM     61  C   UNL     1     -22.992  19.792 -32.678  1.00  0.00     0.200 A 
BRANCH  59  62
ATOM     62  O   UNL     1     -23.926  19.681 -34.910  1.00  0.00    -0.504 OA
ATOM     63  H   UNL     1     -24.845  20.092 -35.028  1.00  0.00     0.293 HD
ENDBRANCH  59  62
BRANCH  60  64
ATOM     64  O   UNL     1     -22.066  19.876 -30.433  1.00  0.00    -0.504 OA
ATOM     65  H   UNL     1     -21.683  20.805 -30.567  1.00  0.00     0.293 HD
ENDBRANCH  60  64
BRANCH  61  66
ATOM     66  O   UNL     1     -22.792  21.169 -32.805  1.00  0.00    -0.502 OA
ATOM     67  H   UNL     1     -21.900  21.557 -33.111  1.00  0.00     0.293 HD
ENDBRANCH  61  66
ENDBRANCH  54  56
ENDBRANCH  53  54
ENDBRANCH   5  53
BRANCH   4  68
ATOM     68  O   UNL     1     -24.133  13.060 -30.334  1.00  0.00    -0.448 OA
BRANCH  68  69
ATOM     69  C   UNL     1     -25.111  13.758 -29.611  1.00  0.00     0.339 C 
ATOM     70  O   UNL     1     -24.866  14.159 -28.441  1.00  0.00    -0.246 OA
BRANCH  69  71
ATOM     71  C   UNL     1     -26.418  14.059 -30.233  1.00  0.00     0.067 A 
ATOM     72  C   UNL     1     -26.600  15.238 -30.979  1.00  0.00     0.066 A 
ATOM     73  C   UNL     1     -27.494  13.169 -30.090  1.00  0.00     0.066 A 
ATOM     74  C   UNL     1     -27.829  15.505 -31.600  1.00  0.00     0.162 A 
ATOM     75  C   UNL     1     -28.732  13.431 -30.692  1.00  0.00     0.162 A 
ATOM     76  C   UNL     1     -28.895  14.603 -31.472  1.00  0.00     0.200 A 
BRANCH  74  77
ATOM     77  O   UNL     1     -27.996  16.662 -32.361  1.00  0.00    -0.504 OA
ATOM     78  H   UNL     1     -28.913  16.993 -32.620  1.00  0.00     0.293 HD
ENDBRANCH  74  77
BRANCH  75  79
ATOM     79  O   UNL     1     -29.763  12.511 -30.479  1.00  0.00    -0.504 OA
ATOM     80  H   UNL     1     -30.574  12.425 -31.070  1.00  0.00     0.293 HD
ENDBRANCH  75  79
BRANCH  76  81
ATOM     81  O   UNL     1     -30.088  14.895 -32.138  1.00  0.00    -0.502 OA
ATOM     82  H   UNL     1     -30.904  14.309 -32.097  1.00  0.00     0.293 HD
ENDBRANCH  76  81
ENDBRANCH  69  71
ENDBRANCH  68  69
ENDBRANCH   4  68
TORSDOF 31
ENDMDL
