MODEL 1
REMARK VINA RESULT:    -4.368      0.000      0.000
REMARK INTER + INTRA:          -4.368
REMARK INTER:                  -4.368
REMARK INTRA:                   0.000
REMARK UNBOUND:                 0.000
REMARK SMILES C=C1[C@@H]2CC[C@@H](C2)C1(C)C
REMARK SMILES IDX 9 1 8 2 6 3 5 4 4 5 3 6 7 7 2 8 1 9 10 10
REMARK H PARENT
REMARK Flexibility Score: inf
ROOT
ATOM      1  C   UNL     1      31.010  25.365  10.407  1.00  0.00     0.016 C 
ATOM      2  C   UNL     1      30.175  26.196  11.406  1.00  0.00    -0.012 C 
ATOM      3  C   UNL     1      29.403  27.352  10.679  1.00  0.00    -0.001 C 
ATOM      4  C   UNL     1      28.421  28.061  11.643  1.00  0.00     0.005 C 
ATOM      5  C   UNL     1      29.366  28.777  12.632  1.00  0.00     0.008 C 
ATOM      6  C   UNL     1      30.760  28.481  12.051  1.00  0.00     0.015 C 
ATOM      7  C   UNL     1      30.465  28.440  10.568  1.00  0.00     0.012 C 
ATOM      8  C   UNL     1      31.058  27.028  12.306  1.00  0.00    -0.068 C 
ATOM      9  C   UNL     1      31.919  26.566  13.221  1.00  0.00     0.008 C 
ATOM     10  C   UNL     1      29.262  25.245  12.213  1.00  0.00     0.016 C 
ENDROOT
TORSDOF 0
ENDMDL
MODEL 2
REMARK VINA RESULT:    -4.113      2.456      4.665
REMARK INTER + INTRA:          -4.113
REMARK INTER:                  -4.113
REMARK INTRA:                   0.000
REMARK UNBOUND:                 0.000
REMARK SMILES C=C1[C@@H]2CC[C@@H](C2)C1(C)C
REMARK SMILES IDX 9 1 8 2 6 3 5 4 4 5 3 6 7 7 2 8 1 9 10 10
REMARK H PARENT
REMARK Flexibility Score: inf
ROOT
ATOM      1  C   UNL     1      29.878  24.115  10.403  1.00  0.00     0.016 C 
ATOM      2  C   UNL     1      30.265  24.346  11.880  1.00  0.00    -0.012 C 
ATOM      3  C   UNL     1      31.548  23.531  12.266  1.00  0.00    -0.001 C 
ATOM      4  C   UNL     1      32.046  23.910  13.682  1.00  0.00     0.005 C 
ATOM      5  C   UNL     1      30.933  23.355  14.598  1.00  0.00     0.008 C 
ATOM      6  C   UNL     1      29.999  22.637  13.608  1.00  0.00     0.015 C 
ATOM      7  C   UNL     1      30.982  22.147  12.568  1.00  0.00     0.012 C 
ATOM      8  C   UNL     1      29.277  23.696  12.819  1.00  0.00    -0.068 C 
ATOM      9  C   UNL     1      27.991  24.031  12.975  1.00  0.00     0.008 C 
ATOM     10  C   UNL     1      30.388  25.866  12.136  1.00  0.00     0.016 C 
ENDROOT
TORSDOF 0
ENDMDL
MODEL 3
REMARK VINA RESULT:    -3.987      1.516      3.630
REMARK INTER + INTRA:          -3.987
REMARK INTER:                  -3.987
REMARK INTRA:                   0.000
REMARK UNBOUND:                 0.000
REMARK SMILES C=C1[C@@H]2CC[C@@H](C2)C1(C)C
REMARK SMILES IDX 9 1 8 2 6 3 5 4 4 5 3 6 7 7 2 8 1 9 10 10
REMARK H PARENT
REMARK Flexibility Score: inf
ROOT
ATOM      1  C   UNL     1      31.127  25.700  10.400  1.00  0.00     0.016 C 
ATOM      2  C   UNL     1      30.442  25.286  11.720  1.00  0.00    -0.012 C 
ATOM      3  C   UNL     1      30.006  23.779  11.688  1.00  0.00    -0.001 C 
ATOM      4  C   UNL     1      29.497  23.315  13.074  1.00  0.00     0.005 C 
ATOM      5  C   UNL     1      28.180  24.105  13.238  1.00  0.00     0.008 C 
ATOM      6  C   UNL     1      28.045  24.834  11.890  1.00  0.00     0.015 C 
ATOM      7  C   UNL     1      28.676  23.836  10.945  1.00  0.00     0.012 C 
ATOM      8  C   UNL     1      29.081  25.925  11.860  1.00  0.00    -0.068 C 
ATOM      9  C   UNL     1      28.827  27.233  11.995  1.00  0.00     0.008 C 
ATOM     10  C   UNL     1      31.371  25.644  12.903  1.00  0.00     0.016 C 
ENDROOT
TORSDOF 0
ENDMDL
MODEL 4
REMARK VINA RESULT:    -3.937      2.492      4.201
REMARK INTER + INTRA:          -3.937
REMARK INTER:                  -3.937
REMARK INTRA:                   0.000
REMARK UNBOUND:                 0.000
REMARK SMILES C=C1[C@@H]2CC[C@@H](C2)C1(C)C
REMARK SMILES IDX 9 1 8 2 6 3 5 4 4 5 3 6 7 7 2 8 1 9 10 10
REMARK H PARENT
REMARK Flexibility Score: inf
ROOT
ATOM      1  C   UNL     1      31.454  23.605  14.488  1.00  0.00     0.016 C 
ATOM      2  C   UNL     1      30.833  23.309  13.106  1.00  0.00    -0.012 C 
ATOM      3  C   UNL     1      31.527  24.151  11.978  1.00  0.00    -0.001 C 
ATOM      4  C   UNL     1      31.039  23.715  10.575  1.00  0.00     0.005 C 
ATOM      5  C   UNL     1      29.565  24.177  10.565  1.00  0.00     0.008 C 
ATOM      6  C   UNL     1      29.425  24.911  11.910  1.00  0.00     0.015 C 
ATOM      7  C   UNL     1      30.811  25.493  12.080  1.00  0.00     0.012 C 
ATOM      8  C   UNL     1      29.435  23.870  12.997  1.00  0.00    -0.068 C 
ATOM      9  C   UNL     1      28.364  23.479  13.698  1.00  0.00     0.008 C 
ATOM     10  C   UNL     1      30.862  21.784  12.857  1.00  0.00     0.016 C 
ENDROOT
TORSDOF 0
ENDMDL
MODEL 5
REMARK VINA RESULT:    -3.917      2.307      4.080
REMARK INTER + INTRA:          -3.917
REMARK INTER:                  -3.917
REMARK INTRA:                   0.000
REMARK UNBOUND:                 0.000
REMARK SMILES C=C1[C@@H]2CC[C@@H](C2)C1(C)C
REMARK SMILES IDX 9 1 8 2 6 3 5 4 4 5 3 6 7 7 2 8 1 9 10 10
REMARK H PARENT
REMARK Flexibility Score: inf
ROOT
ATOM      1  C   UNL     1      29.498  22.616  13.409  1.00  0.00     0.016 C 
ATOM      2  C   UNL     1      30.583  23.525  12.793  1.00  0.00    -0.012 C 
ATOM      3  C   UNL     1      29.965  24.861  12.249  1.00  0.00    -0.001 C 
ATOM      4  C   UNL     1      31.071  25.850  11.808  1.00  0.00     0.005 C 
ATOM      5  C   UNL     1      31.676  25.158  10.567  1.00  0.00     0.008 C 
ATOM      6  C   UNL     1      30.776  23.923  10.388  1.00  0.00     0.015 C 
ATOM      7  C   UNL     1      29.444  24.448  10.876  1.00  0.00     0.012 C 
ATOM      8  C   UNL     1      31.107  22.958  11.494  1.00  0.00    -0.068 C 
ATOM      9  C   UNL     1      31.800  21.823  11.346  1.00  0.00     0.008 C 
ATOM     10  C   UNL     1      31.713  23.734  13.827  1.00  0.00     0.016 C 
ENDROOT
TORSDOF 0
ENDMDL
MODEL 6
REMARK VINA RESULT:    -3.884      3.467      4.998
REMARK INTER + INTRA:          -3.884
REMARK INTER:                  -3.884
REMARK INTRA:                   0.000
REMARK UNBOUND:                 0.000
REMARK SMILES C=C1[C@@H]2CC[C@@H](C2)C1(C)C
REMARK SMILES IDX 9 1 8 2 6 3 5 4 4 5 3 6 7 7 2 8 1 9 10 10
REMARK H PARENT
REMARK Flexibility Score: inf
ROOT
ATOM      1  C   UNL     1      32.121  24.691  11.301  1.00  0.00     0.016 C 
ATOM      2  C   UNL     1      30.996  23.724  11.729  1.00  0.00    -0.012 C 
ATOM      3  C   UNL     1      30.523  24.015  13.196  1.00  0.00    -0.001 C 
ATOM      4  C   UNL     1      29.271  23.179  13.556  1.00  0.00     0.005 C 
ATOM      5  C   UNL     1      29.820  21.736  13.595  1.00  0.00     0.008 C 
ATOM      6  C   UNL     1      31.328  21.936  13.363  1.00  0.00     0.015 C 
ATOM      7  C   UNL     1      31.560  23.273  14.031  1.00  0.00     0.012 C 
ATOM      8  C   UNL     1      31.517  22.319  11.920  1.00  0.00    -0.068 C 
ATOM      9  C   UNL     1      32.011  21.519  10.968  1.00  0.00     0.008 C 
ATOM     10  C   UNL     1      29.860  23.779  10.682  1.00  0.00     0.016 C 
ENDROOT
TORSDOF 0
ENDMDL
MODEL 7
REMARK VINA RESULT:    -3.771      0.923      2.426
REMARK INTER + INTRA:          -3.771
REMARK INTER:                  -3.771
REMARK INTRA:                   0.000
REMARK UNBOUND:                 0.000
REMARK SMILES C=C1[C@@H]2CC[C@@H](C2)C1(C)C
REMARK SMILES IDX 9 1 8 2 6 3 5 4 4 5 3 6 7 7 2 8 1 9 10 10
REMARK H PARENT
REMARK Flexibility Score: inf
ROOT
ATOM      1  C   UNL     1      31.385  25.060  12.949  1.00  0.00     0.016 C 
ATOM      2  C   UNL     1      30.706  25.760  11.752  1.00  0.00    -0.012 C 
ATOM      3  C   UNL     1      31.164  27.256  11.633  1.00  0.00    -0.001 C 
ATOM      4  C   UNL     1      30.637  27.900  10.328  1.00  0.00     0.005 C 
ATOM      5  C   UNL     1      29.113  27.971  10.571  1.00  0.00     0.008 C 
ATOM      6  C   UNL     1      28.972  27.464  12.017  1.00  0.00     0.015 C 
ATOM      7  C   UNL     1      30.259  27.961  12.637  1.00  0.00     0.012 C 
ATOM      8  C   UNL     1      29.233  25.982  12.004  1.00  0.00    -0.068 C 
ATOM      9  C   UNL     1      28.298  25.033  12.138  1.00  0.00     0.008 C 
ATOM     10  C   UNL     1      30.952  24.926  10.474  1.00  0.00     0.016 C 
ENDROOT
TORSDOF 0
ENDMDL
MODEL 8
REMARK VINA RESULT:    -3.762      2.514      4.565
REMARK INTER + INTRA:          -3.762
REMARK INTER:                  -3.762
REMARK INTRA:                   0.000
REMARK UNBOUND:                 0.000
REMARK SMILES C=C1[C@@H]2CC[C@@H](C2)C1(C)C
REMARK SMILES IDX 9 1 8 2 6 3 5 4 4 5 3 6 7 7 2 8 1 9 10 10
REMARK H PARENT
REMARK Flexibility Score: inf
ROOT
ATOM      1  C   UNL     1      29.151  25.192  11.788  1.00  0.00     0.016 C 
ATOM      2  C   UNL     1      30.378  24.273  11.973  1.00  0.00    -0.012 C 
ATOM      3  C   UNL     1      29.965  22.887  12.581  1.00  0.00    -0.001 C 
ATOM      4  C   UNL     1      31.158  21.901  12.586  1.00  0.00     0.005 C 
ATOM      5  C   UNL     1      32.113  22.523  13.629  1.00  0.00     0.008 C 
ATOM      6  C   UNL     1      31.305  23.717  14.166  1.00  0.00     0.015 C 
ATOM      7  C   UNL     1      29.891  23.190  14.073  1.00  0.00     0.012 C 
ATOM      8  C   UNL     1      31.274  24.764  13.085  1.00  0.00    -0.068 C 
ATOM      9  C   UNL     1      31.973  25.906  13.097  1.00  0.00     0.008 C 
ATOM     10  C   UNL     1      31.134  24.167  10.629  1.00  0.00     0.016 C 
ENDROOT
TORSDOF 0
ENDMDL
MODEL 9
REMARK VINA RESULT:    -3.708      1.451      3.590
REMARK INTER + INTRA:          -3.708
REMARK INTER:                  -3.708
REMARK INTRA:                   0.000
REMARK UNBOUND:                 0.000
REMARK SMILES C=C1[C@@H]2CC[C@@H](C2)C1(C)C
REMARK SMILES IDX 9 1 8 2 6 3 5 4 4 5 3 6 7 7 2 8 1 9 10 10
REMARK H PARENT
REMARK Flexibility Score: inf
ROOT
ATOM      1  C   UNL     1      29.381  27.210  11.913  1.00  0.00     0.016 C 
ATOM      2  C   UNL     1      30.368  26.103  11.483  1.00  0.00    -0.012 C 
ATOM      3  C   UNL     1      29.617  24.762  11.168  1.00  0.00    -0.001 C 
ATOM      4  C   UNL     1      30.577  23.714  10.555  1.00  0.00     0.005 C 
ATOM      5  C   UNL     1      31.515  23.376  11.734  1.00  0.00     0.008 C 
ATOM      6  C   UNL     1      30.912  24.184  12.897  1.00  0.00     0.015 C 
ATOM      7  C   UNL     1      29.439  24.150  12.553  1.00  0.00     0.012 C 
ATOM      8  C   UNL     1      31.215  25.636  12.643  1.00  0.00    -0.068 C 
ATOM      9  C   UNL     1      32.125  26.360  13.305  1.00  0.00     0.008 C 
ATOM     10  C   UNL     1      31.233  26.626  10.313  1.00  0.00     0.016 C 
ENDROOT
TORSDOF 0
ENDMDL
