MODEL 1
REMARK VINA RESULT:    -3.793      0.000      0.000
REMARK INTER + INTRA:          -9.128
REMARK INTER:                  -6.898
REMARK INTRA:                  -2.231
REMARK UNBOUND:                -2.231
REMARK SMILES CCCCCCCCCCCCCCCC(=O)[O-]
REMARK SMILES IDX 9 1 10 2 11 3 12 4 13 5 14 6 15 7 16 8 17 9 18 10 8 11 7 12
REMARK SMILES IDX 6 13 5 14 4 15 3 16 2 17 1 18
REMARK H PARENT
REMARK Flexibility Score: inf
ROOT
ATOM      1  C   UNL     1     188.547 187.165 167.153  1.00  0.00     0.000 C 
ENDROOT
BRANCH   1   2
ATOM      2  C   UNL     1     188.695 185.683 167.541  1.00  0.00     0.000 C 
BRANCH   2   3
ATOM      3  C   UNL     1     187.509 185.159 168.361  1.00  0.00     0.000 C 
BRANCH   3   4
ATOM      4  C   UNL     1     186.247 185.989 168.097  1.00  0.00     0.000 C 
BRANCH   4   5
ATOM      5  C   UNL     1     185.575 186.402 169.415  1.00  0.00     0.000 C 
BRANCH   5   6
ATOM      6  C   UNL     1     184.948 187.803 169.346  1.00  0.00     0.006 C 
BRANCH   6   7
ATOM      7  C   UNL     1     183.571 187.800 168.669  1.00  0.00     0.053 C 
BRANCH   7   8
ATOM      8  C   UNL     1     182.543 188.401 169.574  1.00  0.00     0.041 C 
ATOM      9  O   UNL     1     182.191 189.601 169.426  1.00  0.00    -0.550 OA
ATOM     10  O   UNL     1     181.947 187.626 170.560  1.00  0.00    -0.550 OA
ENDBRANCH   7   8
ENDBRANCH   6   7
ENDBRANCH   5   6
ENDBRANCH   4   5
ENDBRANCH   3   4
ENDBRANCH   2   3
ENDBRANCH   1   2
BRANCH   1  11
ATOM     11  C   UNL     1     189.362 188.120 168.052  1.00  0.00     0.000 C 
BRANCH  11  12
ATOM     12  C   UNL     1     188.465 188.897 169.029  1.00  0.00    -0.000 C 
BRANCH  12  13
ATOM     13  C   UNL     1     188.495 188.317 170.452  1.00  0.00    -0.000 C 
BRANCH  13  14
ATOM     14  C   UNL     1     189.784 187.523 170.760  1.00  0.00    -0.000 C 
BRANCH  14  15
ATOM     15  C   UNL     1     189.481 186.095 171.248  1.00  0.00    -0.000 C 
BRANCH  15  16
ATOM     16  C   UNL     1     188.177 186.010 172.057  1.00  0.00    -0.000 C 
BRANCH  16  17
ATOM     17  C   UNL     1     188.390 185.426 173.461  1.00  0.00    -0.003 C 
ATOM     18  C   UNL     1     189.413 184.294 173.434  1.00  0.00     0.004 C 
ENDBRANCH  16  17
ENDBRANCH  15  16
ENDBRANCH  14  15
ENDBRANCH  13  14
ENDBRANCH  12  13
ENDBRANCH  11  12
ENDBRANCH   1  11
TORSDOF 14
ENDMDL
MODEL 2
REMARK VINA RESULT:    -3.751      3.968      6.421
REMARK INTER + INTRA:          -9.051
REMARK INTER:                  -6.801
REMARK INTRA:                  -2.250
REMARK UNBOUND:                -2.231
REMARK SMILES CCCCCCCCCCCCCCCC(=O)[O-]
REMARK SMILES IDX 9 1 10 2 11 3 12 4 13 5 14 6 15 7 16 8 17 9 18 10 8 11 7 12
REMARK SMILES IDX 6 13 5 14 4 15 3 16 2 17 1 18
REMARK H PARENT
REMARK Flexibility Score: inf
ROOT
ATOM      1  C   UNL     1     189.633 188.545 169.736  1.00  0.00     0.000 C 
ENDROOT
BRANCH   1   2
ATOM      2  C   UNL     1     190.208 187.184 169.308  1.00  0.00     0.000 C 
BRANCH   2   3
ATOM      3  C   UNL     1     190.115 186.122 170.412  1.00  0.00     0.000 C 
BRANCH   3   4
ATOM      4  C   UNL     1     189.701 186.751 171.747  1.00  0.00     0.000 C 
BRANCH   4   5
ATOM      5  C   UNL     1     188.499 186.010 172.352  1.00  0.00     0.000 C 
BRANCH   5   6
ATOM      6  C   UNL     1     188.911 185.002 173.438  1.00  0.00     0.006 C 
BRANCH   6   7
ATOM      7  C   UNL     1     190.241 185.371 174.110  1.00  0.00     0.053 C 
BRANCH   7   8
ATOM      8  C   UNL     1     191.212 184.237 174.000  1.00  0.00     0.041 C 
ATOM      9  O   UNL     1     191.497 183.547 175.015  1.00  0.00    -0.550 OA
ATOM     10  O   UNL     1     191.775 183.920 172.772  1.00  0.00    -0.550 OA
ENDBRANCH   7   8
ENDBRANCH   6   7
ENDBRANCH   5   6
ENDBRANCH   4   5
ENDBRANCH   3   4
ENDBRANCH   2   3
ENDBRANCH   1   2
BRANCH   1  11
ATOM     11  C   UNL     1     188.285 188.883 169.064  1.00  0.00     0.000 C 
BRANCH  11  12
ATOM     12  C   UNL     1     187.123 188.891 170.070  1.00  0.00    -0.000 C 
BRANCH  12  13
ATOM     13  C   UNL     1     185.945 188.011 169.626  1.00  0.00    -0.000 C 
BRANCH  13  14
ATOM     14  C   UNL     1     186.150 186.513 169.942  1.00  0.00    -0.000 C 
BRANCH  14  15
ATOM     15  C   UNL     1     185.987 185.630 168.691  1.00  0.00    -0.000 C 
BRANCH  15  16
ATOM     16  C   UNL     1     187.292 184.922 168.294  1.00  0.00    -0.000 C 
BRANCH  16  17
ATOM     17  C   UNL     1     187.943 185.540 167.048  1.00  0.00    -0.003 C 
ATOM     18  C   UNL     1     186.891 186.135 166.117  1.00  0.00     0.004 C 
ENDBRANCH  16  17
ENDBRANCH  15  16
ENDBRANCH  14  15
ENDBRANCH  13  14
ENDBRANCH  12  13
ENDBRANCH  11  12
ENDBRANCH   1  11
TORSDOF 14
ENDMDL
MODEL 3
REMARK VINA RESULT:    -3.660      4.018      6.316
REMARK INTER + INTRA:          -8.886
REMARK INTER:                  -6.339
REMARK INTRA:                  -2.547
REMARK UNBOUND:                -2.231
REMARK SMILES CCCCCCCCCCCCCCCC(=O)[O-]
REMARK SMILES IDX 9 1 10 2 11 3 12 4 13 5 14 6 15 7 16 8 17 9 18 10 8 11 7 12
REMARK SMILES IDX 6 13 5 14 4 15 3 16 2 17 1 18
REMARK H PARENT
REMARK Flexibility Score: inf
ROOT
ATOM      1  C   UNL     1     190.047 187.813 170.528  1.00  0.00     0.000 C 
ENDROOT
BRANCH   1   2
ATOM      2  C   UNL     1     190.228 186.328 170.171  1.00  0.00     0.000 C 
BRANCH   2   3
ATOM      3  C   UNL     1     189.213 185.416 170.873  1.00  0.00     0.000 C 
BRANCH   3   4
ATOM      4  C   UNL     1     188.606 186.110 172.098  1.00  0.00     0.000 C 
BRANCH   4   5
ATOM      5  C   UNL     1     188.692 185.209 173.339  1.00  0.00     0.000 C 
BRANCH   5   6
ATOM      6  C   UNL     1     190.128 185.071 173.871  1.00  0.00     0.006 C 
BRANCH   6   7
ATOM      7  C   UNL     1     190.835 186.426 174.014  1.00  0.00     0.053 C 
BRANCH   7   8
ATOM      8  C   UNL     1     192.205 186.365 173.414  1.00  0.00     0.041 C 
ATOM      9  O   UNL     1     192.687 187.373 172.832  1.00  0.00    -0.550 OA
ATOM     10  O   UNL     1     192.963 185.208 173.529  1.00  0.00    -0.550 OA
ENDBRANCH   7   8
ENDBRANCH   6   7
ENDBRANCH   5   6
ENDBRANCH   4   5
ENDBRANCH   3   4
ENDBRANCH   2   3
ENDBRANCH   1   2
BRANCH   1  11
ATOM     11  C   UNL     1     189.921 188.731 169.293  1.00  0.00     0.000 C 
BRANCH  11  12
ATOM     12  C   UNL     1     188.456 188.950 168.883  1.00  0.00    -0.000 C 
BRANCH  12  13
ATOM     13  C   UNL     1     187.520 189.120 170.091  1.00  0.00    -0.000 C 
BRANCH  13  14
ATOM     14  C   UNL     1     186.386 188.072 170.135  1.00  0.00    -0.000 C 
BRANCH  14  15
ATOM     15  C   UNL     1     186.239 187.322 168.798  1.00  0.00    -0.000 C 
BRANCH  15  16
ATOM     16  C   UNL     1     186.033 185.811 168.988  1.00  0.00    -0.000 C 
BRANCH  16  17
ATOM     17  C   UNL     1     186.658 184.984 167.856  1.00  0.00    -0.003 C 
ATOM     18  C   UNL     1     187.941 185.635 167.345  1.00  0.00     0.004 C 
ENDBRANCH  16  17
ENDBRANCH  15  16
ENDBRANCH  14  15
ENDBRANCH  13  14
ENDBRANCH  12  13
ENDBRANCH  11  12
ENDBRANCH   1  11
TORSDOF 14
ENDMDL
MODEL 4
REMARK VINA RESULT:    -3.656      3.112      5.690
REMARK INTER + INTRA:          -8.879
REMARK INTER:                  -6.535
REMARK INTRA:                  -2.344
REMARK UNBOUND:                -2.231
REMARK SMILES CCCCCCCCCCCCCCCC(=O)[O-]
REMARK SMILES IDX 9 1 10 2 11 3 12 4 13 5 14 6 15 7 16 8 17 9 18 10 8 11 7 12
REMARK SMILES IDX 6 13 5 14 4 15 3 16 2 17 1 18
REMARK H PARENT
REMARK Flexibility Score: inf
ROOT
ATOM      1  C   UNL     1     188.327 185.333 167.563  1.00  0.00     0.000 C 
ENDROOT
BRANCH   1   2
ATOM      2  C   UNL     1     189.672 185.110 168.275  1.00  0.00     0.000 C 
BRANCH   2   3
ATOM      3  C   UNL     1     189.510 184.591 169.710  1.00  0.00     0.000 C 
BRANCH   3   4
ATOM      4  C   UNL     1     190.869 184.229 170.321  1.00  0.00     0.000 C 
BRANCH   4   5
ATOM      5  C   UNL     1     191.553 185.471 170.912  1.00  0.00     0.000 C 
BRANCH   5   6
ATOM      6  C   UNL     1     191.470 185.518 172.446  1.00  0.00     0.006 C 
BRANCH   6   7
ATOM      7  C   UNL     1     190.157 186.137 172.946  1.00  0.00     0.053 C 
BRANCH   7   8
ATOM      8  C   UNL     1     189.273 185.083 173.533  1.00  0.00     0.041 C 
ATOM      9  O   UNL     1     188.070 185.342 173.803  1.00  0.00    -0.550 OA
ATOM     10  O   UNL     1     189.766 183.803 173.748  1.00  0.00    -0.550 OA
ENDBRANCH   7   8
ENDBRANCH   6   7
ENDBRANCH   5   6
ENDBRANCH   4   5
ENDBRANCH   3   4
ENDBRANCH   2   3
ENDBRANCH   1   2
BRANCH   1  11
ATOM     11  C   UNL     1     187.127 184.708 168.307  1.00  0.00     0.000 C 
BRANCH  11  12
ATOM     12  C   UNL     1     186.028 185.742 168.599  1.00  0.00    -0.000 C 
BRANCH  12  13
ATOM     13  C   UNL     1     186.295 186.548 169.880  1.00  0.00    -0.000 C 
BRANCH  13  14
ATOM     14  C   UNL     1     185.980 188.052 169.732  1.00  0.00    -0.000 C 
BRANCH  14  15
ATOM     15  C   UNL     1     187.220 188.930 169.978  1.00  0.00    -0.000 C 
BRANCH  15  16
ATOM     16  C   UNL     1     188.436 188.117 170.449  1.00  0.00    -0.000 C 
BRANCH  16  17
ATOM     17  C   UNL     1     189.730 188.517 169.725  1.00  0.00    -0.003 C 
ATOM     18  C   UNL     1     189.461 188.835 168.257  1.00  0.00     0.004 C 
ENDBRANCH  16  17
ENDBRANCH  15  16
ENDBRANCH  14  15
ENDBRANCH  13  14
ENDBRANCH  12  13
ENDBRANCH  11  12
ENDBRANCH   1  11
TORSDOF 14
ENDMDL
MODEL 5
REMARK VINA RESULT:    -3.631      3.687      6.551
REMARK INTER + INTRA:          -8.834
REMARK INTER:                  -6.481
REMARK INTRA:                  -2.353
REMARK UNBOUND:                -2.231
REMARK SMILES CCCCCCCCCCCCCCCC(=O)[O-]
REMARK SMILES IDX 9 1 10 2 11 3 12 4 13 5 14 6 15 7 16 8 17 9 18 10 8 11 7 12
REMARK SMILES IDX 6 13 5 14 4 15 3 16 2 17 1 18
REMARK H PARENT
REMARK Flexibility Score: inf
ROOT
ATOM      1  C   UNL     1     186.736 188.450 170.066  1.00  0.00     0.000 C 
ENDROOT
BRANCH   1   2
ATOM      2  C   UNL     1     187.995 187.944 170.790  1.00  0.00     0.000 C 
BRANCH   2   3
ATOM      3  C   UNL     1     187.848 186.509 171.314  1.00  0.00     0.000 C 
BRANCH   3   4
ATOM      4  C   UNL     1     189.209 185.809 171.390  1.00  0.00     0.000 C 
BRANCH   4   5
ATOM      5  C   UNL     1     190.341 186.828 171.589  1.00  0.00     0.000 C 
BRANCH   5   6
ATOM      6  C   UNL     1     191.332 186.405 172.685  1.00  0.00     0.006 C 
BRANCH   6   7
ATOM      7  C   UNL     1     190.630 185.969 173.978  1.00  0.00     0.053 C 
BRANCH   7   8
ATOM      8  C   UNL     1     190.849 184.509 174.224  1.00  0.00     0.041 C 
ATOM      9  O   UNL     1     191.974 184.093 174.609  1.00  0.00    -0.550 OA
ATOM     10  O   UNL     1     189.802 183.613 174.063  1.00  0.00    -0.550 OA
ENDBRANCH   7   8
ENDBRANCH   6   7
ENDBRANCH   5   6
ENDBRANCH   4   5
ENDBRANCH   3   4
ENDBRANCH   2   3
ENDBRANCH   1   2
BRANCH   1  11
ATOM     11  C   UNL     1     185.522 187.506 170.211  1.00  0.00     0.000 C 
BRANCH  11  12
ATOM     12  C   UNL     1     184.865 187.198 168.856  1.00  0.00    -0.000 C 
BRANCH  12  13
ATOM     13  C   UNL     1     185.857 186.629 167.829  1.00  0.00    -0.000 C 
BRANCH  13  14
ATOM     14  C   UNL     1     186.333 185.200 168.168  1.00  0.00    -0.000 C 
BRANCH  14  15
ATOM     15  C   UNL     1     187.852 185.036 167.980  1.00  0.00    -0.000 C 
BRANCH  15  16
ATOM     16  C   UNL     1     188.466 186.152 167.121  1.00  0.00    -0.000 C 
BRANCH  16  17
ATOM     17  C   UNL     1     189.732 186.752 167.748  1.00  0.00    -0.003 C 
ATOM     18  C   UNL     1     189.727 188.275 167.646  1.00  0.00     0.004 C 
ENDBRANCH  16  17
ENDBRANCH  15  16
ENDBRANCH  14  15
ENDBRANCH  13  14
ENDBRANCH  12  13
ENDBRANCH  11  12
ENDBRANCH   1  11
TORSDOF 14
ENDMDL
MODEL 6
REMARK VINA RESULT:    -3.620      8.879     12.226
REMARK INTER + INTRA:          -8.814
REMARK INTER:                  -6.486
REMARK INTRA:                  -2.328
REMARK UNBOUND:                -2.231
REMARK SMILES CCCCCCCCCCCCCCCC(=O)[O-]
REMARK SMILES IDX 9 1 10 2 11 3 12 4 13 5 14 6 15 7 16 8 17 9 18 10 8 11 7 12
REMARK SMILES IDX 6 13 5 14 4 15 3 16 2 17 1 18
REMARK H PARENT
REMARK Flexibility Score: inf
ROOT
ATOM      1  C   UNL     1     182.630 194.453 174.809  1.00  0.00     0.000 C 
ENDROOT
BRANCH   1   2
ATOM      2  C   UNL     1     183.269 195.842 174.647  1.00  0.00     0.000 C 
BRANCH   2   3
ATOM      3  C   UNL     1     182.232 196.965 174.510  1.00  0.00     0.000 C 
BRANCH   3   4
ATOM      4  C   UNL     1     181.502 197.206 175.836  1.00  0.00     0.000 C 
BRANCH   4   5
ATOM      5  C   UNL     1     179.989 196.999 175.676  1.00  0.00     0.000 C 
BRANCH   5   6
ATOM      6  C   UNL     1     179.417 196.006 176.699  1.00  0.00     0.006 C 
BRANCH   6   7
ATOM      7  C   UNL     1     180.250 195.940 177.987  1.00  0.00     0.053 C 
BRANCH   7   8
ATOM      8  C   UNL     1     180.419 194.519 178.426  1.00  0.00     0.041 C 
ATOM      9  O   UNL     1     179.746 194.070 179.392  1.00  0.00    -0.550 OA
ATOM     10  O   UNL     1     181.292 193.681 177.747  1.00  0.00    -0.550 OA
ENDBRANCH   7   8
ENDBRANCH   6   7
ENDBRANCH   5   6
ENDBRANCH   4   5
ENDBRANCH   3   4
ENDBRANCH   2   3
ENDBRANCH   1   2
BRANCH   1  11
ATOM     11  C   UNL     1     181.758 194.033 173.605  1.00  0.00     0.000 C 
BRANCH  11  12
ATOM     12  C   UNL     1     180.367 193.547 174.042  1.00  0.00    -0.000 C 
BRANCH  12  13
ATOM     13  C   UNL     1     179.227 194.266 173.303  1.00  0.00    -0.000 C 
BRANCH  13  14
ATOM     14  C   UNL     1     179.725 195.347 172.318  1.00  0.00    -0.000 C 
BRANCH  14  15
ATOM     15  C   UNL     1     179.315 195.041 170.867  1.00  0.00    -0.000 C 
BRANCH  15  16
ATOM     16  C   UNL     1     179.426 193.548 170.522  1.00  0.00    -0.000 C 
BRANCH  16  17
ATOM     17  C   UNL     1     180.737 193.205 169.800  1.00  0.00    -0.003 C 
ATOM     18  C   UNL     1     181.442 192.029 170.470  1.00  0.00     0.004 C 
ENDBRANCH  16  17
ENDBRANCH  15  16
ENDBRANCH  14  15
ENDBRANCH  13  14
ENDBRANCH  12  13
ENDBRANCH  11  12
ENDBRANCH   1  11
TORSDOF 14
ENDMDL
MODEL 7
REMARK VINA RESULT:    -3.592      3.611      5.925
REMARK INTER + INTRA:          -8.763
REMARK INTER:                  -6.162
REMARK INTRA:                  -2.601
REMARK UNBOUND:                -2.231
REMARK SMILES CCCCCCCCCCCCCCCC(=O)[O-]
REMARK SMILES IDX 9 1 10 2 11 3 12 4 13 5 14 6 15 7 16 8 17 9 18 10 8 11 7 12
REMARK SMILES IDX 6 13 5 14 4 15 3 16 2 17 1 18
REMARK H PARENT
REMARK Flexibility Score: inf
ROOT
ATOM      1  C   UNL     1     185.546 186.706 168.619  1.00  0.00     0.000 C 
ENDROOT
BRANCH   1   2
ATOM      2  C   UNL     1     185.713 187.286 170.034  1.00  0.00     0.000 C 
BRANCH   2   3
ATOM      3  C   UNL     1     186.806 188.360 170.113  1.00  0.00     0.000 C 
BRANCH   3   4
ATOM      4  C   UNL     1     188.053 187.825 170.826  1.00  0.00     0.000 C 
BRANCH   4   5
ATOM      5  C   UNL     1     187.763 186.476 171.500  1.00  0.00     0.000 C 
BRANCH   5   6
ATOM      6  C   UNL     1     189.038 185.654 171.750  1.00  0.00     0.006 C 
BRANCH   6   7
ATOM      7  C   UNL     1     189.997 186.339 172.734  1.00  0.00     0.053 C 
BRANCH   7   8
ATOM      8  C   UNL     1     190.538 185.345 173.712  1.00  0.00     0.041 C 
ATOM      9  O   UNL     1     190.000 184.212 173.829  1.00  0.00    -0.550 OA
ATOM     10  O   UNL     1     191.659 185.655 174.470  1.00  0.00    -0.550 OA
ENDBRANCH   7   8
ENDBRANCH   6   7
ENDBRANCH   5   6
ENDBRANCH   4   5
ENDBRANCH   3   4
ENDBRANCH   2   3
ENDBRANCH   1   2
BRANCH   1  11
ATOM     11  C   UNL     1     186.041 185.249 168.489  1.00  0.00     0.000 C 
BRANCH  11  12
ATOM     12  C   UNL     1     187.484 185.174 167.965  1.00  0.00    -0.000 C 
BRANCH  12  13
ATOM     13  C   UNL     1     187.847 186.358 167.054  1.00  0.00    -0.000 C 
BRANCH  13  14
ATOM     14  C   UNL     1     189.188 187.027 167.430  1.00  0.00    -0.000 C 
BRANCH  14  15
ATOM     15  C   UNL     1     190.061 186.117 168.313  1.00  0.00    -0.000 C 
BRANCH  15  16
ATOM     16  C   UNL     1     191.235 186.870 168.958  1.00  0.00    -0.000 C 
BRANCH  16  17
ATOM     17  C   UNL     1     191.067 188.395 168.891  1.00  0.00    -0.003 C 
ATOM     18  C   UNL     1     191.434 189.046 170.221  1.00  0.00     0.004 C 
ENDBRANCH  16  17
ENDBRANCH  15  16
ENDBRANCH  14  15
ENDBRANCH  13  14
ENDBRANCH  12  13
ENDBRANCH  11  12
ENDBRANCH   1  11
TORSDOF 14
ENDMDL
MODEL 8
REMARK VINA RESULT:    -3.585      1.138      2.301
REMARK INTER + INTRA:          -8.750
REMARK INTER:                  -6.813
REMARK INTRA:                  -1.937
REMARK UNBOUND:                -2.231
REMARK SMILES CCCCCCCCCCCCCCCC(=O)[O-]
REMARK SMILES IDX 9 1 10 2 11 3 12 4 13 5 14 6 15 7 16 8 17 9 18 10 8 11 7 12
REMARK SMILES IDX 6 13 5 14 4 15 3 16 2 17 1 18
REMARK H PARENT
REMARK Flexibility Score: inf
ROOT
ATOM      1  C   UNL     1     187.397 185.167 168.096  1.00  0.00     0.000 C 
ENDROOT
BRANCH   1   2
ATOM      2  C   UNL     1     186.007 185.497 168.665  1.00  0.00     0.000 C 
BRANCH   2   3
ATOM      3  C   UNL     1     185.470 186.852 168.183  1.00  0.00     0.000 C 
BRANCH   3   4
ATOM      4  C   UNL     1     185.202 187.790 169.365  1.00  0.00     0.000 C 
BRANCH   4   5
ATOM      5  C   UNL     1     184.317 187.107 170.417  1.00  0.00     0.000 C 
BRANCH   5   6
ATOM      6  C   UNL     1     182.858 187.588 170.365  1.00  0.00     0.006 C 
BRANCH   6   7
ATOM      7  C   UNL     1     182.662 188.773 169.409  1.00  0.00     0.053 C 
BRANCH   7   8
ATOM      8  C   UNL     1     181.560 189.660 169.897  1.00  0.00     0.041 C 
ATOM      9  O   UNL     1     180.646 189.194 170.628  1.00  0.00    -0.550 OA
ATOM     10  O   UNL     1     181.562 191.011 169.576  1.00  0.00    -0.550 OA
ENDBRANCH   7   8
ENDBRANCH   6   7
ENDBRANCH   5   6
ENDBRANCH   4   5
ENDBRANCH   3   4
ENDBRANCH   2   3
ENDBRANCH   1   2
BRANCH   1  11
ATOM     11  C   UNL     1     187.801 186.058 166.901  1.00  0.00     0.000 C 
BRANCH  11  12
ATOM     12  C   UNL     1     189.150 186.757 167.132  1.00  0.00    -0.000 C 
BRANCH  12  13
ATOM     13  C   UNL     1     189.123 187.722 168.327  1.00  0.00    -0.000 C 
BRANCH  13  14
ATOM     14  C   UNL     1     190.334 187.558 169.272  1.00  0.00    -0.000 C 
BRANCH  14  15
ATOM     15  C   UNL     1     189.909 187.488 170.750  1.00  0.00    -0.000 C 
BRANCH  15  16
ATOM     16  C   UNL     1     188.384 187.546 170.931  1.00  0.00    -0.000 C 
BRANCH  16  17
ATOM     17  C   UNL     1     187.844 186.372 171.760  1.00  0.00    -0.003 C 
ATOM     18  C   UNL     1     188.972 185.653 172.493  1.00  0.00     0.004 C 
ENDBRANCH  16  17
ENDBRANCH  15  16
ENDBRANCH  14  15
ENDBRANCH  13  14
ENDBRANCH  12  13
ENDBRANCH  11  12
ENDBRANCH   1  11
TORSDOF 14
ENDMDL
MODEL 9
REMARK VINA RESULT:    -3.560     10.235     12.188
REMARK INTER + INTRA:          -8.705
REMARK INTER:                  -6.325
REMARK INTRA:                  -2.380
REMARK UNBOUND:                -2.231
REMARK SMILES CCCCCCCCCCCCCCCC(=O)[O-]
REMARK SMILES IDX 9 1 10 2 11 3 12 4 13 5 14 6 15 7 16 8 17 9 18 10 8 11 7 12
REMARK SMILES IDX 6 13 5 14 4 15 3 16 2 17 1 18
REMARK H PARENT
REMARK Flexibility Score: inf
ROOT
ATOM      1  C   UNL     1     182.429 194.395 175.854  1.00  0.00     0.000 C 
ENDROOT
BRANCH   1   2
ATOM      2  C   UNL     1     182.529 195.925 175.974  1.00  0.00     0.000 C 
BRANCH   2   3
ATOM      3  C   UNL     1     182.645 196.625 174.613  1.00  0.00     0.000 C 
BRANCH   3   4
ATOM      4  C   UNL     1     181.574 197.710 174.459  1.00  0.00     0.000 C 
BRANCH   4   5
ATOM      5  C   UNL     1     180.426 197.225 173.561  1.00  0.00     0.000 C 
BRANCH   5   6
ATOM      6  C   UNL     1     180.777 195.937 172.798  1.00  0.00     0.006 C 
BRANCH   6   7
ATOM      7  C   UNL     1     179.653 194.894 172.855  1.00  0.00     0.053 C 
BRANCH   7   8
ATOM      8  C   UNL     1     180.225 193.511 172.854  1.00  0.00     0.041 C 
ATOM      9  O   UNL     1     181.353 193.292 172.338  1.00  0.00    -0.550 OA
ATOM     10  O   UNL     1     179.529 192.470 173.454  1.00  0.00    -0.550 OA
ENDBRANCH   7   8
ENDBRANCH   6   7
ENDBRANCH   5   6
ENDBRANCH   4   5
ENDBRANCH   3   4
ENDBRANCH   2   3
ENDBRANCH   1   2
BRANCH   1  11
ATOM     11  C   UNL     1     181.134 193.814 176.462  1.00  0.00     0.000 C 
BRANCH  11  12
ATOM     12  C   UNL     1     180.024 194.871 176.574  1.00  0.00    -0.000 C 
BRANCH  12  13
ATOM     13  C   UNL     1     179.499 195.031 178.010  1.00  0.00    -0.000 C 
BRANCH  13  14
ATOM     14  C   UNL     1     180.383 194.329 179.064  1.00  0.00    -0.000 C 
BRANCH  14  15
ATOM     15  C   UNL     1     181.086 195.337 179.992  1.00  0.00    -0.000 C 
BRANCH  15  16
ATOM     16  C   UNL     1     182.424 194.807 180.533  1.00  0.00    -0.000 C 
BRANCH  16  17
ATOM     17  C   UNL     1     183.383 194.373 179.416  1.00  0.00    -0.003 C 
ATOM     18  C   UNL     1     184.441 195.440 179.155  1.00  0.00     0.004 C 
ENDBRANCH  16  17
ENDBRANCH  15  16
ENDBRANCH  14  15
ENDBRANCH  13  14
ENDBRANCH  12  13
ENDBRANCH  11  12
ENDBRANCH   1  11
TORSDOF 14
ENDMDL
