MODEL 1
REMARK VINA RESULT:    -3.644      0.000      0.000
REMARK INTER + INTRA:          -4.901
REMARK INTER:                  -4.709
REMARK INTRA:                  -0.192
REMARK UNBOUND:                -0.192
REMARK SMILES CCCCCCC(=O)[O-]
REMARK SMILES IDX 5 1 6 2 7 3 8 4 9 5 4 6 3 7 2 8 1 9
REMARK H PARENT
REMARK Flexibility Score: inf
ROOT
ATOM      1  C   UNL     1      13.766  36.177  57.418  1.00  0.00     0.006 C 
ENDROOT
BRANCH   1   2
ATOM      2  C   UNL     1      13.640  37.668  57.071  1.00  0.00     0.053 C 
BRANCH   2   3
ATOM      3  C   UNL     1      13.065  38.463  58.204  1.00  0.00     0.041 C 
ATOM      4  O   UNL     1      13.468  39.636  58.423  1.00  0.00    -0.550 OA
ATOM      5  O   UNL     1      12.061  37.920  58.996  1.00  0.00    -0.550 OA
ENDBRANCH   2   3
ENDBRANCH   1   2
BRANCH   1   6
ATOM      6  C   UNL     1      12.803  35.261  56.642  1.00  0.00     0.000 C 
BRANCH   6   7
ATOM      7  C   UNL     1      13.410  33.884  56.332  1.00  0.00    -0.000 C 
BRANCH   7   8
ATOM      8  C   UNL     1      14.764  33.713  57.030  1.00  0.00    -0.003 C 
ATOM      9  C   UNL     1      15.212  32.255  57.017  1.00  0.00     0.004 C 
ENDBRANCH   7   8
ENDBRANCH   6   7
ENDBRANCH   1   6
TORSDOF 5
ENDMDL
MODEL 2
REMARK VINA RESULT:    -3.609      7.872     10.231
REMARK INTER + INTRA:          -4.857
REMARK INTER:                  -4.767
REMARK INTRA:                  -0.089
REMARK UNBOUND:                -0.192
REMARK SMILES CCCCCCC(=O)[O-]
REMARK SMILES IDX 5 1 6 2 7 3 8 4 9 5 4 6 3 7 2 8 1 9
REMARK H PARENT
REMARK Flexibility Score: inf
ROOT
ATOM      1  C   UNL     1      15.743  27.538  55.285  1.00  0.00     0.006 C 
ENDROOT
BRANCH   1   2
ATOM      2  C   UNL     1      16.467  26.487  54.428  1.00  0.00     0.053 C 
BRANCH   2   3
ATOM      3  C   UNL     1      15.510  25.646  53.641  1.00  0.00     0.041 C 
ATOM      4  O   UNL     1      14.612  26.190  52.945  1.00  0.00    -0.550 OA
ATOM      5  O   UNL     1      15.630  24.262  53.649  1.00  0.00    -0.550 OA
ENDBRANCH   2   3
ENDBRANCH   1   2
BRANCH   1   6
ATOM      6  C   UNL     1      16.344  28.952  55.196  1.00  0.00     0.000 C 
BRANCH   6   7
ATOM      7  C   UNL     1      15.617  29.965  56.094  1.00  0.00    -0.000 C 
BRANCH   7   8
ATOM      8  C   UNL     1      16.613  30.736  56.967  1.00  0.00    -0.003 C 
ATOM      9  C   UNL     1      16.128  32.158  57.233  1.00  0.00     0.004 C 
ENDBRANCH   7   8
ENDBRANCH   6   7
ENDBRANCH   1   6
TORSDOF 5
ENDMDL
MODEL 3
REMARK VINA RESULT:    -3.566      2.881      5.042
REMARK INTER + INTRA:          -4.800
REMARK INTER:                  -4.612
REMARK INTRA:                  -0.188
REMARK UNBOUND:                -0.192
REMARK SMILES CCCCCCC(=O)[O-]
REMARK SMILES IDX 5 1 6 2 7 3 8 4 9 5 4 6 3 7 2 8 1 9
REMARK H PARENT
REMARK Flexibility Score: inf
ROOT
ATOM      1  C   UNL     1      13.388  36.293  57.369  1.00  0.00     0.006 C 
ENDROOT
BRANCH   1   2
ATOM      2  C   UNL     1      13.082  35.152  56.385  1.00  0.00     0.053 C 
BRANCH   2   3
ATOM      3  C   UNL     1      13.727  33.864  56.799  1.00  0.00     0.041 C 
ATOM      4  O   UNL     1      14.939  33.845  57.143  1.00  0.00    -0.550 OA
ATOM      5  O   UNL     1      12.982  32.693  56.837  1.00  0.00    -0.550 OA
ENDBRANCH   2   3
ENDBRANCH   1   2
BRANCH   1   6
ATOM      6  C   UNL     1      12.173  36.769  58.185  1.00  0.00     0.000 C 
BRANCH   6   7
ATOM      7  C   UNL     1      12.435  38.089  58.927  1.00  0.00    -0.000 C 
BRANCH   7   8
ATOM      8  C   UNL     1      13.301  39.030  58.082  1.00  0.00    -0.003 C 
ATOM      9  C   UNL     1      12.443  39.879  57.149  1.00  0.00     0.004 C 
ENDBRANCH   7   8
ENDBRANCH   6   7
ENDBRANCH   1   6
TORSDOF 5
ENDMDL
MODEL 4
REMARK VINA RESULT:    -3.532     17.319     17.890
REMARK INTER + INTRA:          -4.757
REMARK INTER:                  -4.595
REMARK INTRA:                  -0.162
REMARK UNBOUND:                -0.192
REMARK SMILES CCCCCCC(=O)[O-]
REMARK SMILES IDX 5 1 6 2 7 3 8 4 9 5 4 6 3 7 2 8 1 9
REMARK H PARENT
REMARK Flexibility Score: inf
ROOT
ATOM      1  C   UNL     1      28.962  38.485  51.007  1.00  0.00     0.006 C 
ENDROOT
BRANCH   1   2
ATOM      2  C   UNL     1      30.087  39.523  51.149  1.00  0.00     0.053 C 
BRANCH   2   3
ATOM      3  C   UNL     1      29.960  40.321  52.410  1.00  0.00     0.041 C 
ATOM      4  O   UNL     1      30.574  41.414  52.533  1.00  0.00    -0.550 OA
ATOM      5  O   UNL     1      29.137  39.876  53.437  1.00  0.00    -0.550 OA
ENDBRANCH   2   3
ENDBRANCH   1   2
BRANCH   1   6
ATOM      6  C   UNL     1      29.028  37.650  49.715  1.00  0.00     0.000 C 
BRANCH   6   7
ATOM      7  C   UNL     1      30.087  38.165  48.728  1.00  0.00    -0.000 C 
BRANCH   7   8
ATOM      8  C   UNL     1      29.700  37.825  47.284  1.00  0.00    -0.003 C 
ATOM      9  C   UNL     1      29.171  36.398  47.176  1.00  0.00     0.004 C 
ENDBRANCH   7   8
ENDBRANCH   6   7
ENDBRANCH   1   6
TORSDOF 5
ENDMDL
MODEL 5
REMARK VINA RESULT:    -3.487      3.724      5.355
REMARK INTER + INTRA:          -4.698
REMARK INTER:                  -4.563
REMARK INTRA:                  -0.135
REMARK UNBOUND:                -0.192
REMARK SMILES CCCCCCC(=O)[O-]
REMARK SMILES IDX 5 1 6 2 7 3 8 4 9 5 4 6 3 7 2 8 1 9
REMARK H PARENT
REMARK Flexibility Score: inf
ROOT
ATOM      1  C   UNL     1      13.528  33.822  56.409  1.00  0.00     0.006 C 
ENDROOT
BRANCH   1   2
ATOM      2  C   UNL     1      14.895  33.764  57.108  1.00  0.00     0.053 C 
BRANCH   2   3
ATOM      3  C   UNL     1      15.506  32.398  57.037  1.00  0.00     0.041 C 
ATOM      4  O   UNL     1      16.749  32.251  57.182  1.00  0.00    -0.550 OA
ATOM      5  O   UNL     1      14.699  31.284  56.848  1.00  0.00    -0.550 OA
ENDBRANCH   2   3
ENDBRANCH   1   2
BRANCH   1   6
ATOM      6  C   UNL     1      12.704  35.082  56.731  1.00  0.00     0.000 C 
BRANCH   6   7
ATOM      7  C   UNL     1      13.579  36.278  57.136  1.00  0.00    -0.000 C 
BRANCH   7   8
ATOM      8  C   UNL     1      12.882  37.131  58.202  1.00  0.00    -0.003 C 
ATOM      9  C   UNL     1      13.294  38.596  58.093  1.00  0.00     0.004 C 
ENDBRANCH   7   8
ENDBRANCH   6   7
ENDBRANCH   1   6
TORSDOF 5
ENDMDL
MODEL 6
REMARK VINA RESULT:    -3.454      4.983      6.734
REMARK INTER + INTRA:          -4.655
REMARK INTER:                  -4.466
REMARK INTRA:                  -0.189
REMARK UNBOUND:                -0.192
REMARK SMILES CCCCCCC(=O)[O-]
REMARK SMILES IDX 5 1 6 2 7 3 8 4 9 5 4 6 3 7 2 8 1 9
REMARK H PARENT
REMARK Flexibility Score: inf
ROOT
ATOM      1  C   UNL     1      17.107  30.705  55.714  1.00  0.00     0.006 C 
ENDROOT
BRANCH   1   2
ATOM      2  C   UNL     1      16.592  30.943  57.142  1.00  0.00     0.053 C 
BRANCH   2   3
ATOM      3  C   UNL     1      15.718  32.157  57.230  1.00  0.00     0.041 C 
ATOM      4  O   UNL     1      16.209  33.269  57.561  1.00  0.00    -0.550 OA
ATOM      5  O   UNL     1      14.369  32.067  56.913  1.00  0.00    -0.550 OA
ENDBRANCH   2   3
ENDBRANCH   1   2
BRANCH   1   6
ATOM      6  C   UNL     1      16.200  29.808  54.854  1.00  0.00     0.000 C 
BRANCH   6   7
ATOM      7  C   UNL     1      15.773  28.522  55.580  1.00  0.00    -0.000 C 
BRANCH   7   8
ATOM      8  C   UNL     1      16.436  27.292  54.950  1.00  0.00    -0.003 C 
ATOM      9  C   UNL     1      15.395  26.346  54.360  1.00  0.00     0.004 C 
ENDBRANCH   7   8
ENDBRANCH   6   7
ENDBRANCH   1   6
TORSDOF 5
ENDMDL
MODEL 7
REMARK VINA RESULT:    -3.417      3.241      5.070
REMARK INTER + INTRA:          -4.608
REMARK INTER:                  -4.457
REMARK INTRA:                  -0.150
REMARK UNBOUND:                -0.192
REMARK SMILES CCCCCCC(=O)[O-]
REMARK SMILES IDX 5 1 6 2 7 3 8 4 9 5 4 6 3 7 2 8 1 9
REMARK H PARENT
REMARK Flexibility Score: inf
ROOT
ATOM      1  C   UNL     1      13.109  35.518  56.225  1.00  0.00     0.006 C 
ENDROOT
BRANCH   1   2
ATOM      2  C   UNL     1      12.985  34.019  56.541  1.00  0.00     0.053 C 
BRANCH   2   3
ATOM      3  C   UNL     1      11.618  33.490  56.228  1.00  0.00     0.041 C 
ATOM      4  O   UNL     1      10.916  32.972  57.137  1.00  0.00    -0.550 OA
ATOM      5  O   UNL     1      11.106  33.601  54.941  1.00  0.00    -0.550 OA
ENDBRANCH   2   3
ENDBRANCH   1   2
BRANCH   1   6
ATOM      6  C   UNL     1      13.502  36.390  57.432  1.00  0.00     0.000 C 
BRANCH   6   7
ATOM      7  C   UNL     1      13.765  37.854  57.048  1.00  0.00    -0.000 C 
BRANCH   7   8
ATOM      8  C   UNL     1      13.075  38.810  58.029  1.00  0.00    -0.003 C 
ATOM      9  C   UNL     1      12.108  38.061  58.940  1.00  0.00     0.004 C 
ENDBRANCH   7   8
ENDBRANCH   6   7
ENDBRANCH   1   6
TORSDOF 5
ENDMDL
MODEL 8
REMARK VINA RESULT:    -3.411      9.866     12.285
REMARK INTER + INTRA:          -4.600
REMARK INTER:                  -4.307
REMARK INTRA:                  -0.293
REMARK UNBOUND:                -0.192
REMARK SMILES CCCCCCC(=O)[O-]
REMARK SMILES IDX 5 1 6 2 7 3 8 4 9 5 4 6 3 7 2 8 1 9
REMARK H PARENT
REMARK Flexibility Score: inf
ROOT
ATOM      1  C   UNL     1      15.646  24.342  53.325  1.00  0.00     0.006 C 
ENDROOT
BRANCH   1   2
ATOM      2  C   UNL     1      14.778  23.875  52.146  1.00  0.00     0.053 C 
BRANCH   2   3
ATOM      3  C   UNL     1      14.148  25.025  51.421  1.00  0.00     0.041 C 
ATOM      4  O   UNL     1      13.329  25.776  52.015  1.00  0.00    -0.550 OA
ATOM      5  O   UNL     1      14.492  25.288  50.101  1.00  0.00    -0.550 OA
ENDBRANCH   2   3
ENDBRANCH   1   2
BRANCH   1   6
ATOM      6  C   UNL     1      16.749  25.346  52.943  1.00  0.00     0.000 C 
BRANCH   6   7
ATOM      7  C   UNL     1      17.020  26.381  54.045  1.00  0.00    -0.000 C 
BRANCH   7   8
ATOM      8  C   UNL     1      15.730  26.734  54.794  1.00  0.00    -0.003 C 
ATOM      9  C   UNL     1      15.727  28.196  55.230  1.00  0.00     0.004 C 
ENDBRANCH   7   8
ENDBRANCH   6   7
ENDBRANCH   1   6
TORSDOF 5
ENDMDL
MODEL 9
REMARK VINA RESULT:    -3.295      7.173      9.105
REMARK INTER + INTRA:          -4.450
REMARK INTER:                  -4.321
REMARK INTRA:                  -0.129
REMARK UNBOUND:                -0.192
REMARK SMILES CCCCCCC(=O)[O-]
REMARK SMILES IDX 5 1 6 2 7 3 8 4 9 5 4 6 3 7 2 8 1 9
REMARK H PARENT
REMARK Flexibility Score: inf
ROOT
ATOM      1  C   UNL     1      16.180  29.320  55.216  1.00  0.00     0.006 C 
ENDROOT
BRANCH   1   2
ATOM      2  C   UNL     1      16.014  27.810  55.448  1.00  0.00     0.053 C 
BRANCH   2   3
ATOM      3  C   UNL     1      16.151  27.027  54.178  1.00  0.00     0.041 C 
ATOM      4  O   UNL     1      17.234  27.048  53.535  1.00  0.00    -0.550 OA
ATOM      5  O   UNL     1      15.096  26.246  53.725  1.00  0.00    -0.550 OA
ENDBRANCH   2   3
ENDBRANCH   1   2
BRANCH   1   6
ATOM      6  C   UNL     1      15.650  30.200  56.363  1.00  0.00     0.000 C 
BRANCH   6   7
ATOM      7  C   UNL     1      16.720  31.146  56.930  1.00  0.00    -0.000 C 
BRANCH   7   8
ATOM      8  C   UNL     1      16.090  32.454  57.422  1.00  0.00    -0.003 C 
ATOM      9  C   UNL     1      14.720  32.678  56.789  1.00  0.00     0.004 C 
ENDBRANCH   7   8
ENDBRANCH   6   7
ENDBRANCH   1   6
TORSDOF 5
ENDMDL
