MODEL 1
REMARK VINA RESULT:    -5.203      0.000      0.000
REMARK INTER + INTRA:          -8.729
REMARK INTER:                  -7.940
REMARK INTRA:                  -0.789
REMARK UNBOUND:                -0.789
REMARK SMILES O=C([O-])CCCCCCCCC(=O)[O-]
REMARK SMILES IDX 7 1 6 2 5 3 4 4 2 5 1 6 3 7 8 8 9 9 10 10 11 11 12 12 13 13
REMARK SMILES IDX 14 14
REMARK H PARENT
REMARK Flexibility Score: inf
ROOT
ATOM      1  C   UNL     1      28.880  -8.461  22.060  1.00  0.00     0.000 C 
ENDROOT
BRANCH   1   2
ATOM      2  C   UNL     1      27.634  -8.009  21.279  1.00  0.00     0.000 C 
BRANCH   2   3
ATOM      3  C   UNL     1      27.921  -7.790  19.785  1.00  0.00     0.006 C 
BRANCH   3   4
ATOM      4  C   UNL     1      26.711  -8.108  18.896  1.00  0.00     0.053 C 
BRANCH   4   5
ATOM      5  C   UNL     1      25.615  -7.118  19.133  1.00  0.00     0.041 C 
ATOM      6  O   UNL     1      24.470  -7.512  19.479  1.00  0.00    -0.550 OA
ATOM      7  O   UNL     1      25.871  -5.757  19.021  1.00  0.00    -0.550 OA
ENDBRANCH   4   5
ENDBRANCH   3   4
ENDBRANCH   2   3
ENDBRANCH   1   2
BRANCH   1   8
ATOM      8  C   UNL     1      29.233  -9.936  21.807  1.00  0.00     0.000 C 
BRANCH   8   9
ATOM      9  C   UNL     1      27.988 -10.839  21.740  1.00  0.00     0.000 C 
BRANCH   9  10
ATOM     10  C   UNL     1      27.958 -11.712  20.476  1.00  0.00     0.006 C 
BRANCH  10  11
ATOM     11  C   UNL     1      26.587 -11.709  19.787  1.00  0.00     0.053 C 
BRANCH  11  12
ATOM     12  C   UNL     1      26.556 -12.720  18.684  1.00  0.00     0.041 C 
ATOM     13  O   UNL     1      26.198 -12.383  17.526  1.00  0.00    -0.550 OA
ATOM     14  O   UNL     1      26.971 -14.025  18.925  1.00  0.00    -0.550 OA
ENDBRANCH  11  12
ENDBRANCH  10  11
ENDBRANCH   9  10
ENDBRANCH   8   9
ENDBRANCH   1   8
TORSDOF 9
ENDMDL
MODEL 2
REMARK VINA RESULT:    -5.163      1.074      5.297
REMARK INTER + INTRA:          -8.669
REMARK INTER:                  -7.992
REMARK INTRA:                  -0.676
REMARK UNBOUND:                -0.789
REMARK SMILES O=C([O-])CCCCCCCCC(=O)[O-]
REMARK SMILES IDX 7 1 6 2 5 3 4 4 2 5 1 6 3 7 8 8 9 9 10 10 11 11 12 12 13 13
REMARK SMILES IDX 14 14
REMARK H PARENT
REMARK Flexibility Score: inf
ROOT
ATOM      1  C   UNL     1      29.530  -9.679  21.170  1.00  0.00     0.000 C 
ENDROOT
BRANCH   1   2
ATOM      2  C   UNL     1      28.356 -10.558  21.636  1.00  0.00     0.000 C 
BRANCH   2   3
ATOM      3  C   UNL     1      28.099 -11.747  20.695  1.00  0.00     0.006 C 
BRANCH   3   4
ATOM      4  C   UNL     1      26.807 -11.592  19.882  1.00  0.00     0.053 C 
BRANCH   4   5
ATOM      5  C   UNL     1      26.675 -12.708  18.896  1.00  0.00     0.041 C 
ATOM      6  O   UNL     1      26.965 -13.887  19.230  1.00  0.00    -0.550 OA
ATOM      7  O   UNL     1      26.182 -12.455  17.622  1.00  0.00    -0.550 OA
ENDBRANCH   4   5
ENDBRANCH   3   4
ENDBRANCH   2   3
ENDBRANCH   1   2
BRANCH   1   8
ATOM      8  C   UNL     1      29.086  -8.258  20.784  1.00  0.00     0.000 C 
BRANCH   8   9
ATOM      9  C   UNL     1      27.641  -7.952  21.217  1.00  0.00     0.000 C 
BRANCH   9  10
ATOM     10  C   UNL     1      26.657  -7.959  20.036  1.00  0.00     0.006 C 
BRANCH  10  11
ATOM     11  C   UNL     1      27.275  -7.404  18.747  1.00  0.00     0.053 C 
BRANCH  11  12
ATOM     12  C   UNL     1      27.152  -5.914  18.709  1.00  0.00     0.041 C 
ATOM     13  O   UNL     1      27.933  -5.231  17.995  1.00  0.00    -0.550 OA
ATOM     14  O   UNL     1      26.143  -5.281  19.424  1.00  0.00    -0.550 OA
ENDBRANCH  11  12
ENDBRANCH  10  11
ENDBRANCH   9  10
ENDBRANCH   8   9
ENDBRANCH   1   8
TORSDOF 9
ENDMDL
MODEL 3
REMARK VINA RESULT:    -5.049      3.841      5.060
REMARK INTER + INTRA:          -8.495
REMARK INTER:                  -8.130
REMARK INTRA:                  -0.365
REMARK UNBOUND:                -0.789
REMARK SMILES O=C([O-])CCCCCCCCC(=O)[O-]
REMARK SMILES IDX 7 1 6 2 5 3 4 4 2 5 1 6 3 7 8 8 9 9 10 10 11 11 12 12 13 13
REMARK SMILES IDX 14 14
REMARK H PARENT
REMARK Flexibility Score: inf
ROOT
ATOM      1  C   UNL     1      29.937  -9.438  20.974  1.00  0.00     0.000 C 
ENDROOT
BRANCH   1   2
ATOM      2  C   UNL     1      30.879  -8.427  21.652  1.00  0.00     0.000 C 
BRANCH   2   3
ATOM      3  C   UNL     1      32.298  -8.983  21.850  1.00  0.00     0.006 C 
BRANCH   3   4
ATOM      4  C   UNL     1      33.321  -8.350  20.897  1.00  0.00     0.053 C 
BRANCH   4   5
ATOM      5  C   UNL     1      33.874  -9.381  19.966  1.00  0.00     0.041 C 
ATOM      6  O   UNL     1      34.966  -9.952  20.229  1.00  0.00    -0.550 OA
ATOM      7  O   UNL     1      33.161  -9.749  18.832  1.00  0.00    -0.550 OA
ENDBRANCH   4   5
ENDBRANCH   3   4
ENDBRANCH   2   3
ENDBRANCH   1   2
BRANCH   1   8
ATOM      8  C   UNL     1      28.520  -9.416  21.569  1.00  0.00     0.000 C 
BRANCH   8   9
ATOM      9  C   UNL     1      27.921 -10.825  21.725  1.00  0.00     0.000 C 
BRANCH   9  10
ATOM     10  C   UNL     1      27.261 -11.332  20.432  1.00  0.00     0.006 C 
BRANCH  10  11
ATOM     11  C   UNL     1      27.913 -12.614  19.898  1.00  0.00     0.053 C 
BRANCH  11  12
ATOM     12  C   UNL     1      27.109 -13.177  18.770  1.00  0.00     0.041 C 
ATOM     13  O   UNL     1      27.655 -13.910  17.905  1.00  0.00    -0.550 OA
ATOM     14  O   UNL     1      25.742 -12.932  18.700  1.00  0.00    -0.550 OA
ENDBRANCH  11  12
ENDBRANCH  10  11
ENDBRANCH   9  10
ENDBRANCH   8   9
ENDBRANCH   1   8
TORSDOF 9
ENDMDL
MODEL 4
REMARK VINA RESULT:    -5.001      1.185      4.880
REMARK INTER + INTRA:          -8.422
REMARK INTER:                  -7.739
REMARK INTRA:                  -0.682
REMARK UNBOUND:                -0.789
REMARK SMILES O=C([O-])CCCCCCCCC(=O)[O-]
REMARK SMILES IDX 7 1 6 2 5 3 4 4 2 5 1 6 3 7 8 8 9 9 10 10 11 11 12 12 13 13
REMARK SMILES IDX 14 14
REMARK H PARENT
REMARK Flexibility Score: inf
ROOT
ATOM      1  C   UNL     1      29.214  -9.827  21.107  1.00  0.00     0.000 C 
ENDROOT
BRANCH   1   2
ATOM      2  C   UNL     1      28.087 -10.762  21.580  1.00  0.00     0.000 C 
BRANCH   2   3
ATOM      3  C   UNL     1      27.279 -11.351  20.411  1.00  0.00     0.006 C 
BRANCH   3   4
ATOM      4  C   UNL     1      27.833 -12.698  19.928  1.00  0.00     0.053 C 
BRANCH   4   5
ATOM      5  C   UNL     1      27.014 -13.220  18.790  1.00  0.00     0.041 C 
ATOM      6  O   UNL     1      25.776 -12.993  18.744  1.00  0.00    -0.550 OA
ATOM      7  O   UNL     1      27.626 -13.915  17.755  1.00  0.00    -0.550 OA
ENDBRANCH   4   5
ENDBRANCH   3   4
ENDBRANCH   2   3
ENDBRANCH   1   2
BRANCH   1   8
ATOM      8  C   UNL     1      29.567  -8.754  22.149  1.00  0.00     0.000 C 
BRANCH   8   9
ATOM      9  C   UNL     1      28.424  -7.748  22.373  1.00  0.00     0.000 C 
BRANCH   9  10
ATOM     10  C   UNL     1      27.889  -7.159  21.057  1.00  0.00     0.006 C 
BRANCH  10  11
ATOM     11  C   UNL     1      26.358  -7.063  21.031  1.00  0.00     0.053 C 
BRANCH  11  12
ATOM     12  C   UNL     1      25.810  -7.796  19.848  1.00  0.00     0.041 C 
ATOM     13  O   UNL     1      24.573  -8.006  19.749  1.00  0.00    -0.550 OA
ATOM     14  O   UNL     1      26.661  -8.204  18.828  1.00  0.00    -0.550 OA
ENDBRANCH  11  12
ENDBRANCH  10  11
ENDBRANCH   9  10
ENDBRANCH   8   9
ENDBRANCH   1   8
TORSDOF 9
ENDMDL
MODEL 5
REMARK VINA RESULT:    -4.942      1.847      2.631
REMARK INTER + INTRA:          -8.331
REMARK INTER:                  -7.827
REMARK INTRA:                  -0.505
REMARK UNBOUND:                -0.789
REMARK SMILES O=C([O-])CCCCCCCCC(=O)[O-]
REMARK SMILES IDX 7 1 6 2 5 3 4 4 2 5 1 6 3 7 8 8 9 9 10 10 11 11 12 12 13 13
REMARK SMILES IDX 14 14
REMARK H PARENT
REMARK Flexibility Score: inf
ROOT
ATOM      1  C   UNL     1      26.227  -8.524  19.967  1.00  0.00     0.000 C 
ENDROOT
BRANCH   1   2
ATOM      2  C   UNL     1      26.413  -7.628  18.730  1.00  0.00     0.000 C 
BRANCH   2   3
ATOM      3  C   UNL     1      27.789  -6.943  18.698  1.00  0.00     0.006 C 
BRANCH   3   4
ATOM      4  C   UNL     1      27.702  -5.453  18.344  1.00  0.00     0.053 C 
BRANCH   4   5
ATOM      5  C   UNL     1      28.128  -4.615  19.507  1.00  0.00     0.041 C 
ATOM      6  O   UNL     1      28.058  -5.073  20.678  1.00  0.00    -0.550 OA
ATOM      7  O   UNL     1      28.649  -3.345  19.294  1.00  0.00    -0.550 OA
ENDBRANCH   4   5
ENDBRANCH   3   4
ENDBRANCH   2   3
ENDBRANCH   1   2
BRANCH   1   8
ATOM      8  C   UNL     1      27.556  -8.838  20.673  1.00  0.00     0.000 C 
BRANCH   8   9
ATOM      9  C   UNL     1      27.696 -10.327  21.037  1.00  0.00     0.000 C 
BRANCH   9  10
ATOM     10  C   UNL     1      26.875 -11.241  20.113  1.00  0.00     0.006 C 
BRANCH  10  11
ATOM     11  C   UNL     1      27.583 -12.567  19.810  1.00  0.00     0.053 C 
BRANCH  11  12
ATOM     12  C   UNL     1      26.854 -13.314  18.739  1.00  0.00     0.041 C 
ATOM     13  O   UNL     1      26.830 -14.572  18.747  1.00  0.00    -0.550 OA
ATOM     14  O   UNL     1      26.159 -12.619  17.756  1.00  0.00    -0.550 OA
ENDBRANCH  11  12
ENDBRANCH  10  11
ENDBRANCH   9  10
ENDBRANCH   8   9
ENDBRANCH   1   8
TORSDOF 9
ENDMDL
MODEL 6
REMARK VINA RESULT:    -4.929      3.085      4.173
REMARK INTER + INTRA:          -8.312
REMARK INTER:                  -7.628
REMARK INTRA:                  -0.684
REMARK UNBOUND:                -0.789
REMARK SMILES O=C([O-])CCCCCCCCC(=O)[O-]
REMARK SMILES IDX 7 1 6 2 5 3 4 4 2 5 1 6 3 7 8 8 9 9 10 10 11 11 12 12 13 13
REMARK SMILES IDX 14 14
REMARK H PARENT
REMARK Flexibility Score: inf
ROOT
ATOM      1  C   UNL     1      26.512  -9.518  19.438  1.00  0.00     0.000 C 
ENDROOT
BRANCH   1   2
ATOM      2  C   UNL     1      25.509  -8.452  19.915  1.00  0.00     0.000 C 
BRANCH   2   3
ATOM      3  C   UNL     1      25.539  -7.184  19.047  1.00  0.00     0.006 C 
BRANCH   3   4
ATOM      4  C   UNL     1      26.948  -6.839  18.549  1.00  0.00     0.053 C 
BRANCH   4   5
ATOM      5  C   UNL     1      27.241  -5.390  18.773  1.00  0.00     0.041 C 
ATOM      6  O   UNL     1      27.975  -4.759  17.966  1.00  0.00    -0.550 OA
ATOM      7  O   UNL     1      26.664  -4.721  19.845  1.00  0.00    -0.550 OA
ENDBRANCH   4   5
ENDBRANCH   3   4
ENDBRANCH   2   3
ENDBRANCH   1   2
BRANCH   1   8
ATOM      8  C   UNL     1      26.422 -10.819  20.253  1.00  0.00     0.000 C 
BRANCH   8   9
ATOM      9  C   UNL     1      27.791 -11.281  20.783  1.00  0.00     0.000 C 
BRANCH   9  10
ATOM     10  C   UNL     1      28.405 -10.286  21.781  1.00  0.00     0.006 C 
BRANCH  10  11
ATOM     11  C   UNL     1      29.602  -9.524  21.197  1.00  0.00     0.053 C 
BRANCH  11  12
ATOM     12  C   UNL     1      29.579  -8.096  21.644  1.00  0.00     0.041 C 
ATOM     13  O   UNL     1      28.497  -7.454  21.658  1.00  0.00    -0.550 OA
ATOM     14  O   UNL     1      30.746  -7.489  22.092  1.00  0.00    -0.550 OA
ENDBRANCH  11  12
ENDBRANCH  10  11
ENDBRANCH   9  10
ENDBRANCH   8   9
ENDBRANCH   1   8
TORSDOF 9
ENDMDL
MODEL 7
REMARK VINA RESULT:    -4.873     10.734     12.224
REMARK INTER + INTRA:          -8.226
REMARK INTER:                  -7.524
REMARK INTRA:                  -0.702
REMARK UNBOUND:                -0.789
REMARK SMILES O=C([O-])CCCCCCCCC(=O)[O-]
REMARK SMILES IDX 7 1 6 2 5 3 4 4 2 5 1 6 3 7 8 8 9 9 10 10 11 11 12 12 13 13
REMARK SMILES IDX 14 14
REMARK H PARENT
REMARK Flexibility Score: inf
ROOT
ATOM      1  C   UNL     1      36.740  -8.317  22.481  1.00  0.00     0.000 C 
ENDROOT
BRANCH   1   2
ATOM      2  C   UNL     1      36.411  -8.034  23.958  1.00  0.00     0.000 C 
BRANCH   2   3
ATOM      3  C   UNL     1      37.221  -8.915  24.923  1.00  0.00     0.006 C 
BRANCH   3   4
ATOM      4  C   UNL     1      38.461  -8.203  25.478  1.00  0.00     0.053 C 
BRANCH   4   5
ATOM      5  C   UNL     1      39.684  -8.625  24.728  1.00  0.00     0.041 C 
ATOM      6  O   UNL     1      40.586  -7.786  24.462  1.00  0.00    -0.550 OA
ATOM      7  O   UNL     1      39.854  -9.955  24.365  1.00  0.00    -0.550 OA
ENDBRANCH   4   5
ENDBRANCH   3   4
ENDBRANCH   2   3
ENDBRANCH   1   2
BRANCH   1   8
ATOM      8  C   UNL     1      35.741  -9.288  21.831  1.00  0.00     0.000 C 
BRANCH   8   9
ATOM      9  C   UNL     1      36.435 -10.380  20.998  1.00  0.00     0.000 C 
BRANCH   9  10
ATOM     10  C   UNL     1      37.921 -10.542  21.357  1.00  0.00     0.006 C 
BRANCH  10  11
ATOM     11  C   UNL     1      38.239 -11.919  21.955  1.00  0.00     0.053 C 
BRANCH  11  12
ATOM     12  C   UNL     1      39.275 -12.618  21.134  1.00  0.00     0.041 C 
ATOM     13  O   UNL     1      39.326 -13.875  21.114  1.00  0.00    -0.550 OA
ATOM     14  O   UNL     1      40.155 -11.881  20.349  1.00  0.00    -0.550 OA
ENDBRANCH  11  12
ENDBRANCH  10  11
ENDBRANCH   9  10
ENDBRANCH   8   9
ENDBRANCH   1   8
TORSDOF 9
ENDMDL
MODEL 8
REMARK VINA RESULT:    -4.867     10.749     12.824
REMARK INTER + INTRA:          -8.218
REMARK INTER:                  -7.230
REMARK INTRA:                  -0.988
REMARK UNBOUND:                -0.789
REMARK SMILES O=C([O-])CCCCCCCCC(=O)[O-]
REMARK SMILES IDX 7 1 6 2 5 3 4 4 2 5 1 6 3 7 8 8 9 9 10 10 11 11 12 12 13 13
REMARK SMILES IDX 14 14
REMARK H PARENT
REMARK Flexibility Score: inf
ROOT
ATOM      1  C   UNL     1      35.801  -9.128  21.691  1.00  0.00     0.000 C 
ENDROOT
BRANCH   1   2
ATOM      2  C   UNL     1      36.374 -10.401  21.044  1.00  0.00     0.000 C 
BRANCH   2   3
ATOM      3  C   UNL     1      37.894 -10.527  21.236  1.00  0.00     0.006 C 
BRANCH   3   4
ATOM      4  C   UNL     1      38.289 -11.781  22.027  1.00  0.00     0.053 C 
BRANCH   4   5
ATOM      5  C   UNL     1      39.484 -12.434  21.407  1.00  0.00     0.041 C 
ATOM      6  O   UNL     1      39.410 -13.617  20.982  1.00  0.00    -0.550 OA
ATOM      7  O   UNL     1      40.665 -11.720  21.253  1.00  0.00    -0.550 OA
ENDBRANCH   4   5
ENDBRANCH   3   4
ENDBRANCH   2   3
ENDBRANCH   1   2
BRANCH   1   8
ATOM      8  C   UNL     1      36.856  -8.347  22.493  1.00  0.00     0.000 C 
BRANCH   8   9
ATOM      9  C   UNL     1      36.624  -8.428  24.012  1.00  0.00     0.000 C 
BRANCH   9  10
ATOM     10  C   UNL     1      37.739  -9.196  24.740  1.00  0.00     0.006 C 
BRANCH  10  11
ATOM     11  C   UNL     1      39.061  -8.419  24.784  1.00  0.00     0.053 C 
BRANCH  11  12
ATOM     12  C   UNL     1      40.076  -9.065  23.895  1.00  0.00     0.041 C 
ATOM     13  O   UNL     1      40.422  -8.511  22.820  1.00  0.00    -0.550 OA
ATOM     14  O   UNL     1      40.677 -10.259  24.278  1.00  0.00    -0.550 OA
ENDBRANCH  11  12
ENDBRANCH  10  11
ENDBRANCH   9  10
ENDBRANCH   8   9
ENDBRANCH   1   8
TORSDOF 9
ENDMDL
MODEL 9
REMARK VINA RESULT:    -4.756      2.982      5.373
REMARK INTER + INTRA:          -8.049
REMARK INTER:                  -7.331
REMARK INTRA:                  -0.718
REMARK UNBOUND:                -0.789
REMARK SMILES O=C([O-])CCCCCCCCC(=O)[O-]
REMARK SMILES IDX 7 1 6 2 5 3 4 4 2 5 1 6 3 7 8 8 9 9 10 10 11 11 12 12 13 13
REMARK SMILES IDX 14 14
REMARK H PARENT
REMARK Flexibility Score: inf
ROOT
ATOM      1  C   UNL     1      28.148 -11.100  21.000  1.00  0.00     0.000 C 
ENDROOT
BRANCH   1   2
ATOM      2  C   UNL     1      28.464 -10.379  22.322  1.00  0.00     0.000 C 
BRANCH   2   3
ATOM      3  C   UNL     1      29.216  -9.055  22.108  1.00  0.00     0.006 C 
BRANCH   3   4
ATOM      4  C   UNL     1      30.567  -9.248  21.407  1.00  0.00     0.053 C 
BRANCH   4   5
ATOM      5  C   UNL     1      31.497  -8.127  21.749  1.00  0.00     0.041 C 
ATOM      6  O   UNL     1      31.038  -7.013  22.115  1.00  0.00    -0.550 OA
ATOM      7  O   UNL     1      32.871  -8.327  21.711  1.00  0.00    -0.550 OA
ENDBRANCH   4   5
ENDBRANCH   3   4
ENDBRANCH   2   3
ENDBRANCH   1   2
BRANCH   1   8
ATOM      8  C   UNL     1      26.658 -11.020  20.626  1.00  0.00     0.000 C 
BRANCH   8   9
ATOM      9  C   UNL     1      26.397 -10.082  19.434  1.00  0.00     0.000 C 
BRANCH   9  10
ATOM     10  C   UNL     1      26.346  -8.602  19.846  1.00  0.00     0.006 C 
BRANCH  10  11
ATOM     11  C   UNL     1      27.426  -7.759  19.156  1.00  0.00     0.053 C 
BRANCH  11  12
ATOM     12  C   UNL     1      26.865  -6.438  18.735  1.00  0.00     0.041 C 
ATOM     13  O   UNL     1      25.626  -6.229  18.789  1.00  0.00    -0.550 OA
ATOM     14  O   UNL     1      27.718  -5.418  18.329  1.00  0.00    -0.550 OA
ENDBRANCH  11  12
ENDBRANCH  10  11
ENDBRANCH   9  10
ENDBRANCH   8   9
ENDBRANCH   1   8
TORSDOF 9
ENDMDL
