MODEL 1
REMARK VINA RESULT:    -5.176      0.000      0.000
REMARK INTER + INTRA:          -5.605
REMARK INTER:                  -5.478
REMARK INTRA:                  -0.127
REMARK UNBOUND:                -0.127
REMARK SMILES C=C(C)[C@H]1CC=C(C)CC1
REMARK SMILES IDX 8 1 7 2 6 3 5 4 4 5 10 6 9 7 2 8 1 9 3 10
REMARK H PARENT
REMARK Flexibility Score: inf
ROOT
ATOM      1  C   UNL     1     -13.536   6.597  34.141  1.00  0.00     0.039 C 
ATOM      2  C   UNL     1     -12.412   7.379  34.764  1.00  0.00    -0.077 C 
ATOM      3  C   UNL     1     -12.562   8.709  34.947  1.00  0.00    -0.027 C 
ATOM      4  C   UNL     1     -11.474   9.588  35.514  1.00  0.00     0.035 C 
ATOM      5  C   UNL     1     -10.453   8.789  36.343  1.00  0.00     0.018 C 
ATOM      6  C   UNL     1     -10.003   7.548  35.559  1.00  0.00     0.013 C 
ATOM      7  C   UNL     1     -11.201   6.631  35.287  1.00  0.00     0.031 C 
ENDROOT
BRANCH   5   8
ATOM      8  C   UNL     1      -9.269   9.656  36.748  1.00  0.00    -0.077 C 
ATOM      9  C   UNL     1      -9.475  10.843  37.343  1.00  0.00     0.008 C 
ATOM     10  C   UNL     1      -7.848   9.220  36.486  1.00  0.00     0.039 C 
ENDBRANCH   5   8
TORSDOF 1
ENDMDL
MODEL 2
REMARK VINA RESULT:    -5.082      1.566      5.319
REMARK INTER + INTRA:          -5.506
REMARK INTER:                  -5.378
REMARK INTRA:                  -0.127
REMARK UNBOUND:                -0.127
REMARK SMILES C=C(C)[C@H]1CC=C(C)CC1
REMARK SMILES IDX 8 1 7 2 6 3 5 4 4 5 10 6 9 7 2 8 1 9 3 10
REMARK H PARENT
REMARK Flexibility Score: inf
ROOT
ATOM      1  C   UNL     1     -10.436   8.556  36.047  1.00  0.00     0.039 C 
ATOM      2  C   UNL     1     -11.638   7.897  35.428  1.00  0.00    -0.077 C 
ATOM      3  C   UNL     1     -12.794   8.592  35.338  1.00  0.00    -0.027 C 
ATOM      4  C   UNL     1     -14.066   8.002  34.783  1.00  0.00     0.035 C 
ATOM      5  C   UNL     1     -13.797   6.801  33.860  1.00  0.00     0.018 C 
ATOM      6  C   UNL     1     -12.823   5.829  34.541  1.00  0.00     0.013 C 
ATOM      7  C   UNL     1     -11.482   6.523  34.804  1.00  0.00     0.031 C 
ENDROOT
BRANCH   5   8
ATOM      8  C   UNL     1     -15.093   6.108  33.461  1.00  0.00    -0.077 C 
ATOM      9  C   UNL     1     -16.146   6.833  33.050  1.00  0.00     0.008 C 
ATOM     10  C   UNL     1     -15.234   4.606  33.525  1.00  0.00     0.039 C 
ENDBRANCH   5   8
TORSDOF 1
ENDMDL
MODEL 3
REMARK VINA RESULT:    -5.029      1.879      3.661
REMARK INTER + INTRA:          -5.450
REMARK INTER:                  -5.318
REMARK INTRA:                  -0.132
REMARK UNBOUND:                -0.127
REMARK SMILES C=C(C)[C@H]1CC=C(C)CC1
REMARK SMILES IDX 8 1 7 2 6 3 5 4 4 5 10 6 9 7 2 8 1 9 3 10
REMARK H PARENT
REMARK Flexibility Score: inf
ROOT
ATOM      1  C   UNL     1     -15.365   4.204  33.286  1.00  0.00     0.039 C 
ATOM      2  C   UNL     1     -14.476   5.287  33.833  1.00  0.00    -0.077 C 
ATOM      3  C   UNL     1     -13.223   4.972  34.225  1.00  0.00    -0.027 C 
ATOM      4  C   UNL     1     -12.275   5.975  34.834  1.00  0.00     0.035 C 
ATOM      5  C   UNL     1     -12.643   7.423  34.464  1.00  0.00     0.018 C 
ATOM      6  C   UNL     1     -14.143   7.655  34.698  1.00  0.00     0.013 C 
ATOM      7  C   UNL     1     -14.968   6.722  33.804  1.00  0.00     0.031 C 
ENDROOT
BRANCH   5   8
ATOM      8  C   UNL     1     -11.794   8.424  35.234  1.00  0.00    -0.077 C 
ATOM      9  C   UNL     1     -10.892   7.993  36.131  1.00  0.00     0.008 C 
ATOM     10  C   UNL     1     -11.946   9.911  35.024  1.00  0.00     0.039 C 
ENDBRANCH   5   8
TORSDOF 1
ENDMDL
MODEL 4
REMARK VINA RESULT:    -4.947      0.948      4.579
REMARK INTER + INTRA:          -5.363
REMARK INTER:                  -5.231
REMARK INTRA:                  -0.132
REMARK UNBOUND:                -0.127
REMARK SMILES C=C(C)[C@H]1CC=C(C)CC1
REMARK SMILES IDX 8 1 7 2 6 3 5 4 4 5 10 6 9 7 2 8 1 9 3 10
REMARK H PARENT
REMARK Flexibility Score: inf
ROOT
ATOM      1  C   UNL     1      -7.501   9.093  36.809  1.00  0.00     0.039 C 
ATOM      2  C   UNL     1      -8.876   8.767  36.293  1.00  0.00    -0.077 C 
ATOM      3  C   UNL     1      -9.099   7.554  35.740  1.00  0.00    -0.027 C 
ATOM      4  C   UNL     1     -10.427   7.153  35.148  1.00  0.00     0.035 C 
ATOM      5  C   UNL     1     -11.591   7.987  35.710  1.00  0.00     0.018 C 
ATOM      6  C   UNL     1     -11.234   9.480  35.661  1.00  0.00     0.013 C 
ATOM      7  C   UNL     1     -10.001   9.757  36.529  1.00  0.00     0.031 C 
ENDROOT
BRANCH   5   8
ATOM      8  C   UNL     1     -12.889   7.697  34.969  1.00  0.00    -0.077 C 
ATOM      9  C   UNL     1     -12.912   6.783  33.985  1.00  0.00     0.008 C 
ATOM     10  C   UNL     1     -14.167   8.425  35.306  1.00  0.00     0.039 C 
ENDBRANCH   5   8
TORSDOF 1
ENDMDL
MODEL 5
REMARK VINA RESULT:    -4.937      0.477      1.986
REMARK INTER + INTRA:          -5.352
REMARK INTER:                  -5.224
REMARK INTRA:                  -0.128
REMARK UNBOUND:                -0.127
REMARK SMILES C=C(C)[C@H]1CC=C(C)CC1
REMARK SMILES IDX 8 1 7 2 6 3 5 4 4 5 10 6 9 7 2 8 1 9 3 10
REMARK H PARENT
REMARK Flexibility Score: inf
ROOT
ATOM      1  C   UNL     1     -13.363   6.192  34.170  1.00  0.00     0.039 C 
ATOM      2  C   UNL     1     -12.275   7.001  34.821  1.00  0.00    -0.077 C 
ATOM      3  C   UNL     1     -11.105   6.399  35.129  1.00  0.00    -0.027 C 
ATOM      4  C   UNL     1      -9.975   7.111  35.830  1.00  0.00     0.035 C 
ATOM      5  C   UNL     1     -10.053   8.638  35.659  1.00  0.00     0.018 C 
ATOM      6  C   UNL     1     -11.476   9.125  35.969  1.00  0.00     0.013 C 
ATOM      7  C   UNL     1     -12.475   8.495  34.991  1.00  0.00     0.031 C 
ENDROOT
BRANCH   5   8
ATOM      8  C   UNL     1      -9.018   9.346  36.523  1.00  0.00    -0.077 C 
ATOM      9  C   UNL     1      -7.762   8.875  36.591  1.00  0.00     0.008 C 
ATOM     10  C   UNL     1      -9.370  10.574  37.327  1.00  0.00     0.039 C 
ENDBRANCH   5   8
TORSDOF 1
ENDMDL
MODEL 6
REMARK VINA RESULT:    -4.922      1.786      5.696
REMARK INTER + INTRA:          -5.336
REMARK INTER:                  -5.207
REMARK INTRA:                  -0.130
REMARK UNBOUND:                -0.127
REMARK SMILES C=C(C)[C@H]1CC=C(C)CC1
REMARK SMILES IDX 8 1 7 2 6 3 5 4 4 5 10 6 9 7 2 8 1 9 3 10
REMARK H PARENT
REMARK Flexibility Score: inf
ROOT
ATOM      1  C   UNL     1     -10.052   7.664  35.985  1.00  0.00     0.039 C 
ATOM      2  C   UNL     1     -11.311   7.175  35.323  1.00  0.00    -0.077 C 
ATOM      3  C   UNL     1     -11.401   5.876  34.964  1.00  0.00    -0.027 C 
ATOM      4  C   UNL     1     -12.598   5.302  34.248  1.00  0.00     0.035 C 
ATOM      5  C   UNL     1     -13.865   6.148  34.461  1.00  0.00     0.018 C 
ATOM      6  C   UNL     1     -13.551   7.630  34.208  1.00  0.00     0.013 C 
ATOM      7  C   UNL     1     -12.490   8.122  35.198  1.00  0.00     0.031 C 
ENDROOT
BRANCH   5   8
ATOM      8  C   UNL     1     -15.011   5.661  33.585  1.00  0.00    -0.077 C 
ATOM      9  C   UNL     1     -15.127   4.355  33.293  1.00  0.00     0.008 C 
ATOM     10  C   UNL     1     -16.031   6.618  33.018  1.00  0.00     0.039 C 
ENDBRANCH   5   8
TORSDOF 1
ENDMDL
MODEL 7
REMARK VINA RESULT:    -4.874      0.873      4.605
REMARK INTER + INTRA:          -5.286
REMARK INTER:                  -5.156
REMARK INTRA:                  -0.130
REMARK UNBOUND:                -0.127
REMARK SMILES C=C(C)[C@H]1CC=C(C)CC1
REMARK SMILES IDX 8 1 7 2 6 3 5 4 4 5 10 6 9 7 2 8 1 9 3 10
REMARK H PARENT
REMARK Flexibility Score: inf
ROOT
ATOM      1  C   UNL     1      -8.725   9.141  36.483  1.00  0.00     0.039 C 
ATOM      2  C   UNL     1      -9.940   8.419  35.970  1.00  0.00    -0.077 C 
ATOM      3  C   UNL     1     -11.093   9.105  35.812  1.00  0.00    -0.027 C 
ATOM      4  C   UNL     1     -12.377   8.460  35.355  1.00  0.00     0.035 C 
ATOM      5  C   UNL     1     -12.129   7.151  34.584  1.00  0.00     0.018 C 
ATOM      6  C   UNL     1     -11.149   6.265  35.366  1.00  0.00     0.013 C 
ATOM      7  C   UNL     1      -9.800   6.977  35.520  1.00  0.00     0.031 C 
ENDROOT
BRANCH   5   8
ATOM      8  C   UNL     1     -13.435   6.423  34.295  1.00  0.00    -0.077 C 
ATOM      9  C   UNL     1     -13.504   5.088  34.422  1.00  0.00     0.008 C 
ATOM     10  C   UNL     1     -14.670   7.168  33.851  1.00  0.00     0.039 C 
ENDBRANCH   5   8
TORSDOF 1
ENDMDL
MODEL 8
REMARK VINA RESULT:    -4.789      1.113      1.604
REMARK INTER + INTRA:          -5.196
REMARK INTER:                  -5.067
REMARK INTRA:                  -0.128
REMARK UNBOUND:                -0.127
REMARK SMILES C=C(C)[C@H]1CC=C(C)CC1
REMARK SMILES IDX 8 1 7 2 6 3 5 4 4 5 10 6 9 7 2 8 1 9 3 10
REMARK H PARENT
REMARK Flexibility Score: inf
ROOT
ATOM      1  C   UNL     1     -13.910   4.778  33.879  1.00  0.00     0.039 C 
ATOM      2  C   UNL     1     -12.906   5.765  34.409  1.00  0.00    -0.077 C 
ATOM      3  C   UNL     1     -13.266   7.061  34.540  1.00  0.00    -0.027 C 
ATOM      4  C   UNL     1     -12.317   8.134  35.010  1.00  0.00     0.035 C 
ATOM      5  C   UNL     1     -11.143   7.558  35.821  1.00  0.00     0.018 C 
ATOM      6  C   UNL     1     -10.526   6.368  35.072  1.00  0.00     0.013 C 
ATOM      7  C   UNL     1     -11.566   5.254  34.902  1.00  0.00     0.031 C 
ENDROOT
BRANCH   5   8
ATOM      8  C   UNL     1     -10.103   8.627  36.126  1.00  0.00    -0.077 C 
ATOM      9  C   UNL     1     -10.491   9.855  36.510  1.00  0.00     0.008 C 
ATOM     10  C   UNL     1      -8.625   8.348  35.997  1.00  0.00     0.039 C 
ENDBRANCH   5   8
TORSDOF 1
ENDMDL
MODEL 9
REMARK VINA RESULT:    -4.662      1.689      4.431
REMARK INTER + INTRA:          -5.061
REMARK INTER:                  -4.930
REMARK INTRA:                  -0.131
REMARK UNBOUND:                -0.127
REMARK SMILES C=C(C)[C@H]1CC=C(C)CC1
REMARK SMILES IDX 8 1 7 2 6 3 5 4 4 5 10 6 9 7 2 8 1 9 3 10
REMARK H PARENT
REMARK Flexibility Score: inf
ROOT
ATOM      1  C   UNL     1      -9.751  10.757  37.318  1.00  0.00     0.039 C 
ATOM      2  C   UNL     1      -9.643   9.471  36.544  1.00  0.00    -0.077 C 
ATOM      3  C   UNL     1      -8.418   8.970  36.273  1.00  0.00    -0.027 C 
ATOM      4  C   UNL     1      -8.204   7.718  35.459  1.00  0.00     0.035 C 
ATOM      5  C   UNL     1      -9.445   6.808  35.453  1.00  0.00     0.018 C 
ATOM      6  C   UNL     1     -10.697   7.638  35.132  1.00  0.00     0.013 C 
ATOM      7  C   UNL     1     -10.911   8.710  36.207  1.00  0.00     0.031 C 
ENDROOT
BRANCH   5   8
ATOM      8  C   UNL     1      -9.278   5.648  34.482  1.00  0.00    -0.077 C 
ATOM      9  C   UNL     1      -8.608   5.825  33.331  1.00  0.00     0.008 C 
ATOM     10  C   UNL     1      -9.860   4.287  34.773  1.00  0.00     0.039 C 
ENDBRANCH   5   8
TORSDOF 1
ENDMDL
