MODEL 1
REMARK VINA RESULT:    -5.511      0.000      0.000
REMARK INTER + INTRA:         -17.546
REMARK INTER:                 -13.888
REMARK INTRA:                  -3.658
REMARK UNBOUND:                -3.658
REMARK SMILES CCCCCCCCCCCCCCCCCCCCCCCCCCCC(=O)[O-]
REMARK SMILES IDX 15 1 16 2 17 3 18 4 19 5 20 6 21 7 22 8 23 9 24 10 25 11
REMARK SMILES IDX 26 12 27 13 28 14 29 15 30 16 14 17 13 18 12 19 11 20 10 21
REMARK SMILES IDX 9 22 8 23 7 24 6 25 5 26 4 27 3 28 2 29 1 30
REMARK H PARENT
REMARK Flexibility Score: inf
ROOT
ATOM      1  C   UNL     1      84.601  58.113   8.973  1.00  0.00     0.000 C 
ENDROOT
BRANCH   1   2
ATOM      2  C   UNL     1      84.764  56.688   8.418  1.00  0.00     0.000 C 
BRANCH   2   3
ATOM      3  C   UNL     1      84.876  55.632   9.531  1.00  0.00     0.000 C 
BRANCH   3   4
ATOM      4  C   UNL     1      85.679  56.131  10.748  1.00  0.00     0.000 C 
BRANCH   4   5
ATOM      5  C   UNL     1      87.207  55.976  10.628  1.00  0.00     0.000 C 
BRANCH   5   6
ATOM      6  C   UNL     1      88.007  57.284  10.776  1.00  0.00     0.000 C 
BRANCH   6   7
ATOM      7  C   UNL     1      88.761  57.700   9.495  1.00  0.00     0.000 C 
BRANCH   7   8
ATOM      8  C   UNL     1      88.545  56.712   8.337  1.00  0.00     0.000 C 
BRANCH   8   9
ATOM      9  C   UNL     1      88.539  57.411   6.968  1.00  0.00     0.000 C 
BRANCH   9  10
ATOM     10  C   UNL     1      88.913  58.901   7.069  1.00  0.00     0.000 C 
BRANCH  10  11
ATOM     11  C   UNL     1      88.908  59.604   5.701  1.00  0.00     0.000 C 
BRANCH  11  12
ATOM     12  C   UNL     1      89.566  60.994   5.755  1.00  0.00     0.006 C 
BRANCH  12  13
ATOM     13  C   UNL     1      90.957  60.949   6.400  1.00  0.00     0.053 C 
BRANCH  13  14
ATOM     14  C   UNL     1      91.099  61.967   7.490  1.00  0.00     0.041 C 
ATOM     15  O   UNL     1      90.077  62.441   8.052  1.00  0.00    -0.550 OA
ATOM     16  O   UNL     1      92.363  62.380   7.896  1.00  0.00    -0.550 OA
ENDBRANCH  13  14
ENDBRANCH  12  13
ENDBRANCH  11  12
ENDBRANCH  10  11
ENDBRANCH   9  10
ENDBRANCH   8   9
ENDBRANCH   7   8
ENDBRANCH   6   7
ENDBRANCH   5   6
ENDBRANCH   4   5
ENDBRANCH   3   4
ENDBRANCH   2   3
ENDBRANCH   1   2
BRANCH   1  17
ATOM     17  C   UNL     1      85.306  59.166   8.101  1.00  0.00     0.000 C 
BRANCH  17  18
ATOM     18  C   UNL     1      86.075  60.214   8.930  1.00  0.00     0.000 C 
BRANCH  18  19
ATOM     19  C   UNL     1      85.333  60.731  10.175  1.00  0.00     0.000 C 
BRANCH  19  20
ATOM     20  C   UNL     1      84.579  62.048   9.918  1.00  0.00     0.000 C 
BRANCH  20  21
ATOM     21  C   UNL     1      83.052  61.868   9.920  1.00  0.00     0.000 C 
BRANCH  21  22
ATOM     22  C   UNL     1      82.613  60.580  10.637  1.00  0.00    -0.000 C 
BRANCH  22  23
ATOM     23  C   UNL     1      81.137  60.237  10.379  1.00  0.00    -0.000 C 
BRANCH  23  24
ATOM     24  C   UNL     1      80.835  58.740  10.568  1.00  0.00    -0.000 C 
BRANCH  24  25
ATOM     25  C   UNL     1      79.409  58.360  10.127  1.00  0.00    -0.000 C 
BRANCH  25  26
ATOM     26  C   UNL     1      78.812  57.141  10.853  1.00  0.00    -0.000 C 
BRANCH  26  27
ATOM     27  C   UNL     1      78.022  56.214   9.916  1.00  0.00    -0.000 C 
BRANCH  27  28
ATOM     28  C   UNL     1      77.890  56.836   8.519  1.00  0.00    -0.000 C 
BRANCH  28  29
ATOM     29  C   UNL     1      77.746  55.779   7.413  1.00  0.00    -0.003 C 
ATOM     30  C   UNL     1      78.463  54.471   7.746  1.00  0.00     0.004 C 
ENDBRANCH  28  29
ENDBRANCH  27  28
ENDBRANCH  26  27
ENDBRANCH  25  26
ENDBRANCH  24  25
ENDBRANCH  23  24
ENDBRANCH  22  23
ENDBRANCH  21  22
ENDBRANCH  20  21
ENDBRANCH  19  20
ENDBRANCH  18  19
ENDBRANCH  17  18
ENDBRANCH   1  17
TORSDOF 26
ENDMDL
MODEL 2
REMARK VINA RESULT:    -5.250      3.976      7.349
REMARK INTER + INTRA:         -16.887
REMARK INTER:                 -11.570
REMARK INTRA:                  -5.317
REMARK UNBOUND:                -3.658
REMARK SMILES CCCCCCCCCCCCCCCCCCCCCCCCCCCC(=O)[O-]
REMARK SMILES IDX 15 1 16 2 17 3 18 4 19 5 20 6 21 7 22 8 23 9 24 10 25 11
REMARK SMILES IDX 26 12 27 13 28 14 29 15 30 16 14 17 13 18 12 19 11 20 10 21
REMARK SMILES IDX 9 22 8 23 7 24 6 25 5 26 4 27 3 28 2 29 1 30
REMARK H PARENT
REMARK Flexibility Score: inf
ROOT
ATOM      1  C   UNL     1      90.556  60.781   7.034  1.00  0.00     0.000 C 
ENDROOT
BRANCH   1   2
ATOM      2  C   UNL     1      91.161  61.704   5.964  1.00  0.00     0.000 C 
BRANCH   2   3
ATOM      3  C   UNL     1      92.213  62.666   6.542  1.00  0.00     0.000 C 
BRANCH   3   4
ATOM      4  C   UNL     1      92.214  62.693   8.083  1.00  0.00     0.000 C 
BRANCH   4   5
ATOM      5  C   UNL     1      91.932  64.071   8.711  1.00  0.00     0.000 C 
BRANCH   5   6
ATOM      6  C   UNL     1      90.774  64.099   9.727  1.00  0.00     0.000 C 
BRANCH   6   7
ATOM      7  C   UNL     1      89.446  64.624   9.142  1.00  0.00     0.000 C 
BRANCH   7   8
ATOM      8  C   UNL     1      89.598  65.135   7.700  1.00  0.00     0.000 C 
BRANCH   8   9
ATOM      9  C   UNL     1      88.409  64.734   6.811  1.00  0.00     0.000 C 
BRANCH   9  10
ATOM     10  C   UNL     1      87.313  63.992   7.597  1.00  0.00     0.000 C 
BRANCH  10  11
ATOM     11  C   UNL     1      85.898  64.320   7.092  1.00  0.00     0.000 C 
BRANCH  11  12
ATOM     12  C   UNL     1      84.859  63.280   7.544  1.00  0.00     0.006 C 
BRANCH  12  13
ATOM     13  C   UNL     1      85.462  62.235   8.491  1.00  0.00     0.053 C 
BRANCH  13  14
ATOM     14  C   UNL     1      84.948  62.388   9.891  1.00  0.00     0.041 C 
ATOM     15  O   UNL     1      84.630  61.372  10.564  1.00  0.00    -0.550 OA
ATOM     16  O   UNL     1      84.837  63.652  10.456  1.00  0.00    -0.550 OA
ENDBRANCH  13  14
ENDBRANCH  12  13
ENDBRANCH  11  12
ENDBRANCH  10  11
ENDBRANCH   9  10
ENDBRANCH   8   9
ENDBRANCH   7   8
ENDBRANCH   6   7
ENDBRANCH   5   6
ENDBRANCH   4   5
ENDBRANCH   3   4
ENDBRANCH   2   3
ENDBRANCH   1   2
BRANCH   1  17
ATOM     17  C   UNL     1      89.055  61.040   7.253  1.00  0.00     0.000 C 
BRANCH  17  18
ATOM     18  C   UNL     1      88.390  59.983   8.155  1.00  0.00     0.000 C 
BRANCH  18  19
ATOM     19  C   UNL     1      88.854  58.535   7.914  1.00  0.00     0.000 C 
BRANCH  19  20
ATOM     20  C   UNL     1      88.926  57.707   9.209  1.00  0.00     0.000 C 
BRANCH  20  21
ATOM     21  C   UNL     1      88.033  56.455   9.163  1.00  0.00     0.000 C 
BRANCH  21  22
ATOM     22  C   UNL     1      86.947  56.468  10.252  1.00  0.00    -0.000 C 
BRANCH  22  23
ATOM     23  C   UNL     1      86.255  57.835  10.376  1.00  0.00    -0.000 C 
BRANCH  23  24
ATOM     24  C   UNL     1      84.923  57.897   9.608  1.00  0.00    -0.000 C 
BRANCH  24  25
ATOM     25  C   UNL     1      85.061  58.568   8.229  1.00  0.00    -0.000 C 
BRANCH  25  26
ATOM     26  C   UNL     1      85.268  57.594   7.054  1.00  0.00    -0.000 C 
BRANCH  26  27
ATOM     27  C   UNL     1      85.843  58.279   5.804  1.00  0.00    -0.000 C 
BRANCH  27  28
ATOM     28  C   UNL     1      85.496  59.774   5.794  1.00  0.00    -0.000 C 
BRANCH  28  29
ATOM     29  C   UNL     1      86.443  60.594   4.905  1.00  0.00    -0.003 C 
ATOM     30  C   UNL     1      87.476  59.728   4.182  1.00  0.00     0.004 C 
ENDBRANCH  28  29
ENDBRANCH  27  28
ENDBRANCH  26  27
ENDBRANCH  25  26
ENDBRANCH  24  25
ENDBRANCH  23  24
ENDBRANCH  22  23
ENDBRANCH  21  22
ENDBRANCH  20  21
ENDBRANCH  19  20
ENDBRANCH  18  19
ENDBRANCH  17  18
ENDBRANCH   1  17
TORSDOF 26
ENDMDL
MODEL 3
REMARK VINA RESULT:    -5.245      3.788      8.229
REMARK INTER + INTRA:         -16.874
REMARK INTER:                 -13.457
REMARK INTRA:                  -3.417
REMARK UNBOUND:                -3.658
REMARK SMILES CCCCCCCCCCCCCCCCCCCCCCCCCCCC(=O)[O-]
REMARK SMILES IDX 15 1 16 2 17 3 18 4 19 5 20 6 21 7 22 8 23 9 24 10 25 11
REMARK SMILES IDX 26 12 27 13 28 14 29 15 30 16 14 17 13 18 12 19 11 20 10 21
REMARK SMILES IDX 9 22 8 23 7 24 6 25 5 26 4 27 3 28 2 29 1 30
REMARK H PARENT
REMARK Flexibility Score: inf
ROOT
ATOM      1  C   UNL     1      79.556  57.325  10.392  1.00  0.00     0.000 C 
ENDROOT
BRANCH   1   2
ATOM      2  C   UNL     1      78.259  56.516  10.228  1.00  0.00     0.000 C 
BRANCH   2   3
ATOM      3  C   UNL     1      77.577  56.766   8.872  1.00  0.00     0.000 C 
BRANCH   3   4
ATOM      4  C   UNL     1      78.141  55.876   7.748  1.00  0.00     0.000 C 
BRANCH   4   5
ATOM      5  C   UNL     1      77.935  54.363   7.949  1.00  0.00     0.000 C 
BRANCH   5   6
ATOM      6  C   UNL     1      79.141  53.485   7.564  1.00  0.00     0.000 C 
BRANCH   6   7
ATOM      7  C   UNL     1      80.498  54.214   7.665  1.00  0.00     0.000 C 
BRANCH   7   8
ATOM      8  C   UNL     1      81.243  53.896   8.972  1.00  0.00     0.000 C 
BRANCH   8   9
ATOM      9  C   UNL     1      82.158  55.048   9.416  1.00  0.00     0.000 C 
BRANCH   9  10
ATOM     10  C   UNL     1      82.808  54.785  10.787  1.00  0.00     0.000 C 
BRANCH  10  11
ATOM     11  C   UNL     1      84.318  54.511  10.681  1.00  0.00     0.000 C 
BRANCH  11  12
ATOM     12  C   UNL     1      84.836  54.640   9.238  1.00  0.00     0.006 C 
BRANCH  12  13
ATOM     13  C   UNL     1      86.087  53.786   8.995  1.00  0.00     0.053 C 
BRANCH  13  14
ATOM     14  C   UNL     1      87.281  54.327   9.721  1.00  0.00     0.041 C 
ATOM     15  O   UNL     1      87.753  55.453   9.414  1.00  0.00    -0.550 OA
ATOM     16  O   UNL     1      87.862  53.593  10.748  1.00  0.00    -0.550 OA
ENDBRANCH  13  14
ENDBRANCH  12  13
ENDBRANCH  11  12
ENDBRANCH  10  11
ENDBRANCH   9  10
ENDBRANCH   8   9
ENDBRANCH   7   8
ENDBRANCH   6   7
ENDBRANCH   5   6
ENDBRANCH   4   5
ENDBRANCH   3   4
ENDBRANCH   2   3
ENDBRANCH   1   2
BRANCH   1  17
ATOM     17  C   UNL     1      79.368  58.812  10.045  1.00  0.00     0.000 C 
BRANCH  17  18
ATOM     18  C   UNL     1      80.610  59.665  10.367  1.00  0.00     0.000 C 
BRANCH  18  19
ATOM     19  C   UNL     1      81.855  58.868  10.797  1.00  0.00     0.000 C 
BRANCH  19  20
ATOM     20  C   UNL     1      83.167  59.487  10.286  1.00  0.00     0.000 C 
BRANCH  20  21
ATOM     21  C   UNL     1      84.120  58.443   9.680  1.00  0.00     0.000 C 
BRANCH  21  22
ATOM     22  C   UNL     1      85.252  58.050  10.645  1.00  0.00    -0.000 C 
BRANCH  22  23
ATOM     23  C   UNL     1      86.015  59.271  11.183  1.00  0.00    -0.000 C 
BRANCH  23  24
ATOM     24  C   UNL     1      86.013  59.341  12.720  1.00  0.00    -0.000 C 
BRANCH  24  25
ATOM     25  C   UNL     1      85.223  60.548  13.260  1.00  0.00    -0.000 C 
BRANCH  25  26
ATOM     26  C   UNL     1      84.261  60.225  14.418  1.00  0.00    -0.000 C 
BRANCH  26  27
ATOM     27  C   UNL     1      84.627  60.953  15.721  1.00  0.00    -0.000 C 
BRANCH  27  28
ATOM     28  C   UNL     1      85.689  62.031  15.463  1.00  0.00    -0.000 C 
BRANCH  28  29
ATOM     29  C   UNL     1      85.256  63.418  15.960  1.00  0.00    -0.003 C 
ATOM     30  C   UNL     1      85.436  64.509  14.904  1.00  0.00     0.004 C 
ENDBRANCH  28  29
ENDBRANCH  27  28
ENDBRANCH  26  27
ENDBRANCH  25  26
ENDBRANCH  24  25
ENDBRANCH  23  24
ENDBRANCH  22  23
ENDBRANCH  21  22
ENDBRANCH  20  21
ENDBRANCH  19  20
ENDBRANCH  18  19
ENDBRANCH  17  18
ENDBRANCH   1  17
TORSDOF 26
ENDMDL
MODEL 4
REMARK VINA RESULT:    -5.224      3.769      6.993
REMARK INTER + INTRA:         -16.822
REMARK INTER:                 -12.255
REMARK INTRA:                  -4.567
REMARK UNBOUND:                -3.658
REMARK SMILES CCCCCCCCCCCCCCCCCCCCCCCCCCCC(=O)[O-]
REMARK SMILES IDX 15 1 16 2 17 3 18 4 19 5 20 6 21 7 22 8 23 9 24 10 25 11
REMARK SMILES IDX 26 12 27 13 28 14 29 15 30 16 14 17 13 18 12 19 11 20 10 21
REMARK SMILES IDX 9 22 8 23 7 24 6 25 5 26 4 27 3 28 2 29 1 30
REMARK H PARENT
REMARK Flexibility Score: inf
ROOT
ATOM      1  C   UNL     1      84.382  63.391   8.052  1.00  0.00     0.000 C 
ENDROOT
BRANCH   1   2
ATOM      2  C   UNL     1      85.799  63.516   7.468  1.00  0.00     0.000 C 
BRANCH   2   3
ATOM      3  C   UNL     1      86.893  63.304   8.528  1.00  0.00     0.000 C 
BRANCH   3   4
ATOM      4  C   UNL     1      87.743  64.566   8.769  1.00  0.00     0.000 C 
BRANCH   4   5
ATOM      5  C   UNL     1      88.070  65.384   7.504  1.00  0.00     0.000 C 
BRANCH   5   6
ATOM      6  C   UNL     1      89.131  66.483   7.696  1.00  0.00     0.000 C 
BRANCH   6   7
ATOM      7  C   UNL     1      90.579  65.995   7.472  1.00  0.00     0.000 C 
BRANCH   7   8
ATOM      8  C   UNL     1      91.482  66.250   8.690  1.00  0.00     0.000 C 
BRANCH   8   9
ATOM      9  C   UNL     1      91.987  64.944   9.325  1.00  0.00     0.000 C 
BRANCH   9  10
ATOM     10  C   UNL     1      91.273  63.703   8.760  1.00  0.00     0.000 C 
BRANCH  10  11
ATOM     11  C   UNL     1      92.253  62.679   8.163  1.00  0.00     0.000 C 
BRANCH  11  12
ATOM     12  C   UNL     1      91.614  61.846   7.038  1.00  0.00     0.006 C 
BRANCH  12  13
ATOM     13  C   UNL     1      90.082  61.918   7.064  1.00  0.00     0.053 C 
BRANCH  13  14
ATOM     14  C   UNL     1      89.531  62.495   5.795  1.00  0.00     0.041 C 
ATOM     15  O   UNL     1      90.210  63.316   5.123  1.00  0.00    -0.550 OA
ATOM     16  O   UNL     1      88.272  62.111   5.347  1.00  0.00    -0.550 OA
ENDBRANCH  13  14
ENDBRANCH  12  13
ENDBRANCH  11  12
ENDBRANCH  10  11
ENDBRANCH   9  10
ENDBRANCH   8   9
ENDBRANCH   7   8
ENDBRANCH   6   7
ENDBRANCH   5   6
ENDBRANCH   4   5
ENDBRANCH   3   4
ENDBRANCH   2   3
ENDBRANCH   1   2
BRANCH   1  17
ATOM     17  C   UNL     1      84.394  63.137   9.569  1.00  0.00     0.000 C 
BRANCH  17  18
ATOM     18  C   UNL     1      83.859  61.742   9.947  1.00  0.00     0.000 C 
BRANCH  18  19
ATOM     19  C   UNL     1      84.932  60.729  10.386  1.00  0.00     0.000 C 
BRANCH  19  20
ATOM     20  C   UNL     1      84.891  60.430  11.895  1.00  0.00     0.000 C 
BRANCH  20  21
ATOM     21  C   UNL     1      85.949  59.400  12.325  1.00  0.00     0.000 C 
BRANCH  21  22
ATOM     22  C   UNL     1      86.142  58.286  11.281  1.00  0.00    -0.000 C 
BRANCH  22  23
ATOM     23  C   UNL     1      87.622  57.940  11.056  1.00  0.00    -0.000 C 
BRANCH  23  24
ATOM     24  C   UNL     1      87.817  56.805  10.035  1.00  0.00    -0.000 C 
BRANCH  24  25
ATOM     25  C   UNL     1      88.719  57.214   8.856  1.00  0.00    -0.000 C 
BRANCH  25  26
ATOM     26  C   UNL     1      88.665  58.708   8.489  1.00  0.00    -0.000 C 
BRANCH  26  27
ATOM     27  C   UNL     1      87.993  58.966   7.131  1.00  0.00    -0.000 C 
BRANCH  27  28
ATOM     28  C   UNL     1      86.634  59.655   7.318  1.00  0.00    -0.000 C 
BRANCH  28  29
ATOM     29  C   UNL     1      85.501  58.658   7.604  1.00  0.00    -0.003 C 
ATOM     30  C   UNL     1      85.564  57.416   6.714  1.00  0.00     0.004 C 
ENDBRANCH  28  29
ENDBRANCH  27  28
ENDBRANCH  26  27
ENDBRANCH  25  26
ENDBRANCH  24  25
ENDBRANCH  23  24
ENDBRANCH  22  23
ENDBRANCH  21  22
ENDBRANCH  20  21
ENDBRANCH  19  20
ENDBRANCH  18  19
ENDBRANCH  17  18
ENDBRANCH   1  17
TORSDOF 26
ENDMDL
MODEL 5
REMARK VINA RESULT:    -5.168      3.745      9.553
REMARK INTER + INTRA:         -16.680
REMARK INTER:                 -11.734
REMARK INTRA:                  -4.946
REMARK UNBOUND:                -3.658
REMARK SMILES CCCCCCCCCCCCCCCCCCCCCCCCCCCC(=O)[O-]
REMARK SMILES IDX 15 1 16 2 17 3 18 4 19 5 20 6 21 7 22 8 23 9 24 10 25 11
REMARK SMILES IDX 26 12 27 13 28 14 29 15 30 16 14 17 13 18 12 19 11 20 10 21
REMARK SMILES IDX 9 22 8 23 7 24 6 25 5 26 4 27 3 28 2 29 1 30
REMARK H PARENT
REMARK Flexibility Score: inf
ROOT
ATOM      1  C   UNL     1      88.814  64.323   8.095  1.00  0.00     0.000 C 
ENDROOT
BRANCH   1   2
ATOM      2  C   UNL     1      88.094  65.489   7.398  1.00  0.00     0.000 C 
BRANCH   2   3
ATOM      3  C   UNL     1      86.648  65.138   7.007  1.00  0.00     0.000 C 
BRANCH   3   4
ATOM      4  C   UNL     1      86.437  63.627   6.794  1.00  0.00     0.000 C 
BRANCH   4   5
ATOM      5  C   UNL     1      85.451  62.961   7.773  1.00  0.00     0.000 C 
BRANCH   5   6
ATOM      6  C   UNL     1      85.923  62.912   9.239  1.00  0.00     0.000 C 
BRANCH   6   7
ATOM      7  C   UNL     1      84.778  63.043  10.266  1.00  0.00     0.000 C 
BRANCH   7   8
ATOM      8  C   UNL     1      83.391  62.857   9.629  1.00  0.00     0.000 C 
BRANCH   8   9
ATOM      9  C   UNL     1      82.746  61.516  10.016  1.00  0.00     0.000 C 
BRANCH   9  10
ATOM     10  C   UNL     1      83.598  60.726  11.026  1.00  0.00     0.000 C 
BRANCH  10  11
ATOM     11  C   UNL     1      84.183  59.438  10.424  1.00  0.00     0.000 C 
BRANCH  11  12
ATOM     12  C   UNL     1      85.719  59.401  10.502  1.00  0.00     0.006 C 
BRANCH  12  13
ATOM     13  C   UNL     1      86.331  58.503   9.418  1.00  0.00     0.053 C 
BRANCH  13  14
ATOM     14  C   UNL     1      87.424  57.636   9.965  1.00  0.00     0.041 C 
ATOM     15  O   UNL     1      87.151  56.687  10.745  1.00  0.00    -0.550 OA
ATOM     16  O   UNL     1      88.744  57.868   9.597  1.00  0.00    -0.550 OA
ENDBRANCH  13  14
ENDBRANCH  12  13
ENDBRANCH  11  12
ENDBRANCH  10  11
ENDBRANCH   9  10
ENDBRANCH   8   9
ENDBRANCH   7   8
ENDBRANCH   6   7
ENDBRANCH   5   6
ENDBRANCH   4   5
ENDBRANCH   3   4
ENDBRANCH   2   3
ENDBRANCH   1   2
BRANCH   1  17
ATOM     17  C   UNL     1      89.444  64.742   9.436  1.00  0.00     0.000 C 
BRANCH  17  18
ATOM     18  C   UNL     1      90.833  64.116   9.667  1.00  0.00     0.000 C 
BRANCH  18  19
ATOM     19  C   UNL     1      91.993  64.816   8.936  1.00  0.00     0.000 C 
BRANCH  19  20
ATOM     20  C   UNL     1      91.872  66.350   8.954  1.00  0.00     0.000 C 
BRANCH  20  21
ATOM     21  C   UNL     1      91.531  66.935   7.573  1.00  0.00     0.000 C 
BRANCH  21  22
ATOM     22  C   UNL     1      92.215  66.171   6.427  1.00  0.00    -0.000 C 
BRANCH  22  23
ATOM     23  C   UNL     1      91.237  65.799   5.302  1.00  0.00    -0.000 C 
BRANCH  23  24
ATOM     24  C   UNL     1      91.055  64.278   5.153  1.00  0.00    -0.000 C 
BRANCH  24  25
ATOM     25  C   UNL     1      92.307  63.484   5.572  1.00  0.00    -0.000 C 
BRANCH  25  26
ATOM     26  C   UNL     1      92.019  62.170   6.320  1.00  0.00    -0.000 C 
BRANCH  26  27
ATOM     27  C   UNL     1      90.559  61.710   6.180  1.00  0.00    -0.000 C 
BRANCH  27  28
ATOM     28  C   UNL     1      90.134  60.868   7.391  1.00  0.00    -0.000 C 
BRANCH  28  29
ATOM     29  C   UNL     1      88.609  60.738   7.514  1.00  0.00    -0.003 C 
ATOM     30  C   UNL     1      87.999  59.856   6.424  1.00  0.00     0.004 C 
ENDBRANCH  28  29
ENDBRANCH  27  28
ENDBRANCH  26  27
ENDBRANCH  25  26
ENDBRANCH  24  25
ENDBRANCH  23  24
ENDBRANCH  22  23
ENDBRANCH  21  22
ENDBRANCH  20  21
ENDBRANCH  19  20
ENDBRANCH  18  19
ENDBRANCH  17  18
ENDBRANCH   1  17
TORSDOF 26
ENDMDL
MODEL 6
REMARK VINA RESULT:    -5.162      3.852      6.877
REMARK INTER + INTRA:         -16.665
REMARK INTER:                 -11.599
REMARK INTRA:                  -5.066
REMARK UNBOUND:                -3.658
REMARK SMILES CCCCCCCCCCCCCCCCCCCCCCCCCCCC(=O)[O-]
REMARK SMILES IDX 15 1 16 2 17 3 18 4 19 5 20 6 21 7 22 8 23 9 24 10 25 11
REMARK SMILES IDX 26 12 27 13 28 14 29 15 30 16 14 17 13 18 12 19 11 20 10 21
REMARK SMILES IDX 9 22 8 23 7 24 6 25 5 26 4 27 3 28 2 29 1 30
REMARK H PARENT
REMARK Flexibility Score: inf
ROOT
ATOM      1  C   UNL     1      86.074  61.709   6.382  1.00  0.00     0.000 C 
ENDROOT
BRANCH   1   2
ATOM      2  C   UNL     1      87.601  61.876   6.437  1.00  0.00     0.000 C 
BRANCH   2   3
ATOM      3  C   UNL     1      88.204  61.345   7.749  1.00  0.00     0.000 C 
BRANCH   3   4
ATOM      4  C   UNL     1      89.674  60.908   7.596  1.00  0.00     0.000 C 
BRANCH   4   5
ATOM      5  C   UNL     1      90.318  61.252   6.239  1.00  0.00     0.000 C 
BRANCH   5   6
ATOM      6  C   UNL     1      91.852  61.395   6.264  1.00  0.00     0.000 C 
BRANCH   6   7
ATOM      7  C   UNL     1      92.343  62.849   6.101  1.00  0.00     0.000 C 
BRANCH   7   8
ATOM      8  C   UNL     1      91.221  63.878   6.312  1.00  0.00     0.000 C 
BRANCH   8   9
ATOM      9  C   UNL     1      91.511  64.825   7.488  1.00  0.00     0.000 C 
BRANCH   9  10
ATOM     10  C   UNL     1      91.754  64.067   8.805  1.00  0.00     0.000 C 
BRANCH  10  11
ATOM     11  C   UNL     1      90.532  64.102   9.740  1.00  0.00     0.000 C 
BRANCH  11  12
ATOM     12  C   UNL     1      89.569  65.253   9.400  1.00  0.00     0.006 C 
BRANCH  12  13
ATOM     13  C   UNL     1      88.210  64.742   8.906  1.00  0.00     0.053 C 
BRANCH  13  14
ATOM     14  C   UNL     1      87.675  65.578   7.783  1.00  0.00     0.041 C 
ATOM     15  O   UNL     1      88.291  66.612   7.413  1.00  0.00    -0.550 OA
ATOM     16  O   UNL     1      86.503  65.205   7.136  1.00  0.00    -0.550 OA
ENDBRANCH  13  14
ENDBRANCH  12  13
ENDBRANCH  11  12
ENDBRANCH  10  11
ENDBRANCH   9  10
ENDBRANCH   8   9
ENDBRANCH   7   8
ENDBRANCH   6   7
ENDBRANCH   5   6
ENDBRANCH   4   5
ENDBRANCH   3   4
ENDBRANCH   2   3
ENDBRANCH   1   2
BRANCH   1  17
ATOM     17  C   UNL     1      85.643  60.540   5.478  1.00  0.00     0.000 C 
BRANCH  17  18
ATOM     18  C   UNL     1      86.138  59.174   5.990  1.00  0.00     0.000 C 
BRANCH  18  19
ATOM     19  C   UNL     1      87.244  58.521   5.141  1.00  0.00     0.000 C 
BRANCH  19  20
ATOM     20  C   UNL     1      88.312  57.813   5.993  1.00  0.00     0.000 C 
BRANCH  20  21
ATOM     21  C   UNL     1      87.702  56.891   7.063  1.00  0.00     0.000 C 
BRANCH  21  22
ATOM     22  C   UNL     1      88.659  56.647   8.242  1.00  0.00    -0.000 C 
BRANCH  22  23
ATOM     23  C   UNL     1      88.650  57.802   9.255  1.00  0.00    -0.000 C 
BRANCH  23  24
ATOM     24  C   UNL     1      87.879  57.457  10.542  1.00  0.00    -0.000 C 
BRANCH  24  25
ATOM     25  C   UNL     1      86.435  57.993  10.532  1.00  0.00    -0.000 C 
BRANCH  25  26
ATOM     26  C   UNL     1      86.291  59.453  10.067  1.00  0.00    -0.000 C 
BRANCH  26  27
ATOM     27  C   UNL     1      84.954  59.727   9.361  1.00  0.00    -0.000 C 
BRANCH  27  28
ATOM     28  C   UNL     1      84.037  60.585  10.244  1.00  0.00    -0.000 C 
BRANCH  28  29
ATOM     29  C   UNL     1      83.765  61.971   9.643  1.00  0.00    -0.003 C 
ATOM     30  C   UNL     1      84.983  62.894   9.705  1.00  0.00     0.004 C 
ENDBRANCH  28  29
ENDBRANCH  27  28
ENDBRANCH  26  27
ENDBRANCH  25  26
ENDBRANCH  24  25
ENDBRANCH  23  24
ENDBRANCH  22  23
ENDBRANCH  21  22
ENDBRANCH  20  21
ENDBRANCH  19  20
ENDBRANCH  18  19
ENDBRANCH  17  18
ENDBRANCH   1  17
TORSDOF 26
ENDMDL
MODEL 7
REMARK VINA RESULT:    -5.113      3.381      8.007
REMARK INTER + INTRA:         -16.542
REMARK INTER:                 -11.483
REMARK INTRA:                  -5.059
REMARK UNBOUND:                -3.658
REMARK SMILES CCCCCCCCCCCCCCCCCCCCCCCCCCCC(=O)[O-]
REMARK SMILES IDX 15 1 16 2 17 3 18 4 19 5 20 6 21 7 22 8 23 9 24 10 25 11
REMARK SMILES IDX 26 12 27 13 28 14 29 15 30 16 14 17 13 18 12 19 11 20 10 21
REMARK SMILES IDX 9 22 8 23 7 24 6 25 5 26 4 27 3 28 2 29 1 30
REMARK H PARENT
REMARK Flexibility Score: inf
ROOT
ATOM      1  C   UNL     1      89.637  67.015   7.909  1.00  0.00     0.000 C 
ENDROOT
BRANCH   1   2
ATOM      2  C   UNL     1      90.477  66.720   9.162  1.00  0.00     0.000 C 
BRANCH   2   3
ATOM      3  C   UNL     1      89.885  65.584  10.014  1.00  0.00     0.000 C 
BRANCH   3   4
ATOM      4  C   UNL     1      90.535  64.218   9.721  1.00  0.00     0.000 C 
BRANCH   4   5
ATOM      5  C   UNL     1      91.959  64.286   9.137  1.00  0.00     0.000 C 
BRANCH   5   6
ATOM      6  C   UNL     1      92.315  63.153   8.155  1.00  0.00     0.000 C 
BRANCH   6   7
ATOM      7  C   UNL     1      91.245  62.043   8.072  1.00  0.00     0.000 C 
BRANCH   7   8
ATOM      8  C   UNL     1      91.284  61.285   6.736  1.00  0.00     0.000 C 
BRANCH   8   9
ATOM      9  C   UNL     1      89.994  60.488   6.480  1.00  0.00     0.000 C 
BRANCH   9  10
ATOM     10  C   UNL     1      89.051  60.493   7.696  1.00  0.00     0.000 C 
BRANCH  10  11
ATOM     11  C   UNL     1      87.586  60.229   7.307  1.00  0.00     0.000 C 
BRANCH  11  12
ATOM     12  C   UNL     1      86.661  60.146   8.534  1.00  0.00     0.006 C 
BRANCH  12  13
ATOM     13  C   UNL     1      85.949  58.790   8.630  1.00  0.00     0.053 C 
BRANCH  13  14
ATOM     14  C   UNL     1      86.862  57.717   9.142  1.00  0.00     0.041 C 
ATOM     15  O   UNL     1      87.702  57.976  10.043  1.00  0.00    -0.550 OA
ATOM     16  O   UNL     1      86.771  56.427   8.634  1.00  0.00    -0.550 OA
ENDBRANCH  13  14
ENDBRANCH  12  13
ENDBRANCH  11  12
ENDBRANCH  10  11
ENDBRANCH   9  10
ENDBRANCH   8   9
ENDBRANCH   7   8
ENDBRANCH   6   7
ENDBRANCH   5   6
ENDBRANCH   4   5
ENDBRANCH   3   4
ENDBRANCH   2   3
ENDBRANCH   1   2
BRANCH   1  17
ATOM     17  C   UNL     1      90.485  67.571   6.751  1.00  0.00     0.000 C 
BRANCH  17  18
ATOM     18  C   UNL     1      91.565  66.582   6.271  1.00  0.00     0.000 C 
BRANCH  18  19
ATOM     19  C   UNL     1      91.276  65.909   4.917  1.00  0.00     0.000 C 
BRANCH  19  20
ATOM     20  C   UNL     1      90.878  64.429   5.057  1.00  0.00     0.000 C 
BRANCH  20  21
ATOM     21  C   UNL     1      89.356  64.215   4.997  1.00  0.00     0.000 C 
BRANCH  21  22
ATOM     22  C   UNL     1      88.734  64.033   6.392  1.00  0.00    -0.000 C 
BRANCH  22  23
ATOM     23  C   UNL     1      87.207  63.863   6.337  1.00  0.00    -0.000 C 
BRANCH  23  24
ATOM     24  C   UNL     1      86.494  64.525   7.529  1.00  0.00    -0.000 C 
BRANCH  24  25
ATOM     25  C   UNL     1      86.743  63.786   8.857  1.00  0.00    -0.000 C 
BRANCH  25  26
ATOM     26  C   UNL     1      85.472  63.460   9.663  1.00  0.00    -0.000 C 
BRANCH  26  27
ATOM     27  C   UNL     1      84.378  62.797   8.811  1.00  0.00    -0.000 C 
BRANCH  27  28
ATOM     28  C   UNL     1      83.131  62.504   9.657  1.00  0.00    -0.000 C 
BRANCH  28  29
ATOM     29  C   UNL     1      83.177  61.117  10.316  1.00  0.00    -0.003 C 
ATOM     30  C   UNL     1      81.796  60.473  10.440  1.00  0.00     0.004 C 
ENDBRANCH  28  29
ENDBRANCH  27  28
ENDBRANCH  26  27
ENDBRANCH  25  26
ENDBRANCH  24  25
ENDBRANCH  23  24
ENDBRANCH  22  23
ENDBRANCH  21  22
ENDBRANCH  20  21
ENDBRANCH  19  20
ENDBRANCH  18  19
ENDBRANCH  17  18
ENDBRANCH   1  17
TORSDOF 26
ENDMDL
MODEL 8
REMARK VINA RESULT:    -5.098      4.080      8.537
REMARK INTER + INTRA:         -16.505
REMARK INTER:                 -11.985
REMARK INTRA:                  -4.520
REMARK UNBOUND:                -3.658
REMARK SMILES CCCCCCCCCCCCCCCCCCCCCCCCCCCC(=O)[O-]
REMARK SMILES IDX 15 1 16 2 17 3 18 4 19 5 20 6 21 7 22 8 23 9 24 10 25 11
REMARK SMILES IDX 26 12 27 13 28 14 29 15 30 16 14 17 13 18 12 19 11 20 10 21
REMARK SMILES IDX 9 22 8 23 7 24 6 25 5 26 4 27 3 28 2 29 1 30
REMARK H PARENT
REMARK Flexibility Score: inf
ROOT
ATOM      1  C   UNL     1      85.833  64.211   6.871  1.00  0.00     0.000 C 
ENDROOT
BRANCH   1   2
ATOM      2  C   UNL     1      86.405  62.814   7.164  1.00  0.00     0.000 C 
BRANCH   2   3
ATOM      3  C   UNL     1      86.375  62.467   8.662  1.00  0.00     0.000 C 
BRANCH   3   4
ATOM      4  C   UNL     1      85.637  63.526   9.505  1.00  0.00     0.000 C 
BRANCH   4   5
ATOM      5  C   UNL     1      84.512  62.976  10.402  1.00  0.00     0.000 C 
BRANCH   5   6
ATOM      6  C   UNL     1      83.282  62.438   9.647  1.00  0.00     0.000 C 
BRANCH   6   7
ATOM      7  C   UNL     1      82.698  61.144  10.253  1.00  0.00     0.000 C 
BRANCH   7   8
ATOM      8  C   UNL     1      83.760  60.298  10.974  1.00  0.00     0.000 C 
BRANCH   8   9
ATOM      9  C   UNL     1      84.587  59.446   9.998  1.00  0.00     0.000 C 
BRANCH   9  10
ATOM     10  C   UNL     1      86.033  59.236  10.483  1.00  0.00     0.000 C 
BRANCH  10  11
ATOM     11  C   UNL     1      86.325  57.771  10.851  1.00  0.00     0.000 C 
BRANCH  11  12
ATOM     12  C   UNL     1      87.826  57.439  10.784  1.00  0.00     0.006 C 
BRANCH  12  13
ATOM     13  C   UNL     1      88.143  56.422   9.680  1.00  0.00     0.053 C 
BRANCH  13  14
ATOM     14  C   UNL     1      87.323  55.175   9.817  1.00  0.00     0.041 C 
ATOM     15  O   UNL     1      87.483  54.418  10.811  1.00  0.00    -0.550 OA
ATOM     16  O   UNL     1      86.371  54.860   8.856  1.00  0.00    -0.550 OA
ENDBRANCH  13  14
ENDBRANCH  12  13
ENDBRANCH  11  12
ENDBRANCH  10  11
ENDBRANCH   9  10
ENDBRANCH   8   9
ENDBRANCH   7   8
ENDBRANCH   6   7
ENDBRANCH   5   6
ENDBRANCH   4   5
ENDBRANCH   3   4
ENDBRANCH   2   3
ENDBRANCH   1   2
BRANCH   1  17
ATOM     17  C   UNL     1      86.895  65.317   6.996  1.00  0.00     0.000 C 
BRANCH  17  18
ATOM     18  C   UNL     1      88.298  64.853   6.560  1.00  0.00     0.000 C 
BRANCH  18  19
ATOM     19  C   UNL     1      89.441  65.251   7.512  1.00  0.00     0.000 C 
BRANCH  19  20
ATOM     20  C   UNL     1      89.232  64.732   8.946  1.00  0.00     0.000 C 
BRANCH  20  21
ATOM     21  C   UNL     1      90.552  64.351   9.637  1.00  0.00     0.000 C 
BRANCH  21  22
ATOM     22  C   UNL     1      91.732  64.281   8.653  1.00  0.00    -0.000 C 
BRANCH  22  23
ATOM     23  C   UNL     1      92.182  62.837   8.376  1.00  0.00    -0.000 C 
BRANCH  23  24
ATOM     24  C   UNL     1      92.193  62.497   6.875  1.00  0.00    -0.000 C 
BRANCH  24  25
ATOM     25  C   UNL     1      90.814  62.048   6.356  1.00  0.00    -0.000 C 
BRANCH  25  26
ATOM     26  C   UNL     1      89.922  61.358   7.405  1.00  0.00    -0.000 C 
BRANCH  26  27
ATOM     27  C   UNL     1      89.580  59.906   7.038  1.00  0.00    -0.000 C 
BRANCH  27  28
ATOM     28  C   UNL     1      88.233  59.493   7.646  1.00  0.00    -0.000 C 
BRANCH  28  29
ATOM     29  C   UNL     1      87.275  58.893   6.606  1.00  0.00    -0.003 C 
ATOM     30  C   UNL     1      87.257  59.677   5.294  1.00  0.00     0.004 C 
ENDBRANCH  28  29
ENDBRANCH  27  28
ENDBRANCH  26  27
ENDBRANCH  25  26
ENDBRANCH  24  25
ENDBRANCH  23  24
ENDBRANCH  22  23
ENDBRANCH  21  22
ENDBRANCH  20  21
ENDBRANCH  19  20
ENDBRANCH  18  19
ENDBRANCH  17  18
ENDBRANCH   1  17
TORSDOF 26
ENDMDL
MODEL 9
REMARK VINA RESULT:    -5.067      3.585      9.185
REMARK INTER + INTRA:         -16.425
REMARK INTER:                 -11.419
REMARK INTRA:                  -5.006
REMARK UNBOUND:                -3.658
REMARK SMILES CCCCCCCCCCCCCCCCCCCCCCCCCCCC(=O)[O-]
REMARK SMILES IDX 15 1 16 2 17 3 18 4 19 5 20 6 21 7 22 8 23 9 24 10 25 11
REMARK SMILES IDX 26 12 27 13 28 14 29 15 30 16 14 17 13 18 12 19 11 20 10 21
REMARK SMILES IDX 9 22 8 23 7 24 6 25 5 26 4 27 3 28 2 29 1 30
REMARK H PARENT
REMARK Flexibility Score: inf
ROOT
ATOM      1  C   UNL     1      91.687  61.394   6.332  1.00  0.00     0.000 C 
ENDROOT
BRANCH   1   2
ATOM      2  C   UNL     1      90.416  60.870   7.019  1.00  0.00     0.000 C 
BRANCH   2   3
ATOM      3  C   UNL     1      89.329  60.459   6.011  1.00  0.00     0.000 C 
BRANCH   3   4
ATOM      4  C   UNL     1      88.097  59.825   6.687  1.00  0.00     0.000 C 
BRANCH   4   5
ATOM      5  C   UNL     1      87.609  60.545   7.959  1.00  0.00     0.000 C 
BRANCH   5   6
ATOM      6  C   UNL     1      86.103  60.869   7.987  1.00  0.00     0.000 C 
BRANCH   6   7
ATOM      7  C   UNL     1      85.712  61.915   9.052  1.00  0.00     0.000 C 
BRANCH   7   8
ATOM      8  C   UNL     1      85.171  61.271  10.339  1.00  0.00     0.000 C 
BRANCH   8   9
ATOM      9  C   UNL     1      83.833  60.549  10.112  1.00  0.00     0.000 C 
BRANCH   9  10
ATOM     10  C   UNL     1      83.933  59.035  10.371  1.00  0.00     0.000 C 
BRANCH  10  11
ATOM     11  C   UNL     1      85.263  58.636  11.033  1.00  0.00     0.000 C 
BRANCH  11  12
ATOM     12  C   UNL     1      86.001  57.538  10.247  1.00  0.00     0.006 C 
BRANCH  12  13
ATOM     13  C   UNL     1      87.524  57.643  10.401  1.00  0.00     0.053 C 
BRANCH  13  14
ATOM     14  C   UNL     1      88.241  56.639   9.550  1.00  0.00     0.041 C 
ATOM     15  O   UNL     1      88.031  55.407   9.709  1.00  0.00    -0.550 OA
ATOM     16  O   UNL     1      89.127  57.066   8.569  1.00  0.00    -0.550 OA
ENDBRANCH  13  14
ENDBRANCH  12  13
ENDBRANCH  11  12
ENDBRANCH  10  11
ENDBRANCH   9  10
ENDBRANCH   8   9
ENDBRANCH   7   8
ENDBRANCH   6   7
ENDBRANCH   5   6
ENDBRANCH   4   5
ENDBRANCH   3   4
ENDBRANCH   2   3
ENDBRANCH   1   2
BRANCH   1  17
ATOM     17  C   UNL     1      92.377  62.504   7.145  1.00  0.00     0.000 C 
BRANCH  17  18
ATOM     18  C   UNL     1      91.716  62.743   8.516  1.00  0.00     0.000 C 
BRANCH  18  19
ATOM     19  C   UNL     1      91.999  64.119   9.145  1.00  0.00     0.000 C 
BRANCH  19  20
ATOM     20  C   UNL     1      90.725  64.819   9.650  1.00  0.00     0.000 C 
BRANCH  20  21
ATOM     21  C   UNL     1      90.603  66.267   9.145  1.00  0.00     0.000 C 
BRANCH  21  22
ATOM     22  C   UNL     1      91.930  66.806   8.583  1.00  0.00    -0.000 C 
BRANCH  22  23
ATOM     23  C   UNL     1      91.803  67.277   7.125  1.00  0.00    -0.000 C 
BRANCH  23  24
ATOM     24  C   UNL     1      90.574  66.683   6.416  1.00  0.00    -0.000 C 
BRANCH  24  25
ATOM     25  C   UNL     1      90.939  65.550   5.438  1.00  0.00    -0.000 C 
BRANCH  25  26
ATOM     26  C   UNL     1      89.816  64.528   5.186  1.00  0.00    -0.000 C 
BRANCH  26  27
ATOM     27  C   UNL     1      89.044  64.159   6.462  1.00  0.00    -0.000 C 
BRANCH  27  28
ATOM     28  C   UNL     1      87.573  63.861   6.143  1.00  0.00    -0.000 C 
BRANCH  28  29
ATOM     29  C   UNL     1      86.604  64.769   6.915  1.00  0.00    -0.003 C 
ATOM     30  C   UNL     1      87.066  65.047   8.346  1.00  0.00     0.004 C 
ENDBRANCH  28  29
ENDBRANCH  27  28
ENDBRANCH  26  27
ENDBRANCH  25  26
ENDBRANCH  24  25
ENDBRANCH  23  24
ENDBRANCH  22  23
ENDBRANCH  21  22
ENDBRANCH  20  21
ENDBRANCH  19  20
ENDBRANCH  18  19
ENDBRANCH  17  18
ENDBRANCH   1  17
TORSDOF 26
ENDMDL
