MODEL 1
REMARK VINA RESULT:    -4.072      0.000      0.000
REMARK INTER + INTRA:          -4.272
REMARK INTER:                  -5.024
REMARK INTRA:                   0.752
REMARK UNBOUND:                 0.752
REMARK SMILES CC1=CC=CC(C)(C)CC1=O
REMARK SMILES IDX 1 1 2 2 3 3 10 4 11 5 9 6 4 8 5 9 6 10 7 11 8 12
REMARK H PARENT
REMARK Flexibility Score: 80.00
ROOT
ATOM      1  C   UNL     1      20.100  28.123 -15.013  1.00  0.00     0.048 C 
ATOM      2  C   UNL     1      21.054  28.597 -16.084  1.00  0.00    -0.008 C 
ATOM      3  C   UNL     1      20.670  28.458 -17.371  1.00  0.00     0.007 C 
ENDROOT
BRANCH   2   4
ATOM      4  C   UNL     1      22.374  29.107 -15.636  1.00  0.00     0.159 C 
ATOM      5  O   UNL     1      22.712  28.942 -14.431  1.00  0.00    -0.295 OA
BRANCH   4   6
ATOM      6  C   UNL     1      23.332  29.827 -16.536  1.00  0.00     0.091 CG0
ATOM      7  G   UNL     1      23.774  28.985 -17.752  1.00  0.00     0.000 G0
ENDBRANCH   4   6
ENDBRANCH   2   4
BRANCH   3   8
ATOM      8  C   UNL     1      21.390  28.800 -18.621  1.00  0.00    -0.003 C 
ATOM      9  C   UNL     1      22.697  29.016 -18.810  1.00  0.00    -0.020 C 
BRANCH   9  10
ATOM     10  C   UNL     1      23.774  28.985 -17.753  1.00  0.00    -0.010 CG0
ATOM     11  C   UNL     1      25.047  29.639 -18.337  1.00  0.00     0.016 C 
ATOM     12  C   UNL     1      24.115  27.522 -17.388  1.00  0.00     0.016 C 
ATOM     13  G   UNL     1      23.326  29.814 -16.529  1.00  0.00     0.000 G0
ENDBRANCH   9  10
ENDBRANCH   3   8
TORSDOF 0
ENDMDL
MODEL 2
REMARK VINA RESULT:    -3.793      2.362      3.820
REMARK INTER + INTRA:          -3.928
REMARK INTER:                  -4.684
REMARK INTRA:                   0.757
REMARK UNBOUND:                 0.752
REMARK SMILES CC1=CC=CC(C)(C)CC1=O
REMARK SMILES IDX 1 1 2 2 3 3 10 4 11 5 9 6 4 8 5 9 6 10 7 11 8 12
REMARK H PARENT
REMARK Flexibility Score: 80.00
ROOT
ATOM      1  C   UNL     1      21.855  28.350 -21.949  1.00  0.00     0.048 C 
ATOM      2  C   UNL     1      22.536  28.648 -20.634  1.00  0.00    -0.008 C 
ATOM      3  C   UNL     1      23.432  27.748 -20.175  1.00  0.00     0.007 C 
ENDROOT
BRANCH   2   4
ATOM      4  C   UNL     1      22.108  29.874 -19.914  1.00  0.00     0.159 C 
ATOM      5  O   UNL     1      21.095  30.501 -20.330  1.00  0.00    -0.295 OA
BRANCH   4   6
ATOM      6  C   UNL     1      22.825  30.422 -18.718  1.00  0.00     0.091 CG0
ATOM      7  G   UNL     1      22.888  29.429 -17.537  1.00  0.00     0.000 G0
ENDBRANCH   4   6
ENDBRANCH   2   4
BRANCH   3   8
ATOM      8  C   UNL     1      24.228  27.751 -18.925  1.00  0.00    -0.003 C 
ATOM      9  C   UNL     1      24.024  28.441 -17.796  1.00  0.00    -0.020 C 
BRANCH   9  10
ATOM     10  C   UNL     1      22.912  29.429 -17.536  1.00  0.00    -0.010 CG0
ATOM     11  C   UNL     1      23.265  30.233 -16.264  1.00  0.00     0.016 C 
ATOM     12  C   UNL     1      21.587  28.677 -17.273  1.00  0.00     0.016 C 
ATOM     13  G   UNL     1      22.810  30.419 -18.717  1.00  0.00     0.000 G0
ENDBRANCH   9  10
ENDBRANCH   3   8
TORSDOF 0
ENDMDL
MODEL 3
REMARK VINA RESULT:    -3.733     13.144     14.328
REMARK INTER + INTRA:          -3.854
REMARK INTER:                  -4.608
REMARK INTRA:                   0.754
REMARK UNBOUND:                 0.752
REMARK SMILES CC1=CC=CC(C)(C)CC1=O
REMARK SMILES IDX 1 1 2 2 3 3 10 4 11 5 9 6 4 8 5 9 6 10 7 11 8 12
REMARK H PARENT
REMARK Flexibility Score: 80.00
ROOT
ATOM      1  C   UNL     1      27.946  39.920 -24.631  1.00  0.00     0.048 C 
ATOM      2  C   UNL     1      28.990  39.032 -23.994  1.00  0.00    -0.008 C 
ATOM      3  C   UNL     1      28.800  38.666 -22.709  1.00  0.00     0.007 C 
ENDROOT
BRANCH   2   4
ATOM      4  C   UNL     1      30.182  38.697 -24.813  1.00  0.00     0.159 C 
ATOM      5  O   UNL     1      30.368  39.315 -25.898  1.00  0.00    -0.295 OA
BRANCH   4   6
ATOM      6  C   UNL     1      31.180  37.648 -24.429  1.00  0.00     0.091 CG0
ATOM      7  G   UNL     1      31.854  37.918 -23.066  1.00  0.00     0.000 G0
ENDBRANCH   4   6
ENDBRANCH   2   4
BRANCH   3   8
ATOM      8  C   UNL     1      29.649  37.837 -21.821  1.00  0.00    -0.003 C 
ATOM      9  C   UNL     1      30.943  37.516 -21.948  1.00  0.00    -0.020 C 
BRANCH   9  10
ATOM     10  C   UNL     1      31.860  37.918 -23.078  1.00  0.00    -0.010 CG0
ATOM     11  C   UNL     1      33.130  37.040 -23.006  1.00  0.00     0.016 C 
ATOM     12  C   UNL     1      32.291  39.393 -22.910  1.00  0.00     0.016 C 
ATOM     13  G   UNL     1      31.166  37.650 -24.431  1.00  0.00     0.000 G0
ENDBRANCH   9  10
ENDBRANCH   3   8
TORSDOF 0
ENDMDL
MODEL 4
REMARK VINA RESULT:    -3.730      1.631      3.140
REMARK INTER + INTRA:          -3.851
REMARK INTER:                  -4.886
REMARK INTRA:                   1.036
REMARK UNBOUND:                 0.752
REMARK SMILES CC1=CC=CC(C)(C)CC1=O
REMARK SMILES IDX 1 1 2 2 3 3 10 4 11 5 9 6 4 8 5 9 6 10 7 11 8 12
REMARK H PARENT
REMARK Flexibility Score: 80.00
ROOT
ATOM      1  C   UNL     1      22.583  29.495 -19.566  1.00  0.00     0.048 C 
ATOM      2  C   UNL     1      22.254  29.272 -18.108  1.00  0.00    -0.008 C 
ATOM      3  C   UNL     1      21.045  28.747 -17.813  1.00  0.00     0.007 C 
ENDROOT
BRANCH   2   4
ATOM      4  C   UNL     1      23.258  29.721 -17.112  1.00  0.00     0.159 C 
ATOM      5  O   UNL     1      24.431  29.972 -17.502  1.00  0.00    -0.295 OA
BRANCH   4   6
ATOM      6  C   UNL     1      22.959  29.882 -15.653  1.00  0.00     0.091 CG0
ATOM      7  G   UNL     1      22.479  28.577 -14.982  1.00  0.00     0.000 G0
ENDBRANCH   4   6
ENDBRANCH   2   4
BRANCH   3   8
ATOM      8  C   UNL     1      20.435  28.443 -16.497  1.00  0.00    -0.003 C 
ATOM      9  C   UNL     1      21.016  28.380 -15.292  1.00  0.00    -0.020 C 
BRANCH   9  10
ATOM     10  C   UNL     1      22.481  28.586 -14.990  1.00  0.00    -0.010 CG0
ATOM     11  C   UNL     1      23.271  27.399 -15.588  1.00  0.00     0.016 C 
ATOM     12  C   UNL     1      22.710  28.588 -13.461  1.00  0.00     0.016 C 
ATOM     13  G   UNL     1      22.975  29.883 -15.668  1.00  0.00     0.000 G0
ENDBRANCH   9  10
ENDBRANCH   3   8
TORSDOF 0
ENDMDL
MODEL 5
REMARK VINA RESULT:    -3.661      2.197      3.573
REMARK INTER + INTRA:          -3.765
REMARK INTER:                  -4.531
REMARK INTRA:                   0.766
REMARK UNBOUND:                 0.752
REMARK SMILES CC1=CC=CC(C)(C)CC1=O
REMARK SMILES IDX 1 1 2 2 3 3 10 4 11 5 9 6 4 8 5 9 6 10 7 11 8 12
REMARK H PARENT
REMARK Flexibility Score: 80.00
ROOT
ATOM      1  C   UNL     1      21.642  30.158 -21.138  1.00  0.00     0.048 C 
ATOM      2  C   UNL     1      21.984  29.874 -19.694  1.00  0.00    -0.008 C 
ATOM      3  C   UNL     1      22.775  30.760 -19.052  1.00  0.00     0.007 C 
ENDROOT
BRANCH   2   4
ATOM      4  C   UNL     1      21.484  28.600 -19.120  1.00  0.00     0.159 C 
ATOM      5  O   UNL     1      20.987  27.737 -19.895  1.00  0.00    -0.295 OA
BRANCH   4   6
ATOM      6  C   UNL     1      21.523  28.281 -17.656  1.00  0.00     0.091 CG0
ATOM      7  G   UNL     1      22.950  28.299 -17.067  1.00  0.00     0.000 G0
ENDBRANCH   4   6
ENDBRANCH   2   4
BRANCH   3   8
ATOM      8  C   UNL     1      23.295  30.739 -17.664  1.00  0.00    -0.003 C 
ATOM      9  C   UNL     1      23.395  29.709 -16.815  1.00  0.00    -0.020 C 
BRANCH   9  10
ATOM     10  C   UNL     1      22.960  28.287 -17.075  1.00  0.00    -0.010 CG0
ATOM     11  C   UNL     1      22.936  27.533 -15.726  1.00  0.00     0.016 C 
ATOM     12  C   UNL     1      23.983  27.582 -17.996  1.00  0.00     0.016 C 
ATOM     13  G   UNL     1      21.530  28.278 -17.657  1.00  0.00     0.000 G0
ENDBRANCH   9  10
ENDBRANCH   3   8
TORSDOF 0
ENDMDL
MODEL 6
REMARK VINA RESULT:    -3.645     11.770     13.263
REMARK INTER + INTRA:          -3.746
REMARK INTER:                  -4.508
REMARK INTRA:                   0.763
REMARK UNBOUND:                 0.752
REMARK SMILES CC1=CC=CC(C)(C)CC1=O
REMARK SMILES IDX 1 1 2 2 3 3 10 4 11 5 9 6 4 8 5 9 6 10 7 11 8 12
REMARK H PARENT
REMARK Flexibility Score: 80.00
ROOT
ATOM      1  C   UNL     1      33.076  33.002 -19.648  1.00  0.00     0.048 C 
ATOM      2  C   UNL     1      33.181  33.965 -20.808  1.00  0.00    -0.008 C 
ATOM      3  C   UNL     1      34.412  34.407 -21.146  1.00  0.00     0.007 C 
ENDROOT
BRANCH   2   4
ATOM      4  C   UNL     1      31.911  34.411 -21.433  1.00  0.00     0.159 C 
ATOM      5  O   UNL     1      30.823  34.159 -20.845  1.00  0.00    -0.295 OA
BRANCH   4   6
ATOM      6  C   UNL     1      31.844  35.136 -22.742  1.00  0.00     0.091 CG0
ATOM      7  G   UNL     1      32.582  36.493 -22.725  1.00  0.00     0.000 G0
ENDBRANCH   4   6
ENDBRANCH   2   4
BRANCH   3   8
ATOM      8  C   UNL     1      34.823  35.361 -22.203  1.00  0.00    -0.003 C 
ATOM      9  C   UNL     1      34.081  36.253 -22.869  1.00  0.00    -0.020 C 
BRANCH   9  10
ATOM     10  C   UNL     1      32.597  36.483 -22.712  1.00  0.00    -0.010 CG0
ATOM     11  C   UNL     1      32.105  37.320 -23.915  1.00  0.00     0.016 C 
ATOM     12  C   UNL     1      32.321  37.291 -21.424  1.00  0.00     0.016 C 
ATOM     13  G   UNL     1      31.856  35.128 -22.735  1.00  0.00     0.000 G0
ENDBRANCH   9  10
ENDBRANCH   3   8
TORSDOF 0
ENDMDL
MODEL 7
REMARK VINA RESULT:    -3.592      1.578      3.727
REMARK INTER + INTRA:          -3.681
REMARK INTER:                  -4.435
REMARK INTRA:                   0.754
REMARK UNBOUND:                 0.752
REMARK SMILES CC1=CC=CC(C)(C)CC1=O
REMARK SMILES IDX 1 1 2 2 3 3 10 4 11 5 9 6 4 8 5 9 6 10 7 11 8 12
REMARK H PARENT
REMARK Flexibility Score: 80.00
ROOT
ATOM      1  C   UNL     1      25.181  29.624 -18.691  1.00  0.00     0.048 C 
ATOM      2  C   UNL     1      24.208  29.128 -17.647  1.00  0.00    -0.008 C 
ATOM      3  C   UNL     1      24.392  27.881 -17.163  1.00  0.00     0.007 C 
ENDROOT
BRANCH   2   4
ATOM      4  C   UNL     1      23.079  30.025 -17.295  1.00  0.00     0.159 C 
ATOM      5  O   UNL     1      22.875  31.051 -18.000  1.00  0.00    -0.295 OA
BRANCH   4   6
ATOM      6  C   UNL     1      22.167  29.787 -16.130  1.00  0.00     0.091 CG0
ATOM      7  G   UNL     1      21.415  28.441 -16.209  1.00  0.00     0.000 G0
ENDBRANCH   4   6
ENDBRANCH   2   4
BRANCH   3   8
ATOM      8  C   UNL     1      23.599  27.120 -16.168  1.00  0.00    -0.003 C 
ATOM      9  C   UNL     1      22.343  27.327 -15.753  1.00  0.00    -0.020 C 
BRANCH   9  10
ATOM     10  C   UNL     1      21.422  28.438 -16.198  1.00  0.00    -0.010 CG0
ATOM     11  C   UNL     1      20.232  28.505 -15.214  1.00  0.00     0.016 C 
ATOM     12  C   UNL     1      20.861  28.127 -17.605  1.00  0.00     0.016 C 
ATOM     13  G   UNL     1      22.170  29.788 -16.141  1.00  0.00     0.000 G0
ENDBRANCH   9  10
ENDBRANCH   3   8
TORSDOF 0
ENDMDL
MODEL 8
REMARK VINA RESULT:    -3.446      4.534      5.844
REMARK INTER + INTRA:          -3.500
REMARK INTER:                  -4.255
REMARK INTRA:                   0.755
REMARK UNBOUND:                 0.752
REMARK SMILES CC1=CC=CC(C)(C)CC1=O
REMARK SMILES IDX 1 1 2 2 3 3 10 4 11 5 9 6 4 8 5 9 6 10 7 11 8 12
REMARK H PARENT
REMARK Flexibility Score: 80.00
ROOT
ATOM      1  C   UNL     1      17.175  27.433 -13.497  1.00  0.00     0.048 C 
ATOM      2  C   UNL     1      18.536  27.655 -12.877  1.00  0.00    -0.008 C 
ATOM      3  C   UNL     1      18.723  27.229 -11.609  1.00  0.00     0.007 C 
ENDROOT
BRANCH   2   4
ATOM      4  C   UNL     1      19.535  28.394 -13.688  1.00  0.00     0.159 C 
ATOM      5  O   UNL     1      19.158  28.956 -14.753  1.00  0.00    -0.295 OA
BRANCH   4   6
ATOM      6  C   UNL     1      20.983  28.500 -13.319  1.00  0.00     0.091 CG0
ATOM      7  G   UNL     1      21.214  29.159 -11.941  1.00  0.00     0.000 G0
ENDBRANCH   4   6
ENDBRANCH   2   4
BRANCH   3   8
ATOM      8  C   UNL     1      19.918  27.328 -10.739  1.00  0.00    -0.003 C 
ATOM      9  C   UNL     1      20.978  28.138 -10.850  1.00  0.00    -0.020 C 
BRANCH   9  10
ATOM     10  C   UNL     1      21.221  29.155 -11.940  1.00  0.00    -0.010 CG0
ATOM     11  C   UNL     1      22.701  29.594 -11.872  1.00  0.00     0.016 C 
ATOM     12  C   UNL     1      20.341  30.404 -11.702  1.00  0.00     0.016 C 
ATOM     13  G   UNL     1      20.974  28.507 -13.320  1.00  0.00     0.000 G0
ENDBRANCH   9  10
ENDBRANCH   3   8
TORSDOF 0
ENDMDL
MODEL 9
REMARK VINA RESULT:    -3.441     13.201     14.849
REMARK INTER + INTRA:          -3.494
REMARK INTER:                  -4.239
REMARK INTRA:                   0.745
REMARK UNBOUND:                 0.752
REMARK SMILES CC1=CC=CC(C)(C)CC1=O
REMARK SMILES IDX 1 1 2 2 3 3 10 4 11 5 9 6 4 8 5 9 6 10 7 11 8 12
REMARK H PARENT
REMARK Flexibility Score: 80.00
ROOT
ATOM      1  C   UNL     1      29.290  38.251 -21.737  1.00  0.00     0.048 C 
ATOM      2  C   UNL     1      30.211  38.485 -22.911  1.00  0.00    -0.008 C 
ATOM      3  C   UNL     1      29.647  38.632 -24.129  1.00  0.00     0.007 C 
ENDROOT
BRANCH   2   4
ATOM      4  C   UNL     1      31.671  38.457 -22.642  1.00  0.00     0.159 C 
ATOM      5  O   UNL     1      32.074  38.042 -21.520  1.00  0.00    -0.295 OA
BRANCH   4   6
ATOM      6  C   UNL     1      32.702  38.911 -23.629  1.00  0.00     0.091 CG0
ATOM      7  G   UNL     1      32.674  38.111 -24.950  1.00  0.00     0.000 G0
ENDBRANCH   4   6
ENDBRANCH   2   4
BRANCH   3   8
ATOM      8  C   UNL     1      30.281  38.844 -25.452  1.00  0.00    -0.003 C 
ATOM      9  C   UNL     1      31.547  38.620 -25.827  1.00  0.00    -0.020 C 
BRANCH   9  10
ATOM     10  C   UNL     1      32.665  38.106 -24.952  1.00  0.00    -0.010 CG0
ATOM     11  C   UNL     1      34.004  38.349 -25.684  1.00  0.00     0.016 C 
ATOM     12  C   UNL     1      32.509  36.583 -24.736  1.00  0.00     0.016 C 
ATOM     13  G   UNL     1      32.691  38.895 -23.625  1.00  0.00     0.000 G0
ENDBRANCH   9  10
ENDBRANCH   3   8
TORSDOF 0
ENDMDL
