MODEL 1
REMARK VINA RESULT:    -3.843      0.000      0.000
REMARK INTER + INTRA:          -4.234
REMARK INTER:                  -4.068
REMARK INTRA:                  -0.166
REMARK UNBOUND:                -0.166
REMARK SMILES Cc1ccc(C(C)C)cc1
REMARK SMILES IDX 1 1 2 2 3 3 4 4 5 5 9 6 10 7 6 8 7 9 8 10
REMARK H PARENT
REMARK Flexibility Score: inf
ROOT
ATOM      1  C   UNL     1      -2.881  -6.688  37.349  1.00  0.00     0.044 C 
ATOM      2  C   UNL     1      -2.731  -7.648  38.492  1.00  0.00    -0.051 A 
ATOM      3  C   UNL     1      -1.457  -7.970  38.982  1.00  0.00     0.004 A 
ATOM      4  C   UNL     1      -1.318  -8.834  40.071  1.00  0.00     0.004 A 
ATOM      5  C   UNL     1      -2.453  -9.382  40.698  1.00  0.00    -0.045 A 
ATOM      6  C   UNL     1      -3.728  -9.041  40.213  1.00  0.00     0.004 A 
ATOM      7  C   UNL     1      -3.866  -8.176  39.124  1.00  0.00     0.004 A 
ENDROOT
BRANCH   5   8
ATOM      8  C   UNL     1      -2.318 -10.322  41.883  1.00  0.00     0.013 C 
ATOM      9  C   UNL     1      -3.665 -10.966  42.233  1.00  0.00     0.012 C 
ATOM     10  C   UNL     1      -1.247 -11.387  41.622  1.00  0.00     0.012 C 
ENDBRANCH   5   8
TORSDOF 1
ENDMDL
MODEL 2
REMARK VINA RESULT:    -3.802      1.297      4.684
REMARK INTER + INTRA:          -4.190
REMARK INTER:                  -4.023
REMARK INTRA:                  -0.167
REMARK UNBOUND:                -0.166
REMARK SMILES Cc1ccc(C(C)C)cc1
REMARK SMILES IDX 1 1 2 2 3 3 4 4 5 5 9 6 10 7 6 8 7 9 8 10
REMARK H PARENT
REMARK Flexibility Score: inf
ROOT
ATOM      1  C   UNL     1      -1.387 -11.662  42.139  1.00  0.00     0.044 C 
ATOM      2  C   UNL     1      -1.403 -10.634  41.047  1.00  0.00    -0.051 A 
ATOM      3  C   UNL     1      -2.286  -9.547  41.112  1.00  0.00     0.004 A 
ATOM      4  C   UNL     1      -2.276  -8.568  40.115  1.00  0.00     0.004 A 
ATOM      5  C   UNL     1      -1.373  -8.654  39.039  1.00  0.00    -0.045 A 
ATOM      6  C   UNL     1      -0.478  -9.737  38.988  1.00  0.00     0.004 A 
ATOM      7  C   UNL     1      -0.488 -10.715  39.986  1.00  0.00     0.004 A 
ENDROOT
BRANCH   5   8
ATOM      8  C   UNL     1      -1.349  -7.599  37.948  1.00  0.00     0.013 C 
ATOM      9  C   UNL     1      -0.764  -8.161  36.647  1.00  0.00     0.012 C 
ATOM     10  C   UNL     1      -2.747  -7.013  37.717  1.00  0.00     0.012 C 
ENDBRANCH   5   8
TORSDOF 1
ENDMDL
MODEL 3
REMARK VINA RESULT:    -3.798      1.413      2.110
REMARK INTER + INTRA:          -4.187
REMARK INTER:                  -4.027
REMARK INTRA:                  -0.160
REMARK UNBOUND:                -0.166
REMARK SMILES Cc1ccc(C(C)C)cc1
REMARK SMILES IDX 1 1 2 2 3 3 4 4 5 5 9 6 10 7 6 8 7 9 8 10
REMARK H PARENT
REMARK Flexibility Score: inf
ROOT
ATOM      1  C   UNL     1      -0.640  -8.027  37.388  1.00  0.00     0.044 C 
ATOM      2  C   UNL     1      -0.961  -8.760  38.657  1.00  0.00    -0.051 A 
ATOM      3  C   UNL     1      -1.882  -8.224  39.570  1.00  0.00     0.004 A 
ATOM      4  C   UNL     1      -2.210  -8.924  40.734  1.00  0.00     0.004 A 
ATOM      5  C   UNL     1      -1.631 -10.179  41.000  1.00  0.00    -0.045 A 
ATOM      6  C   UNL     1      -0.723 -10.719  40.073  1.00  0.00     0.004 A 
ATOM      7  C   UNL     1      -0.396 -10.019  38.909  1.00  0.00     0.004 A 
ENDROOT
BRANCH   5   8
ATOM      8  C   UNL     1      -1.979 -10.951  42.260  1.00  0.00     0.013 C 
ATOM      9  C   UNL     1      -3.326 -11.669  42.114  1.00  0.00     0.012 C 
ATOM     10  C   UNL     1      -0.865 -11.938  42.627  1.00  0.00     0.012 C 
ENDBRANCH   5   8
TORSDOF 1
ENDMDL
MODEL 4
REMARK VINA RESULT:    -3.794      2.010      5.525
REMARK INTER + INTRA:          -4.182
REMARK INTER:                  -4.024
REMARK INTRA:                  -0.157
REMARK UNBOUND:                -0.166
REMARK SMILES Cc1ccc(C(C)C)cc1
REMARK SMILES IDX 1 1 2 2 3 3 4 4 5 5 9 6 10 7 6 8 7 9 8 10
REMARK H PARENT
REMARK Flexibility Score: inf
ROOT
ATOM      1  C   UNL     1      -2.185 -15.034  43.261  1.00  0.00     0.044 C 
ATOM      2  C   UNL     1      -2.072 -13.693  42.598  1.00  0.00    -0.051 A 
ATOM      3  C   UNL     1      -3.018 -13.295  41.642  1.00  0.00     0.004 A 
ATOM      4  C   UNL     1      -2.935 -12.032  41.051  1.00  0.00     0.004 A 
ATOM      5  C   UNL     1      -1.910 -11.138  41.416  1.00  0.00    -0.045 A 
ATOM      6  C   UNL     1      -0.976 -11.536  42.388  1.00  0.00     0.004 A 
ATOM      7  C   UNL     1      -1.060 -12.799  42.979  1.00  0.00     0.004 A 
ENDROOT
BRANCH   5   8
ATOM      8  C   UNL     1      -1.808  -9.762  40.784  1.00  0.00     0.013 C 
ATOM      9  C   UNL     1      -0.806  -9.759  39.623  1.00  0.00     0.012 C 
ATOM     10  C   UNL     1      -3.183  -9.261  40.327  1.00  0.00     0.012 C 
ENDBRANCH   5   8
TORSDOF 1
ENDMDL
MODEL 5
REMARK VINA RESULT:    -3.759      0.956      4.262
REMARK INTER + INTRA:          -4.145
REMARK INTER:                  -3.982
REMARK INTRA:                  -0.163
REMARK UNBOUND:                -0.166
REMARK SMILES Cc1ccc(C(C)C)cc1
REMARK SMILES IDX 1 1 2 2 3 3 4 4 5 5 9 6 10 7 6 8 7 9 8 10
REMARK H PARENT
REMARK Flexibility Score: inf
ROOT
ATOM      1  C   UNL     1      -3.951 -10.774  42.365  1.00  0.00     0.044 C 
ATOM      2  C   UNL     1      -3.463  -9.816  41.319  1.00  0.00    -0.051 A 
ATOM      3  C   UNL     1      -2.100  -9.497  41.233  1.00  0.00     0.004 A 
ATOM      4  C   UNL     1      -1.639  -8.634  40.235  1.00  0.00     0.004 A 
ATOM      5  C   UNL     1      -2.533  -8.083  39.298  1.00  0.00    -0.045 A 
ATOM      6  C   UNL     1      -3.896  -8.421  39.378  1.00  0.00     0.004 A 
ATOM      7  C   UNL     1      -4.355  -9.285  40.376  1.00  0.00     0.004 A 
ENDROOT
BRANCH   5   8
ATOM      8  C   UNL     1      -2.048  -7.145  38.208  1.00  0.00     0.013 C 
ATOM      9  C   UNL     1      -1.046  -7.845  37.282  1.00  0.00     0.012 C 
ATOM     10  C   UNL     1      -3.224  -6.567  37.413  1.00  0.00     0.012 C 
ENDBRANCH   5   8
TORSDOF 1
ENDMDL
MODEL 6
REMARK VINA RESULT:    -3.725      1.238      3.980
REMARK INTER + INTRA:          -4.109
REMARK INTER:                  -3.942
REMARK INTRA:                  -0.167
REMARK UNBOUND:                -0.166
REMARK SMILES Cc1ccc(C(C)C)cc1
REMARK SMILES IDX 1 1 2 2 3 3 4 4 5 5 9 6 10 7 6 8 7 9 8 10
REMARK H PARENT
REMARK Flexibility Score: inf
ROOT
ATOM      1  C   UNL     1      -5.566 -10.007  42.263  1.00  0.00     0.044 C 
ATOM      2  C   UNL     1      -4.375  -9.611  41.442  1.00  0.00    -0.051 A 
ATOM      3  C   UNL     1      -4.541  -8.850  40.276  1.00  0.00     0.004 A 
ATOM      4  C   UNL     1      -3.430  -8.448  39.530  1.00  0.00     0.004 A 
ATOM      5  C   UNL     1      -2.130  -8.791  39.946  1.00  0.00    -0.045 A 
ATOM      6  C   UNL     1      -1.968  -9.539  41.125  1.00  0.00     0.004 A 
ATOM      7  C   UNL     1      -3.080  -9.939  41.870  1.00  0.00     0.004 A 
ENDROOT
BRANCH   5   8
ATOM      8  C   UNL     1      -0.913  -8.361  39.147  1.00  0.00     0.013 C 
ATOM      9  C   UNL     1       0.100  -9.506  39.022  1.00  0.00     0.012 C 
ATOM     10  C   UNL     1      -1.318  -7.830  37.767  1.00  0.00     0.012 C 
ENDBRANCH   5   8
TORSDOF 1
ENDMDL
MODEL 7
REMARK VINA RESULT:    -3.705      1.005      4.263
REMARK INTER + INTRA:          -4.088
REMARK INTER:                  -3.921
REMARK INTRA:                  -0.167
REMARK UNBOUND:                -0.166
REMARK SMILES Cc1ccc(C(C)C)cc1
REMARK SMILES IDX 1 1 2 2 3 3 4 4 5 5 9 6 10 7 6 8 7 9 8 10
REMARK H PARENT
REMARK Flexibility Score: inf
ROOT
ATOM      1  C   UNL     1      -4.936 -11.887  43.063  1.00  0.00     0.044 C 
ATOM      2  C   UNL     1      -4.034 -10.973  42.288  1.00  0.00    -0.051 A 
ATOM      3  C   UNL     1      -2.646 -11.171  42.300  1.00  0.00     0.004 A 
ATOM      4  C   UNL     1      -1.809 -10.343  41.548  1.00  0.00     0.004 A 
ATOM      5  C   UNL     1      -2.347  -9.308  40.760  1.00  0.00    -0.045 A 
ATOM      6  C   UNL     1      -3.741  -9.126  40.738  1.00  0.00     0.004 A 
ATOM      7  C   UNL     1      -4.578  -9.955  41.490  1.00  0.00     0.004 A 
ENDROOT
BRANCH   5   8
ATOM      8  C   UNL     1      -1.450  -8.401  39.937  1.00  0.00     0.013 C 
ATOM      9  C   UNL     1      -0.276  -9.183  39.336  1.00  0.00     0.012 C 
ATOM     10  C   UNL     1      -2.249  -7.679  38.845  1.00  0.00     0.012 C 
ENDBRANCH   5   8
TORSDOF 1
ENDMDL
MODEL 8
REMARK VINA RESULT:    -3.640      1.830      3.227
REMARK INTER + INTRA:          -4.019
REMARK INTER:                  -3.853
REMARK INTRA:                  -0.165
REMARK UNBOUND:                -0.166
REMARK SMILES Cc1ccc(C(C)C)cc1
REMARK SMILES IDX 1 1 2 2 3 3 4 4 5 5 9 6 10 7 6 8 7 9 8 10
REMARK H PARENT
REMARK Flexibility Score: inf
ROOT
ATOM      1  C   UNL     1      -0.104 -10.317  39.264  1.00  0.00     0.044 C 
ATOM      2  C   UNL     1      -1.301 -10.354  40.168  1.00  0.00    -0.051 A 
ATOM      3  C   UNL     1      -1.313 -11.194  41.291  1.00  0.00     0.004 A 
ATOM      4  C   UNL     1      -2.411 -11.202  42.155  1.00  0.00     0.004 A 
ATOM      5  C   UNL     1      -3.513 -10.360  41.917  1.00  0.00    -0.045 A 
ATOM      6  C   UNL     1      -3.488  -9.507  40.800  1.00  0.00     0.004 A 
ATOM      7  C   UNL     1      -2.389  -9.499  39.937  1.00  0.00     0.004 A 
ENDROOT
BRANCH   5   8
ATOM      8  C   UNL     1      -4.713 -10.356  42.847  1.00  0.00     0.013 C 
ATOM      9  C   UNL     1      -5.830  -9.457  42.305  1.00  0.00     0.012 C 
ATOM     10  C   UNL     1      -5.222 -11.781  43.095  1.00  0.00     0.012 C 
ENDBRANCH   5   8
TORSDOF 1
ENDMDL
MODEL 9
REMARK VINA RESULT:    -3.551      2.980      6.749
REMARK INTER + INTRA:          -3.925
REMARK INTER:                  -3.759
REMARK INTRA:                  -0.165
REMARK UNBOUND:                -0.166
REMARK SMILES Cc1ccc(C(C)C)cc1
REMARK SMILES IDX 1 1 2 2 3 3 4 4 5 5 9 6 10 7 6 8 7 9 8 10
REMARK H PARENT
REMARK Flexibility Score: inf
ROOT
ATOM      1  C   UNL     1      -1.620  -8.212  38.454  1.00  0.00     0.044 C 
ATOM      2  C   UNL     1      -2.265  -7.476  37.317  1.00  0.00    -0.051 A 
ATOM      3  C   UNL     1      -3.339  -6.607  37.555  1.00  0.00     0.004 A 
ATOM      4  C   UNL     1      -3.916  -5.893  36.502  1.00  0.00     0.004 A 
ATOM      5  C   UNL     1      -3.419  -6.026  35.191  1.00  0.00    -0.045 A 
ATOM      6  C   UNL     1      -2.330  -6.885  34.962  1.00  0.00     0.004 A 
ATOM      7  C   UNL     1      -1.753  -7.598  36.016  1.00  0.00     0.004 A 
ENDROOT
BRANCH   5   8
ATOM      8  C   UNL     1      -4.034  -5.255  34.037  1.00  0.00     0.013 C 
ATOM      9  C   UNL     1      -4.145  -3.762  34.367  1.00  0.00     0.012 C 
ATOM     10  C   UNL     1      -3.244  -5.478  32.742  1.00  0.00     0.012 C 
ENDBRANCH   5   8
TORSDOF 1
ENDMDL
