MODEL 1
REMARK VINA RESULT:    -1.975      0.000      0.000
REMARK INTER + INTRA:          -2.453
REMARK INTER:                  -2.091
REMARK INTRA:                  -0.362
REMARK UNBOUND:                -0.362
REMARK SMILES CC1=C[C@@H]2C(=C(C)CC[C@H]2C(C)C)CC1
REMARK SMILES IDX 1 1 2 2 3 3 4 4 10 5 9 6 8 7 6 8 5 9 14 10 15 11 7 12 11 13
REMARK SMILES IDX 12 14 13 15
REMARK H PARENT
REMARK Flexibility Score: inf
ROOT
ATOM      1  C   UNL     1       6.096   8.609  11.108  1.00  0.00     0.039 C 
ATOM      2  C   UNL     1       4.963   9.381  11.728  1.00  0.00    -0.076 C 
ATOM      3  C   UNL     1       4.748  10.659  11.374  1.00  0.00    -0.020 C 
ATOM      4  C   UNL     1       3.594  11.460  11.964  1.00  0.00     0.041 C 
ATOM      5  C   UNL     1       3.330  12.759  11.109  1.00  0.00     0.003 C 
ATOM      6  C   UNL     1       1.824  13.081  10.902  1.00  0.00     0.009 C 
ATOM      7  C   UNL     1       0.959  12.577  12.052  1.00  0.00     0.031 C 
ATOM      8  C   UNL     1       1.118  11.087  12.180  1.00  0.00    -0.073 C 
ATOM      9  C   UNL     1       2.366  10.552  12.145  1.00  0.00    -0.064 C 
ATOM     10  C   UNL     1       2.577   9.058  12.376  1.00  0.00     0.036 C 
ATOM     11  C   UNL     1       4.034   8.729  12.717  1.00  0.00     0.035 C 
ATOM     12  C   UNL     1      -0.118  10.227  12.321  1.00  0.00     0.039 C 
ENDROOT
BRANCH   5  13
ATOM     13  C   UNL     1       4.124  14.020  11.596  1.00  0.00    -0.013 C 
ATOM     14  C   UNL     1       4.046  14.214  13.118  1.00  0.00     0.007 C 
ATOM     15  C   UNL     1       3.744  15.326  10.875  1.00  0.00     0.007 C 
ENDBRANCH   5  13
TORSDOF 1
ENDMDL
MODEL 2
REMARK VINA RESULT:    -1.707      2.880      6.259
REMARK INTER + INTRA:          -2.169
REMARK INTER:                  -1.965
REMARK INTRA:                  -0.204
REMARK UNBOUND:                -0.362
REMARK SMILES CC1=C[C@@H]2C(=C(C)CC[C@H]2C(C)C)CC1
REMARK SMILES IDX 1 1 2 2 3 3 4 4 10 5 9 6 8 7 6 8 5 9 14 10 15 11 7 12 11 13
REMARK SMILES IDX 12 14 13 15
REMARK H PARENT
REMARK Flexibility Score: inf
ROOT
ATOM      1  C   UNL     1       4.002  11.380  11.922  1.00  0.00     0.039 C 
ATOM      2  C   UNL     1       4.560   9.989  11.796  1.00  0.00    -0.076 C 
ATOM      3  C   UNL     1       5.617   9.619  12.537  1.00  0.00    -0.020 C 
ATOM      4  C   UNL     1       6.190   8.210  12.453  1.00  0.00     0.041 C 
ATOM      5  C   UNL     1       7.140   7.925  13.680  1.00  0.00     0.003 C 
ATOM      6  C   UNL     1       6.988   6.499  14.276  1.00  0.00     0.009 C 
ATOM      7  C   UNL     1       6.545   5.478  13.234  1.00  0.00     0.031 C 
ATOM      8  C   UNL     1       5.223   5.899  12.654  1.00  0.00    -0.073 C 
ATOM      9  C   UNL     1       5.050   7.192  12.276  1.00  0.00    -0.064 C 
ATOM     10  C   UNL     1       3.761   7.635  11.589  1.00  0.00     0.036 C 
ATOM     11  C   UNL     1       3.924   8.981  10.875  1.00  0.00     0.035 C 
ATOM     12  C   UNL     1       4.116   4.875  12.531  1.00  0.00     0.039 C 
ENDROOT
BRANCH   5  13
ATOM     13  C   UNL     1       8.645   8.282  13.421  1.00  0.00    -0.013 C 
ATOM     14  C   UNL     1       9.314   7.327  12.421  1.00  0.00     0.007 C 
ATOM     15  C   UNL     1       9.497   8.395  14.698  1.00  0.00     0.007 C 
ENDBRANCH   5  13
TORSDOF 1
ENDMDL
MODEL 3
REMARK VINA RESULT:     0.575      1.411      3.676
REMARK INTER + INTRA:           0.246
REMARK INTER:                   0.649
REMARK INTRA:                  -0.403
REMARK UNBOUND:                -0.362
REMARK SMILES CC1=C[C@@H]2C(=C(C)CC[C@H]2C(C)C)CC1
REMARK SMILES IDX 1 1 2 2 3 3 4 4 10 5 9 6 8 7 6 8 5 9 14 10 15 11 7 12 11 13
REMARK SMILES IDX 12 14 13 15
REMARK H PARENT
REMARK Flexibility Score: inf
ROOT
ATOM      1  C   UNL     1       4.675   6.804  12.746  1.00  0.00     0.039 C 
ATOM      2  C   UNL     1       4.192   8.119  12.200  1.00  0.00    -0.076 C 
ATOM      3  C   UNL     1       3.323   8.861  12.905  1.00  0.00    -0.020 C 
ATOM      4  C   UNL     1       2.835  10.210  12.392  1.00  0.00     0.041 C 
ATOM      5  C   UNL     1       2.158  11.033  13.557  1.00  0.00     0.003 C 
ATOM      6  C   UNL     1       2.512  12.546  13.546  1.00  0.00     0.009 C 
ATOM      7  C   UNL     1       2.808  13.062  12.143  1.00  0.00     0.031 C 
ATOM      8  C   UNL     1       3.965  12.296  11.563  1.00  0.00    -0.073 C 
ATOM      9  C   UNL     1       3.980  10.942  11.673  1.00  0.00    -0.064 C 
ATOM     10  C   UNL     1       5.082  10.121  11.008  1.00  0.00     0.036 C 
ATOM     11  C   UNL     1       4.701   8.643  10.882  1.00  0.00     0.035 C 
ATOM     12  C   UNL     1       5.089  13.057  10.896  1.00  0.00     0.039 C 
ENDROOT
BRANCH   5  13
ATOM     13  C   UNL     1       0.613  10.805  13.689  1.00  0.00    -0.013 C 
ATOM     14  C   UNL     1      -0.072  10.605  12.328  1.00  0.00     0.007 C 
ATOM     15  C   UNL     1      -0.120  11.891  14.497  1.00  0.00     0.007 C 
ENDBRANCH   5  13
TORSDOF 1
ENDMDL
MODEL 4
REMARK VINA RESULT:     0.957      1.974      3.715
REMARK INTER + INTRA:           0.650
REMARK INTER:                   0.981
REMARK INTRA:                  -0.330
REMARK UNBOUND:                -0.362
REMARK SMILES CC1=C[C@@H]2C(=C(C)CC[C@H]2C(C)C)CC1
REMARK SMILES IDX 1 1 2 2 3 3 4 4 10 5 9 6 8 7 6 8 5 9 14 10 15 11 7 12 11 13
REMARK SMILES IDX 12 14 13 15
REMARK H PARENT
REMARK Flexibility Score: inf
ROOT
ATOM      1  C   UNL     1       3.320  14.005  16.934  1.00  0.00     0.039 C 
ATOM      2  C   UNL     1       2.851  13.434  15.623  1.00  0.00    -0.076 C 
ATOM      3  C   UNL     1       3.420  13.835  14.474  1.00  0.00    -0.020 C 
ATOM      4  C   UNL     1       2.987  13.257  13.133  1.00  0.00     0.041 C 
ATOM      5  C   UNL     1       4.054  13.588  12.018  1.00  0.00     0.003 C 
ATOM      6  C   UNL     1       4.328  12.411  11.040  1.00  0.00     0.009 C 
ATOM      7  C   UNL     1       3.117  11.501  10.875  1.00  0.00     0.031 C 
ATOM      8  C   UNL     1       2.734  10.932  12.214  1.00  0.00    -0.073 C 
ATOM      9  C   UNL     1       2.665  11.761  13.287  1.00  0.00    -0.064 C 
ATOM     10  C   UNL     1       2.181  11.243  14.639  1.00  0.00     0.036 C 
ATOM     11  C   UNL     1       1.774  12.382  15.579  1.00  0.00     0.035 C 
ATOM     12  C   UNL     1       2.461   9.448  12.329  1.00  0.00     0.039 C 
ENDROOT
BRANCH   5  13
ATOM     13  C   UNL     1       3.781  14.924  11.247  1.00  0.00    -0.013 C 
ATOM     14  C   UNL     1       4.350  16.152  11.974  1.00  0.00     0.007 C 
ATOM     15  C   UNL     1       2.303  15.159  10.887  1.00  0.00     0.007 C 
ENDBRANCH   5  13
TORSDOF 1
ENDMDL
