MODEL 1
REMARK VINA RESULT:    -2.369      0.000      0.000
REMARK INTER + INTRA:          -3.166
REMARK INTER:                  -2.923
REMARK INTRA:                  -0.244
REMARK UNBOUND:                -0.244
REMARK SMILES C=CCc1ccc(OC)c(OC)c1
REMARK SMILES IDX 7 1 10 2 13 3 4 4 5 5 6 6 8 7 9 8 11 9 12 10 3 11 2 12 1 13
REMARK H PARENT
REMARK Flexibility Score: inf
ROOT
ATOM      1  C   UNL     1     126.406 111.811 136.583  1.00  0.00     0.160 A 
ATOM      2  C   UNL     1     126.055 110.452 136.632  1.00  0.00     0.160 A 
ATOM      3  C   UNL     1     126.243 109.642 135.495  1.00  0.00     0.054 A 
ATOM      4  C   UNL     1     126.784 110.180 134.317  1.00  0.00    -0.040 A 
ATOM      5  C   UNL     1     127.121 111.539 134.274  1.00  0.00     0.008 A 
ATOM      6  C   UNL     1     126.938 112.349 135.396  1.00  0.00     0.051 A 
ENDROOT
BRANCH   1   7
ATOM      7  O   UNL     1     126.207 112.593 137.732  1.00  0.00    -0.493 OA
ATOM      8  C   UNL     1     127.051 113.668 138.131  1.00  0.00     0.278 C 
ENDBRANCH   1   7
BRANCH   2   9
ATOM      9  O   UNL     1     125.519 109.945 137.828  1.00  0.00    -0.493 OA
ATOM     10  C   UNL     1     124.464 108.993 137.899  1.00  0.00     0.278 C 
ENDBRANCH   2   9
BRANCH   4  11
ATOM     11  C   UNL     1     126.955 109.319 133.093  1.00  0.00     0.062 C 
BRANCH  11  12
ATOM     12  C   UNL     1     127.124 107.876 133.477  1.00  0.00    -0.030 C 
ATOM     13  C   UNL     1     126.448 106.901 132.860  1.00  0.00     0.004 C 
ENDBRANCH  11  12
ENDBRANCH   4  11
TORSDOF 4
ENDMDL
MODEL 2
REMARK VINA RESULT:    -2.341      1.277      1.413
REMARK INTER + INTRA:          -3.132
REMARK INTER:                  -2.755
REMARK INTRA:                  -0.377
REMARK UNBOUND:                -0.244
REMARK SMILES C=CCc1ccc(OC)c(OC)c1
REMARK SMILES IDX 7 1 10 2 13 3 4 4 5 5 6 6 8 7 9 8 11 9 12 10 3 11 2 12 1 13
REMARK H PARENT
REMARK Flexibility Score: inf
ROOT
ATOM      1  C   UNL     1     126.224 111.008 136.015  1.00  0.00     0.160 A 
ATOM      2  C   UNL     1     125.989 109.632 136.166  1.00  0.00     0.160 A 
ATOM      3  C   UNL     1     126.292 108.752 135.108  1.00  0.00     0.054 A 
ATOM      4  C   UNL     1     126.832 109.239 133.907  1.00  0.00    -0.040 A 
ATOM      5  C   UNL     1     127.053 110.615 133.761  1.00  0.00     0.008 A 
ATOM      6  C   UNL     1     126.757 111.493 134.805  1.00  0.00     0.051 A 
ENDROOT
BRANCH   1   7
ATOM      7  O   UNL     1     125.914 111.859 137.087  1.00  0.00    -0.493 OA
ATOM      8  C   UNL     1     126.878 112.456 137.947  1.00  0.00     0.278 C 
ENDBRANCH   1   7
BRANCH   2   9
ATOM      9  O   UNL     1     125.451 109.178 137.381  1.00  0.00    -0.493 OA
ATOM     10  C   UNL     1     126.166 108.409 138.343  1.00  0.00     0.278 C 
ENDBRANCH   2   9
BRANCH   4  11
ATOM     11  C   UNL     1     127.125 108.301 132.766  1.00  0.00     0.062 C 
BRANCH  11  12
ATOM     12  C   UNL     1     126.407 108.738 131.520  1.00  0.00    -0.030 C 
ATOM     13  C   UNL     1     125.096 108.536 131.357  1.00  0.00     0.004 C 
ENDBRANCH  11  12
ENDBRANCH   4  11
TORSDOF 4
ENDMDL
MODEL 3
REMARK VINA RESULT:    -2.236      1.731      3.471
REMARK INTER + INTRA:          -3.002
REMARK INTER:                  -2.631
REMARK INTRA:                  -0.371
REMARK UNBOUND:                -0.244
REMARK SMILES C=CCc1ccc(OC)c(OC)c1
REMARK SMILES IDX 7 1 10 2 13 3 4 4 5 5 6 6 8 7 9 8 11 9 12 10 3 11 2 12 1 13
REMARK H PARENT
REMARK Flexibility Score: inf
ROOT
ATOM      1  C   UNL     1     125.969 108.277 136.243  1.00  0.00     0.160 A 
ATOM      2  C   UNL     1     126.007 109.680 136.211  1.00  0.00     0.160 A 
ATOM      3  C   UNL     1     126.376 110.341 135.022  1.00  0.00     0.054 A 
ATOM      4  C   UNL     1     126.700 109.608 133.869  1.00  0.00    -0.040 A 
ATOM      5  C   UNL     1     126.670 108.208 133.914  1.00  0.00     0.008 A 
ATOM      6  C   UNL     1     126.305 107.546 135.087  1.00  0.00     0.051 A 
ENDROOT
BRANCH   1   7
ATOM      7  O   UNL     1     125.597 107.647 137.441  1.00  0.00    -0.493 OA
ATOM      8  C   UNL     1     126.512 107.071 138.367  1.00  0.00     0.278 C 
ENDBRANCH   1   7
BRANCH   2   9
ATOM      9  O   UNL     1     125.674 110.382 137.380  1.00  0.00    -0.493 OA
ATOM     10  C   UNL     1     126.622 110.925 138.293  1.00  0.00     0.278 C 
ENDBRANCH   2   9
BRANCH   4  11
ATOM     11  C   UNL     1     127.125 110.316 132.610  1.00  0.00     0.062 C 
BRANCH  11  12
ATOM     12  C   UNL     1     126.183 110.005 131.481  1.00  0.00    -0.030 C 
ATOM     13  C   UNL     1     125.017 110.644 131.342  1.00  0.00     0.004 C 
ENDBRANCH  11  12
ENDBRANCH   4  11
TORSDOF 4
ENDMDL
MODEL 4
REMARK VINA RESULT:    -1.997      1.333      2.727
REMARK INTER + INTRA:          -2.707
REMARK INTER:                  -2.438
REMARK INTRA:                  -0.269
REMARK UNBOUND:                -0.244
REMARK SMILES C=CCc1ccc(OC)c(OC)c1
REMARK SMILES IDX 7 1 10 2 13 3 4 4 5 5 6 6 8 7 9 8 11 9 12 10 3 11 2 12 1 13
REMARK H PARENT
REMARK Flexibility Score: inf
ROOT
ATOM      1  C   UNL     1     125.953 110.645 136.520  1.00  0.00     0.160 A 
ATOM      2  C   UNL     1     126.622 111.492 135.621  1.00  0.00     0.160 A 
ATOM      3  C   UNL     1     126.991 111.009 134.350  1.00  0.00     0.054 A 
ATOM      4  C   UNL     1     126.692 109.690 133.973  1.00  0.00    -0.040 A 
ATOM      5  C   UNL     1     126.034 108.848 134.880  1.00  0.00     0.008 A 
ATOM      6  C   UNL     1     125.663 109.320 136.141  1.00  0.00     0.051 A 
ENDROOT
BRANCH   1   7
ATOM      7  O   UNL     1     125.596 111.155 137.778  1.00  0.00    -0.493 OA
ATOM      8  C   UNL     1     125.360 110.357 138.933  1.00  0.00     0.278 C 
ENDBRANCH   1   7
BRANCH   2   9
ATOM      9  O   UNL     1     126.903 112.806 136.029  1.00  0.00    -0.493 OA
ATOM     10  C   UNL     1     126.173 113.954 135.612  1.00  0.00     0.278 C 
ENDBRANCH   2   9
BRANCH   4  11
ATOM     11  C   UNL     1     127.116 109.166 132.627  1.00  0.00     0.062 C 
BRANCH  11  12
ATOM     12  C   UNL     1     126.167 108.106 132.145  1.00  0.00    -0.030 C 
ATOM     13  C   UNL     1     126.562 107.130 131.320  1.00  0.00     0.004 C 
ENDBRANCH  11  12
ENDBRANCH   4  11
TORSDOF 4
ENDMDL
MODEL 5
REMARK VINA RESULT:    -1.985      1.822      4.764
REMARK INTER + INTRA:          -2.693
REMARK INTER:                  -2.455
REMARK INTRA:                  -0.238
REMARK UNBOUND:                -0.244
REMARK SMILES C=CCc1ccc(OC)c(OC)c1
REMARK SMILES IDX 7 1 10 2 13 3 4 4 5 5 6 6 8 7 9 8 11 9 12 10 3 11 2 12 1 13
REMARK H PARENT
REMARK Flexibility Score: inf
ROOT
ATOM      1  C   UNL     1     126.337 108.473 134.564  1.00  0.00     0.160 A 
ATOM      2  C   UNL     1     125.887 108.691 135.876  1.00  0.00     0.160 A 
ATOM      3  C   UNL     1     125.971 109.980 136.438  1.00  0.00     0.054 A 
ATOM      4  C   UNL     1     126.495 111.049 135.695  1.00  0.00    -0.040 A 
ATOM      5  C   UNL     1     126.952 110.821 134.390  1.00  0.00     0.008 A 
ATOM      6  C   UNL     1     126.872 109.547 133.826  1.00  0.00     0.051 A 
ENDROOT
BRANCH   1   7
ATOM      7  O   UNL     1     126.240 107.178 134.031  1.00  0.00    -0.493 OA
ATOM      8  C   UNL     1     125.743 106.877 132.731  1.00  0.00     0.278 C 
ENDBRANCH   1   7
BRANCH   2   9
ATOM      9  O   UNL     1     125.365 107.600 136.590  1.00  0.00    -0.493 OA
ATOM     10  C   UNL     1     124.437 107.708 137.664  1.00  0.00     0.278 C 
ENDBRANCH   2   9
BRANCH   4  11
ATOM     11  C   UNL     1     126.613 112.420 136.308  1.00  0.00     0.062 C 
BRANCH  11  12
ATOM     12  C   UNL     1     126.537 112.340 137.807  1.00  0.00    -0.030 C 
ATOM     13  C   UNL     1     127.124 113.252 138.590  1.00  0.00     0.004 C 
ENDBRANCH  11  12
ENDBRANCH   4  11
TORSDOF 4
ENDMDL
MODEL 6
REMARK VINA RESULT:    -1.846      1.712      3.288
REMARK INTER + INTRA:          -2.521
REMARK INTER:                  -2.141
REMARK INTRA:                  -0.380
REMARK UNBOUND:                -0.244
REMARK SMILES C=CCc1ccc(OC)c(OC)c1
REMARK SMILES IDX 7 1 10 2 13 3 4 4 5 5 6 6 8 7 9 8 11 9 12 10 3 11 2 12 1 13
REMARK H PARENT
REMARK Flexibility Score: inf
ROOT
ATOM      1  C   UNL     1     126.746 111.732 135.357  1.00  0.00     0.160 A 
ATOM      2  C   UNL     1     126.579 111.590 136.744  1.00  0.00     0.160 A 
ATOM      3  C   UNL     1     126.213 110.339 137.278  1.00  0.00     0.054 A 
ATOM      4  C   UNL     1     126.018 109.233 136.435  1.00  0.00    -0.040 A 
ATOM      5  C   UNL     1     126.176 109.387 135.051  1.00  0.00     0.008 A 
ATOM      6  C   UNL     1     126.540 110.622 134.515  1.00  0.00     0.051 A 
ENDROOT
BRANCH   1   7
ATOM      7  O   UNL     1     127.113 112.991 134.855  1.00  0.00    -0.493 OA
ATOM      8  C   UNL     1     126.214 113.904 134.235  1.00  0.00     0.278 C 
ENDBRANCH   1   7
BRANCH   2   9
ATOM      9  O   UNL     1     126.785 112.716 137.558  1.00  0.00    -0.493 OA
ATOM     10  C   UNL     1     125.743 113.503 138.124  1.00  0.00     0.278 C 
ENDBRANCH   2   9
BRANCH   4  11
ATOM     11  C   UNL     1     125.595 107.905 137.005  1.00  0.00     0.062 C 
BRANCH  11  12
ATOM     12  C   UNL     1     124.383 107.380 136.289  1.00  0.00    -0.030 C 
ATOM     13  C   UNL     1     123.144 107.674 136.695  1.00  0.00     0.004 C 
ENDBRANCH  11  12
ENDBRANCH   4  11
TORSDOF 4
ENDMDL
