MODEL 1
REMARK VINA RESULT:    -3.296      0.000      0.000
REMARK INTER + INTRA:          -3.585
REMARK INTER:                  -3.585
REMARK INTRA:                   0.000
REMARK UNBOUND:                 0.000
REMARK SMILES [NH3+]CC(=O)[O-]
REMARK SMILES IDX 2 1 1 2 3 6 4 7 5 8
REMARK H PARENT 1 3 1 4 1 5
REMARK Flexibility Score: inf
ROOT
ATOM      1  C   UNL     1      39.662  42.906   2.753  1.00  0.00     0.312 C 
ENDROOT
BRANCH   1   2
ATOM      2  N   UNL     1      40.321  42.704   1.464  1.00  0.00    -0.353 N 
ATOM      3  H   UNL     1      40.448  41.681   1.283  1.00  0.00     0.344 HD
ATOM      4  H   UNL     1      39.749  43.131   0.698  1.00  0.00     0.344 HD
ATOM      5  H   UNL     1      41.259  43.163   1.484  1.00  0.00     0.344 HD
ENDBRANCH   1   2
BRANCH   1   6
ATOM      6  C   UNL     1      39.237  44.333   2.912  1.00  0.00     0.096 C 
ATOM      7  O   UNL     1      39.511  45.178   2.019  1.00  0.00    -0.544 OA
ATOM      8  O   UNL     1      38.494  44.719   4.020  1.00  0.00    -0.544 OA
ENDBRANCH   1   6
TORSDOF 2
ENDMDL
MODEL 2
REMARK VINA RESULT:    -3.279     16.546     16.993
REMARK INTER + INTRA:          -3.567
REMARK INTER:                  -3.567
REMARK INTRA:                   0.000
REMARK UNBOUND:                 0.000
REMARK SMILES [NH3+]CC(=O)[O-]
REMARK SMILES IDX 2 1 1 2 3 6 4 7 5 8
REMARK H PARENT 1 3 1 4 1 5
REMARK Flexibility Score: inf
ROOT
ATOM      1  C   UNL     1      35.646  32.603  -9.894  1.00  0.00     0.312 C 
ENDROOT
BRANCH   1   2
ATOM      2  N   UNL     1      35.083  33.230  -8.700  1.00  0.00    -0.353 N 
ATOM      3  H   UNL     1      34.203  33.740  -8.943  1.00  0.00     0.344 HD
ATOM      4  H   UNL     1      34.882  32.503  -7.974  1.00  0.00     0.344 HD
ATOM      5  H   UNL     1      35.774  33.912  -8.314  1.00  0.00     0.344 HD
ENDBRANCH   1   2
BRANCH   1   6
ATOM      6  C   UNL     1      36.917  33.283 -10.300  1.00  0.00     0.096 C 
ATOM      7  O   UNL     1      37.288  34.333  -9.713  1.00  0.00    -0.544 OA
ATOM      8  O   UNL     1      37.716  32.730 -11.292  1.00  0.00    -0.544 OA
ENDBRANCH   1   6
TORSDOF 2
ENDMDL
MODEL 3
REMARK VINA RESULT:    -3.270      0.207      1.463
REMARK INTER + INTRA:          -3.557
REMARK INTER:                  -3.557
REMARK INTRA:                   0.000
REMARK UNBOUND:                 0.000
REMARK SMILES [NH3+]CC(=O)[O-]
REMARK SMILES IDX 2 1 1 2 3 6 4 7 5 8
REMARK H PARENT 1 3 1 4 1 5
REMARK Flexibility Score: inf
ROOT
ATOM      1  C   UNL     1      39.832  43.040   2.803  1.00  0.00     0.312 C 
ENDROOT
BRANCH   1   2
ATOM      2  N   UNL     1      40.214  42.662   1.444  1.00  0.00    -0.353 N 
ATOM      3  H   UNL     1      41.256  42.629   1.360  1.00  0.00     0.344 HD
ATOM      4  H   UNL     1      39.808  41.727   1.204  1.00  0.00     0.344 HD
ATOM      5  H   UNL     1      39.843  43.374   0.774  1.00  0.00     0.344 HD
ENDBRANCH   1   2
BRANCH   1   6
ATOM      6  C   UNL     1      39.276  44.430   2.830  1.00  0.00     0.096 C 
ATOM      7  O   UNL     1      38.590  44.818   3.812  1.00  0.00    -0.544 OA
ATOM      8  O   UNL     1      39.559  45.313   1.795  1.00  0.00    -0.544 OA
ENDBRANCH   1   6
TORSDOF 2
ENDMDL
MODEL 4
REMARK VINA RESULT:    -3.264     16.447     16.861
REMARK INTER + INTRA:          -3.550
REMARK INTER:                  -3.550
REMARK INTRA:                   0.000
REMARK UNBOUND:                 0.000
REMARK SMILES [NH3+]CC(=O)[O-]
REMARK SMILES IDX 2 1 1 2 3 6 4 7 5 8
REMARK H PARENT 1 3 1 4 1 5
REMARK Flexibility Score: inf
ROOT
ATOM      1  C   UNL     1      37.707  33.383 -11.575  1.00  0.00     0.312 C 
ENDROOT
BRANCH   1   2
ATOM      2  N   UNL     1      37.676  34.460 -12.564  1.00  0.00    -0.353 N 
ATOM      3  H   UNL     1      37.498  35.376 -12.091  1.00  0.00     0.344 HD
ATOM      4  H   UNL     1      38.585  34.498 -13.081  1.00  0.00     0.344 HD
ATOM      5  H   UNL     1      36.906  34.276 -13.245  1.00  0.00     0.344 HD
ENDBRANCH   1   2
BRANCH   1   6
ATOM      6  C   UNL     1      37.360  33.904 -10.215  1.00  0.00     0.096 C 
ATOM      7  O   UNL     1      36.211  33.712  -9.737  1.00  0.00    -0.544 OA
ATOM      8  O   UNL     1      38.322  34.557  -9.454  1.00  0.00    -0.544 OA
ENDBRANCH   1   6
TORSDOF 2
ENDMDL
MODEL 5
REMARK VINA RESULT:    -3.222      1.198      1.486
REMARK INTER + INTRA:          -3.505
REMARK INTER:                  -3.505
REMARK INTRA:                   0.000
REMARK UNBOUND:                 0.000
REMARK SMILES [NH3+]CC(=O)[O-]
REMARK SMILES IDX 2 1 1 2 3 6 4 7 5 8
REMARK H PARENT 1 3 1 4 1 5
REMARK Flexibility Score: inf
ROOT
ATOM      1  C   UNL     1      39.635  42.656   2.639  1.00  0.00     0.312 C 
ENDROOT
BRANCH   1   2
ATOM      2  N   UNL     1      40.404  42.693   1.396  1.00  0.00    -0.353 N 
ATOM      3  H   UNL     1      40.095  43.500   0.807  1.00  0.00     0.344 HD
ATOM      4  H   UNL     1      41.425  42.780   1.609  1.00  0.00     0.344 HD
ATOM      5  H   UNL     1      40.242  41.806   0.868  1.00  0.00     0.344 HD
ENDBRANCH   1   2
BRANCH   1   6
ATOM      6  C   UNL     1      39.783  43.943   3.390  1.00  0.00     0.096 C 
ATOM      7  O   UNL     1      38.766  44.626   3.682  1.00  0.00    -0.544 OA
ATOM      8  O   UNL     1      41.038  44.363   3.812  1.00  0.00    -0.544 OA
ENDBRANCH   1   6
TORSDOF 2
ENDMDL
MODEL 6
REMARK VINA RESULT:    -3.201     16.177     16.546
REMARK INTER + INTRA:          -3.481
REMARK INTER:                  -3.481
REMARK INTRA:                   0.000
REMARK UNBOUND:                 0.000
REMARK SMILES [NH3+]CC(=O)[O-]
REMARK SMILES IDX 2 1 1 2 3 6 4 7 5 8
REMARK H PARENT 1 3 1 4 1 5
REMARK Flexibility Score: inf
ROOT
ATOM      1  C   UNL     1      28.849  51.850  -8.434  1.00  0.00     0.312 C 
ENDROOT
BRANCH   1   2
ATOM      2  N   UNL     1      28.305  52.111  -7.103  1.00  0.00    -0.353 N 
ATOM      3  H   UNL     1      27.864  51.243  -6.719  1.00  0.00     0.344 HD
ATOM      4  H   UNL     1      29.065  52.435  -6.462  1.00  0.00     0.344 HD
ATOM      5  H   UNL     1      27.577  52.858  -7.172  1.00  0.00     0.344 HD
ENDBRANCH   1   2
BRANCH   1   6
ATOM      6  C   UNL     1      30.343  51.754  -8.385  1.00  0.00     0.096 C 
ATOM      7  O   UNL     1      30.987  51.382  -9.401  1.00  0.00    -0.544 OA
ATOM      8  O   UNL     1      31.027  52.123  -7.234  1.00  0.00    -0.544 OA
ENDBRANCH   1   6
TORSDOF 2
ENDMDL
MODEL 7
REMARK VINA RESULT:    -3.177      2.550      2.703
REMARK INTER + INTRA:          -3.456
REMARK INTER:                  -3.456
REMARK INTRA:                   0.000
REMARK UNBOUND:                 0.000
REMARK SMILES [NH3+]CC(=O)[O-]
REMARK SMILES IDX 2 1 1 2 3 6 4 7 5 8
REMARK H PARENT 1 3 1 4 1 5
REMARK Flexibility Score: inf
ROOT
ATOM      1  C   UNL     1      38.860  44.627   3.511  1.00  0.00     0.312 C 
ENDROOT
BRANCH   1   2
ATOM      2  N   UNL     1      38.344  44.244   4.824  1.00  0.00    -0.353 N 
ATOM      3  H   UNL     1      37.373  44.613   4.949  1.00  0.00     0.344 HD
ATOM      4  H   UNL     1      38.342  43.202   4.918  1.00  0.00     0.344 HD
ATOM      5  H   UNL     1      38.959  44.651   5.565  1.00  0.00     0.344 HD
ENDBRANCH   1   2
BRANCH   1   6
ATOM      6  C   UNL     1      39.900  43.653   3.047  1.00  0.00     0.096 C 
ATOM      7  O   UNL     1      41.122  43.944   3.133  1.00  0.00    -0.544 OA
ATOM      8  O   UNL     1      39.521  42.406   2.568  1.00  0.00    -0.544 OA
ENDBRANCH   1   6
TORSDOF 2
ENDMDL
MODEL 8
REMARK VINA RESULT:    -3.000     16.276     16.717
REMARK INTER + INTRA:          -3.263
REMARK INTER:                  -3.263
REMARK INTRA:                   0.000
REMARK UNBOUND:                 0.000
REMARK SMILES [NH3+]CC(=O)[O-]
REMARK SMILES IDX 2 1 1 2 3 6 4 7 5 8
REMARK H PARENT 1 3 1 4 1 5
REMARK Flexibility Score: inf
ROOT
ATOM      1  C   UNL     1      38.166  33.820  -9.901  1.00  0.00     0.312 C 
ENDROOT
BRANCH   1   2
ATOM      2  N   UNL     1      37.999  34.988  -9.038  1.00  0.00    -0.353 N 
ATOM      3  H   UNL     1      38.256  35.858  -9.559  1.00  0.00     0.344 HD
ATOM      4  H   UNL     1      37.007  35.051  -8.711  1.00  0.00     0.344 HD
ATOM      5  H   UNL     1      38.625  34.892  -8.208  1.00  0.00     0.344 HD
ENDBRANCH   1   2
BRANCH   1   6
ATOM      6  C   UNL     1      36.839  33.210 -10.231  1.00  0.00     0.096 C 
ATOM      7  O   UNL     1      35.819  33.512  -9.556  1.00  0.00    -0.544 OA
ATOM      8  O   UNL     1      36.718  32.350 -11.314  1.00  0.00    -0.544 OA
ENDBRANCH   1   6
TORSDOF 2
ENDMDL
MODEL 9
REMARK VINA RESULT:    -2.917      1.937      2.037
REMARK INTER + INTRA:          -3.173
REMARK INTER:                  -3.173
REMARK INTRA:                   0.000
REMARK UNBOUND:                 0.000
REMARK SMILES [NH3+]CC(=O)[O-]
REMARK SMILES IDX 2 1 1 2 3 6 4 7 5 8
REMARK H PARENT 1 3 1 4 1 5
REMARK Flexibility Score: inf
ROOT
ATOM      1  C   UNL     1      40.482  44.602   2.344  1.00  0.00     0.312 C 
ENDROOT
BRANCH   1   2
ATOM      2  N   UNL     1      39.766  45.398   1.348  1.00  0.00    -0.353 N 
ATOM      3  H   UNL     1      38.848  44.950   1.124  1.00  0.00     0.344 HD
ATOM      4  H   UNL     1      39.610  46.367   1.709  1.00  0.00     0.344 HD
ATOM      5  H   UNL     1      40.339  45.449   0.475  1.00  0.00     0.344 HD
ENDBRANCH   1   2
BRANCH   1   6
ATOM      6  C   UNL     1      39.579  43.570   2.944  1.00  0.00     0.096 C 
ATOM      7  O   UNL     1      39.583  42.391   2.502  1.00  0.00    -0.544 OA
ATOM      8  O   UNL     1      38.771  43.896   4.025  1.00  0.00    -0.544 OA
ENDBRANCH   1   6
TORSDOF 2
ENDMDL
