MODEL 1
REMARK VINA RESULT:    -5.296      0.000      0.000
REMARK INTER + INTRA:         -11.837
REMARK INTER:                  -9.939
REMARK INTRA:                  -1.897
REMARK UNBOUND:                -1.897
REMARK SMILES O=C([O-])CCCCCCCCCCCCCCC(=O)[O-]
REMARK SMILES IDX 10 1 9 2 8 3 7 4 6 5 5 6 4 7 2 8 1 9 3 10 11 11 12 12 13 13
REMARK SMILES IDX 14 14 15 15 16 16 17 17 18 18 19 19 20 20
REMARK H PARENT
REMARK Flexibility Score: inf
ROOT
ATOM      1  C   UNL     1     160.318 159.235 147.288  1.00  0.00     0.000 C 
ENDROOT
BRANCH   1   2
ATOM      2  C   UNL     1     159.171 158.322 147.740  1.00  0.00     0.000 C 
BRANCH   2   3
ATOM      3  C   UNL     1     159.654 157.310 148.789  1.00  0.00     0.000 C 
BRANCH   3   4
ATOM      4  C   UNL     1     158.501 156.705 149.606  1.00  0.00     0.000 C 
BRANCH   4   5
ATOM      5  C   UNL     1     157.405 157.731 149.932  1.00  0.00     0.000 C 
BRANCH   5   6
ATOM      6  C   UNL     1     156.120 157.032 150.391  1.00  0.00     0.006 C 
BRANCH   6   7
ATOM      7  C   UNL     1     156.013 155.627 149.789  1.00  0.00     0.053 C 
BRANCH   7   8
ATOM      8  C   UNL     1     154.942 154.843 150.479  1.00  0.00     0.041 C 
ATOM      9  O   UNL     1     155.004 154.644 151.722  1.00  0.00    -0.550 OA
ATOM     10  O   UNL     1     153.850 154.374 149.761  1.00  0.00    -0.550 OA
ENDBRANCH   7   8
ENDBRANCH   6   7
ENDBRANCH   5   6
ENDBRANCH   4   5
ENDBRANCH   3   4
ENDBRANCH   2   3
ENDBRANCH   1   2
BRANCH   1  11
ATOM     11  C   UNL     1     160.047 160.693 147.677  1.00  0.00     0.000 C 
BRANCH  11  12
ATOM     12  C   UNL     1     158.930 160.783 148.727  1.00  0.00     0.000 C 
BRANCH  12  13
ATOM     13  C   UNL     1     159.432 161.313 150.080  1.00  0.00     0.000 C 
BRANCH  13  14
ATOM     14  C   UNL     1     160.660 160.543 150.598  1.00  0.00     0.000 C 
BRANCH  14  15
ATOM     15  C   UNL     1     160.336 159.659 151.813  1.00  0.00     0.000 C 
BRANCH  15  16
ATOM     16  C   UNL     1     158.902 159.868 152.329  1.00  0.00     0.006 C 
BRANCH  16  17
ATOM     17  C   UNL     1     158.878 160.421 153.760  1.00  0.00     0.053 C 
BRANCH  17  18
ATOM     18  C   UNL     1     157.860 161.508 153.921  1.00  0.00     0.041 C 
ATOM     19  O   UNL     1     157.058 161.486 154.892  1.00  0.00    -0.550 OA
ATOM     20  O   UNL     1     157.778 162.530 152.983  1.00  0.00    -0.550 OA
ENDBRANCH  17  18
ENDBRANCH  16  17
ENDBRANCH  15  16
ENDBRANCH  14  15
ENDBRANCH  13  14
ENDBRANCH  12  13
ENDBRANCH  11  12
ENDBRANCH   1  11
TORSDOF 15
ENDMDL
MODEL 2
REMARK VINA RESULT:    -5.270      3.337      7.668
REMARK INTER + INTRA:         -11.789
REMARK INTER:                  -9.824
REMARK INTRA:                  -1.965
REMARK UNBOUND:                -1.897
REMARK SMILES O=C([O-])CCCCCCCCCCCCCCC(=O)[O-]
REMARK SMILES IDX 10 1 9 2 8 3 7 4 6 5 5 6 4 7 2 8 1 9 3 10 11 11 12 12 13 13
REMARK SMILES IDX 14 14 15 15 16 16 17 17 18 18 19 19 20 20
REMARK H PARENT
REMARK Flexibility Score: inf
ROOT
ATOM      1  C   UNL     1     159.166 161.211 152.366  1.00  0.00     0.000 C 
ENDROOT
BRANCH   1   2
ATOM      2  C   UNL     1     159.132 161.253 150.833  1.00  0.00     0.000 C 
BRANCH   2   3
ATOM      3  C   UNL     1     159.417 162.671 150.316  1.00  0.00     0.000 C 
BRANCH   3   4
ATOM      4  C   UNL     1     160.440 162.688 149.169  1.00  0.00     0.000 C 
BRANCH   4   5
ATOM      5  C   UNL     1     161.481 161.565 149.286  1.00  0.00     0.000 C 
BRANCH   5   6
ATOM      6  C   UNL     1     162.686 162.019 150.116  1.00  0.00     0.006 C 
BRANCH   6   7
ATOM      7  C   UNL     1     163.094 163.452 149.757  1.00  0.00     0.053 C 
BRANCH   7   8
ATOM      8  C   UNL     1     164.469 163.748 150.266  1.00  0.00     0.041 C 
ATOM      9  O   UNL     1     164.623 164.319 151.379  1.00  0.00    -0.550 OA
ATOM     10  O   UNL     1     165.582 163.349 149.537  1.00  0.00    -0.550 OA
ENDBRANCH   7   8
ENDBRANCH   6   7
ENDBRANCH   5   6
ENDBRANCH   4   5
ENDBRANCH   3   4
ENDBRANCH   2   3
ENDBRANCH   1   2
BRANCH   1  11
ATOM     11  C   UNL     1     159.464 159.795 152.873  1.00  0.00     0.000 C 
BRANCH  11  12
ATOM     12  C   UNL     1     160.692 159.205 152.162  1.00  0.00     0.000 C 
BRANCH  12  13
ATOM     13  C   UNL     1     160.742 157.671 152.244  1.00  0.00     0.000 C 
BRANCH  13  14
ATOM     14  C   UNL     1     160.767 157.005 150.857  1.00  0.00     0.000 C 
BRANCH  14  15
ATOM     15  C   UNL     1     160.643 158.021 149.710  1.00  0.00     0.000 C 
BRANCH  15  16
ATOM     16  C   UNL     1     159.507 157.672 148.733  1.00  0.00     0.006 C 
BRANCH  16  17
ATOM     17  C   UNL     1     158.136 158.124 149.256  1.00  0.00     0.053 C 
BRANCH  17  18
ATOM     18  C   UNL     1     157.283 156.960 149.661  1.00  0.00     0.041 C 
ATOM     19  O   UNL     1     157.635 155.787 149.369  1.00  0.00    -0.550 OA
ATOM     20  O   UNL     1     156.087 157.175 150.334  1.00  0.00    -0.550 OA
ENDBRANCH  17  18
ENDBRANCH  16  17
ENDBRANCH  15  16
ENDBRANCH  14  15
ENDBRANCH  13  14
ENDBRANCH  12  13
ENDBRANCH  11  12
ENDBRANCH   1  11
TORSDOF 15
ENDMDL
MODEL 3
REMARK VINA RESULT:    -5.234      2.041      2.531
REMARK INTER + INTRA:         -11.721
REMARK INTER:                  -9.832
REMARK INTRA:                  -1.890
REMARK UNBOUND:                -1.897
REMARK SMILES O=C([O-])CCCCCCCCCCCCCCC(=O)[O-]
REMARK SMILES IDX 10 1 9 2 8 3 7 4 6 5 5 6 4 7 2 8 1 9 3 10 11 11 12 12 13 13
REMARK SMILES IDX 14 14 15 15 16 16 17 17 18 18 19 19 20 20
REMARK H PARENT
REMARK Flexibility Score: inf
ROOT
ATOM      1  C   UNL     1     160.083 159.203 147.461  1.00  0.00     0.000 C 
ENDROOT
BRANCH   1   2
ATOM      2  C   UNL     1     158.872 158.588 148.173  1.00  0.00     0.000 C 
BRANCH   2   3
ATOM      3  C   UNL     1     159.001 157.060 148.258  1.00  0.00     0.000 C 
BRANCH   3   4
ATOM      4  C   UNL     1     158.110 156.449 149.351  1.00  0.00     0.000 C 
BRANCH   4   5
ATOM      5  C   UNL     1     157.157 157.476 149.981  1.00  0.00     0.000 C 
BRANCH   5   6
ATOM      6  C   UNL     1     155.873 156.800 150.475  1.00  0.00     0.006 C 
BRANCH   6   7
ATOM      7  C   UNL     1     155.583 155.523 149.681  1.00  0.00     0.053 C 
BRANCH   7   8
ATOM      8  C   UNL     1     155.410 154.360 150.607  1.00  0.00     0.041 C 
ATOM      9  O   UNL     1     154.889 154.526 151.742  1.00  0.00    -0.550 OA
ATOM     10  O   UNL     1     155.776 153.084 150.197  1.00  0.00    -0.550 OA
ENDBRANCH   7   8
ENDBRANCH   6   7
ENDBRANCH   5   6
ENDBRANCH   4   5
ENDBRANCH   3   4
ENDBRANCH   2   3
ENDBRANCH   1   2
BRANCH   1  11
ATOM     11  C   UNL     1     159.946 160.727 147.358  1.00  0.00     0.000 C 
BRANCH  11  12
ATOM     12  C   UNL     1     160.800 161.428 148.426  1.00  0.00     0.000 C 
BRANCH  12  13
ATOM     13  C   UNL     1     160.012 162.490 149.210  1.00  0.00     0.000 C 
BRANCH  13  14
ATOM     14  C   UNL     1     158.842 161.887 150.009  1.00  0.00     0.000 C 
BRANCH  14  15
ATOM     15  C   UNL     1     159.231 161.532 151.452  1.00  0.00     0.000 C 
BRANCH  15  16
ATOM     16  C   UNL     1     159.115 160.025 151.740  1.00  0.00     0.006 C 
BRANCH  16  17
ATOM     17  C   UNL     1     160.357 159.251 151.277  1.00  0.00     0.053 C 
BRANCH  17  18
ATOM     18  C   UNL     1     160.628 158.061 152.146  1.00  0.00     0.041 C 
ATOM     19  O   UNL     1     160.702 158.194 153.396  1.00  0.00    -0.550 OA
ATOM     20  O   UNL     1     160.829 156.812 151.573  1.00  0.00    -0.550 OA
ENDBRANCH  17  18
ENDBRANCH  16  17
ENDBRANCH  15  16
ENDBRANCH  14  15
ENDBRANCH  13  14
ENDBRANCH  12  13
ENDBRANCH  11  12
ENDBRANCH   1  11
TORSDOF 15
ENDMDL
MODEL 4
REMARK VINA RESULT:    -5.229      3.445      5.084
REMARK INTER + INTRA:         -11.712
REMARK INTER:                  -9.593
REMARK INTRA:                  -2.119
REMARK UNBOUND:                -1.897
REMARK SMILES O=C([O-])CCCCCCCCCCCCCCC(=O)[O-]
REMARK SMILES IDX 10 1 9 2 8 3 7 4 6 5 5 6 4 7 2 8 1 9 3 10 11 11 12 12 13 13
REMARK SMILES IDX 14 14 15 15 16 16 17 17 18 18 19 19 20 20
REMARK H PARENT
REMARK Flexibility Score: inf
ROOT
ATOM      1  C   UNL     1     159.605 160.608 153.167  1.00  0.00     0.000 C 
ENDROOT
BRANCH   1   2
ATOM      2  C   UNL     1     160.779 159.868 152.514  1.00  0.00     0.000 C 
BRANCH   2   3
ATOM      3  C   UNL     1     160.714 158.363 152.813  1.00  0.00     0.000 C 
BRANCH   3   4
ATOM      4  C   UNL     1     160.492 157.516 151.550  1.00  0.00     0.000 C 
BRANCH   4   5
ATOM      5  C   UNL     1     160.598 158.341 150.258  1.00  0.00     0.000 C 
BRANCH   5   6
ATOM      6  C   UNL     1     159.495 157.951 149.267  1.00  0.00     0.006 C 
BRANCH   6   7
ATOM      7  C   UNL     1     158.107 158.186 149.871  1.00  0.00     0.053 C 
BRANCH   7   8
ATOM      8  C   UNL     1     157.278 156.943 149.775  1.00  0.00     0.041 C 
ATOM      9  O   UNL     1     156.079 156.950 150.162  1.00  0.00    -0.550 OA
ATOM     10  O   UNL     1     157.813 155.792 149.213  1.00  0.00    -0.550 OA
ENDBRANCH   7   8
ENDBRANCH   6   7
ENDBRANCH   5   6
ENDBRANCH   4   5
ENDBRANCH   3   4
ENDBRANCH   2   3
ENDBRANCH   1   2
BRANCH   1  11
ATOM     11  C   UNL     1     158.610 161.104 152.110  1.00  0.00     0.000 C 
BRANCH  11  12
ATOM     12  C   UNL     1     159.264 162.141 151.185  1.00  0.00     0.000 C 
BRANCH  12  13
ATOM     13  C   UNL     1     159.073 161.808 149.696  1.00  0.00     0.000 C 
BRANCH  13  14
ATOM     14  C   UNL     1     160.332 162.099 148.859  1.00  0.00     0.000 C 
BRANCH  14  15
ATOM     15  C   UNL     1     161.632 161.879 149.649  1.00  0.00     0.000 C 
BRANCH  15  16
ATOM     16  C   UNL     1     162.579 163.089 149.575  1.00  0.00     0.006 C 
BRANCH  16  17
ATOM     17  C   UNL     1     163.929 162.808 150.250  1.00  0.00     0.053 C 
BRANCH  17  18
ATOM     18  C   UNL     1     164.752 164.052 150.391  1.00  0.00     0.041 C 
ATOM     19  O   UNL     1     165.574 164.372 149.492  1.00  0.00    -0.550 OA
ATOM     20  O   UNL     1     164.631 164.841 151.528  1.00  0.00    -0.550 OA
ENDBRANCH  17  18
ENDBRANCH  16  17
ENDBRANCH  15  16
ENDBRANCH  14  15
ENDBRANCH  13  14
ENDBRANCH  12  13
ENDBRANCH  11  12
ENDBRANCH   1  11
TORSDOF 15
ENDMDL
MODEL 5
REMARK VINA RESULT:    -5.226      2.516      3.745
REMARK INTER + INTRA:         -11.707
REMARK INTER:                  -9.932
REMARK INTRA:                  -1.775
REMARK UNBOUND:                -1.897
REMARK SMILES O=C([O-])CCCCCCCCCCCCCCC(=O)[O-]
REMARK SMILES IDX 10 1 9 2 8 3 7 4 6 5 5 6 4 7 2 8 1 9 3 10 11 11 12 12 13 13
REMARK SMILES IDX 14 14 15 15 16 16 17 17 18 18 19 19 20 20
REMARK H PARENT
REMARK Flexibility Score: inf
ROOT
ATOM      1  C   UNL     1     160.122 157.783 151.435  1.00  0.00     0.000 C 
ENDROOT
BRANCH   1   2
ATOM      2  C   UNL     1     160.709 157.904 150.023  1.00  0.00     0.000 C 
BRANCH   2   3
ATOM      3  C   UNL     1     159.743 157.335 148.974  1.00  0.00     0.000 C 
BRANCH   3   4
ATOM      4  C   UNL     1     158.281 157.726 149.240  1.00  0.00     0.000 C 
BRANCH   4   5
ATOM      5  C   UNL     1     157.368 156.506 149.433  1.00  0.00     0.000 C 
BRANCH   5   6
ATOM      6  C   UNL     1     156.186 156.845 150.349  1.00  0.00     0.006 C 
BRANCH   6   7
ATOM      7  C   UNL     1     155.311 155.612 150.598  1.00  0.00     0.053 C 
BRANCH   7   8
ATOM      8  C   UNL     1     154.178 155.570 149.622  1.00  0.00     0.041 C 
ATOM      9  O   UNL     1     153.573 156.629 149.307  1.00  0.00    -0.550 OA
ATOM     10  O   UNL     1     153.823 154.369 149.021  1.00  0.00    -0.550 OA
ENDBRANCH   7   8
ENDBRANCH   6   7
ENDBRANCH   5   6
ENDBRANCH   4   5
ENDBRANCH   3   4
ENDBRANCH   2   3
ENDBRANCH   1   2
BRANCH   1  11
ATOM     11  C   UNL     1     160.240 159.108 152.198  1.00  0.00     0.000 C 
BRANCH  11  12
ATOM     12  C   UNL     1     158.918 159.889 152.150  1.00  0.00     0.000 C 
BRANCH  12  13
ATOM     13  C   UNL     1     159.118 161.401 152.340  1.00  0.00     0.000 C 
BRANCH  13  14
ATOM     14  C   UNL     1     158.914 162.193 151.036  1.00  0.00     0.000 C 
BRANCH  14  15
ATOM     15  C   UNL     1     158.874 161.289 149.794  1.00  0.00     0.000 C 
BRANCH  15  16
ATOM     16  C   UNL     1     159.922 161.688 148.740  1.00  0.00     0.006 C 
BRANCH  16  17
ATOM     17  C   UNL     1     161.341 161.269 149.148  1.00  0.00     0.053 C 
BRANCH  17  18
ATOM     18  C   UNL     1     162.159 162.439 149.600  1.00  0.00     0.041 C 
ATOM     19  O   UNL     1     161.795 163.612 149.319  1.00  0.00    -0.550 OA
ATOM     20  O   UNL     1     163.338 162.234 150.305  1.00  0.00    -0.550 OA
ENDBRANCH  17  18
ENDBRANCH  16  17
ENDBRANCH  15  16
ENDBRANCH  14  15
ENDBRANCH  13  14
ENDBRANCH  12  13
ENDBRANCH  11  12
ENDBRANCH   1  11
TORSDOF 15
ENDMDL
MODEL 6
REMARK VINA RESULT:    -5.226      0.926      6.059
REMARK INTER + INTRA:         -11.706
REMARK INTER:                 -10.033
REMARK INTRA:                  -1.673
REMARK UNBOUND:                -1.897
REMARK SMILES O=C([O-])CCCCCCCCCCCCCCC(=O)[O-]
REMARK SMILES IDX 10 1 9 2 8 3 7 4 6 5 5 6 4 7 2 8 1 9 3 10 11 11 12 12 13 13
REMARK SMILES IDX 14 14 15 15 16 16 17 17 18 18 19 19 20 20
REMARK H PARENT
REMARK Flexibility Score: inf
ROOT
ATOM      1  C   UNL     1     159.458 160.682 147.850  1.00  0.00     0.000 C 
ENDROOT
BRANCH   1   2
ATOM      2  C   UNL     1     160.665 161.370 148.502  1.00  0.00     0.000 C 
BRANCH   2   3
ATOM      3  C   UNL     1     160.424 161.596 150.002  1.00  0.00     0.000 C 
BRANCH   3   4
ATOM      4  C   UNL     1     161.366 160.764 150.886  1.00  0.00     0.000 C 
BRANCH   4   5
ATOM      5  C   UNL     1     160.616 159.969 151.966  1.00  0.00     0.000 C 
BRANCH   5   6
ATOM      6  C   UNL     1     159.123 160.321 151.967  1.00  0.00     0.006 C 
BRANCH   6   7
ATOM      7  C   UNL     1     158.571 160.367 153.395  1.00  0.00     0.053 C 
BRANCH   7   8
ATOM      8  C   UNL     1     157.844 161.653 153.632  1.00  0.00     0.041 C 
ATOM      9  O   UNL     1     157.955 162.605 152.814  1.00  0.00    -0.550 OA
ATOM     10  O   UNL     1     157.003 161.784 154.730  1.00  0.00    -0.550 OA
ENDBRANCH   7   8
ENDBRANCH   6   7
ENDBRANCH   5   6
ENDBRANCH   4   5
ENDBRANCH   3   4
ENDBRANCH   2   3
ENDBRANCH   1   2
BRANCH   1  11
ATOM     11  C   UNL     1     159.892 159.443 147.057  1.00  0.00     0.000 C 
BRANCH  11  12
ATOM     12  C   UNL     1     159.255 158.171 147.636  1.00  0.00     0.000 C 
BRANCH  12  13
ATOM     13  C   UNL     1     159.867 157.766 148.987  1.00  0.00     0.000 C 
BRANCH  13  14
ATOM     14  C   UNL     1     158.808 157.285 149.995  1.00  0.00     0.000 C 
BRANCH  14  15
ATOM     15  C   UNL     1     157.535 156.761 149.312  1.00  0.00     0.000 C 
BRANCH  15  16
ATOM     16  C   UNL     1     156.291 156.883 150.209  1.00  0.00     0.006 C 
BRANCH  16  17
ATOM     17  C   UNL     1     155.567 155.540 150.379  1.00  0.00     0.053 C 
BRANCH  17  18
ATOM     18  C   UNL     1     154.301 155.484 149.578  1.00  0.00     0.041 C 
ATOM     19  O   UNL     1     153.643 156.536 149.361  1.00  0.00    -0.550 OA
ATOM     20  O   UNL     1     153.835 154.267 149.099  1.00  0.00    -0.550 OA
ENDBRANCH  17  18
ENDBRANCH  16  17
ENDBRANCH  15  16
ENDBRANCH  14  15
ENDBRANCH  13  14
ENDBRANCH  12  13
ENDBRANCH  11  12
ENDBRANCH   1  11
TORSDOF 15
ENDMDL
MODEL 7
REMARK VINA RESULT:    -5.226      3.233      6.932
REMARK INTER + INTRA:         -11.705
REMARK INTER:                  -9.926
REMARK INTRA:                  -1.780
REMARK UNBOUND:                -1.897
REMARK SMILES O=C([O-])CCCCCCCCCCCCCCC(=O)[O-]
REMARK SMILES IDX 10 1 9 2 8 3 7 4 6 5 5 6 4 7 2 8 1 9 3 10 11 11 12 12 13 13
REMARK SMILES IDX 14 14 15 15 16 16 17 17 18 18 19 19 20 20
REMARK H PARENT
REMARK Flexibility Score: inf
ROOT
ATOM      1  C   UNL     1     159.804 159.393 147.355  1.00  0.00     0.000 C 
ENDROOT
BRANCH   1   2
ATOM      2  C   UNL     1     158.878 160.509 147.856  1.00  0.00     0.000 C 
BRANCH   2   3
ATOM      3  C   UNL     1     159.590 161.391 148.891  1.00  0.00     0.000 C 
BRANCH   3   4
ATOM      4  C   UNL     1     161.118 161.225 148.862  1.00  0.00     0.000 C 
BRANCH   4   5
ATOM      5  C   UNL     1     161.802 161.825 150.099  1.00  0.00     0.000 C 
BRANCH   5   6
ATOM      6  C   UNL     1     162.649 163.045 149.718  1.00  0.00     0.006 C 
BRANCH   6   7
ATOM      7  C   UNL     1     164.118 162.835 150.098  1.00  0.00     0.053 C 
BRANCH   7   8
ATOM      8  C   UNL     1     164.772 164.146 150.406  1.00  0.00     0.041 C 
ATOM      9  O   UNL     1     164.572 164.707 151.516  1.00  0.00    -0.550 OA
ATOM     10  O   UNL     1     165.641 164.722 149.489  1.00  0.00    -0.550 OA
ENDBRANCH   7   8
ENDBRANCH   6   7
ENDBRANCH   5   6
ENDBRANCH   4   5
ENDBRANCH   3   4
ENDBRANCH   2   3
ENDBRANCH   1   2
BRANCH   1  11
ATOM     11  C   UNL     1     159.262 158.012 147.742  1.00  0.00     0.000 C 
BRANCH  11  12
ATOM     12  C   UNL     1     158.219 158.126 148.864  1.00  0.00     0.000 C 
BRANCH  12  13
ATOM     13  C   UNL     1     158.631 157.363 150.133  1.00  0.00     0.000 C 
BRANCH  13  14
ATOM     14  C   UNL     1     160.121 157.547 150.476  1.00  0.00     0.000 C 
BRANCH  14  15
ATOM     15  C   UNL     1     160.369 158.731 151.423  1.00  0.00     0.000 C 
BRANCH  15  16
ATOM     16  C   UNL     1     159.063 159.338 151.965  1.00  0.00     0.006 C 
BRANCH  16  17
ATOM     17  C   UNL     1     159.305 160.226 153.193  1.00  0.00     0.053 C 
BRANCH  17  18
ATOM     18  C   UNL     1     158.441 161.450 153.175  1.00  0.00     0.041 C 
ATOM     19  O   UNL     1     158.545 162.284 152.236  1.00  0.00    -0.550 OA
ATOM     20  O   UNL     1     157.544 161.684 154.208  1.00  0.00    -0.550 OA
ENDBRANCH  17  18
ENDBRANCH  16  17
ENDBRANCH  15  16
ENDBRANCH  14  15
ENDBRANCH  13  14
ENDBRANCH  12  13
ENDBRANCH  11  12
ENDBRANCH   1  11
TORSDOF 15
ENDMDL
MODEL 8
REMARK VINA RESULT:    -5.203      3.129      5.708
REMARK INTER + INTRA:         -11.662
REMARK INTER:                  -9.803
REMARK INTRA:                  -1.859
REMARK UNBOUND:                -1.897
REMARK SMILES O=C([O-])CCCCCCCCCCCCCCC(=O)[O-]
REMARK SMILES IDX 10 1 9 2 8 3 7 4 6 5 5 6 4 7 2 8 1 9 3 10 11 11 12 12 13 13
REMARK SMILES IDX 14 14 15 15 16 16 17 17 18 18 19 19 20 20
REMARK H PARENT
REMARK Flexibility Score: inf
ROOT
ATOM      1  C   UNL     1     158.599 158.141 148.899  1.00  0.00     0.000 C 
ENDROOT
BRANCH   1   2
ATOM      2  C   UNL     1     159.249 157.027 149.730  1.00  0.00     0.000 C 
BRANCH   2   3
ATOM      3  C   UNL     1     160.616 157.471 150.271  1.00  0.00     0.000 C 
BRANCH   3   4
ATOM      4  C   UNL     1     160.562 157.889 151.749  1.00  0.00     0.000 C 
BRANCH   4   5
ATOM      5  C   UNL     1     160.518 159.413 151.932  1.00  0.00     0.000 C 
BRANCH   5   6
ATOM      6  C   UNL     1     159.073 159.908 152.060  1.00  0.00     0.006 C 
BRANCH   6   7
ATOM      7  C   UNL     1     159.022 161.436 152.162  1.00  0.00     0.053 C 
BRANCH   7   8
ATOM      8  C   UNL     1     157.958 161.861 153.125  1.00  0.00     0.041 C 
ATOM      9  O   UNL     1     157.354 162.954 152.960  1.00  0.00    -0.550 OA
ATOM     10  O   UNL     1     157.598 161.027 154.176  1.00  0.00    -0.550 OA
ENDBRANCH   7   8
ENDBRANCH   6   7
ENDBRANCH   5   6
ENDBRANCH   4   5
ENDBRANCH   3   4
ENDBRANCH   2   3
ENDBRANCH   1   2
BRANCH   1  11
ATOM     11  C   UNL     1     159.244 158.241 147.511  1.00  0.00     0.000 C 
BRANCH  11  12
ATOM     12  C   UNL     1     159.568 159.701 147.161  1.00  0.00     0.000 C 
BRANCH  12  13
ATOM     13  C   UNL     1     159.374 160.652 148.353  1.00  0.00     0.000 C 
BRANCH  13  14
ATOM     14  C   UNL     1     160.395 161.803 148.363  1.00  0.00     0.000 C 
BRANCH  14  15
ATOM     15  C   UNL     1     161.583 161.533 149.300  1.00  0.00     0.000 C 
BRANCH  15  16
ATOM     16  C   UNL     1     162.322 162.821 149.703  1.00  0.00     0.006 C 
BRANCH  16  17
ATOM     17  C   UNL     1     163.759 162.543 150.164  1.00  0.00     0.053 C 
BRANCH  17  18
ATOM     18  C   UNL     1     164.559 163.804 150.289  1.00  0.00     0.041 C 
ATOM     19  O   UNL     1     165.256 164.209 149.322  1.00  0.00    -0.550 OA
ATOM     20  O   UNL     1     164.556 164.514 151.483  1.00  0.00    -0.550 OA
ENDBRANCH  17  18
ENDBRANCH  16  17
ENDBRANCH  15  16
ENDBRANCH  14  15
ENDBRANCH  13  14
ENDBRANCH  12  13
ENDBRANCH  11  12
ENDBRANCH   1  11
TORSDOF 15
ENDMDL
MODEL 9
REMARK VINA RESULT:    -5.155      2.180      2.654
REMARK INTER + INTRA:         -11.573
REMARK INTER:                  -9.800
REMARK INTRA:                  -1.774
REMARK UNBOUND:                -1.897
REMARK SMILES O=C([O-])CCCCCCCCCCCCCCC(=O)[O-]
REMARK SMILES IDX 10 1 9 2 8 3 7 4 6 5 5 6 4 7 2 8 1 9 3 10 11 11 12 12 13 13
REMARK SMILES IDX 14 14 15 15 16 16 17 17 18 18 19 19 20 20
REMARK H PARENT
REMARK Flexibility Score: inf
ROOT
ATOM      1  C   UNL     1     159.965 160.727 147.342  1.00  0.00     0.000 C 
ENDROOT
BRANCH   1   2
ATOM      2  C   UNL     1     159.899 159.195 147.346  1.00  0.00     0.000 C 
BRANCH   2   3
ATOM      3  C   UNL     1     160.591 158.617 148.589  1.00  0.00     0.000 C 
BRANCH   3   4
ATOM      4  C   UNL     1     159.764 157.516 149.271  1.00  0.00     0.000 C 
BRANCH   4   5
ATOM      5  C   UNL     1     158.279 157.887 149.403  1.00  0.00     0.000 C 
BRANCH   5   6
ATOM      6  C   UNL     1     157.415 156.633 149.586  1.00  0.00     0.006 C 
BRANCH   6   7
ATOM      7  C   UNL     1     156.077 156.979 150.246  1.00  0.00     0.053 C 
BRANCH   7   8
ATOM      8  C   UNL     1     155.127 155.828 150.137  1.00  0.00     0.041 C 
ATOM      9  O   UNL     1     154.046 155.957 149.502  1.00  0.00    -0.550 OA
ATOM     10  O   UNL     1     155.457 154.599 150.692  1.00  0.00    -0.550 OA
ENDBRANCH   7   8
ENDBRANCH   6   7
ENDBRANCH   5   6
ENDBRANCH   4   5
ENDBRANCH   3   4
ENDBRANCH   2   3
ENDBRANCH   1   2
BRANCH   1  11
ATOM     11  C   UNL     1     160.834 161.245 148.495  1.00  0.00     0.000 C 
BRANCH  11  12
ATOM     12  C   UNL     1     160.091 162.321 149.302  1.00  0.00     0.000 C 
BRANCH  12  13
ATOM     13  C   UNL     1     158.872 161.761 150.052  1.00  0.00     0.000 C 
BRANCH  13  14
ATOM     14  C   UNL     1     158.813 162.231 151.517  1.00  0.00     0.000 C 
BRANCH  14  15
ATOM     15  C   UNL     1     159.088 161.095 152.515  1.00  0.00     0.000 C 
BRANCH  15  16
ATOM     16  C   UNL     1     160.085 160.058 151.969  1.00  0.00     0.006 C 
BRANCH  16  17
ATOM     17  C   UNL     1     160.113 158.781 152.819  1.00  0.00     0.053 C 
BRANCH  17  18
ATOM     18  C   UNL     1     161.431 158.597 153.507  1.00  0.00     0.041 C 
ATOM     19  O   UNL     1     161.862 157.439 153.750  1.00  0.00    -0.550 OA
ATOM     20  O   UNL     1     162.168 159.705 153.905  1.00  0.00    -0.550 OA
ENDBRANCH  17  18
ENDBRANCH  16  17
ENDBRANCH  15  16
ENDBRANCH  14  15
ENDBRANCH  13  14
ENDBRANCH  12  13
ENDBRANCH  11  12
ENDBRANCH   1  11
TORSDOF 15
ENDMDL
