MODEL 1
REMARK VINA RESULT:    -3.425      0.000      0.000
REMARK INTER + INTRA:          -4.096
REMARK INTER:                  -4.025
REMARK INTRA:                  -0.071
REMARK UNBOUND:                -0.071
REMARK SMILES O=C([O-])CCC(=O)[O-]
REMARK SMILES IDX 4 1 2 2 1 3 3 4 5 5 6 6 7 7 8 8
REMARK H PARENT
REMARK Flexibility Score: inf
ROOT
ATOM      1  C   UNL     1      12.793 -29.846  23.314  1.00  0.00     0.059 C 
ENDROOT
BRANCH   1   2
ATOM      2  C   UNL     1      11.938 -28.651  23.598  1.00  0.00     0.042 C 
ATOM      3  O   UNL     1      10.950 -28.390  22.863  1.00  0.00    -0.550 OA
ATOM      4  O   UNL     1      12.204 -27.852  24.703  1.00  0.00    -0.550 OA
ENDBRANCH   1   2
BRANCH   1   5
ATOM      5  C   UNL     1      12.270 -30.598  22.089  1.00  0.00     0.059 C 
BRANCH   5   6
ATOM      6  C   UNL     1      13.401 -30.974  21.184  1.00  0.00     0.042 C 
ATOM      7  O   UNL     1      14.428 -30.249  21.120  1.00  0.00    -0.550 OA
ATOM      8  O   UNL     1      13.300 -32.099  20.375  1.00  0.00    -0.550 OA
ENDBRANCH   5   6
ENDBRANCH   1   5
TORSDOF 3
ENDMDL
MODEL 2
REMARK VINA RESULT:    -3.403      0.144      4.132
REMARK INTER + INTRA:          -4.070
REMARK INTER:                  -4.006
REMARK INTRA:                  -0.064
REMARK UNBOUND:                -0.071
REMARK SMILES O=C([O-])CCC(=O)[O-]
REMARK SMILES IDX 4 1 2 2 1 3 3 4 5 5 6 6 7 7 8 8
REMARK H PARENT
REMARK Flexibility Score: inf
ROOT
ATOM      1  C   UNL     1      12.307 -30.608  21.971  1.00  0.00     0.059 C 
ENDROOT
BRANCH   1   2
ATOM      2  C   UNL     1      13.463 -31.017  21.114  1.00  0.00     0.042 C 
ATOM      3  O   UNL     1      14.501 -30.306  21.068  1.00  0.00    -0.550 OA
ATOM      4  O   UNL     1      13.414 -32.211  20.405  1.00  0.00    -0.550 OA
ENDBRANCH   1   2
BRANCH   1   5
ATOM      5  C   UNL     1      12.803 -29.982  23.275  1.00  0.00     0.059 C 
BRANCH   5   6
ATOM      6  C   UNL     1      12.016 -28.750  23.596  1.00  0.00     0.042 C 
ATOM      7  O   UNL     1      12.313 -28.054  24.602  1.00  0.00    -0.550 OA
ATOM      8  O   UNL     1      10.925 -28.398  22.812  1.00  0.00    -0.550 OA
ENDBRANCH   5   6
ENDBRANCH   1   5
TORSDOF 3
ENDMDL
MODEL 3
REMARK VINA RESULT:    -3.401      0.337      1.190
REMARK INTER + INTRA:          -4.068
REMARK INTER:                  -3.993
REMARK INTRA:                  -0.075
REMARK UNBOUND:                -0.071
REMARK SMILES O=C([O-])CCC(=O)[O-]
REMARK SMILES IDX 4 1 2 2 1 3 3 4 5 5 6 6 7 7 8 8
REMARK H PARENT
REMARK Flexibility Score: inf
ROOT
ATOM      1  C   UNL     1      13.080 -29.959  23.539  1.00  0.00     0.059 C 
ENDROOT
BRANCH   1   2
ATOM      2  C   UNL     1      12.301 -28.733  23.894  1.00  0.00     0.042 C 
ATOM      3  O   UNL     1      12.647 -28.025  24.877  1.00  0.00    -0.550 OA
ATOM      4  O   UNL     1      11.222 -28.343  23.111  1.00  0.00    -0.550 OA
ENDBRANCH   1   2
BRANCH   1   5
ATOM      5  C   UNL     1      12.438 -30.675  22.349  1.00  0.00     0.059 C 
BRANCH   5   6
ATOM      6  C   UNL     1      13.469 -30.999  21.315  1.00  0.00     0.042 C 
ATOM      7  O   UNL     1      14.483 -30.264  21.179  1.00  0.00    -0.550 OA
ATOM      8  O   UNL     1      13.287 -32.084  20.467  1.00  0.00    -0.550 OA
ENDBRANCH   5   6
ENDBRANCH   1   5
TORSDOF 3
ENDMDL
MODEL 4
REMARK VINA RESULT:    -3.334      9.437     10.548
REMARK INTER + INTRA:          -3.989
REMARK INTER:                  -3.887
REMARK INTRA:                  -0.102
REMARK UNBOUND:                -0.071
REMARK SMILES O=C([O-])CCC(=O)[O-]
REMARK SMILES IDX 4 1 2 2 1 3 3 4 5 5 6 6 7 7 8 8
REMARK H PARENT
REMARK Flexibility Score: inf
ROOT
ATOM      1  C   UNL     1      20.757 -25.745  20.089  1.00  0.00     0.059 C 
ENDROOT
BRANCH   1   2
ATOM      2  C   UNL     1      20.515 -27.074  20.730  1.00  0.00     0.042 C 
ATOM      3  O   UNL     1      19.499 -27.751  20.421  1.00  0.00    -0.550 OA
ATOM      4  O   UNL     1      21.437 -27.589  21.633  1.00  0.00    -0.550 OA
ENDBRANCH   1   2
BRANCH   1   5
ATOM      5  C   UNL     1      21.965 -25.056  20.726  1.00  0.00     0.059 C 
BRANCH   5   6
ATOM      6  C   UNL     1      23.115 -25.027  19.770  1.00  0.00     0.042 C 
ATOM      7  O   UNL     1      23.343 -26.015  19.023  1.00  0.00    -0.550 OA
ATOM      8  O   UNL     1      23.965 -23.929  19.737  1.00  0.00    -0.550 OA
ENDBRANCH   5   6
ENDBRANCH   1   5
TORSDOF 3
ENDMDL
MODEL 5
REMARK VINA RESULT:    -3.331      2.136      3.149
REMARK INTER + INTRA:          -3.986
REMARK INTER:                  -3.934
REMARK INTRA:                  -0.052
REMARK UNBOUND:                -0.071
REMARK SMILES O=C([O-])CCC(=O)[O-]
REMARK SMILES IDX 4 1 2 2 1 3 3 4 5 5 6 6 7 7 8 8
REMARK H PARENT
REMARK Flexibility Score: inf
ROOT
ATOM      1  C   UNL     1      13.190 -31.382  20.887  1.00  0.00     0.059 C 
ENDROOT
BRANCH   1   2
ATOM      2  C   UNL     1      12.348 -30.741  21.945  1.00  0.00     0.042 C 
ATOM      3  O   UNL     1      12.788 -30.622  23.119  1.00  0.00    -0.550 OA
ATOM      4  O   UNL     1      11.096 -30.231  21.623  1.00  0.00    -0.550 OA
ENDBRANCH   1   2
BRANCH   1   5
ATOM      5  C   UNL     1      14.408 -32.063  21.513  1.00  0.00     0.059 C 
BRANCH   5   6
ATOM      6  C   UNL     1      14.605 -33.424  20.926  1.00  0.00     0.042 C 
ATOM      7  O   UNL     1      14.227 -33.668  19.750  1.00  0.00    -0.550 OA
ATOM      8  O   UNL     1      15.163 -34.439  21.694  1.00  0.00    -0.550 OA
ENDBRANCH   5   6
ENDBRANCH   1   5
TORSDOF 3
ENDMDL
MODEL 6
REMARK VINA RESULT:    -3.325      1.430      4.252
REMARK INTER + INTRA:          -3.979
REMARK INTER:                  -3.860
REMARK INTRA:                  -0.119
REMARK UNBOUND:                -0.071
REMARK SMILES O=C([O-])CCC(=O)[O-]
REMARK SMILES IDX 4 1 2 2 1 3 3 4 5 5 6 6 7 7 8 8
REMARK H PARENT
REMARK Flexibility Score: inf
ROOT
ATOM      1  C   UNL     1      13.382 -30.859  21.259  1.00  0.00     0.059 C 
ENDROOT
BRANCH   1   2
ATOM      2  C   UNL     1      13.977 -32.206  21.524  1.00  0.00     0.042 C 
ATOM      3  O   UNL     1      14.326 -32.526  22.690  1.00  0.00    -0.550 OA
ATOM      4  O   UNL     1      14.101 -33.127  20.491  1.00  0.00    -0.550 OA
ENDBRANCH   1   2
BRANCH   1   5
ATOM      5  C   UNL     1      12.137 -30.646  22.121  1.00  0.00     0.059 C 
BRANCH   5   6
ATOM      6  C   UNL     1      12.369 -29.553  23.115  1.00  0.00     0.042 C 
ATOM      7  O   UNL     1      11.863 -28.414  22.934  1.00  0.00    -0.550 OA
ATOM      8  O   UNL     1      13.185 -29.776  24.217  1.00  0.00    -0.550 OA
ENDBRANCH   5   6
ENDBRANCH   1   5
TORSDOF 3
ENDMDL
MODEL 7
REMARK VINA RESULT:    -3.319      9.529     10.729
REMARK INTER + INTRA:          -3.972
REMARK INTER:                  -3.874
REMARK INTRA:                  -0.098
REMARK UNBOUND:                -0.071
REMARK SMILES O=C([O-])CCC(=O)[O-]
REMARK SMILES IDX 4 1 2 2 1 3 3 4 5 5 6 6 7 7 8 8
REMARK H PARENT
REMARK Flexibility Score: inf
ROOT
ATOM      1  C   UNL     1      22.052 -24.986  20.670  1.00  0.00     0.059 C 
ENDROOT
BRANCH   1   2
ATOM      2  C   UNL     1      23.178 -24.942  19.686  1.00  0.00     0.042 C 
ATOM      3  O   UNL     1      23.360 -25.898  18.888  1.00  0.00    -0.550 OA
ATOM      4  O   UNL     1      23.998 -23.822  19.618  1.00  0.00    -0.550 OA
ENDBRANCH   1   2
BRANCH   1   5
ATOM      5  C   UNL     1      20.827 -25.660  20.050  1.00  0.00     0.059 C 
BRANCH   5   6
ATOM      6  C   UNL     1      20.557 -26.970  20.719  1.00  0.00     0.042 C 
ATOM      7  O   UNL     1      19.581 -27.678  20.355  1.00  0.00    -0.550 OA
ATOM      8  O   UNL     1      21.354 -27.388  21.777  1.00  0.00    -0.550 OA
ENDBRANCH   5   6
ENDBRANCH   1   5
TORSDOF 3
ENDMDL
MODEL 8
REMARK VINA RESULT:    -3.265     10.881     11.788
REMARK INTER + INTRA:          -3.908
REMARK INTER:                  -3.798
REMARK INTRA:                  -0.110
REMARK UNBOUND:                -0.071
REMARK SMILES O=C([O-])CCC(=O)[O-]
REMARK SMILES IDX 4 1 2 2 1 3 3 4 5 5 6 6 7 7 8 8
REMARK H PARENT
REMARK Flexibility Score: inf
ROOT
ATOM      1  C   UNL     1      22.763 -24.650  21.168  1.00  0.00     0.059 C 
ENDROOT
BRANCH   1   2
ATOM      2  C   UNL     1      23.759 -23.728  20.539  1.00  0.00     0.042 C 
ATOM      3  O   UNL     1      24.057 -23.852  19.322  1.00  0.00    -0.550 OA
ATOM      4  O   UNL     1      24.323 -22.700  21.285  1.00  0.00    -0.550 OA
ENDBRANCH   1   2
BRANCH   1   5
ATOM      5  C   UNL     1      22.088 -25.515  20.102  1.00  0.00     0.059 C 
BRANCH   5   6
ATOM      6  C   UNL     1      22.614 -26.914  20.155  1.00  0.00     0.042 C 
ATOM      7  O   UNL     1      23.718 -27.197  19.619  1.00  0.00    -0.550 OA
ATOM      8  O   UNL     1      21.862 -27.918  20.754  1.00  0.00    -0.550 OA
ENDBRANCH   5   6
ENDBRANCH   1   5
TORSDOF 3
ENDMDL
MODEL 9
REMARK VINA RESULT:    -3.261     10.090     11.154
REMARK INTER + INTRA:          -3.903
REMARK INTER:                  -3.800
REMARK INTRA:                  -0.104
REMARK UNBOUND:                -0.071
REMARK SMILES O=C([O-])CCC(=O)[O-]
REMARK SMILES IDX 4 1 2 2 1 3 3 4 5 5 6 6 7 7 8 8
REMARK H PARENT
REMARK Flexibility Score: inf
ROOT
ATOM      1  C   UNL     1      22.911 -25.347  19.485  1.00  0.00     0.059 C 
ENDROOT
BRANCH   1   2
ATOM      2  C   UNL     1      23.555 -24.288  20.322  1.00  0.00     0.042 C 
ATOM      3  O   UNL     1      24.434 -23.536  19.826  1.00  0.00    -0.550 OA
ATOM      4  O   UNL     1      23.149 -24.098  21.637  1.00  0.00    -0.550 OA
ENDBRANCH   1   2
BRANCH   1   5
ATOM      5  C   UNL     1      22.453 -26.515  20.361  1.00  0.00     0.059 C 
BRANCH   5   6
ATOM      6  C   UNL     1      20.960 -26.548  20.448  1.00  0.00     0.042 C 
ATOM      7  O   UNL     1      20.370 -27.595  20.824  1.00  0.00    -0.550 OA
ATOM      8  O   UNL     1      20.216 -25.438  20.068  1.00  0.00    -0.550 OA
ENDBRANCH   5   6
ENDBRANCH   1   5
TORSDOF 3
ENDMDL
