MODEL 1
REMARK VINA RESULT:    -3.454      0.000      0.000
REMARK INTER + INTRA:          -4.357
REMARK INTER:                  -4.262
REMARK INTRA:                  -0.095
REMARK UNBOUND:                -0.095
REMARK SMILES CCCCCC(=O)[O-]
REMARK SMILES IDX 4 1 5 2 6 3 7 4 8 5 3 6 2 7 1 8
REMARK H PARENT
REMARK Flexibility Score: inf
ROOT
ATOM      1  C   UNL     1      67.189 -15.068  14.690  1.00  0.00     0.006 C 
ENDROOT
BRANCH   1   2
ATOM      2  C   UNL     1      67.273 -14.513  13.266  1.00  0.00     0.053 C 
BRANCH   2   3
ATOM      3  C   UNL     1      65.920 -14.501  12.627  1.00  0.00     0.041 C 
ATOM      4  O   UNL     1      65.087 -15.407  12.890  1.00  0.00    -0.550 OA
ATOM      5  O   UNL     1      65.561 -13.461  11.777  1.00  0.00    -0.550 OA
ENDBRANCH   2   3
ENDBRANCH   1   2
BRANCH   1   6
ATOM      6  C   UNL     1      68.471 -15.822  15.063  1.00  0.00     0.000 C 
BRANCH   6   7
ATOM      7  C   UNL     1      68.311 -16.549  16.403  1.00  0.00    -0.003 C 
ATOM      8  C   UNL     1      66.903 -17.117  16.558  1.00  0.00     0.004 C 
ENDBRANCH   6   7
ENDBRANCH   1   6
TORSDOF 4
ENDMDL
MODEL 2
REMARK VINA RESULT:    -3.069      1.886      3.986
REMARK INTER + INTRA:          -3.881
REMARK INTER:                  -3.667
REMARK INTRA:                  -0.215
REMARK UNBOUND:                -0.095
REMARK SMILES CCCCCC(=O)[O-]
REMARK SMILES IDX 4 1 5 2 6 3 7 4 8 5 3 6 2 7 1 8
REMARK H PARENT
REMARK Flexibility Score: inf
ROOT
ATOM      1  C   UNL     1      67.319 -14.378  13.461  1.00  0.00     0.006 C 
ENDROOT
BRANCH   1   2
ATOM      2  C   UNL     1      67.642 -15.347  14.601  1.00  0.00     0.053 C 
BRANCH   2   3
ATOM      3  C   UNL     1      66.426 -16.132  14.981  1.00  0.00     0.041 C 
ATOM      4  O   UNL     1      65.427 -16.165  14.216  1.00  0.00    -0.550 OA
ATOM      5  O   UNL     1      66.414 -16.869  16.160  1.00  0.00    -0.550 OA
ENDBRANCH   2   3
ENDBRANCH   1   2
BRANCH   1   6
ATOM      6  C   UNL     1      68.121 -14.725  12.201  1.00  0.00     0.000 C 
BRANCH   6   7
ATOM      7  C   UNL     1      67.191 -15.154  11.060  1.00  0.00    -0.003 C 
ATOM      8  C   UNL     1      65.895 -14.348  11.071  1.00  0.00     0.004 C 
ENDBRANCH   6   7
ENDBRANCH   1   6
TORSDOF 4
ENDMDL
MODEL 3
REMARK VINA RESULT:    -3.032     19.021     19.662
REMARK INTER + INTRA:          -3.835
REMARK INTER:                  -3.641
REMARK INTRA:                  -0.194
REMARK UNBOUND:                -0.095
REMARK SMILES CCCCCC(=O)[O-]
REMARK SMILES IDX 4 1 5 2 6 3 7 4 8 5 3 6 2 7 1 8
REMARK H PARENT
REMARK Flexibility Score: inf
ROOT
ATOM      1  C   UNL     1      57.464  -1.575  22.039  1.00  0.00     0.006 C 
ENDROOT
BRANCH   1   2
ATOM      2  C   UNL     1      58.772  -1.818  22.798  1.00  0.00     0.053 C 
BRANCH   2   3
ATOM      3  C   UNL     1      58.540  -1.757  24.275  1.00  0.00     0.041 C 
ATOM      4  O   UNL     1      59.399  -2.217  25.071  1.00  0.00    -0.550 OA
ATOM      5  O   UNL     1      57.396  -1.146  24.775  1.00  0.00    -0.550 OA
ENDBRANCH   2   3
ENDBRANCH   1   2
BRANCH   1   6
ATOM      6  C   UNL     1      57.496  -0.230  21.304  1.00  0.00     0.000 C 
BRANCH   6   7
ATOM      7  C   UNL     1      56.588   0.795  21.993  1.00  0.00    -0.003 C 
ATOM      8  C   UNL     1      55.157   0.276  22.105  1.00  0.00     0.004 C 
ENDBRANCH   6   7
ENDBRANCH   1   6
TORSDOF 4
ENDMDL
MODEL 4
REMARK VINA RESULT:    -2.990      2.671      3.875
REMARK INTER + INTRA:          -3.784
REMARK INTER:                  -3.590
REMARK INTRA:                  -0.195
REMARK UNBOUND:                -0.095
REMARK SMILES CCCCCC(=O)[O-]
REMARK SMILES IDX 4 1 5 2 6 3 7 4 8 5 3 6 2 7 1 8
REMARK H PARENT
REMARK Flexibility Score: inf
ROOT
ATOM      1  C   UNL     1      65.917 -14.360  10.996  1.00  0.00     0.006 C 
ENDROOT
BRANCH   1   2
ATOM      2  C   UNL     1      66.609 -15.706  10.763  1.00  0.00     0.053 C 
BRANCH   2   3
ATOM      3  C   UNL     1      67.948 -15.504  10.127  1.00  0.00     0.041 C 
ATOM      4  O   UNL     1      68.841 -14.847  10.724  1.00  0.00    -0.550 OA
ATOM      5  O   UNL     1      68.227 -16.083   8.895  1.00  0.00    -0.550 OA
ENDBRANCH   2   3
ENDBRANCH   1   2
BRANCH   1   6
ATOM      6  C   UNL     1      65.614 -14.147  12.483  1.00  0.00     0.000 C 
BRANCH   6   7
ATOM      7  C   UNL     1      66.131 -15.322  13.322  1.00  0.00    -0.003 C 
ATOM      8  C   UNL     1      67.177 -14.859  14.333  1.00  0.00     0.004 C 
ENDBRANCH   6   7
ENDBRANCH   1   6
TORSDOF 4
ENDMDL
MODEL 5
REMARK VINA RESULT:    -2.923      2.304      4.223
REMARK INTER + INTRA:          -3.701
REMARK INTER:                  -3.487
REMARK INTRA:                  -0.214
REMARK UNBOUND:                -0.095
REMARK SMILES CCCCCC(=O)[O-]
REMARK SMILES IDX 4 1 5 2 6 3 7 4 8 5 3 6 2 7 1 8
REMARK H PARENT
REMARK Flexibility Score: inf
ROOT
ATOM      1  C   UNL     1      65.926 -14.128  12.377  1.00  0.00     0.006 C 
ENDROOT
BRANCH   1   2
ATOM      2  C   UNL     1      67.138 -14.516  13.229  1.00  0.00     0.053 C 
BRANCH   2   3
ATOM      3  C   UNL     1      66.846 -15.749  14.025  1.00  0.00     0.041 C 
ATOM      4  O   UNL     1      66.019 -15.710  14.973  1.00  0.00    -0.550 OA
ATOM      5  O   UNL     1      67.451 -16.954  13.689  1.00  0.00    -0.550 OA
ENDBRANCH   2   3
ENDBRANCH   1   2
BRANCH   1   6
ATOM      6  C   UNL     1      65.982 -14.802  11.002  1.00  0.00     0.000 C 
BRANCH   6   7
ATOM      7  C   UNL     1      67.431 -14.996  10.543  1.00  0.00    -0.003 C 
ATOM      8  C   UNL     1      67.646 -16.394   9.969  1.00  0.00     0.004 C 
ENDBRANCH   6   7
ENDBRANCH   1   6
TORSDOF 4
ENDMDL
MODEL 6
REMARK VINA RESULT:    -2.918     19.116     19.532
REMARK INTER + INTRA:          -3.696
REMARK INTER:                  -3.574
REMARK INTRA:                  -0.121
REMARK UNBOUND:                -0.095
REMARK SMILES CCCCCC(=O)[O-]
REMARK SMILES IDX 4 1 5 2 6 3 7 4 8 5 3 6 2 7 1 8
REMARK H PARENT
REMARK Flexibility Score: inf
ROOT
ATOM      1  C   UNL     1      57.761  -1.393  22.103  1.00  0.00     0.006 C 
ENDROOT
BRANCH   1   2
ATOM      2  C   UNL     1      56.637  -0.962  23.049  1.00  0.00     0.053 C 
BRANCH   2   3
ATOM      3  C   UNL     1      55.921   0.232  22.502  1.00  0.00     0.041 C 
ATOM      4  O   UNL     1      54.723   0.136  22.125  1.00  0.00    -0.550 OA
ATOM      5  O   UNL     1      56.561   1.465  22.453  1.00  0.00    -0.550 OA
ENDBRANCH   2   3
ENDBRANCH   1   2
BRANCH   1   6
ATOM      6  C   UNL     1      58.870  -2.128  22.866  1.00  0.00     0.000 C 
BRANCH   6   7
ATOM      7  C   UNL     1      58.645  -2.042  24.380  1.00  0.00    -0.003 C 
ATOM      8  C   UNL     1      59.966  -1.873  25.125  1.00  0.00     0.004 C 
ENDBRANCH   6   7
ENDBRANCH   1   6
TORSDOF 4
ENDMDL
MODEL 7
REMARK VINA RESULT:    -2.882     14.597     15.737
REMARK INTER + INTRA:          -3.651
REMARK INTER:                  -3.451
REMARK INTRA:                  -0.201
REMARK UNBOUND:                -0.095
REMARK SMILES CCCCCC(=O)[O-]
REMARK SMILES IDX 4 1 5 2 6 3 7 4 8 5 3 6 2 7 1 8
REMARK H PARENT
REMARK Flexibility Score: inf
ROOT
ATOM      1  C   UNL     1      68.069  -0.706   9.193  1.00  0.00     0.006 C 
ENDROOT
BRANCH   1   2
ATOM      2  C   UNL     1      66.967   0.172   9.792  1.00  0.00     0.053 C 
BRANCH   2   3
ATOM      3  C   UNL     1      67.557   1.211  10.693  1.00  0.00     0.041 C 
ATOM      4  O   UNL     1      67.769   2.376  10.265  1.00  0.00    -0.550 OA
ATOM      5  O   UNL     1      67.828   0.907  12.023  1.00  0.00    -0.550 OA
ENDBRANCH   2   3
ENDBRANCH   1   2
BRANCH   1   6
ATOM      6  C   UNL     1      68.256  -1.989  10.011  1.00  0.00     0.000 C 
BRANCH   6   7
ATOM      7  C   UNL     1      69.698  -2.114  10.516  1.00  0.00    -0.003 C 
ATOM      8  C   UNL     1      69.770  -1.938  12.030  1.00  0.00     0.004 C 
ENDBRANCH   6   7
ENDBRANCH   1   6
TORSDOF 4
ENDMDL
MODEL 8
REMARK VINA RESULT:    -2.823      9.093     10.235
REMARK INTER + INTRA:          -3.578
REMARK INTER:                  -3.485
REMARK INTRA:                  -0.093
REMARK UNBOUND:                -0.095
REMARK SMILES CCCCCC(=O)[O-]
REMARK SMILES IDX 4 1 5 2 6 3 7 4 8 5 3 6 2 7 1 8
REMARK H PARENT
REMARK Flexibility Score: inf
ROOT
ATOM      1  C   UNL     1      57.076 -16.700  11.872  1.00  0.00     0.006 C 
ENDROOT
BRANCH   1   2
ATOM      2  C   UNL     1      56.004 -16.081  10.970  1.00  0.00     0.053 C 
BRANCH   2   3
ATOM      3  C   UNL     1      56.629 -15.482   9.749  1.00  0.00     0.041 C 
ATOM      4  O   UNL     1      57.459 -16.143   9.072  1.00  0.00    -0.550 OA
ATOM      5  O   UNL     1      56.257 -14.210   9.330  1.00  0.00    -0.550 OA
ENDBRANCH   2   3
ENDBRANCH   1   2
BRANCH   1   6
ATOM      6  C   UNL     1      56.639 -16.677  13.341  1.00  0.00     0.000 C 
BRANCH   6   7
ATOM      7  C   UNL     1      57.836 -16.428  14.266  1.00  0.00    -0.003 C 
ATOM      8  C   UNL     1      59.139 -16.353  13.475  1.00  0.00     0.004 C 
ENDBRANCH   6   7
ENDBRANCH   1   6
TORSDOF 4
ENDMDL
MODEL 9
REMARK VINA RESULT:    -2.792      2.402      4.294
REMARK INTER + INTRA:          -3.539
REMARK INTER:                  -3.329
REMARK INTRA:                  -0.210
REMARK UNBOUND:                -0.095
REMARK SMILES CCCCCC(=O)[O-]
REMARK SMILES IDX 4 1 5 2 6 3 7 4 8 5 3 6 2 7 1 8
REMARK H PARENT
REMARK Flexibility Score: inf
ROOT
ATOM      1  C   UNL     1      65.616 -15.766  13.419  1.00  0.00     0.006 C 
ENDROOT
BRANCH   1   2
ATOM      2  C   UNL     1      66.286 -15.645  14.791  1.00  0.00     0.053 C 
BRANCH   2   3
ATOM      3  C   UNL     1      67.710 -16.099  14.720  1.00  0.00     0.041 C 
ATOM      4  O   UNL     1      68.131 -16.713  13.705  1.00  0.00    -0.550 OA
ATOM      5  O   UNL     1      68.587 -15.802  15.757  1.00  0.00    -0.550 OA
ENDBRANCH   2   3
ENDBRANCH   1   2
BRANCH   1   6
ATOM      6  C   UNL     1      65.607 -14.417  12.691  1.00  0.00     0.000 C 
BRANCH   6   7
ATOM      7  C   UNL     1      65.991 -14.586  11.217  1.00  0.00    -0.003 C 
ATOM      8  C   UNL     1      66.165 -16.059  10.857  1.00  0.00     0.004 C 
ENDBRANCH   6   7
ENDBRANCH   1   6
TORSDOF 4
ENDMDL
