MODEL 1
REMARK VINA RESULT:    -5.736      0.000      0.000
REMARK INTER + INTRA:          -5.729
REMARK INTER:                  -6.239
REMARK INTRA:                   0.510
REMARK UNBOUND:                 0.510
REMARK SMILES C[C@H]1[C@H]2C3=CC[C@@H]4[C@@]5(C)CC[C@@H](O)C(C)(C)[C@H]5CC[C@@]4(C)[C@@]3(C)CC[C@]2(C(=O)[O-])CC[C@@H]1C
REMARK SMILES IDX 26 1 30 2 25 3 3 4 31 5 24 6 4 7 2 8 32 9 22 10 5 11 1 12
REMARK SMILES IDX 33 13 23 14 20 15 6 16 7 17 19 18 21 19 8 20 18 21 17 22
REMARK SMILES IDX 10 23 9 24 14 25 11 26 12 27 15 28 16 29 27 30 28 31 29 32
REMARK SMILES IDX 13 33
REMARK H PARENT 13 34
REMARK Flexibility Score: inf
ROOT
ATOM      1  C   UNL     1       7.528  -8.789   7.515  1.00  0.00     0.017 C 
ATOM      2  C   UNL     1       7.640 -10.325   7.269  1.00  0.00     0.014 C 
ATOM      3  C   UNL     1       6.073  -8.366   7.178  1.00  0.00     0.014 C 
ATOM      4  C   UNL     1       7.844  -8.520   9.029  1.00  0.00     0.030 C 
ATOM      5  C   UNL     1       8.991 -10.925   7.694  1.00  0.00     0.004 C 
ATOM      6  C   UNL     1       5.712  -6.940   7.643  1.00  0.00     0.013 C 
ATOM      7  C   UNL     1       7.438  -7.096   9.453  1.00  0.00    -0.063 C 
ATOM      8  C   UNL     1       9.261  -9.059   9.449  1.00  0.00    -0.003 C 
ATOM      9  C   UNL     1       9.380 -10.585   9.153  1.00  0.00    -0.011 C 
ATOM     10  C   UNL     1       5.983  -6.653   9.161  1.00  0.00    -0.006 C 
ATOM     11  C   UNL     1       8.313  -6.261  10.059  1.00  0.00    -0.027 C 
ATOM     12  C   UNL     1      10.483  -8.331   8.826  1.00  0.00     0.008 C 
ATOM     13  C   UNL     1       8.596 -11.446  10.160  1.00  0.00     0.008 C 
ATOM     14  C   UNL     1       5.008  -7.557   9.989  1.00  0.00     0.017 C 
ATOM     15  C   UNL     1       5.744  -5.095   9.550  1.00  0.00    -0.020 C 
ATOM     16  C   UNL     1       8.190  -4.761  10.037  1.00  0.00     0.032 C 
ATOM     17  C   UNL     1       7.007  -4.265   9.159  1.00  0.00     0.006 C 
ATOM     18  C   UNL     1       4.554  -4.506   8.768  1.00  0.00     0.008 C 
ATOM     19  C   UNL     1       5.463  -4.965  11.089  1.00  0.00     0.012 C 
ATOM     20  C   UNL     1       6.824  -2.658   8.991  1.00  0.00    -0.025 C 
ATOM     21  C   UNL     1       4.217  -3.059   9.121  1.00  0.00     0.005 C 
ATOM     22  C   UNL     1       5.408  -2.106   9.478  1.00  0.00     0.003 C 
ATOM     23  C   UNL     1       6.976  -2.311   7.476  1.00  0.00     0.010 C 
ATOM     24  C   UNL     1       7.973  -1.942   9.767  1.00  0.00     0.012 C 
ATOM     25  C   UNL     1       5.072  -0.589   9.077  1.00  0.00    -0.006 C 
ATOM     26  C   UNL     1       6.747  -0.833   7.127  1.00  0.00     0.033 C 
ATOM     27  C   UNL     1       5.357  -0.333   7.560  1.00  0.00     0.120 C 
ATOM     28  C   UNL     1       3.578  -0.242   9.379  1.00  0.00     0.014 C 
ATOM     29  C   UNL     1       5.884   0.437   9.939  1.00  0.00     0.014 C 
ENDROOT
BRANCH   1  30
ATOM     30  C   UNL     1       8.449  -8.024   6.570  1.00  0.00     0.048 C 
ATOM     31  O   UNL     1       9.089  -8.628   5.667  1.00  0.00    -0.550 OA
ATOM     32  O   UNL     1       8.681  -6.665   6.753  1.00  0.00    -0.550 OA
ENDBRANCH   1  30
BRANCH  27  33
ATOM     33  O   UNL     1       4.378  -0.942   6.754  1.00  0.00    -0.393 OA
ATOM     34  H   UNL     1       3.566  -1.058   7.314  1.00  0.00     0.210 HD
ENDBRANCH  27  33
TORSDOF 2
ENDMDL
MODEL 2
REMARK VINA RESULT:    -5.621      1.936      8.202
REMARK INTER + INTRA:          -5.604
REMARK INTER:                  -6.058
REMARK INTRA:                   0.454
REMARK UNBOUND:                 0.510
REMARK SMILES C[C@H]1[C@H]2C3=CC[C@@H]4[C@@]5(C)CC[C@@H](O)C(C)(C)[C@H]5CC[C@@]4(C)[C@@]3(C)CC[C@]2(C(=O)[O-])CC[C@@H]1C
REMARK SMILES IDX 26 1 30 2 25 3 3 4 31 5 24 6 4 7 2 8 32 9 22 10 5 11 1 12
REMARK SMILES IDX 33 13 23 14 20 15 6 16 7 17 19 18 21 19 8 20 18 21 17 22
REMARK SMILES IDX 10 23 9 24 14 25 11 26 12 27 15 28 16 29 27 30 28 31 29 32
REMARK SMILES IDX 13 33
REMARK H PARENT 13 34
REMARK Flexibility Score: inf
ROOT
ATOM      1  C   UNL     1       3.955  -0.021   8.953  1.00  0.00     0.017 C 
ATOM      2  C   UNL     1       3.239   1.361   9.051  1.00  0.00     0.014 C 
ATOM      3  C   UNL     1       4.451  -0.188   7.491  1.00  0.00     0.014 C 
ATOM      4  C   UNL     1       5.168  -0.007   9.948  1.00  0.00     0.030 C 
ATOM      5  C   UNL     1       2.812   1.737  10.480  1.00  0.00     0.004 C 
ATOM      6  C   UNL     1       5.431  -1.363   7.292  1.00  0.00     0.013 C 
ATOM      7  C   UNL     1       6.132  -1.180   9.691  1.00  0.00    -0.063 C 
ATOM      8  C   UNL     1       4.724   0.296  11.427  1.00  0.00    -0.003 C 
ATOM      9  C   UNL     1       3.967   1.656  11.506  1.00  0.00    -0.011 C 
ATOM     10  C   UNL     1       6.672  -1.356   8.250  1.00  0.00    -0.006 C 
ATOM     11  C   UNL     1       6.499  -2.027  10.681  1.00  0.00    -0.027 C 
ATOM     12  C   UNL     1       3.868  -0.797  12.123  1.00  0.00     0.008 C 
ATOM     13  C   UNL     1       4.910   2.867  11.390  1.00  0.00     0.008 C 
ATOM     14  C   UNL     1       7.538  -0.104   7.883  1.00  0.00     0.017 C 
ATOM     15  C   UNL     1       7.572  -2.700   8.110  1.00  0.00    -0.020 C 
ATOM     16  C   UNL     1       6.983  -3.432  10.444  1.00  0.00     0.032 C 
ATOM     17  C   UNL     1       6.923  -3.847   8.947  1.00  0.00     0.006 C 
ATOM     18  C   UNL     1       7.625  -3.181   6.646  1.00  0.00     0.008 C 
ATOM     19  C   UNL     1       9.034  -2.420   8.612  1.00  0.00     0.012 C 
ATOM     20  C   UNL     1       7.344  -5.373   8.578  1.00  0.00    -0.025 C 
ATOM     21  C   UNL     1       8.505  -4.406   6.413  1.00  0.00     0.005 C 
ATOM     22  C   UNL     1       8.554  -5.487   7.544  1.00  0.00     0.003 C 
ATOM     23  C   UNL     1       6.103  -6.073   7.938  1.00  0.00     0.010 C 
ATOM     24  C   UNL     1       7.695  -6.127   9.898  1.00  0.00     0.012 C 
ATOM     25  C   UNL     1       8.820  -6.948   6.935  1.00  0.00    -0.006 C 
ATOM     26  C   UNL     1       6.353  -7.508   7.450  1.00  0.00     0.033 C 
ATOM     27  C   UNL     1       7.491  -7.590   6.417  1.00  0.00     0.120 C 
ATOM     28  C   UNL     1       9.850  -6.891   5.760  1.00  0.00     0.014 C 
ATOM     29  C   UNL     1       9.488  -7.905   7.981  1.00  0.00     0.014 C 
ENDROOT
BRANCH   1  30
ATOM     30  C   UNL     1       2.974  -1.157   9.226  1.00  0.00     0.048 C 
ATOM     31  O   UNL     1       3.348  -2.359   9.159  1.00  0.00    -0.550 OA
ATOM     32  O   UNL     1       1.628  -0.891   9.453  1.00  0.00    -0.550 OA
ENDBRANCH   1  30
BRANCH  27  33
ATOM     33  O   UNL     1       7.071  -6.982   5.221  1.00  0.00    -0.393 OA
ATOM     34  H   UNL     1       7.456  -7.508   4.472  1.00  0.00     0.210 HD
ENDBRANCH  27  33
TORSDOF 2
ENDMDL
MODEL 3
REMARK VINA RESULT:    -5.397     12.603     15.374
REMARK INTER + INTRA:          -5.361
REMARK INTER:                  -5.923
REMARK INTRA:                   0.562
REMARK UNBOUND:                 0.510
REMARK SMILES C[C@H]1[C@H]2C3=CC[C@@H]4[C@@]5(C)CC[C@@H](O)C(C)(C)[C@H]5CC[C@@]4(C)[C@@]3(C)CC[C@]2(C(=O)[O-])CC[C@@H]1C
REMARK SMILES IDX 26 1 30 2 25 3 3 4 31 5 24 6 4 7 2 8 32 9 22 10 5 11 1 12
REMARK SMILES IDX 33 13 23 14 20 15 6 16 7 17 19 18 21 19 8 20 18 21 17 22
REMARK SMILES IDX 10 23 9 24 14 25 11 26 12 27 15 28 16 29 27 30 28 31 29 32
REMARK SMILES IDX 13 33
REMARK H PARENT 13 34
REMARK Flexibility Score: inf
ROOT
ATOM      1  C   UNL     1       9.865   0.076  -4.853  1.00  0.00     0.017 C 
ATOM      2  C   UNL     1      11.292   0.702  -4.918  1.00  0.00     0.014 C 
ATOM      3  C   UNL     1       9.339   0.261  -3.405  1.00  0.00     0.014 C 
ATOM      4  C   UNL     1       8.955   0.847  -5.873  1.00  0.00     0.030 C 
ATOM      5  C   UNL     1      11.896   0.724  -6.332  1.00  0.00     0.004 C 
ATOM      6  C   UNL     1       7.834  -0.039  -3.242  1.00  0.00     0.013 C 
ATOM      7  C   UNL     1       7.462   0.539  -5.652  1.00  0.00    -0.063 C 
ATOM      8  C   UNL     1       9.527   0.801  -7.338  1.00  0.00    -0.003 C 
ATOM      9  C   UNL     1      10.972   1.384  -7.383  1.00  0.00    -0.011 C 
ATOM     10  C   UNL     1       6.896   0.744  -4.225  1.00  0.00    -0.006 C 
ATOM     11  C   UNL     1       6.670   0.109  -6.661  1.00  0.00    -0.027 C 
ATOM     12  C   UNL     1       9.524  -0.588  -8.032  1.00  0.00     0.008 C 
ATOM     13  C   UNL     1      10.995   2.919  -7.269  1.00  0.00     0.008 C 
ATOM     14  C   UNL     1       6.999   2.263  -3.858  1.00  0.00     0.017 C 
ATOM     15  C   UNL     1       5.349   0.264  -4.122  1.00  0.00    -0.020 C 
ATOM     16  C   UNL     1       5.405  -0.681  -6.453  1.00  0.00     0.032 C 
ATOM     17  C   UNL     1       5.155  -1.038  -4.962  1.00  0.00     0.006 C 
ATOM     18  C   UNL     1       4.970  -0.075  -2.666  1.00  0.00     0.008 C 
ATOM     19  C   UNL     1       4.400   1.398  -4.649  1.00  0.00     0.012 C 
ATOM     20  C   UNL     1       3.860  -1.961  -4.622  1.00  0.00    -0.025 C 
ATOM     21  C   UNL     1       3.511  -0.475  -2.468  1.00  0.00     0.005 C 
ATOM     22  C   UNL     1       2.821  -1.288  -3.615  1.00  0.00     0.003 C 
ATOM     23  C   UNL     1       4.370  -3.284  -3.967  1.00  0.00     0.010 C 
ATOM     24  C   UNL     1       3.147  -2.331  -5.960  1.00  0.00     0.012 C 
ATOM     25  C   UNL     1       1.683  -2.257  -3.032  1.00  0.00    -0.006 C 
ATOM     26  C   UNL     1       3.263  -4.243  -3.504  1.00  0.00     0.033 C 
ATOM     27  C   UNL     1       2.301  -3.590  -2.496  1.00  0.00     0.120 C 
ATOM     28  C   UNL     1       0.888  -1.564  -1.877  1.00  0.00     0.014 C 
ATOM     29  C   UNL     1       0.588  -2.585  -4.104  1.00  0.00     0.014 C 
ENDROOT
BRANCH   1  30
ATOM     30  C   UNL     1       9.923  -1.424  -5.123  1.00  0.00     0.048 C 
ATOM     31  O   UNL     1       8.917  -2.154  -4.910  1.00  0.00    -0.550 OA
ATOM     32  O   UNL     1      11.114  -2.030  -5.508  1.00  0.00    -0.550 OA
ENDBRANCH   1  30
BRANCH  27  33
ATOM     33  O   UNL     1       2.980  -3.378  -1.282  1.00  0.00    -0.393 OA
ATOM     34  H   UNL     1       3.352  -4.253  -0.996  1.00  0.00     0.210 HD
ENDBRANCH  27  33
TORSDOF 2
ENDMDL
MODEL 4
REMARK VINA RESULT:    -5.395     10.480     13.946
REMARK INTER + INTRA:          -5.358
REMARK INTER:                  -5.799
REMARK INTRA:                   0.441
REMARK UNBOUND:                 0.510
REMARK SMILES C[C@H]1[C@H]2C3=CC[C@@H]4[C@@]5(C)CC[C@@H](O)C(C)(C)[C@H]5CC[C@@]4(C)[C@@]3(C)CC[C@]2(C(=O)[O-])CC[C@@H]1C
REMARK SMILES IDX 26 1 30 2 25 3 3 4 31 5 24 6 4 7 2 8 32 9 22 10 5 11 1 12
REMARK SMILES IDX 33 13 23 14 20 15 6 16 7 17 19 18 21 19 8 20 18 21 17 22
REMARK SMILES IDX 10 23 9 24 14 25 11 26 12 27 15 28 16 29 27 30 28 31 29 32
REMARK SMILES IDX 13 33
REMARK H PARENT 13 34
REMARK Flexibility Score: inf
ROOT
ATOM      1  C   UNL     1       2.142  -3.197  -4.446  1.00  0.00     0.017 C 
ATOM      2  C   UNL     1       2.107  -1.934  -5.360  1.00  0.00     0.014 C 
ATOM      3  C   UNL     1       2.865  -4.324  -5.232  1.00  0.00     0.014 C 
ATOM      4  C   UNL     1       2.944  -2.829  -3.148  1.00  0.00     0.030 C 
ATOM      5  C   UNL     1       1.544  -0.682  -4.666  1.00  0.00     0.004 C 
ATOM      6  C   UNL     1       3.244  -5.546  -4.370  1.00  0.00     0.013 C 
ATOM      7  C   UNL     1       3.326  -4.082  -2.337  1.00  0.00    -0.063 C 
ATOM      8  C   UNL     1       2.323  -1.599  -2.389  1.00  0.00    -0.003 C 
ATOM      9  C   UNL     1       2.246  -0.356  -3.327  1.00  0.00    -0.011 C 
ATOM     10  C   UNL     1       4.077  -5.212  -3.084  1.00  0.00    -0.006 C 
ATOM     11  C   UNL     1       3.022  -4.197  -1.024  1.00  0.00    -0.027 C 
ATOM     12  C   UNL     1       0.930  -1.826  -1.742  1.00  0.00     0.008 C 
ATOM     13  C   UNL     1       3.621   0.299  -3.556  1.00  0.00     0.008 C 
ATOM     14  C   UNL     1       5.466  -4.664  -3.556  1.00  0.00     0.017 C 
ATOM     15  C   UNL     1       4.299  -6.510  -2.134  1.00  0.00    -0.020 C 
ATOM     16  C   UNL     1       2.882  -5.513  -0.309  1.00  0.00     0.032 C 
ATOM     17  C   UNL     1       3.025  -6.735  -1.260  1.00  0.00     0.006 C 
ATOM     18  C   UNL     1       4.501  -7.785  -2.977  1.00  0.00     0.008 C 
ATOM     19  C   UNL     1       5.556  -6.294  -1.218  1.00  0.00     0.012 C 
ATOM     20  C   UNL     1       2.811  -8.212  -0.615  1.00  0.00    -0.025 C 
ATOM     21  C   UNL     1       4.782  -9.045  -2.163  1.00  0.00     0.005 C 
ATOM     22  C   UNL     1       4.065  -9.185  -0.777  1.00  0.00     0.003 C 
ATOM     23  C   UNL     1       1.594  -8.879  -1.333  1.00  0.00     0.010 C 
ATOM     24  C   UNL     1       2.450  -8.050   0.894  1.00  0.00     0.012 C 
ATOM     25  C   UNL     1       3.807 -10.727  -0.415  1.00  0.00    -0.006 C 
ATOM     26  C   UNL     1       1.303 -10.323  -0.899  1.00  0.00     0.033 C 
ATOM     27  C   UNL     1       2.509 -11.257  -1.109  1.00  0.00     0.120 C 
ATOM     28  C   UNL     1       5.015 -11.620  -0.848  1.00  0.00     0.014 C 
ATOM     29  C   UNL     1       3.699 -10.955   1.131  1.00  0.00     0.014 C 
ENDROOT
BRANCH   1  30
ATOM     30  C   UNL     1       0.729  -3.690  -4.152  1.00  0.00     0.048 C 
ATOM     31  O   UNL     1       0.536  -4.666  -3.378  1.00  0.00    -0.550 OA
ATOM     32  O   UNL     1      -0.365  -3.139  -4.811  1.00  0.00    -0.550 OA
ENDBRANCH   1  30
BRANCH  27  33
ATOM     33  O   UNL     1       2.714 -11.439  -2.489  1.00  0.00    -0.393 OA
ATOM     34  H   UNL     1       3.572 -11.927  -2.597  1.00  0.00     0.210 HD
ENDBRANCH  27  33
TORSDOF 2
ENDMDL
MODEL 5
REMARK VINA RESULT:    -5.313     12.790     15.044
REMARK INTER + INTRA:          -5.269
REMARK INTER:                  -5.714
REMARK INTRA:                   0.444
REMARK UNBOUND:                 0.510
REMARK SMILES C[C@H]1[C@H]2C3=CC[C@@H]4[C@@]5(C)CC[C@@H](O)C(C)(C)[C@H]5CC[C@@]4(C)[C@@]3(C)CC[C@]2(C(=O)[O-])CC[C@@H]1C
REMARK SMILES IDX 26 1 30 2 25 3 3 4 31 5 24 6 4 7 2 8 32 9 22 10 5 11 1 12
REMARK SMILES IDX 33 13 23 14 20 15 6 16 7 17 19 18 21 19 8 20 18 21 17 22
REMARK SMILES IDX 10 23 9 24 14 25 11 26 12 27 15 28 16 29 27 30 28 31 29 32
REMARK SMILES IDX 13 33
REMARK H PARENT 13 34
REMARK Flexibility Score: inf
ROOT
ATOM      1  C   UNL     1       2.336  -3.323  -4.803  1.00  0.00     0.017 C 
ATOM      2  C   UNL     1       1.088  -4.187  -5.163  1.00  0.00     0.014 C 
ATOM      3  C   UNL     1       3.258  -3.290  -6.052  1.00  0.00     0.014 C 
ATOM      4  C   UNL     1       1.835  -1.878  -4.450  1.00  0.00     0.030 C 
ATOM      5  C   UNL     1       0.007  -4.200  -4.069  1.00  0.00     0.004 C 
ATOM      6  C   UNL     1       4.389  -2.244  -5.968  1.00  0.00     0.013 C 
ATOM      7  C   UNL     1       2.995  -0.866  -4.407  1.00  0.00    -0.063 C 
ATOM      8  C   UNL     1       0.789  -1.879  -3.274  1.00  0.00    -0.003 C 
ATOM      9  C   UNL     1      -0.430  -2.784  -3.623  1.00  0.00    -0.011 C 
ATOM     10  C   UNL     1       3.915  -0.784  -5.651  1.00  0.00    -0.006 C 
ATOM     11  C   UNL     1       3.207  -0.074  -3.331  1.00  0.00    -0.027 C 
ATOM     12  C   UNL     1       1.331  -2.283  -1.876  1.00  0.00     0.008 C 
ATOM     13  C   UNL     1      -1.374  -2.135  -4.652  1.00  0.00     0.008 C 
ATOM     14  C   UNL     1       3.066  -0.293  -6.871  1.00  0.00     0.017 C 
ATOM     15  C   UNL     1       5.157   0.233  -5.408  1.00  0.00    -0.020 C 
ATOM     16  C   UNL     1       4.540   0.533  -2.987  1.00  0.00     0.032 C 
ATOM     17  C   UNL     1       5.676   0.075  -3.944  1.00  0.00     0.006 C 
ATOM     18  C   UNL     1       6.335  -0.099  -6.345  1.00  0.00     0.008 C 
ATOM     19  C   UNL     1       4.696   1.712  -5.665  1.00  0.00     0.012 C 
ATOM     20  C   UNL     1       7.181   0.602  -3.623  1.00  0.00    -0.025 C 
ATOM     21  C   UNL     1       7.525   0.851  -6.229  1.00  0.00     0.005 C 
ATOM     22  C   UNL     1       7.853   1.428  -4.811  1.00  0.00     0.003 C 
ATOM     23  C   UNL     1       8.078  -0.646  -3.343  1.00  0.00     0.010 C 
ATOM     24  C   UNL     1       7.139   1.467  -2.325  1.00  0.00     0.012 C 
ATOM     25  C   UNL     1       9.423   1.724  -4.657  1.00  0.00    -0.006 C 
ATOM     26  C   UNL     1       9.562  -0.331  -3.100  1.00  0.00     0.033 C 
ATOM     27  C   UNL     1      10.204   0.423  -4.279  1.00  0.00     0.120 C 
ATOM     28  C   UNL     1      10.019   2.309  -5.979  1.00  0.00     0.014 C 
ATOM     29  C   UNL     1       9.708   2.832  -3.587  1.00  0.00     0.014 C 
ENDROOT
BRANCH   1  30
ATOM     30  C   UNL     1       3.132  -3.970  -3.674  1.00  0.00     0.048 C 
ATOM     31  O   UNL     1       4.170  -3.417  -3.221  1.00  0.00    -0.550 OA
ATOM     32  O   UNL     1       2.787  -5.229  -3.195  1.00  0.00    -0.550 OA
ENDBRANCH   1  30
BRANCH  27  33
ATOM     33  O   UNL     1      10.303  -0.444  -5.381  1.00  0.00    -0.393 OA
ATOM     34  H   UNL     1       9.422  -0.890  -5.486  1.00  0.00     0.210 HD
ENDBRANCH  27  33
TORSDOF 2
ENDMDL
MODEL 6
REMARK VINA RESULT:    -5.297     11.820     15.086
REMARK INTER + INTRA:          -5.252
REMARK INTER:                  -5.698
REMARK INTRA:                   0.447
REMARK UNBOUND:                 0.510
REMARK SMILES C[C@H]1[C@H]2C3=CC[C@@H]4[C@@]5(C)CC[C@@H](O)C(C)(C)[C@H]5CC[C@@]4(C)[C@@]3(C)CC[C@]2(C(=O)[O-])CC[C@@H]1C
REMARK SMILES IDX 26 1 30 2 25 3 3 4 31 5 24 6 4 7 2 8 32 9 22 10 5 11 1 12
REMARK SMILES IDX 33 13 23 14 20 15 6 16 7 17 19 18 21 19 8 20 18 21 17 22
REMARK SMILES IDX 10 23 9 24 14 25 11 26 12 27 15 28 16 29 27 30 28 31 29 32
REMARK SMILES IDX 13 33
REMARK H PARENT 13 34
REMARK Flexibility Score: inf
ROOT
ATOM      1  C   UNL     1       8.166   1.501  -3.674  1.00  0.00     0.017 C 
ATOM      2  C   UNL     1       9.111   2.741  -3.646  1.00  0.00     0.014 C 
ATOM      3  C   UNL     1       7.163   1.650  -2.499  1.00  0.00     0.014 C 
ATOM      4  C   UNL     1       7.408   1.504  -5.048  1.00  0.00     0.030 C 
ATOM      5  C   UNL     1      10.077   2.811  -4.840  1.00  0.00     0.004 C 
ATOM      6  C   UNL     1       5.979   0.663  -2.556  1.00  0.00     0.013 C 
ATOM      7  C   UNL     1       6.217   0.527  -5.047  1.00  0.00    -0.063 C 
ATOM      8  C   UNL     1       8.394   1.492  -6.275  1.00  0.00    -0.003 C 
ATOM      9  C   UNL     1       9.366   2.709  -6.211  1.00  0.00    -0.011 C 
ATOM     10  C   UNL     1       5.180   0.669  -3.906  1.00  0.00    -0.006 C 
ATOM     11  C   UNL     1       6.076  -0.420  -6.003  1.00  0.00    -0.027 C 
ATOM     12  C   UNL     1       9.225   0.195  -6.474  1.00  0.00     0.008 C 
ATOM     13  C   UNL     1       8.682   4.035  -6.592  1.00  0.00     0.008 C 
ATOM     14  C   UNL     1       4.486   2.068  -4.031  1.00  0.00     0.017 C 
ATOM     15  C   UNL     1       4.058  -0.502  -3.969  1.00  0.00    -0.020 C 
ATOM     16  C   UNL     1       5.291  -1.689  -5.814  1.00  0.00     0.032 C 
ATOM     17  C   UNL     1       4.740  -1.849  -4.369  1.00  0.00     0.006 C 
ATOM     18  C   UNL     1       3.405  -0.718  -2.590  1.00  0.00     0.008 C 
ATOM     19  C   UNL     1       2.947  -0.124  -5.012  1.00  0.00     0.012 C 
ATOM     20  C   UNL     1       3.943  -3.223  -4.022  1.00  0.00    -0.025 C 
ATOM     21  C   UNL     1       2.290  -1.761  -2.573  1.00  0.00     0.005 C 
ATOM     22  C   UNL     1       2.447  -3.002  -3.514  1.00  0.00     0.003 C 
ATOM     23  C   UNL     1       4.726  -3.961  -2.889  1.00  0.00     0.010 C 
ATOM     24  C   UNL     1       3.950  -4.137  -5.286  1.00  0.00     0.012 C 
ATOM     25  C   UNL     1       1.719  -4.291  -2.895  1.00  0.00    -0.006 C 
ATOM     26  C   UNL     1       4.061  -5.247  -2.378  1.00  0.00     0.033 C 
ATOM     27  C   UNL     1       2.637  -5.004  -1.848  1.00  0.00     0.120 C 
ATOM     28  C   UNL     1       0.369  -3.903  -2.207  1.00  0.00     0.014 C 
ATOM     29  C   UNL     1       1.301  -5.317  -4.003  1.00  0.00     0.014 C 
ENDROOT
BRANCH   1  30
ATOM     30  C   UNL     1       8.954   0.217  -3.433  1.00  0.00     0.048 C 
ATOM     31  O   UNL     1       8.371  -0.901  -3.411  1.00  0.00    -0.550 OA
ATOM     32  O   UNL     1      10.310   0.265  -3.128  1.00  0.00    -0.550 OA
ENDBRANCH   1  30
BRANCH  27  33
ATOM     33  O   UNL     1       2.710  -4.262  -0.655  1.00  0.00    -0.393 OA
ATOM     34  H   UNL     1       3.574  -3.773  -0.665  1.00  0.00     0.210 HD
ENDBRANCH  27  33
TORSDOF 2
ENDMDL
MODEL 7
REMARK VINA RESULT:    -5.286      1.825      3.330
REMARK INTER + INTRA:          -5.240
REMARK INTER:                  -5.767
REMARK INTRA:                   0.527
REMARK UNBOUND:                 0.510
REMARK SMILES C[C@H]1[C@H]2C3=CC[C@@H]4[C@@]5(C)CC[C@@H](O)C(C)(C)[C@H]5CC[C@@]4(C)[C@@]3(C)CC[C@]2(C(=O)[O-])CC[C@@H]1C
REMARK SMILES IDX 26 1 30 2 25 3 3 4 31 5 24 6 4 7 2 8 32 9 22 10 5 11 1 12
REMARK SMILES IDX 33 13 23 14 20 15 6 16 7 17 19 18 21 19 8 20 18 21 17 22
REMARK SMILES IDX 10 23 9 24 14 25 11 26 12 27 15 28 16 29 27 30 28 31 29 32
REMARK SMILES IDX 13 33
REMARK H PARENT 13 34
REMARK Flexibility Score: inf
ROOT
ATOM      1  C   UNL     1       6.920  -7.141   9.149  1.00  0.00     0.017 C 
ATOM      2  C   UNL     1       7.316  -8.625   9.421  1.00  0.00     0.014 C 
ATOM      3  C   UNL     1       6.481  -6.519  10.501  1.00  0.00     0.014 C 
ATOM      4  C   UNL     1       8.184  -6.401   8.586  1.00  0.00     0.030 C 
ATOM      5  C   UNL     1       7.910  -9.342   8.197  1.00  0.00     0.004 C 
ATOM      6  C   UNL     1       6.336  -4.983  10.467  1.00  0.00     0.013 C 
ATOM      7  C   UNL     1       8.004  -4.871   8.600  1.00  0.00    -0.063 C 
ATOM      8  C   UNL     1       8.747  -7.084   7.285  1.00  0.00    -0.003 C 
ATOM      9  C   UNL     1       9.094  -8.580   7.555  1.00  0.00    -0.011 C 
ATOM     10  C   UNL     1       7.598  -4.214   9.942  1.00  0.00    -0.006 C 
ATOM     11  C   UNL     1       8.194  -4.125   7.487  1.00  0.00    -0.027 C 
ATOM     12  C   UNL     1       7.849  -6.997   6.022  1.00  0.00     0.008 C 
ATOM     13  C   UNL     1      10.386  -8.750   8.375  1.00  0.00     0.008 C 
ATOM     14  C   UNL     1       8.749  -4.441  10.980  1.00  0.00     0.017 C 
ATOM     15  C   UNL     1       7.328  -2.622   9.769  1.00  0.00    -0.020 C 
ATOM     16  C   UNL     1       7.568  -2.774   7.269  1.00  0.00     0.032 C 
ATOM     17  C   UNL     1       6.598  -2.367   8.412  1.00  0.00     0.006 C 
ATOM     18  C   UNL     1       6.407  -2.093  10.886  1.00  0.00     0.008 C 
ATOM     19  C   UNL     1       8.689  -1.841   9.810  1.00  0.00     0.012 C 
ATOM     20  C   UNL     1       5.797  -0.961   8.247  1.00  0.00    -0.025 C 
ATOM     21  C   UNL     1       6.151  -0.589  10.837  1.00  0.00     0.005 C 
ATOM     22  C   UNL     1       6.056   0.083   9.426  1.00  0.00     0.003 C 
ATOM     23  C   UNL     1       4.268  -1.278   8.219  1.00  0.00     0.010 C 
ATOM     24  C   UNL     1       6.183  -0.326   6.875  1.00  0.00     0.012 C 
ATOM     25  C   UNL     1       5.083   1.359   9.458  1.00  0.00    -0.006 C 
ATOM     26  C   UNL     1       3.355  -0.045   8.151  1.00  0.00     0.033 C 
ATOM     27  C   UNL     1       3.586   0.926   9.323  1.00  0.00     0.120 C 
ATOM     28  C   UNL     1       5.260   2.171  10.783  1.00  0.00     0.014 C 
ATOM     29  C   UNL     1       5.431   2.389   8.330  1.00  0.00     0.014 C 
ENDROOT
BRANCH   1  30
ATOM     30  C   UNL     1       5.720  -7.067   8.209  1.00  0.00     0.048 C 
ATOM     31  O   UNL     1       5.134  -5.970   8.000  1.00  0.00    -0.550 OA
ATOM     32  O   UNL     1       5.186  -8.223   7.649  1.00  0.00    -0.550 OA
ENDBRANCH   1  30
BRANCH  27  33
ATOM     33  O   UNL     1       3.125   0.331  10.511  1.00  0.00    -0.393 OA
ATOM     34  H   UNL     1       3.752  -0.405  10.735  1.00  0.00     0.210 HD
ENDBRANCH  27  33
TORSDOF 2
ENDMDL
MODEL 8
REMARK VINA RESULT:    -5.273      7.981      9.947
REMARK INTER + INTRA:          -5.225
REMARK INTER:                  -5.837
REMARK INTRA:                   0.612
REMARK UNBOUND:                 0.510
REMARK SMILES C[C@H]1[C@H]2C3=CC[C@@H]4[C@@]5(C)CC[C@@H](O)C(C)(C)[C@H]5CC[C@@]4(C)[C@@]3(C)CC[C@]2(C(=O)[O-])CC[C@@H]1C
REMARK SMILES IDX 26 1 30 2 25 3 3 4 31 5 24 6 4 7 2 8 32 9 22 10 5 11 1 12
REMARK SMILES IDX 33 13 23 14 20 15 6 16 7 17 19 18 21 19 8 20 18 21 17 22
REMARK SMILES IDX 10 23 9 24 14 25 11 26 12 27 15 28 16 29 27 30 28 31 29 32
REMARK SMILES IDX 13 33
REMARK H PARENT 13 34
REMARK Flexibility Score: inf
ROOT
ATOM      1  C   UNL     1       2.442  -6.199  -1.292  1.00  0.00     0.017 C 
ATOM      2  C   UNL     1       2.893  -6.323  -2.780  1.00  0.00     0.014 C 
ATOM      3  C   UNL     1       0.891  -6.123  -1.279  1.00  0.00     0.014 C 
ATOM      4  C   UNL     1       2.937  -7.478  -0.530  1.00  0.00     0.030 C 
ATOM      5  C   UNL     1       4.405  -6.551  -2.952  1.00  0.00     0.004 C 
ATOM      6  C   UNL     1       0.267  -6.291   0.122  1.00  0.00     0.013 C 
ATOM      7  C   UNL     1       2.265  -7.619   0.848  1.00  0.00    -0.063 C 
ATOM      8  C   UNL     1       4.495  -7.670  -0.634  1.00  0.00    -0.003 C 
ATOM      9  C   UNL     1       4.942  -7.744  -2.126  1.00  0.00    -0.011 C 
ATOM     10  C   UNL     1       0.717  -7.580   0.894  1.00  0.00    -0.006 C 
ATOM     11  C   UNL     1       2.991  -7.773   1.979  1.00  0.00    -0.027 C 
ATOM     12  C   UNL     1       5.366  -6.614   0.099  1.00  0.00     0.008 C 
ATOM     13  C   UNL     1       4.589  -9.090  -2.784  1.00  0.00     0.008 C 
ATOM     14  C   UNL     1       0.161  -8.814   0.105  1.00  0.00     0.017 C 
ATOM     15  C   UNL     1       0.163  -7.615   2.419  1.00  0.00    -0.020 C 
ATOM     16  C   UNL     1       2.492  -7.408   3.351  1.00  0.00     0.032 C 
ATOM     17  C   UNL     1       1.088  -6.741   3.325  1.00  0.00     0.006 C 
ATOM     18  C   UNL     1      -1.254  -7.017   2.507  1.00  0.00     0.008 C 
ATOM     19  C   UNL     1       0.131  -9.095   2.943  1.00  0.00     0.012 C 
ATOM     20  C   UNL     1       0.478  -6.228   4.742  1.00  0.00    -0.025 C 
ATOM     21  C   UNL     1      -1.879  -7.069   3.900  1.00  0.00     0.005 C 
ATOM     22  C   UNL     1      -0.924  -6.883   5.127  1.00  0.00     0.003 C 
ATOM     23  C   UNL     1       0.272  -4.683   4.646  1.00  0.00     0.010 C 
ATOM     24  C   UNL     1       1.526  -6.505   5.865  1.00  0.00     0.012 C 
ATOM     25  C   UNL     1      -1.697  -6.209   6.362  1.00  0.00    -0.006 C 
ATOM     26  C   UNL     1      -0.380  -4.042   5.881  1.00  0.00     0.033 C 
ATOM     27  C   UNL     1      -1.754  -4.654   6.206  1.00  0.00     0.120 C 
ATOM     28  C   UNL     1      -3.155  -6.762   6.486  1.00  0.00     0.014 C 
ATOM     29  C   UNL     1      -1.034  -6.571   7.735  1.00  0.00     0.014 C 
ENDROOT
BRANCH   1  30
ATOM     30  C   UNL     1       2.961  -4.902  -0.678  1.00  0.00     0.048 C 
ATOM     31  O   UNL     1       3.127  -4.803   0.568  1.00  0.00    -0.550 OA
ATOM     32  O   UNL     1       3.160  -3.774  -1.467  1.00  0.00    -0.550 OA
ENDBRANCH   1  30
BRANCH  27  33
ATOM     33  O   UNL     1      -2.673  -4.281   5.208  1.00  0.00    -0.393 OA
ATOM     34  H   UNL     1      -3.388  -4.970   5.193  1.00  0.00     0.210 HD
ENDBRANCH  27  33
TORSDOF 2
ENDMDL
MODEL 9
REMARK VINA RESULT:    -5.154      3.032      9.380
REMARK INTER + INTRA:          -5.096
REMARK INTER:                  -5.539
REMARK INTRA:                   0.442
REMARK UNBOUND:                 0.510
REMARK SMILES C[C@H]1[C@H]2C3=CC[C@@H]4[C@@]5(C)CC[C@@H](O)C(C)(C)[C@H]5CC[C@@]4(C)[C@@]3(C)CC[C@]2(C(=O)[O-])CC[C@@H]1C
REMARK SMILES IDX 26 1 30 2 25 3 3 4 31 5 24 6 4 7 2 8 32 9 22 10 5 11 1 12
REMARK SMILES IDX 33 13 23 14 20 15 6 16 7 17 19 18 21 19 8 20 18 21 17 22
REMARK SMILES IDX 10 23 9 24 14 25 11 26 12 27 15 28 16 29 27 30 28 31 29 32
REMARK SMILES IDX 13 33
REMARK H PARENT 13 34
REMARK Flexibility Score: inf
ROOT
ATOM      1  C   UNL     1       4.977   2.925   9.953  1.00  0.00     0.017 C 
ATOM      2  C   UNL     1       4.339   4.333  10.161  1.00  0.00     0.014 C 
ATOM      3  C   UNL     1       4.140   1.907  10.774  1.00  0.00     0.014 C 
ATOM      4  C   UNL     1       4.908   2.586   8.422  1.00  0.00     0.030 C 
ATOM      5  C   UNL     1       4.974   5.434   9.295  1.00  0.00     0.004 C 
ATOM      6  C   UNL     1       4.454   0.431  10.450  1.00  0.00     0.013 C 
ATOM      7  C   UNL     1       5.198   1.098   8.152  1.00  0.00    -0.063 C 
ATOM      8  C   UNL     1       5.629   3.669   7.537  1.00  0.00    -0.003 C 
ATOM      9  C   UNL     1       5.017   5.081   7.789  1.00  0.00    -0.011 C 
ATOM     10  C   UNL     1       4.358   0.055   8.931  1.00  0.00    -0.006 C 
ATOM     11  C   UNL     1       6.147   0.709   7.269  1.00  0.00    -0.027 C 
ATOM     12  C   UNL     1       7.172   3.757   7.684  1.00  0.00     0.008 C 
ATOM     13  C   UNL     1       3.637   5.255   7.129  1.00  0.00     0.008 C 
ATOM     14  C   UNL     1       2.858   0.202   8.507  1.00  0.00     0.017 C 
ATOM     15  C   UNL     1       4.862  -1.459   8.634  1.00  0.00    -0.020 C 
ATOM     16  C   UNL     1       6.838  -0.627   7.317  1.00  0.00     0.032 C 
ATOM     17  C   UNL     1       6.421  -1.478   8.548  1.00  0.00     0.006 C 
ATOM     18  C   UNL     1       4.459  -2.411   9.777  1.00  0.00     0.008 C 
ATOM     19  C   UNL     1       4.237  -1.976   7.289  1.00  0.00     0.012 C 
ATOM     20  C   UNL     1       7.164  -2.910   8.752  1.00  0.00    -0.025 C 
ATOM     21  C   UNL     1       4.837  -3.872   9.549  1.00  0.00     0.005 C 
ATOM     22  C   UNL     1       6.175  -4.162   8.788  1.00  0.00     0.003 C 
ATOM     23  C   UNL     1       7.927  -2.867  10.114  1.00  0.00     0.010 C 
ATOM     24  C   UNL     1       8.217  -3.092   7.615  1.00  0.00     0.012 C 
ATOM     25  C   UNL     1       6.821  -5.552   9.265  1.00  0.00    -0.006 C 
ATOM     26  C   UNL     1       8.622  -4.180  10.506  1.00  0.00     0.033 C 
ATOM     27  C   UNL     1       7.643  -5.365  10.582  1.00  0.00     0.120 C 
ATOM     28  C   UNL     1       5.718  -6.635   9.502  1.00  0.00     0.014 C 
ATOM     29  C   UNL     1       7.741  -6.179   8.162  1.00  0.00     0.014 C 
ENDROOT
BRANCH   1  30
ATOM     30  C   UNL     1       6.398   2.889  10.507  1.00  0.00     0.048 C 
ATOM     31  O   UNL     1       7.110   1.856  10.382  1.00  0.00    -0.550 OA
ATOM     32  O   UNL     1       6.896   3.954  11.250  1.00  0.00    -0.550 OA
ENDBRANCH   1  30
BRANCH  27  33
ATOM     33  O   UNL     1       6.790  -5.187  11.687  1.00  0.00    -0.393 OA
ATOM     34  H   UNL     1       5.967  -5.714  11.512  1.00  0.00     0.210 HD
ENDBRANCH  27  33
TORSDOF 2
ENDMDL
