MODEL 1
REMARK VINA RESULT:    -3.708      0.000      0.000
REMARK INTER + INTRA:          -4.352
REMARK INTER:                  -4.250
REMARK INTRA:                  -0.102
REMARK UNBOUND:                -0.102
REMARK SMILES C=Cc1ccc(O)c(OC)c1
REMARK SMILES IDX 8 1 6 2 5 3 4 4 3 5 11 6 9 7 10 8 7 9 2 11 1 12
REMARK H PARENT 7 10
REMARK Flexibility Score: inf
ROOT
ATOM      1  C   UNL     1     164.536 172.108 167.839  1.00  0.00     0.161 A 
ATOM      2  C   UNL     1     164.262 172.265 169.204  1.00  0.00     0.157 A 
ATOM      3  C   UNL     1     164.161 171.141 170.033  1.00  0.00     0.051 A 
ATOM      4  C   UNL     1     164.327 169.859 169.508  1.00  0.00     0.012 A 
ATOM      5  C   UNL     1     164.589 169.679 168.136  1.00  0.00    -0.022 A 
ATOM      6  C   UNL     1     164.703 170.812 167.312  1.00  0.00     0.058 A 
ENDROOT
BRANCH   1   7
ATOM      7  O   UNL     1     164.635 173.259 167.041  1.00  0.00    -0.493 OA
ATOM      8  C   UNL     1     165.729 173.552 166.178  1.00  0.00     0.278 C 
ENDBRANCH   1   7
BRANCH   2   9
ATOM      9  O   UNL     1     164.096 173.544 169.731  1.00  0.00    -0.504 OA
ATOM     10  H   UNL     1     163.386 174.176 169.378  1.00  0.00     0.293 HD
ENDBRANCH   2   9
BRANCH   5  11
ATOM     11  C   UNL     1     164.782 168.339 167.528  1.00  0.00     0.000 C 
ATOM     12  C   UNL     1     164.967 167.217 168.226  1.00  0.00     0.009 C 
ENDBRANCH   5  11
TORSDOF 3
ENDMDL
MODEL 2
REMARK VINA RESULT:    -3.676      7.283      8.292
REMARK INTER + INTRA:          -4.315
REMARK INTER:                  -4.208
REMARK INTRA:                  -0.107
REMARK UNBOUND:                -0.102
REMARK SMILES C=Cc1ccc(O)c(OC)c1
REMARK SMILES IDX 8 1 6 2 5 3 4 4 3 5 11 6 9 7 10 8 7 9 2 11 1 12
REMARK H PARENT 7 10
REMARK Flexibility Score: inf
ROOT
ATOM      1  C   UNL     1     159.186 164.582 167.855  1.00  0.00     0.161 A 
ATOM      2  C   UNL     1     159.027 164.392 169.234  1.00  0.00     0.157 A 
ATOM      3  C   UNL     1     160.149 164.335 170.069  1.00  0.00     0.051 A 
ATOM      4  C   UNL     1     161.433 164.460 169.536  1.00  0.00     0.012 A 
ATOM      5  C   UNL     1     161.615 164.638 168.151  1.00  0.00    -0.022 A 
ATOM      6  C   UNL     1     160.484 164.708 167.321  1.00  0.00     0.058 A 
ENDROOT
BRANCH   1   7
ATOM      7  O   UNL     1     158.037 164.640 167.051  1.00  0.00    -0.493 OA
ATOM      8  C   UNL     1     157.674 165.752 166.239  1.00  0.00     0.278 C 
ENDBRANCH   1   7
BRANCH   2   9
ATOM      9  O   UNL     1     157.746 164.267 169.769  1.00  0.00    -0.504 OA
ATOM     10  H   UNL     1     156.923 164.242 169.177  1.00  0.00     0.293 HD
ENDBRANCH   2   9
BRANCH   5  11
ATOM     11  C   UNL     1     162.957 164.785 167.534  1.00  0.00     0.000 C 
ATOM     12  C   UNL     1     164.098 164.836 168.223  1.00  0.00     0.009 C 
ENDBRANCH   5  11
TORSDOF 3
ENDMDL
MODEL 3
REMARK VINA RESULT:    -3.660      0.965      2.504
REMARK INTER + INTRA:          -4.297
REMARK INTER:                  -4.187
REMARK INTRA:                  -0.110
REMARK UNBOUND:                -0.102
REMARK SMILES C=Cc1ccc(O)c(OC)c1
REMARK SMILES IDX 8 1 6 2 5 3 4 4 3 5 11 6 9 7 10 8 7 9 2 11 1 12
REMARK H PARENT 7 10
REMARK Flexibility Score: inf
ROOT
ATOM      1  C   UNL     1     164.516 172.117 169.035  1.00  0.00     0.161 A 
ATOM      2  C   UNL     1     164.493 172.157 167.634  1.00  0.00     0.157 A 
ATOM      3  C   UNL     1     164.499 170.967 166.898  1.00  0.00     0.051 A 
ATOM      4  C   UNL     1     164.533 169.733 167.549  1.00  0.00     0.012 A 
ATOM      5  C   UNL     1     164.570 169.671 168.956  1.00  0.00    -0.022 A 
ATOM      6  C   UNL     1     164.551 170.869 169.689  1.00  0.00     0.058 A 
ENDROOT
BRANCH   1   7
ATOM      7  O   UNL     1     164.504 173.332 169.738  1.00  0.00    -0.493 OA
ATOM      8  C   UNL     1     163.399 173.816 170.495  1.00  0.00     0.278 C 
ENDBRANCH   1   7
BRANCH   2   9
ATOM      9  O   UNL     1     164.460 173.388 166.980  1.00  0.00    -0.504 OA
ATOM     10  H   UNL     1     164.957 173.541 166.110  1.00  0.00     0.293 HD
ENDBRANCH   2   9
BRANCH   5  11
ATOM     11  C   UNL     1     164.599 168.386 169.698  1.00  0.00     0.000 C 
ATOM     12  C   UNL     1     164.965 167.220 169.166  1.00  0.00     0.009 C 
ENDBRANCH   5  11
TORSDOF 3
ENDMDL
MODEL 4
REMARK VINA RESULT:    -3.633      7.249      8.609
REMARK INTER + INTRA:          -4.266
REMARK INTER:                  -4.160
REMARK INTRA:                  -0.106
REMARK UNBOUND:                -0.102
REMARK SMILES C=Cc1ccc(O)c(OC)c1
REMARK SMILES IDX 8 1 6 2 5 3 4 4 3 5 11 6 9 7 10 8 7 9 2 11 1 12
REMARK H PARENT 7 10
REMARK Flexibility Score: inf
ROOT
ATOM      1  C   UNL     1     172.120 166.647 169.064  1.00  0.00     0.161 A 
ATOM      2  C   UNL     1     172.139 166.684 167.663  1.00  0.00     0.157 A 
ATOM      3  C   UNL     1     170.938 166.708 166.945  1.00  0.00     0.051 A 
ATOM      4  C   UNL     1     169.714 166.689 167.615  1.00  0.00     0.012 A 
ATOM      5  C   UNL     1     169.672 166.638 169.022  1.00  0.00    -0.022 A 
ATOM      6  C   UNL     1     170.881 166.628 169.737  1.00  0.00     0.058 A 
ENDROOT
BRANCH   1   7
ATOM      7  O   UNL     1     173.345 166.629 169.749  1.00  0.00    -0.493 OA
ATOM      8  C   UNL     1     173.799 167.661 170.619  1.00  0.00     0.278 C 
ENDBRANCH   1   7
BRANCH   2   9
ATOM      9  O   UNL     1     173.360 166.702 166.991  1.00  0.00    -0.504 OA
ATOM     10  H   UNL     1     174.241 166.735 167.491  1.00  0.00     0.293 HD
ENDBRANCH   2   9
BRANCH   5  11
ATOM     11  C   UNL     1     168.398 166.626 169.784  1.00  0.00     0.000 C 
ATOM     12  C   UNL     1     167.254 166.118 169.324  1.00  0.00     0.009 C 
ENDBRANCH   5  11
TORSDOF 3
ENDMDL
MODEL 5
REMARK VINA RESULT:    -3.623      7.273      8.885
REMARK INTER + INTRA:          -4.254
REMARK INTER:                  -4.151
REMARK INTRA:                  -0.103
REMARK UNBOUND:                -0.102
REMARK SMILES C=Cc1ccc(O)c(OC)c1
REMARK SMILES IDX 8 1 6 2 5 3 4 4 3 5 11 6 9 7 10 8 7 9 2 11 1 12
REMARK H PARENT 7 10
REMARK Flexibility Score: inf
ROOT
ATOM      1  C   UNL     1     159.053 164.532 169.018  1.00  0.00     0.161 A 
ATOM      2  C   UNL     1     159.017 164.466 167.619  1.00  0.00     0.157 A 
ATOM      3  C   UNL     1     160.209 164.438 166.887  1.00  0.00     0.051 A 
ATOM      4  C   UNL     1     161.441 164.482 167.541  1.00  0.00     0.012 A 
ATOM      5  C   UNL     1     161.499 164.563 168.946  1.00  0.00    -0.022 A 
ATOM      6  C   UNL     1     160.299 164.577 169.675  1.00  0.00     0.058 A 
ENDROOT
BRANCH   1   7
ATOM      7  O   UNL     1     157.836 164.553 169.717  1.00  0.00    -0.493 OA
ATOM      8  C   UNL     1     157.474 163.627 170.737  1.00  0.00     0.278 C 
ENDBRANCH   1   7
BRANCH   2   9
ATOM      9  O   UNL     1     157.788 164.422 166.963  1.00  0.00    -0.504 OA
ATOM     10  H   UNL     1     157.580 163.709 166.272  1.00  0.00     0.293 HD
ENDBRANCH   2   9
BRANCH   5  11
ATOM     11  C   UNL     1     162.782 164.603 169.692  1.00  0.00     0.000 C 
ATOM     12  C   UNL     1     163.945 164.988 169.164  1.00  0.00     0.009 C 
ENDBRANCH   5  11
TORSDOF 3
ENDMDL
MODEL 6
REMARK VINA RESULT:    -3.622      9.378     12.127
REMARK INTER + INTRA:          -4.253
REMARK INTER:                  -4.151
REMARK INTRA:                  -0.102
REMARK UNBOUND:                -0.102
REMARK SMILES C=Cc1ccc(O)c(OC)c1
REMARK SMILES IDX 8 1 6 2 5 3 4 4 3 5 11 6 9 7 10 8 7 9 2 11 1 12
REMARK H PARENT 7 10
REMARK Flexibility Score: inf
ROOT
ATOM      1  C   UNL     1     166.657 159.045 169.102  1.00  0.00     0.161 A 
ATOM      2  C   UNL     1     166.733 159.012 167.703  1.00  0.00     0.157 A 
ATOM      3  C   UNL     1     166.766 160.206 166.974  1.00  0.00     0.051 A 
ATOM      4  C   UNL     1     166.717 161.437 167.630  1.00  0.00     0.012 A 
ATOM      5  C   UNL     1     166.627 161.492 169.035  1.00  0.00    -0.022 A 
ATOM      6  C   UNL     1     166.608 160.290 169.761  1.00  0.00     0.058 A 
ENDROOT
BRANCH   1   7
ATOM      7  O   UNL     1     166.632 157.827 169.799  1.00  0.00    -0.493 OA
ATOM      8  C   UNL     1     167.536 157.473 170.840  1.00  0.00     0.278 C 
ENDBRANCH   1   7
BRANCH   2   9
ATOM      9  O   UNL     1     166.782 157.785 167.045  1.00  0.00    -0.504 OA
ATOM     10  H   UNL     1     165.953 157.213 166.925  1.00  0.00     0.293 HD
ENDBRANCH   2   9
BRANCH   5  11
ATOM     11  C   UNL     1     166.581 162.773 169.783  1.00  0.00     0.000 C 
ATOM     12  C   UNL     1     166.175 163.932 169.262  1.00  0.00     0.009 C 
ENDBRANCH   5  11
TORSDOF 3
ENDMDL
MODEL 7
REMARK VINA RESULT:    -3.573      6.531      7.738
REMARK INTER + INTRA:          -4.197
REMARK INTER:                  -4.086
REMARK INTRA:                  -0.111
REMARK UNBOUND:                -0.102
REMARK SMILES C=Cc1ccc(O)c(OC)c1
REMARK SMILES IDX 8 1 6 2 5 3 4 4 3 5 11 6 9 7 10 8 7 9 2 11 1 12
REMARK H PARENT 7 10
REMARK Flexibility Score: inf
ROOT
ATOM      1  C   UNL     1     171.024 167.196 169.146  1.00  0.00     0.161 A 
ATOM      2  C   UNL     1     171.677 167.152 167.907  1.00  0.00     0.157 A 
ATOM      3  C   UNL     1     170.966 166.809 166.751  1.00  0.00     0.051 A 
ATOM      4  C   UNL     1     169.606 166.505 166.822  1.00  0.00     0.012 A 
ATOM      5  C   UNL     1     168.934 166.531 168.059  1.00  0.00    -0.022 A 
ATOM      6  C   UNL     1     169.650 166.888 169.214  1.00  0.00     0.058 A 
ENDROOT
BRANCH   1   7
ATOM      7  O   UNL     1     171.769 167.549 170.281  1.00  0.00    -0.493 OA
ATOM      8  C   UNL     1     171.638 168.781 170.983  1.00  0.00     0.278 C 
ENDBRANCH   1   7
BRANCH   2   9
ATOM      9  O   UNL     1     173.035 167.455 167.832  1.00  0.00    -0.504 OA
ATOM     10  H   UNL     1     173.448 168.186 168.400  1.00  0.00     0.293 HD
ENDBRANCH   2   9
BRANCH   5  11
ATOM     11  C   UNL     1     167.487 166.224 168.190  1.00  0.00     0.000 C 
ATOM     12  C   UNL     1     166.701 165.868 167.173  1.00  0.00     0.009 C 
ENDBRANCH   5  11
TORSDOF 3
ENDMDL
MODEL 8
REMARK VINA RESULT:    -3.572      7.032      8.577
REMARK INTER + INTRA:          -4.196
REMARK INTER:                  -4.084
REMARK INTRA:                  -0.112
REMARK UNBOUND:                -0.102
REMARK SMILES C=Cc1ccc(O)c(OC)c1
REMARK SMILES IDX 8 1 6 2 5 3 4 4 3 5 11 6 9 7 10 8 7 9 2 11 1 12
REMARK H PARENT 7 10
REMARK Flexibility Score: inf
ROOT
ATOM      1  C   UNL     1     159.987 164.163 169.303  1.00  0.00     0.161 A 
ATOM      2  C   UNL     1     159.423 164.087 168.022  1.00  0.00     0.157 A 
ATOM      3  C   UNL     1     160.221 164.287 166.891  1.00  0.00     0.051 A 
ATOM      4  C   UNL     1     161.582 164.569 167.026  1.00  0.00     0.012 A 
ATOM      5  C   UNL     1     162.165 164.663 168.305  1.00  0.00    -0.022 A 
ATOM      6  C   UNL     1     161.361 164.448 169.436  1.00  0.00     0.058 A 
ENDROOT
BRANCH   1   7
ATOM      7  O   UNL     1     159.155 163.951 170.413  1.00  0.00    -0.493 OA
ATOM      8  C   UNL     1     158.631 164.986 171.239  1.00  0.00     0.278 C 
ENDBRANCH   1   7
BRANCH   2   9
ATOM      9  O   UNL     1     158.065 163.806 167.883  1.00  0.00    -0.504 OA
ATOM     10  H   UNL     1     157.519 164.189 167.120  1.00  0.00     0.293 HD
ENDBRANCH   2   9
BRANCH   5  11
ATOM     11  C   UNL     1     163.608 164.952 168.505  1.00  0.00     0.000 C 
ATOM     12  C   UNL     1     164.448 165.293 167.527  1.00  0.00     0.009 C 
ENDBRANCH   5  11
TORSDOF 3
ENDMDL
MODEL 9
REMARK VINA RESULT:    -3.508      8.539     11.176
REMARK INTER + INTRA:          -4.123
REMARK INTER:                  -4.011
REMARK INTRA:                  -0.112
REMARK UNBOUND:                -0.102
REMARK SMILES C=Cc1ccc(O)c(OC)c1
REMARK SMILES IDX 8 1 6 2 5 3 4 4 3 5 11 6 9 7 10 8 7 9 2 11 1 12
REMARK H PARENT 7 10
REMARK Flexibility Score: inf
ROOT
ATOM      1  C   UNL     1     167.131 160.398 169.004  1.00  0.00     0.161 A 
ATOM      2  C   UNL     1     167.146 159.671 167.805  1.00  0.00     0.157 A 
ATOM      3  C   UNL     1     166.810 160.298 166.600  1.00  0.00     0.051 A 
ATOM      4  C   UNL     1     166.452 161.647 166.581  1.00  0.00     0.012 A 
ATOM      5  C   UNL     1     166.417 162.392 167.777  1.00  0.00    -0.022 A 
ATOM      6  C   UNL     1     166.769 161.760 168.981  1.00  0.00     0.058 A 
ENDROOT
BRANCH   1   7
ATOM      7  O   UNL     1     167.480 159.735 170.191  1.00  0.00    -0.493 OA
ATOM      8  C   UNL     1     168.721 159.896 170.871  1.00  0.00     0.278 C 
ENDBRANCH   1   7
BRANCH   2   9
ATOM      9  O   UNL     1     167.503 158.324 167.821  1.00  0.00    -0.504 OA
ATOM     10  H   UNL     1     168.432 158.023 168.093  1.00  0.00     0.293 HD
ENDBRANCH   2   9
BRANCH   5  11
ATOM     11  C   UNL     1     166.052 163.830 167.812  1.00  0.00     0.000 C 
ATOM     12  C   UNL     1     165.875 164.586 166.727  1.00  0.00     0.009 C 
ENDBRANCH   5  11
TORSDOF 3
ENDMDL
