MODEL 1
REMARK VINA RESULT:    -5.103      0.000      0.000
REMARK INTER + INTRA:          -9.109
REMARK INTER:                  -7.787
REMARK INTRA:                  -1.322
REMARK UNBOUND:                -1.322
REMARK SMILES CC(=O)CCC=C(C)CCC=C(C)CCC=C(C)C
REMARK SMILES IDX 10 1 11 2 12 3 13 4 14 5 15 6 16 7 18 8 17 9 19 10 9 11 7 12
REMARK SMILES IDX 6 13 8 14 5 15 4 16 2 17 3 18 1 19
REMARK H PARENT
REMARK Flexibility Score: inf
ROOT
ATOM      1  C   UNL     1      -3.963   3.490  10.144  1.00  0.00     0.032 C 
ENDROOT
BRANCH   1   2
ATOM      2  C   UNL     1      -2.982   4.587  10.474  1.00  0.00    -0.028 C 
ATOM      3  C   UNL     1      -3.300   5.728  11.125  1.00  0.00    -0.077 C 
ATOM      4  C   UNL     1      -4.697   5.991  11.639  1.00  0.00     0.039 C 
BRANCH   3   5
ATOM      5  C   UNL     1      -2.223   6.768  11.352  1.00  0.00     0.034 C 
BRANCH   5   6
ATOM      6  C   UNL     1      -0.961   6.126  11.939  1.00  0.00     0.032 C 
BRANCH   6   7
ATOM      7  C   UNL     1      -0.799   6.496  13.392  1.00  0.00    -0.028 C 
ATOM      8  C   UNL     1      -0.592   6.119  15.811  1.00  0.00     0.039 C 
ATOM      9  C   UNL     1      -0.805   5.607  14.410  1.00  0.00    -0.080 C 
ATOM     10  C   UNL     1      -1.036   4.131  14.183  1.00  0.00     0.039 C 
ENDBRANCH   6   7
ENDBRANCH   5   6
ENDBRANCH   3   5
ENDBRANCH   1   2
BRANCH   1  11
ATOM     11  C   UNL     1      -3.913   3.148   8.652  1.00  0.00     0.034 C 
BRANCH  11  12
ATOM     12  C   UNL     1      -5.290   3.246   8.032  1.00  0.00    -0.077 C 
ATOM     13  C   UNL     1      -5.549   2.562   6.894  1.00  0.00    -0.028 C 
ATOM     14  C   UNL     1      -6.331   4.119   8.692  1.00  0.00     0.039 C 
BRANCH  13  15
ATOM     15  C   UNL     1      -6.887   2.534   6.201  1.00  0.00     0.035 C 
BRANCH  15  16
ATOM     16  C   UNL     1      -7.500   1.133   6.262  1.00  0.00     0.079 C 
BRANCH  16  17
ATOM     17  C   UNL     1      -8.965   1.206   6.603  1.00  0.00     0.130 C 
ATOM     18  O   UNL     1      -9.740   0.407   6.099  1.00  0.00    -0.300 OA
ATOM     19  C   UNL     1      -9.499   2.249   7.541  1.00  0.00     0.087 C 
ENDBRANCH  16  17
ENDBRANCH  15  16
ENDBRANCH  13  15
ENDBRANCH  11  12
ENDBRANCH   1  11
TORSDOF 9
ENDMDL
MODEL 2
REMARK VINA RESULT:    -5.046      2.375      4.727
REMARK INTER + INTRA:          -9.023
REMARK INTER:                  -8.084
REMARK INTRA:                  -0.939
REMARK UNBOUND:                -1.322
REMARK SMILES CC(=O)CCC=C(C)CCC=C(C)CCC=C(C)C
REMARK SMILES IDX 10 1 11 2 12 3 13 4 14 5 15 6 16 7 18 8 17 9 19 10 9 11 7 12
REMARK SMILES IDX 6 13 8 14 5 15 4 16 2 17 3 18 1 19
REMARK H PARENT
REMARK Flexibility Score: inf
ROOT
ATOM      1  C   UNL     1      -6.924   2.456   6.100  1.00  0.00     0.032 C 
ENDROOT
BRANCH   1   2
ATOM      2  C   UNL     1      -5.616   2.460   6.851  1.00  0.00    -0.028 C 
ATOM      3  C   UNL     1      -5.344   3.253   7.911  1.00  0.00    -0.077 C 
ATOM      4  C   UNL     1      -6.373   4.198   8.487  1.00  0.00     0.039 C 
BRANCH   3   5
ATOM      5  C   UNL     1      -3.970   3.184   8.544  1.00  0.00     0.034 C 
BRANCH   5   6
ATOM      6  C   UNL     1      -4.057   3.386  10.060  1.00  0.00     0.032 C 
BRANCH   6   7
ATOM      7  C   UNL     1      -2.857   4.144  10.570  1.00  0.00    -0.028 C 
ATOM      8  C   UNL     1      -1.640   5.926  11.746  1.00  0.00     0.039 C 
ATOM      9  C   UNL     1      -2.924   5.300  11.266  1.00  0.00    -0.080 C 
ATOM     10  C   UNL     1      -4.240   5.983  11.559  1.00  0.00     0.039 C 
ENDBRANCH   6   7
ENDBRANCH   5   6
ENDBRANCH   3   5
ENDBRANCH   1   2
BRANCH   1  11
ATOM     11  C   UNL     1      -7.570   1.068   6.141  1.00  0.00     0.034 C 
BRANCH  11  12
ATOM     12  C   UNL     1      -9.034   1.167   6.511  1.00  0.00    -0.077 C 
ATOM     13  C   UNL     1      -9.919   0.335   5.917  1.00  0.00    -0.028 C 
ATOM     14  C   UNL     1      -9.468   2.204   7.520  1.00  0.00     0.039 C 
BRANCH  13  15
ATOM     15  C   UNL     1     -11.394   0.296   6.226  1.00  0.00     0.035 C 
BRANCH  15  16
ATOM     16  C   UNL     1     -12.145  -0.531   5.180  1.00  0.00     0.079 C 
BRANCH  16  17
ATOM     17  C   UNL     1     -13.089  -1.499   5.843  1.00  0.00     0.130 C 
ATOM     18  O   UNL     1     -12.767  -2.025   6.898  1.00  0.00    -0.300 OA
ATOM     19  C   UNL     1     -14.415  -1.844   5.230  1.00  0.00     0.087 C 
ENDBRANCH  16  17
ENDBRANCH  15  16
ENDBRANCH  13  15
ENDBRANCH  11  12
ENDBRANCH   1  11
TORSDOF 9
ENDMDL
MODEL 3
REMARK VINA RESULT:    -5.037      0.861      1.347
REMARK INTER + INTRA:          -9.009
REMARK INTER:                  -8.112
REMARK INTRA:                  -0.897
REMARK UNBOUND:                -1.322
REMARK SMILES CC(=O)CCC=C(C)CCC=C(C)CCC=C(C)C
REMARK SMILES IDX 10 1 11 2 12 3 13 4 14 5 15 6 16 7 18 8 17 9 19 10 9 11 7 12
REMARK SMILES IDX 6 13 8 14 5 15 4 16 2 17 3 18 1 19
REMARK H PARENT
REMARK Flexibility Score: inf
ROOT
ATOM      1  C   UNL     1      -3.800   3.746  10.464  1.00  0.00     0.032 C 
ENDROOT
BRANCH   1   2
ATOM      2  C   UNL     1      -2.574   4.519  10.882  1.00  0.00    -0.028 C 
ATOM      3  C   UNL     1      -2.599   5.654  11.617  1.00  0.00    -0.077 C 
ATOM      4  C   UNL     1      -3.890   6.237  12.142  1.00  0.00     0.039 C 
BRANCH   3   5
ATOM      5  C   UNL     1      -1.293   6.353  11.929  1.00  0.00     0.034 C 
BRANCH   5   6
ATOM      6  C   UNL     1      -1.294   6.896  13.362  1.00  0.00     0.032 C 
BRANCH   6   7
ATOM      7  C   UNL     1      -0.808   5.849  14.333  1.00  0.00    -0.028 C 
ATOM      8  C   UNL     1       0.028   4.956  16.463  1.00  0.00     0.039 C 
ATOM      9  C   UNL     1      -0.393   6.110  15.592  1.00  0.00    -0.080 C 
ATOM     10  C   UNL     1      -0.327   7.518  16.138  1.00  0.00     0.039 C 
ENDBRANCH   6   7
ENDBRANCH   5   6
ENDBRANCH   3   5
ENDBRANCH   1   2
BRANCH   1  11
ATOM     11  C   UNL     1      -3.732   3.385   8.976  1.00  0.00     0.034 C 
BRANCH  11  12
ATOM     12  C   UNL     1      -5.098   3.498   8.334  1.00  0.00    -0.077 C 
ATOM     13  C   UNL     1      -5.319   2.884   7.149  1.00  0.00    -0.028 C 
ATOM     14  C   UNL     1      -6.170   4.306   9.026  1.00  0.00     0.039 C 
BRANCH  13  15
ATOM     15  C   UNL     1      -6.642   2.877   6.426  1.00  0.00     0.035 C 
BRANCH  15  16
ATOM     16  C   UNL     1      -6.959   1.477   5.893  1.00  0.00     0.079 C 
BRANCH  16  17
ATOM     17  C   UNL     1      -8.095   0.858   6.664  1.00  0.00     0.130 C 
ATOM     18  O   UNL     1      -8.063  -0.335   6.926  1.00  0.00    -0.300 OA
ATOM     19  C   UNL     1      -9.274   1.671   7.110  1.00  0.00     0.087 C 
ENDBRANCH  16  17
ENDBRANCH  15  16
ENDBRANCH  13  15
ENDBRANCH  11  12
ENDBRANCH   1  11
TORSDOF 9
ENDMDL
MODEL 4
REMARK VINA RESULT:    -5.028      4.421      9.837
REMARK INTER + INTRA:          -8.995
REMARK INTER:                  -8.011
REMARK INTRA:                  -0.984
REMARK UNBOUND:                -1.322
REMARK SMILES CC(=O)CCC=C(C)CCC=C(C)CCC=C(C)C
REMARK SMILES IDX 10 1 11 2 12 3 13 4 14 5 15 6 16 7 18 8 17 9 19 10 9 11 7 12
REMARK SMILES IDX 6 13 8 14 5 15 4 16 2 17 3 18 1 19
REMARK H PARENT
REMARK Flexibility Score: inf
ROOT
ATOM      1  C   UNL     1      -1.618   6.736  15.528  1.00  0.00     0.032 C 
ENDROOT
BRANCH   1   2
ATOM      2  C   UNL     1      -1.475   6.571  14.036  1.00  0.00    -0.028 C 
ATOM      3  C   UNL     1      -1.121   5.418  13.424  1.00  0.00    -0.077 C 
ATOM      4  C   UNL     1      -0.881   4.143  14.200  1.00  0.00     0.039 C 
BRANCH   3   5
ATOM      5  C   UNL     1      -0.971   5.404  11.918  1.00  0.00     0.034 C 
BRANCH   5   6
ATOM      6  C   UNL     1      -1.996   4.462  11.276  1.00  0.00     0.032 C 
BRANCH   6   7
ATOM      7  C   UNL     1      -3.243   5.214  10.886  1.00  0.00    -0.028 C 
ATOM      8  C   UNL     1      -5.437   5.563   9.835  1.00  0.00     0.039 C 
ATOM      9  C   UNL     1      -4.228   4.707  10.111  1.00  0.00    -0.080 C 
ATOM     10  C   UNL     1      -4.140   3.325   9.507  1.00  0.00     0.039 C 
ENDBRANCH   6   7
ENDBRANCH   5   6
ENDBRANCH   3   5
ENDBRANCH   1   2
BRANCH   1  11
ATOM     11  C   UNL     1      -0.333   7.305  16.137  1.00  0.00     0.034 C 
BRANCH  11  12
ATOM     12  C   UNL     1       0.049   6.545  17.389  1.00  0.00    -0.077 C 
ATOM     13  C   UNL     1       0.211   5.204  17.320  1.00  0.00    -0.028 C 
ATOM     14  C   UNL     1       0.222   7.304  18.684  1.00  0.00     0.039 C 
BRANCH  13  15
ATOM     15  C   UNL     1       0.636   4.336  18.477  1.00  0.00     0.035 C 
BRANCH  15  16
ATOM     16  C   UNL     1      -0.579   3.664  19.123  1.00  0.00     0.079 C 
BRANCH  16  17
ATOM     17  C   UNL     1      -0.695   2.230  18.677  1.00  0.00     0.130 C 
ATOM     18  O   UNL     1      -0.182   1.885  17.623  1.00  0.00    -0.300 OA
ATOM     19  C   UNL     1      -1.439   1.214  19.492  1.00  0.00     0.087 C 
ENDBRANCH  16  17
ENDBRANCH  15  16
ENDBRANCH  13  15
ENDBRANCH  11  12
ENDBRANCH   1  11
TORSDOF 9
ENDMDL
MODEL 5
REMARK VINA RESULT:    -5.021      3.246      7.549
REMARK INTER + INTRA:          -8.984
REMARK INTER:                  -6.781
REMARK INTRA:                  -2.203
REMARK UNBOUND:                -1.322
REMARK SMILES CC(=O)CCC=C(C)CCC=C(C)CCC=C(C)C
REMARK SMILES IDX 10 1 11 2 12 3 13 4 14 5 15 6 16 7 18 8 17 9 19 10 9 11 7 12
REMARK SMILES IDX 6 13 8 14 5 15 4 16 2 17 3 18 1 19
REMARK H PARENT
REMARK Flexibility Score: inf
ROOT
ATOM      1  C   UNL     1      -5.986   7.582  10.203  1.00  0.00     0.032 C 
ENDROOT
BRANCH   1   2
ATOM      2  C   UNL     1      -6.658   6.888   9.045  1.00  0.00    -0.028 C 
ATOM      3  C   UNL     1      -7.087   5.605   9.066  1.00  0.00    -0.077 C 
ATOM      4  C   UNL     1      -6.973   4.745  10.303  1.00  0.00     0.039 C 
BRANCH   3   5
ATOM      5  C   UNL     1      -7.707   5.020   7.815  1.00  0.00     0.034 C 
BRANCH   5   6
ATOM      6  C   UNL     1      -6.925   3.790   7.343  1.00  0.00     0.032 C 
BRANCH   6   7
ATOM      7  C   UNL     1      -5.574   4.188   6.804  1.00  0.00    -0.028 C 
ATOM      8  C   UNL     1      -3.123   4.209   6.637  1.00  0.00     0.039 C 
ATOM      9  C   UNL     1      -4.395   3.757   7.305  1.00  0.00    -0.080 C 
ATOM     10  C   UNL     1      -4.322   2.856   8.516  1.00  0.00     0.039 C 
ENDBRANCH   6   7
ENDBRANCH   5   6
ENDBRANCH   3   5
ENDBRANCH   1   2
BRANCH   1  11
ATOM     11  C   UNL     1      -4.462   7.511  10.068  1.00  0.00     0.034 C 
BRANCH  11  12
ATOM     12  C   UNL     1      -3.894   6.431  10.962  1.00  0.00    -0.077 C 
ATOM     13  C   UNL     1      -2.980   5.571  10.455  1.00  0.00    -0.028 C 
ATOM     14  C   UNL     1      -4.375   6.332  12.391  1.00  0.00     0.039 C 
BRANCH  13  15
ATOM     15  C   UNL     1      -2.302   4.483  11.247  1.00  0.00     0.035 C 
BRANCH  15  16
ATOM     16  C   UNL     1      -1.023   5.008  11.903  1.00  0.00     0.079 C 
BRANCH  16  17
ATOM     17  C   UNL     1      -1.052   4.773  13.391  1.00  0.00     0.130 C 
ATOM     18  O   UNL     1      -0.967   3.633  13.821  1.00  0.00    -0.300 OA
ATOM     19  C   UNL     1      -1.197   5.909  14.360  1.00  0.00     0.087 C 
ENDBRANCH  16  17
ENDBRANCH  15  16
ENDBRANCH  13  15
ENDBRANCH  11  12
ENDBRANCH   1  11
TORSDOF 9
ENDMDL
MODEL 6
REMARK VINA RESULT:    -5.004      3.679      9.298
REMARK INTER + INTRA:          -8.958
REMARK INTER:                  -8.065
REMARK INTRA:                  -0.893
REMARK UNBOUND:                -1.322
REMARK SMILES CC(=O)CCC=C(C)CCC=C(C)CCC=C(C)C
REMARK SMILES IDX 10 1 11 2 12 3 13 4 14 5 15 6 16 7 18 8 17 9 19 10 9 11 7 12
REMARK SMILES IDX 6 13 8 14 5 15 4 16 2 17 3 18 1 19
REMARK H PARENT
REMARK Flexibility Score: inf
ROOT
ATOM      1  C   UNL     1      -3.870   3.373  10.170  1.00  0.00     0.032 C 
ENDROOT
BRANCH   1   2
ATOM      2  C   UNL     1      -4.480   3.402   8.791  1.00  0.00    -0.028 C 
ATOM      3  C   UNL     1      -5.654   3.999   8.486  1.00  0.00    -0.077 C 
ATOM      4  C   UNL     1      -6.457   4.756   9.518  1.00  0.00     0.039 C 
BRANCH   3   5
ATOM      5  C   UNL     1      -6.172   3.914   7.066  1.00  0.00     0.034 C 
BRANCH   5   6
ATOM      6  C   UNL     1      -6.838   2.557   6.809  1.00  0.00     0.032 C 
BRANCH   6   7
ATOM      7  C   UNL     1      -8.325   2.637   7.046  1.00  0.00    -0.028 C 
ATOM      8  C   UNL     1     -10.636   1.817   7.209  1.00  0.00     0.039 C 
ATOM      9  C   UNL     1      -9.178   1.599   6.899  1.00  0.00    -0.080 C 
ATOM     10  C   UNL     1      -8.713   0.242   6.421  1.00  0.00     0.039 C 
ENDBRANCH   6   7
ENDBRANCH   5   6
ENDBRANCH   3   5
ENDBRANCH   1   2
BRANCH   1  11
ATOM     11  C   UNL     1      -2.569   4.181  10.205  1.00  0.00     0.034 C 
BRANCH  11  12
ATOM     12  C   UNL     1      -2.489   5.016  11.464  1.00  0.00    -0.077 C 
ATOM     13  C   UNL     1      -1.577   4.693  12.410  1.00  0.00    -0.028 C 
ATOM     14  C   UNL     1      -3.441   6.176  11.638  1.00  0.00     0.039 C 
BRANCH  13  15
ATOM     15  C   UNL     1      -1.360   5.466  13.685  1.00  0.00     0.035 C 
BRANCH  15  16
ATOM     16  C   UNL     1      -0.772   4.563  14.772  1.00  0.00     0.079 C 
BRANCH  16  17
ATOM     17  C   UNL     1      -0.289   5.381  15.941  1.00  0.00     0.130 C 
ATOM     18  O   UNL     1       0.618   4.954  16.640  1.00  0.00    -0.300 OA
ATOM     19  C   UNL     1      -0.906   6.707  16.277  1.00  0.00     0.087 C 
ENDBRANCH  16  17
ENDBRANCH  15  16
ENDBRANCH  13  15
ENDBRANCH  11  12
ENDBRANCH   1  11
TORSDOF 9
ENDMDL
MODEL 7
REMARK VINA RESULT:    -4.996      3.076      8.366
REMARK INTER + INTRA:          -8.947
REMARK INTER:                  -7.344
REMARK INTRA:                  -1.603
REMARK UNBOUND:                -1.322
REMARK SMILES CC(=O)CCC=C(C)CCC=C(C)CCC=C(C)C
REMARK SMILES IDX 10 1 11 2 12 3 13 4 14 5 15 6 16 7 18 8 17 9 19 10 9 11 7 12
REMARK SMILES IDX 6 13 8 14 5 15 4 16 2 17 3 18 1 19
REMARK H PARENT
REMARK Flexibility Score: inf
ROOT
ATOM      1  C   UNL     1      -5.959   5.264  10.572  1.00  0.00     0.032 C 
ENDROOT
BRANCH   1   2
ATOM      2  C   UNL     1      -5.583   4.676   9.235  1.00  0.00    -0.028 C 
ATOM      3  C   UNL     1      -4.520   3.866   9.028  1.00  0.00    -0.077 C 
ATOM      4  C   UNL     1      -3.618   3.427  10.157  1.00  0.00     0.039 C 
BRANCH   3   5
ATOM      5  C   UNL     1      -4.232   3.381   7.623  1.00  0.00     0.034 C 
BRANCH   5   6
ATOM      6  C   UNL     1      -5.482   3.487   6.742  1.00  0.00     0.032 C 
BRANCH   6   7
ATOM      7  C   UNL     1      -6.174   2.152   6.630  1.00  0.00    -0.028 C 
ATOM      8  C   UNL     1      -8.065   0.585   6.563  1.00  0.00     0.039 C 
ATOM      9  C   UNL     1      -7.509   1.974   6.736  1.00  0.00    -0.080 C 
ATOM     10  C   UNL     1      -8.448   3.120   7.038  1.00  0.00     0.039 C 
ENDBRANCH   6   7
ENDBRANCH   5   6
ENDBRANCH   3   5
ENDBRANCH   1   2
BRANCH   1  11
ATOM     11  C   UNL     1      -5.632   6.760  10.617  1.00  0.00     0.034 C 
BRANCH  11  12
ATOM     12  C   UNL     1      -4.250   6.990  11.188  1.00  0.00    -0.077 C 
ATOM     13  C   UNL     1      -3.917   6.402  12.360  1.00  0.00    -0.028 C 
ATOM     14  C   UNL     1      -3.286   7.883  10.442  1.00  0.00     0.039 C 
BRANCH  13  15
ATOM     15  C   UNL     1      -2.563   6.509  13.014  1.00  0.00     0.035 C 
BRANCH  15  16
ATOM     16  C   UNL     1      -1.748   5.234  12.784  1.00  0.00     0.079 C 
BRANCH  16  17
ATOM     17  C   UNL     1      -1.139   4.750  14.074  1.00  0.00     0.130 C 
ATOM     18  O   UNL     1      -0.971   3.553  14.247  1.00  0.00    -0.300 OA
ATOM     19  C   UNL     1      -0.744   5.707  15.160  1.00  0.00     0.087 C 
ENDBRANCH  16  17
ENDBRANCH  15  16
ENDBRANCH  13  15
ENDBRANCH  11  12
ENDBRANCH   1  11
TORSDOF 9
ENDMDL
MODEL 8
REMARK VINA RESULT:    -4.941      8.757     13.034
REMARK INTER + INTRA:          -8.863
REMARK INTER:                  -6.638
REMARK INTRA:                  -2.225
REMARK UNBOUND:                -1.322
REMARK SMILES CC(=O)CCC=C(C)CCC=C(C)CCC=C(C)C
REMARK SMILES IDX 10 1 11 2 12 3 13 4 14 5 15 6 16 7 18 8 17 9 19 10 9 11 7 12
REMARK SMILES IDX 6 13 8 14 5 15 4 16 2 17 3 18 1 19
REMARK H PARENT
REMARK Flexibility Score: inf
ROOT
ATOM      1  C   UNL     1     -11.697  -4.608   4.220  1.00  0.00     0.032 C 
ENDROOT
BRANCH   1   2
ATOM      2  C   UNL     1     -12.180  -3.549   5.178  1.00  0.00    -0.028 C 
ATOM      3  C   UNL     1     -13.195  -2.692   4.924  1.00  0.00    -0.077 C 
ATOM      4  C   UNL     1     -13.990  -2.754   3.640  1.00  0.00     0.039 C 
BRANCH   3   5
ATOM      5  C   UNL     1     -13.548  -1.647   5.960  1.00  0.00     0.034 C 
BRANCH   5   6
ATOM      6  C   UNL     1     -13.069  -0.259   5.521  1.00  0.00     0.032 C 
BRANCH   6   7
ATOM      7  C   UNL     1     -11.676   0.013   6.030  1.00  0.00    -0.028 C 
ATOM      8  C   UNL     1      -9.243   0.332   5.898  1.00  0.00     0.039 C 
ATOM      9  C   UNL     1     -10.566   0.003   5.258  1.00  0.00    -0.080 C 
ATOM     10  C   UNL     1     -10.618  -0.342   3.787  1.00  0.00     0.039 C 
ENDBRANCH   6   7
ENDBRANCH   5   6
ENDBRANCH   3   5
ENDBRANCH   1   2
BRANCH   1  11
ATOM     11  C   UNL     1     -11.709  -5.988   4.885  1.00  0.00     0.034 C 
BRANCH  11  12
ATOM     12  C   UNL     1     -13.121  -6.405   5.232  1.00  0.00    -0.077 C 
ATOM     13  C   UNL     1     -13.414  -6.733   6.511  1.00  0.00    -0.028 C 
ATOM     14  C   UNL     1     -14.161  -6.458   4.137  1.00  0.00     0.039 C 
BRANCH  13  15
ATOM     15  C   UNL     1     -14.787  -7.119   7.000  1.00  0.00     0.035 C 
BRANCH  15  16
ATOM     16  C   UNL     1     -15.182  -6.282   8.220  1.00  0.00     0.079 C 
BRANCH  16  17
ATOM     17  C   UNL     1     -15.153  -4.813   7.890  1.00  0.00     0.130 C 
ATOM     18  O   UNL     1     -14.385  -4.077   8.492  1.00  0.00    -0.300 OA
ATOM     19  C   UNL     1     -16.058  -4.227   6.846  1.00  0.00     0.087 C 
ENDBRANCH  16  17
ENDBRANCH  15  16
ENDBRANCH  13  15
ENDBRANCH  11  12
ENDBRANCH   1  11
TORSDOF 9
ENDMDL
MODEL 9
REMARK VINA RESULT:    -4.874      6.711     11.513
REMARK INTER + INTRA:          -8.760
REMARK INTER:                  -7.322
REMARK INTRA:                  -1.438
REMARK UNBOUND:                -1.322
REMARK SMILES CC(=O)CCC=C(C)CCC=C(C)CCC=C(C)C
REMARK SMILES IDX 10 1 11 2 12 3 13 4 14 5 15 6 16 7 18 8 17 9 19 10 9 11 7 12
REMARK SMILES IDX 6 13 8 14 5 15 4 16 2 17 3 18 1 19
REMARK H PARENT
REMARK Flexibility Score: inf
ROOT
ATOM      1  C   UNL     1     -14.158   0.321   3.495  1.00  0.00     0.032 C 
ENDROOT
BRANCH   1   2
ATOM      2  C   UNL     1     -12.678   0.033   3.488  1.00  0.00    -0.028 C 
ATOM      3  C   UNL     1     -11.940  -0.207   4.595  1.00  0.00    -0.077 C 
ATOM      4  C   UNL     1     -12.559  -0.259   5.972  1.00  0.00     0.039 C 
BRANCH   3   5
ATOM      5  C   UNL     1     -10.451  -0.439   4.446  1.00  0.00     0.034 C 
BRANCH   5   6
ATOM      6  C   UNL     1      -9.794  -0.658   5.813  1.00  0.00     0.032 C 
BRANCH   6   7
ATOM      7  C   UNL     1      -8.585   0.230   5.975  1.00  0.00    -0.028 C 
ATOM      8  C   UNL     1      -7.303   2.189   6.719  1.00  0.00     0.039 C 
ATOM      9  C   UNL     1      -8.598   1.429   6.598  1.00  0.00    -0.080 C 
ATOM     10  C   UNL     1      -9.869   2.028   7.155  1.00  0.00     0.039 C 
ENDBRANCH   6   7
ENDBRANCH   5   6
ENDBRANCH   3   5
ENDBRANCH   1   2
BRANCH   1  11
ATOM     11  C   UNL     1     -14.934  -0.804   2.801  1.00  0.00     0.034 C 
BRANCH  11  12
ATOM     12  C   UNL     1     -15.615  -1.693   3.818  1.00  0.00    -0.077 C 
ATOM     13  C   UNL     1     -14.884  -2.627   4.469  1.00  0.00    -0.028 C 
ATOM     14  C   UNL     1     -17.096  -1.525   4.065  1.00  0.00     0.039 C 
BRANCH  13  15
ATOM     15  C   UNL     1     -15.425  -3.543   5.536  1.00  0.00     0.035 C 
BRANCH  15  16
ATOM     16  C   UNL     1     -14.983  -3.077   6.925  1.00  0.00     0.079 C 
BRANCH  16  17
ATOM     17  C   UNL     1     -15.148  -4.182   7.936  1.00  0.00     0.130 C 
ATOM     18  O   UNL     1     -14.218  -4.461   8.678  1.00  0.00    -0.300 OA
ATOM     19  C   UNL     1     -16.427  -4.958   8.044  1.00  0.00     0.087 C 
ENDBRANCH  16  17
ENDBRANCH  15  16
ENDBRANCH  13  15
ENDBRANCH  11  12
ENDBRANCH   1  11
TORSDOF 9
ENDMDL
