MODEL 1
REMARK VINA RESULT:    -4.427      0.000      0.000
REMARK INTER + INTRA:          -4.427
REMARK INTER:                  -4.427
REMARK INTRA:                   0.000
REMARK UNBOUND:                 0.000
REMARK SMILES CC1=CC(=O)[C@H]2C[C@@H]1C2(C)C
REMARK SMILES IDX 1 1 2 2 3 3 4 4 5 5 6 6 7 7 8 8 9 9 10 10 11 11
REMARK H PARENT
REMARK Flexibility Score: inf
ROOT
ATOM      1  C   UNL     1      13.614  65.755 -26.395  1.00  0.00     0.040 C 
ATOM      2  C   UNL     1      13.492  66.426 -27.727  1.00  0.00    -0.066 C 
ATOM      3  C   UNL     1      13.148  65.728 -28.843  1.00  0.00     0.047 C 
ATOM      4  C   UNL     1      13.089  66.508 -30.122  1.00  0.00     0.159 C 
ATOM      5  O   UNL     1      12.821  65.968 -31.227  1.00  0.00    -0.295 OA
ATOM      6  C   UNL     1      13.379  68.003 -29.990  1.00  0.00     0.067 C 
ATOM      7  C   UNL     1      12.551  68.441 -28.761  1.00  0.00     0.021 C 
ATOM      8  C   UNL     1      13.731  67.942 -27.897  1.00  0.00     0.022 C 
ATOM      9  C   UNL     1      14.658  68.185 -29.124  1.00  0.00    -0.019 C 
ATOM     10  C   UNL     1      15.848  67.210 -29.351  1.00  0.00     0.012 C 
ATOM     11  C   UNL     1      15.202  69.635 -29.173  1.00  0.00     0.012 C 
ENDROOT
TORSDOF 0
ENDMDL
MODEL 2
REMARK VINA RESULT:    -4.396      1.844      3.198
REMARK INTER + INTRA:          -4.396
REMARK INTER:                  -4.396
REMARK INTRA:                   0.000
REMARK UNBOUND:                 0.000
REMARK SMILES CC1=CC(=O)[C@H]2C[C@@H]1C2(C)C
REMARK SMILES IDX 1 1 2 2 3 3 4 4 5 5 6 6 7 7 8 8 9 9 10 10 11 11
REMARK H PARENT
REMARK Flexibility Score: inf
ROOT
ATOM      1  C   UNL     1      11.917  65.278 -31.644  1.00  0.00     0.040 C 
ATOM      2  C   UNL     1      12.536  65.632 -30.328  1.00  0.00    -0.066 C 
ATOM      3  C   UNL     1      11.770  65.916 -29.239  1.00  0.00     0.047 C 
ATOM      4  C   UNL     1      12.507  66.286 -27.987  1.00  0.00     0.159 C 
ATOM      5  O   UNL     1      11.912  66.606 -26.926  1.00  0.00    -0.295 OA
ATOM      6  C   UNL     1      14.033  66.246 -28.091  1.00  0.00     0.067 C 
ATOM      7  C   UNL     1      14.328  64.913 -28.815  1.00  0.00     0.021 C 
ATOM      8  C   UNL     1      14.067  65.673 -30.135  1.00  0.00     0.022 C 
ATOM      9  C   UNL     1      14.460  66.984 -29.392  1.00  0.00    -0.019 C 
ATOM     10  C   UNL     1      13.718  68.296 -29.774  1.00  0.00     0.012 C 
ATOM     11  C   UNL     1      15.984  67.256 -29.443  1.00  0.00     0.012 C 
ENDROOT
TORSDOF 0
ENDMDL
MODEL 3
REMARK VINA RESULT:    -4.393      1.734      3.274
REMARK INTER + INTRA:          -4.393
REMARK INTER:                  -4.393
REMARK INTRA:                   0.000
REMARK UNBOUND:                 0.000
REMARK SMILES CC1=CC(=O)[C@H]2C[C@@H]1C2(C)C
REMARK SMILES IDX 1 1 2 2 3 3 4 4 5 5 6 6 7 7 8 8 9 9 10 10 11 11
REMARK H PARENT
REMARK Flexibility Score: inf
ROOT
ATOM      1  C   UNL     1      15.250  69.715 -29.357  1.00  0.00     0.040 C 
ATOM      2  C   UNL     1      14.404  68.554 -28.937  1.00  0.00    -0.066 C 
ATOM      3  C   UNL     1      14.561  67.967 -27.719  1.00  0.00     0.047 C 
ATOM      4  C   UNL     1      13.674  66.793 -27.429  1.00  0.00     0.159 C 
ATOM      5  O   UNL     1      13.750  66.143 -26.355  1.00  0.00    -0.295 OA
ATOM      6  C   UNL     1      12.673  66.443 -28.531  1.00  0.00     0.067 C 
ATOM      7  C   UNL     1      12.069  67.805 -28.940  1.00  0.00     0.021 C 
ATOM      8  C   UNL     1      13.303  67.979 -29.853  1.00  0.00     0.022 C 
ATOM      9  C   UNL     1      13.421  66.427 -29.894  1.00  0.00    -0.019 C 
ATOM     10  C   UNL     1      14.843  65.800 -29.949  1.00  0.00     0.012 C 
ATOM     11  C   UNL     1      12.571  65.801 -31.027  1.00  0.00     0.012 C 
ENDROOT
TORSDOF 0
ENDMDL
MODEL 4
REMARK VINA RESULT:    -4.090      1.689      2.979
REMARK INTER + INTRA:          -4.090
REMARK INTER:                  -4.090
REMARK INTRA:                   0.000
REMARK UNBOUND:                 0.000
REMARK SMILES CC1=CC(=O)[C@H]2C[C@@H]1C2(C)C
REMARK SMILES IDX 1 1 2 2 3 3 4 4 5 5 6 6 7 7 8 8 9 9 10 10 11 11
REMARK H PARENT
REMARK Flexibility Score: inf
ROOT
ATOM      1  C   UNL     1      12.332  65.232 -30.975  1.00  0.00     0.040 C 
ATOM      2  C   UNL     1      13.155  66.185 -30.166  1.00  0.00    -0.066 C 
ATOM      3  C   UNL     1      14.510  66.069 -30.097  1.00  0.00     0.047 C 
ATOM      4  C   UNL     1      15.218  67.065 -29.230  1.00  0.00     0.159 C 
ATOM      5  O   UNL     1      16.463  67.039 -29.054  1.00  0.00    -0.295 OA
ATOM      6  C   UNL     1      14.320  68.114 -28.572  1.00  0.00     0.067 C 
ATOM      7  C   UNL     1      13.389  68.583 -29.713  1.00  0.00     0.021 C 
ATOM      8  C   UNL     1      12.514  67.353 -29.387  1.00  0.00     0.022 C 
ATOM      9  C   UNL     1      13.094  67.393 -27.943  1.00  0.00    -0.019 C 
ATOM     10  C   UNL     1      13.329  66.043 -27.208  1.00  0.00     0.012 C 
ATOM     11  C   UNL     1      12.281  68.321 -27.007  1.00  0.00     0.012 C 
ENDROOT
TORSDOF 0
ENDMDL
MODEL 5
REMARK VINA RESULT:    -4.036     16.085     17.653
REMARK INTER + INTRA:          -4.036
REMARK INTER:                  -4.036
REMARK INTRA:                   0.000
REMARK UNBOUND:                 0.000
REMARK SMILES CC1=CC(=O)[C@H]2C[C@@H]1C2(C)C
REMARK SMILES IDX 1 1 2 2 3 3 4 4 5 5 6 6 7 7 8 8 9 9 10 10 11 11
REMARK H PARENT
REMARK Flexibility Score: inf
ROOT
ATOM      1  C   UNL     1      -0.204  79.569 -32.080  1.00  0.00     0.040 C 
ATOM      2  C   UNL     1       0.691  79.635 -30.883  1.00  0.00    -0.066 C 
ATOM      3  C   UNL     1       2.043  79.737 -31.013  1.00  0.00     0.047 C 
ATOM      4  C   UNL     1       2.832  79.764 -29.739  1.00  0.00     0.159 C 
ATOM      5  O   UNL     1       4.089  79.817 -29.728  1.00  0.00    -0.295 OA
ATOM      6  C   UNL     1       2.003  79.721 -28.455  1.00  0.00     0.067 C 
ATOM      7  C   UNL     1       0.870  80.743 -28.702  1.00  0.00     0.021 C 
ATOM      8  C   UNL     1       0.129  79.609 -29.446  1.00  0.00     0.022 C 
ATOM      9  C   UNL     1       0.940  78.593 -28.590  1.00  0.00    -0.019 C 
ATOM     10  C   UNL     1       1.366  77.251 -29.250  1.00  0.00     0.012 C 
ATOM     11  C   UNL     1       0.247  78.272 -27.242  1.00  0.00     0.012 C 
ENDROOT
TORSDOF 0
ENDMDL
MODEL 6
REMARK VINA RESULT:    -4.033     16.521     18.151
REMARK INTER + INTRA:          -4.033
REMARK INTER:                  -4.033
REMARK INTRA:                   0.000
REMARK UNBOUND:                 0.000
REMARK SMILES CC1=CC(=O)[C@H]2C[C@@H]1C2(C)C
REMARK SMILES IDX 1 1 2 2 3 3 4 4 5 5 6 6 7 7 8 8 9 9 10 10 11 11
REMARK H PARENT
REMARK Flexibility Score: inf
ROOT
ATOM      1  C   UNL     1       2.534  81.871 -27.945  1.00  0.00     0.040 C 
ATOM      2  C   UNL     1       1.738  81.002 -28.867  1.00  0.00    -0.066 C 
ATOM      3  C   UNL     1       0.495  81.364 -29.285  1.00  0.00     0.047 C 
ATOM      4  C   UNL     1      -0.213  80.394 -30.183  1.00  0.00     0.159 C 
ATOM      5  O   UNL     1      -1.381  80.598 -30.604  1.00  0.00    -0.295 OA
ATOM      6  C   UNL     1       0.584  79.141 -30.548  1.00  0.00     0.067 C 
ATOM      7  C   UNL     1       1.985  79.678 -30.917  1.00  0.00     0.021 C 
ATOM      8  C   UNL     1       2.293  79.665 -29.403  1.00  0.00     0.022 C 
ATOM      9  C   UNL     1       1.210  78.556 -29.250  1.00  0.00    -0.019 C 
ATOM     10  C   UNL     1       0.349  78.544 -27.955  1.00  0.00     0.012 C 
ATOM     11  C   UNL     1       1.788  77.135 -29.462  1.00  0.00     0.012 C 
ENDROOT
TORSDOF 0
ENDMDL
MODEL 7
REMARK VINA RESULT:    -3.937      0.870      3.135
REMARK INTER + INTRA:          -3.937
REMARK INTER:                  -3.937
REMARK INTRA:                   0.000
REMARK UNBOUND:                 0.000
REMARK SMILES CC1=CC(=O)[C@H]2C[C@@H]1C2(C)C
REMARK SMILES IDX 1 1 2 2 3 3 4 4 5 5 6 6 7 7 8 8 9 9 10 10 11 11
REMARK H PARENT
REMARK Flexibility Score: inf
ROOT
ATOM      1  C   UNL     1      14.886  69.725 -29.133  1.00  0.00     0.040 C 
ATOM      2  C   UNL     1      14.388  68.314 -29.189  1.00  0.00    -0.066 C 
ATOM      3  C   UNL     1      13.475  67.921 -30.119  1.00  0.00     0.047 C 
ATOM      4  C   UNL     1      13.033  66.490 -30.052  1.00  0.00     0.159 C 
ATOM      5  O   UNL     1      12.167  66.018 -30.832  1.00  0.00    -0.295 OA
ATOM      6  C   UNL     1      13.708  65.648 -28.969  1.00  0.00     0.067 C 
ATOM      7  C   UNL     1      15.206  66.004 -29.091  1.00  0.00     0.021 C 
ATOM      8  C   UNL     1      14.896  67.234 -28.209  1.00  0.00     0.022 C 
ATOM      9  C   UNL     1      13.684  66.445 -27.634  1.00  0.00    -0.019 C 
ATOM     10  C   UNL     1      12.396  67.238 -27.271  1.00  0.00     0.012 C 
ATOM     11  C   UNL     1      14.074  65.570 -26.417  1.00  0.00     0.012 C 
ENDROOT
TORSDOF 0
ENDMDL
MODEL 8
REMARK VINA RESULT:    -3.893      9.258     10.961
REMARK INTER + INTRA:          -3.893
REMARK INTER:                  -3.893
REMARK INTRA:                   0.000
REMARK UNBOUND:                 0.000
REMARK SMILES CC1=CC(=O)[C@H]2C[C@@H]1C2(C)C
REMARK SMILES IDX 1 1 2 2 3 3 4 4 5 5 6 6 7 7 8 8 9 9 10 10 11 11
REMARK H PARENT
REMARK Flexibility Score: inf
ROOT
ATOM      1  C   UNL     1      14.380  79.735 -26.007  1.00  0.00     0.040 C 
ATOM      2  C   UNL     1      14.170  78.287 -25.693  1.00  0.00    -0.066 C 
ATOM      3  C   UNL     1      13.721  77.415 -26.637  1.00  0.00     0.047 C 
ATOM      4  C   UNL     1      13.523  75.998 -26.191  1.00  0.00     0.159 C 
ATOM      5  O   UNL     1      13.076  75.108 -26.959  1.00  0.00    -0.295 OA
ATOM      6  C   UNL     1      13.900  75.711 -24.737  1.00  0.00     0.067 C 
ATOM      7  C   UNL     1      15.266  76.411 -24.556  1.00  0.00     0.021 C 
ATOM      8  C   UNL     1      14.469  77.708 -24.293  1.00  0.00     0.022 C 
ATOM      9  C   UNL     1      13.278  76.817 -23.836  1.00  0.00    -0.019 C 
ATOM     10  C   UNL     1      11.834  77.300 -24.153  1.00  0.00     0.012 C 
ATOM     11  C   UNL     1      13.351  76.461 -22.330  1.00  0.00     0.012 C 
ENDROOT
TORSDOF 0
ENDMDL
MODEL 9
REMARK VINA RESULT:    -3.864     15.987     17.501
REMARK INTER + INTRA:          -3.864
REMARK INTER:                  -3.864
REMARK INTRA:                   0.000
REMARK UNBOUND:                 0.000
REMARK SMILES CC1=CC(=O)[C@H]2C[C@@H]1C2(C)C
REMARK SMILES IDX 1 1 2 2 3 3 4 4 5 5 6 6 7 7 8 8 9 9 10 10 11 11
REMARK H PARENT
REMARK Flexibility Score: inf
ROOT
ATOM      1  C   UNL     1      -0.216  79.839 -31.754  1.00  0.00     0.040 C 
ATOM      2  C   UNL     1       0.637  79.508 -30.570  1.00  0.00    -0.066 C 
ATOM      3  C   UNL     1       0.087  79.253 -29.350  1.00  0.00     0.047 C 
ATOM      4  C   UNL     1       1.048  78.964 -28.237  1.00  0.00     0.159 C 
ATOM      5  O   UNL     1       0.666  78.751 -27.057  1.00  0.00    -0.295 OA
ATOM      6  C   UNL     1       2.525  78.948 -28.635  1.00  0.00     0.067 C 
ATOM      7  C   UNL     1       2.556  78.118 -29.938  1.00  0.00     0.021 C 
ATOM      8  C   UNL     1       2.174  79.421 -30.674  1.00  0.00     0.022 C 
ATOM      9  C   UNL     1       2.819  80.209 -29.497  1.00  0.00    -0.019 C 
ATOM     10  C   UNL     1       2.173  81.559 -29.074  1.00  0.00     0.012 C 
ATOM     11  C   UNL     1       4.337  80.441 -29.703  1.00  0.00     0.012 C 
ENDROOT
TORSDOF 0
ENDMDL
