MODEL 1
REMARK VINA RESULT:    -4.084      0.000      0.000
REMARK INTER + INTRA:          -9.006
REMARK INTER:                  -7.188
REMARK INTRA:                  -1.818
REMARK UNBOUND:                -1.818
REMARK SMILES CCCCCCCCCCCCCCC(=O)[O-]
REMARK SMILES IDX 9 1 10 2 11 3 12 4 13 5 14 6 15 7 16 8 17 9 8 10 7 11 6 12
REMARK SMILES IDX 5 13 4 14 3 15 2 16 1 17
REMARK H PARENT
REMARK Flexibility Score: inf
ROOT
ATOM      1  C   UNL     1     173.564 171.118 150.120  1.00  0.00     0.000 C 
ENDROOT
BRANCH   1   2
ATOM      2  C   UNL     1     175.040 170.831 150.443  1.00  0.00     0.000 C 
BRANCH   2   3
ATOM      3  C   UNL     1     175.449 169.388 150.101  1.00  0.00     0.000 C 
BRANCH   3   4
ATOM      4  C   UNL     1     174.325 168.375 150.381  1.00  0.00     0.000 C 
BRANCH   4   5
ATOM      5  C   UNL     1     174.186 167.318 149.270  1.00  0.00     0.006 C 
BRANCH   5   6
ATOM      6  C   UNL     1     172.976 167.522 148.346  1.00  0.00     0.053 C 
BRANCH   6   7
ATOM      7  C   UNL     1     171.681 167.466 149.098  1.00  0.00     0.041 C 
ATOM      8  O   UNL     1     171.193 166.357 149.439  1.00  0.00    -0.550 OA
ATOM      9  O   UNL     1     171.029 168.642 149.448  1.00  0.00    -0.550 OA
ENDBRANCH   6   7
ENDBRANCH   5   6
ENDBRANCH   4   5
ENDBRANCH   3   4
ENDBRANCH   2   3
ENDBRANCH   1   2
BRANCH   1  10
ATOM     10  C   UNL     1     173.240 172.620 150.131  1.00  0.00     0.000 C 
BRANCH  10  11
ATOM     11  C   UNL     1     174.432 173.488 149.689  1.00  0.00    -0.000 C 
BRANCH  11  12
ATOM     12  C   UNL     1     175.001 174.338 150.836  1.00  0.00    -0.000 C 
BRANCH  12  13
ATOM     13  C   UNL     1     174.273 174.096 152.167  1.00  0.00    -0.000 C 
BRANCH  13  14
ATOM     14  C   UNL     1     175.272 173.824 153.298  1.00  0.00    -0.000 C 
BRANCH  14  15
ATOM     15  C   UNL     1     175.088 172.413 153.869  1.00  0.00    -0.000 C 
BRANCH  15  16
ATOM     16  C   UNL     1     173.614 171.994 153.836  1.00  0.00    -0.003 C 
ATOM     17  C   UNL     1     173.473 170.475 153.817  1.00  0.00     0.004 C 
ENDBRANCH  15  16
ENDBRANCH  14  15
ENDBRANCH  13  14
ENDBRANCH  12  13
ENDBRANCH  11  12
ENDBRANCH  10  11
ENDBRANCH   1  10
TORSDOF 13
ENDMDL
MODEL 2
REMARK VINA RESULT:    -3.921      3.078      6.528
REMARK INTER + INTRA:          -8.720
REMARK INTER:                  -6.618
REMARK INTRA:                  -2.101
REMARK UNBOUND:                -1.818
REMARK SMILES CCCCCCCCCCCCCCC(=O)[O-]
REMARK SMILES IDX 9 1 10 2 11 3 12 4 13 5 14 6 15 7 16 8 17 9 8 10 7 11 6 12
REMARK SMILES IDX 5 13 4 14 3 15 2 16 1 17
REMARK H PARENT
REMARK Flexibility Score: inf
ROOT
ATOM      1  C   UNL     1     175.281 169.795 151.518  1.00  0.00     0.000 C 
ENDROOT
BRANCH   1   2
ATOM      2  C   UNL     1     175.312 170.625 150.223  1.00  0.00     0.000 C 
BRANCH   2   3
ATOM      3  C   UNL     1     174.177 171.662 150.161  1.00  0.00     0.000 C 
BRANCH   3   4
ATOM      4  C   UNL     1     174.662 173.086 150.490  1.00  0.00     0.000 C 
BRANCH   4   5
ATOM      5  C   UNL     1     173.633 173.890 151.306  1.00  0.00     0.006 C 
BRANCH   5   6
ATOM      6  C   UNL     1     173.596 173.542 152.802  1.00  0.00     0.053 C 
BRANCH   6   7
ATOM      7  C   UNL     1     174.948 173.652 153.437  1.00  0.00     0.041 C 
ATOM      8  O   UNL     1     175.440 174.783 153.691  1.00  0.00    -0.550 OA
ATOM      9  O   UNL     1     175.653 172.504 153.776  1.00  0.00    -0.550 OA
ENDBRANCH   6   7
ENDBRANCH   5   6
ENDBRANCH   4   5
ENDBRANCH   3   4
ENDBRANCH   2   3
ENDBRANCH   1   2
BRANCH   1  10
ATOM     10  C   UNL     1     173.880 169.738 152.148  1.00  0.00     0.000 C 
BRANCH  10  11
ATOM     11  C   UNL     1     173.657 168.464 152.983  1.00  0.00    -0.000 C 
BRANCH  11  12
ATOM     12  C   UNL     1     174.508 167.281 152.495  1.00  0.00    -0.000 C 
BRANCH  12  13
ATOM     13  C   UNL     1     173.754 166.381 151.505  1.00  0.00    -0.000 C 
BRANCH  13  14
ATOM     14  C   UNL     1     174.562 166.183 150.217  1.00  0.00    -0.000 C 
BRANCH  14  15
ATOM     15  C   UNL     1     174.202 167.244 149.171  1.00  0.00    -0.000 C 
BRANCH  15  16
ATOM     16  C   UNL     1     172.683 167.345 148.990  1.00  0.00    -0.003 C 
ATOM     17  C   UNL     1     172.229 168.800 148.940  1.00  0.00     0.004 C 
ENDBRANCH  15  16
ENDBRANCH  14  15
ENDBRANCH  13  14
ENDBRANCH  12  13
ENDBRANCH  11  12
ENDBRANCH  10  11
ENDBRANCH   1  10
TORSDOF 13
ENDMDL
MODEL 3
REMARK VINA RESULT:    -3.917      1.329      3.079
REMARK INTER + INTRA:          -8.712
REMARK INTER:                  -6.378
REMARK INTRA:                  -2.334
REMARK UNBOUND:                -1.818
REMARK SMILES CCCCCCCCCCCCCCC(=O)[O-]
REMARK SMILES IDX 9 1 10 2 11 3 12 4 13 5 14 6 15 7 16 8 17 9 8 10 7 11 6 12
REMARK SMILES IDX 5 13 4 14 3 15 2 16 1 17
REMARK H PARENT
REMARK Flexibility Score: inf
ROOT
ATOM      1  C   UNL     1     173.345 172.111 153.878  1.00  0.00     0.000 C 
ENDROOT
BRANCH   1   2
ATOM      2  C   UNL     1     174.379 171.022 153.543  1.00  0.00     0.000 C 
BRANCH   2   3
ATOM      3  C   UNL     1     173.954 170.154 152.346  1.00  0.00     0.000 C 
BRANCH   3   4
ATOM      4  C   UNL     1     175.115 169.882 151.373  1.00  0.00     0.000 C 
BRANCH   4   5
ATOM      5  C   UNL     1     174.637 169.631 149.932  1.00  0.00     0.006 C 
BRANCH   5   6
ATOM      6  C   UNL     1     174.136 168.202 149.668  1.00  0.00     0.053 C 
BRANCH   6   7
ATOM      7  C   UNL     1     172.707 168.183 149.221  1.00  0.00     0.041 C 
ATOM      8  O   UNL     1     172.096 167.089 149.094  1.00  0.00    -0.550 OA
ATOM      9  O   UNL     1     172.039 169.376 148.975  1.00  0.00    -0.550 OA
ENDBRANCH   6   7
ENDBRANCH   5   6
ENDBRANCH   4   5
ENDBRANCH   3   4
ENDBRANCH   2   3
ENDBRANCH   1   2
BRANCH   1  10
ATOM     10  C   UNL     1     173.944 173.526 153.831  1.00  0.00     0.000 C 
BRANCH  10  11
ATOM     11  C   UNL     1     175.278 173.580 153.064  1.00  0.00    -0.000 C 
BRANCH  11  12
ATOM     12  C   UNL     1     175.162 174.336 151.731  1.00  0.00    -0.000 C 
BRANCH  12  13
ATOM     13  C   UNL     1     174.878 173.401 150.545  1.00  0.00    -0.000 C 
BRANCH  13  14
ATOM     14  C   UNL     1     173.538 173.745 149.884  1.00  0.00    -0.000 C 
BRANCH  14  15
ATOM     15  C   UNL     1     172.504 172.638 150.126  1.00  0.00    -0.000 C 
BRANCH  15  16
ATOM     16  C   UNL     1     171.349 173.146 150.998  1.00  0.00    -0.003 C 
ATOM     17  C   UNL     1     171.438 174.654 151.206  1.00  0.00     0.004 C 
ENDBRANCH  15  16
ENDBRANCH  14  15
ENDBRANCH  13  14
ENDBRANCH  12  13
ENDBRANCH  11  12
ENDBRANCH  10  11
ENDBRANCH   1  10
TORSDOF 13
ENDMDL
MODEL 4
REMARK VINA RESULT:    -3.903      3.360      4.458
REMARK INTER + INTRA:          -8.688
REMARK INTER:                  -6.683
REMARK INTRA:                  -2.005
REMARK UNBOUND:                -1.818
REMARK SMILES CCCCCCCCCCCCCCC(=O)[O-]
REMARK SMILES IDX 9 1 10 2 11 3 12 4 13 5 14 6 15 7 16 8 17 9 8 10 7 11 6 12
REMARK SMILES IDX 5 13 4 14 3 15 2 16 1 17
REMARK H PARENT
REMARK Flexibility Score: inf
ROOT
ATOM      1  C   UNL     1     174.384 173.105 149.749  1.00  0.00     0.000 C 
ENDROOT
BRANCH   1   2
ATOM      2  C   UNL     1     174.691 171.668 150.203  1.00  0.00     0.000 C 
BRANCH   2   3
ATOM      3  C   UNL     1     173.428 170.906 150.642  1.00  0.00     0.000 C 
BRANCH   3   4
ATOM      4  C   UNL     1     172.132 171.636 150.244  1.00  0.00     0.000 C 
BRANCH   4   5
ATOM      5  C   UNL     1     171.343 172.151 151.462  1.00  0.00     0.006 C 
BRANCH   5   6
ATOM      6  C   UNL     1     170.026 172.861 151.111  1.00  0.00     0.053 C 
BRANCH   6   7
ATOM      7  C   UNL     1     169.987 174.262 151.640  1.00  0.00     0.041 C 
ATOM      8  O   UNL     1     170.902 175.076 151.348  1.00  0.00    -0.550 OA
ATOM      9  O   UNL     1     168.923 174.678 152.430  1.00  0.00    -0.550 OA
ENDBRANCH   6   7
ENDBRANCH   5   6
ENDBRANCH   4   5
ENDBRANCH   3   4
ENDBRANCH   2   3
ENDBRANCH   1   2
BRANCH   1  10
ATOM     10  C   UNL     1     175.063 174.160 150.637  1.00  0.00     0.000 C 
BRANCH  10  11
ATOM     11  C   UNL     1     174.418 174.268 152.030  1.00  0.00    -0.000 C 
BRANCH  11  12
ATOM     12  C   UNL     1     175.446 174.156 153.167  1.00  0.00    -0.000 C 
BRANCH  12  13
ATOM     13  C   UNL     1     175.298 172.854 153.969  1.00  0.00    -0.000 C 
BRANCH  13  14
ATOM     14  C   UNL     1     173.820 172.498 154.172  1.00  0.00    -0.000 C 
BRANCH  14  15
ATOM     15  C   UNL     1     173.636 170.985 154.341  1.00  0.00    -0.000 C 
BRANCH  15  16
ATOM     16  C   UNL     1     174.900 170.226 153.920  1.00  0.00    -0.003 C 
ATOM     17  C   UNL     1     175.419 169.348 155.055  1.00  0.00     0.004 C 
ENDBRANCH  15  16
ENDBRANCH  14  15
ENDBRANCH  13  14
ENDBRANCH  12  13
ENDBRANCH  11  12
ENDBRANCH  10  11
ENDBRANCH   1  10
TORSDOF 13
ENDMDL
MODEL 5
REMARK VINA RESULT:    -3.901      2.047      2.847
REMARK INTER + INTRA:          -8.685
REMARK INTER:                  -6.486
REMARK INTRA:                  -2.199
REMARK UNBOUND:                -1.818
REMARK SMILES CCCCCCCCCCCCCCC(=O)[O-]
REMARK SMILES IDX 9 1 10 2 11 3 12 4 13 5 14 6 15 7 16 8 17 9 8 10 7 11 6 12
REMARK SMILES IDX 5 13 4 14 3 15 2 16 1 17
REMARK H PARENT
REMARK Flexibility Score: inf
ROOT
ATOM      1  C   UNL     1     173.287 172.959 149.798  1.00  0.00     0.000 C 
ENDROOT
BRANCH   1   2
ATOM      2  C   UNL     1     172.440 171.698 150.041  1.00  0.00     0.000 C 
BRANCH   2   3
ATOM      3  C   UNL     1     173.300 170.435 150.217  1.00  0.00     0.000 C 
BRANCH   3   4
ATOM      4  C   UNL     1     174.808 170.744 150.210  1.00  0.00     0.000 C 
BRANCH   4   5
ATOM      5  C   UNL     1     175.635 169.684 150.961  1.00  0.00     0.006 C 
BRANCH   5   6
ATOM      6  C   UNL     1     174.879 168.972 152.093  1.00  0.00     0.053 C 
BRANCH   6   7
ATOM      7  C   UNL     1     174.778 167.496 151.858  1.00  0.00     0.041 C 
ATOM      8  O   UNL     1     174.344 167.055 150.762  1.00  0.00    -0.550 OA
ATOM      9  O   UNL     1     175.195 166.606 152.840  1.00  0.00    -0.550 OA
ENDBRANCH   6   7
ENDBRANCH   5   6
ENDBRANCH   4   5
ENDBRANCH   3   4
ENDBRANCH   2   3
ENDBRANCH   1   2
BRANCH   1  10
ATOM     10  C   UNL     1     172.752 174.183 150.559  1.00  0.00     0.000 C 
BRANCH  10  11
ATOM     11  C   UNL     1     173.347 174.308 151.974  1.00  0.00    -0.000 C 
BRANCH  11  12
ATOM     12  C   UNL     1     174.878 174.171 151.985  1.00  0.00    -0.000 C 
BRANCH  12  13
ATOM     13  C   UNL     1     175.419 173.714 153.349  1.00  0.00    -0.000 C 
BRANCH  13  14
ATOM     14  C   UNL     1     175.003 172.269 153.648  1.00  0.00    -0.000 C 
BRANCH  14  15
ATOM     15  C   UNL     1     174.367 172.155 155.038  1.00  0.00    -0.000 C 
BRANCH  15  16
ATOM     16  C   UNL     1     172.837 172.111 154.941  1.00  0.00    -0.003 C 
ATOM     17  C   UNL     1     172.384 171.211 153.796  1.00  0.00     0.004 C 
ENDBRANCH  15  16
ENDBRANCH  14  15
ENDBRANCH  13  14
ENDBRANCH  12  13
ENDBRANCH  11  12
ENDBRANCH  10  11
ENDBRANCH   1  10
TORSDOF 13
ENDMDL
MODEL 6
REMARK VINA RESULT:    -3.859      2.531      3.455
REMARK INTER + INTRA:          -8.610
REMARK INTER:                  -6.752
REMARK INTRA:                  -1.858
REMARK UNBOUND:                -1.818
REMARK SMILES CCCCCCCCCCCCCCC(=O)[O-]
REMARK SMILES IDX 9 1 10 2 11 3 12 4 13 5 14 6 15 7 16 8 17 9 8 10 7 11 6 12
REMARK SMILES IDX 5 13 4 14 3 15 2 16 1 17
REMARK H PARENT
REMARK Flexibility Score: inf
ROOT
ATOM      1  C   UNL     1     171.534 171.076 151.973  1.00  0.00     0.000 C 
ENDROOT
BRANCH   1   2
ATOM      2  C   UNL     1     171.297 170.627 150.521  1.00  0.00     0.000 C 
BRANCH   2   3
ATOM      3  C   UNL     1     172.607 170.299 149.785  1.00  0.00     0.000 C 
BRANCH   3   4
ATOM      4  C   UNL     1     172.842 168.783 149.649  1.00  0.00     0.000 C 
BRANCH   4   5
ATOM      5  C   UNL     1     174.321 168.393 149.823  1.00  0.00     0.006 C 
BRANCH   5   6
ATOM      6  C   UNL     1     175.144 169.380 150.667  1.00  0.00     0.053 C 
BRANCH   6   7
ATOM      7  C   UNL     1     175.263 168.935 152.092  1.00  0.00     0.041 C 
ATOM      8  O   UNL     1     175.347 167.710 152.370  1.00  0.00    -0.550 OA
ATOM      9  O   UNL     1     175.312 169.876 153.112  1.00  0.00    -0.550 OA
ENDBRANCH   6   7
ENDBRANCH   5   6
ENDBRANCH   4   5
ENDBRANCH   3   4
ENDBRANCH   2   3
ENDBRANCH   1   2
BRANCH   1  10
ATOM     10  C   UNL     1     170.966 172.476 152.257  1.00  0.00     0.000 C 
BRANCH  10  11
ATOM     11  C   UNL     1     171.008 173.395 151.023  1.00  0.00    -0.000 C 
BRANCH  11  12
ATOM     12  C   UNL     1     172.290 174.240 150.959  1.00  0.00    -0.000 C 
BRANCH  12  13
ATOM     13  C   UNL     1     173.274 173.739 149.890  1.00  0.00    -0.000 C 
BRANCH  13  14
ATOM     14  C   UNL     1     174.705 173.692 150.440  1.00  0.00    -0.000 C 
BRANCH  14  15
ATOM     15  C   UNL     1     174.760 172.932 151.770  1.00  0.00    -0.000 C 
BRANCH  15  16
ATOM     16  C   UNL     1     175.378 173.798 152.874  1.00  0.00    -0.003 C 
ATOM     17  C   UNL     1     174.538 173.753 154.146  1.00  0.00     0.004 C 
ENDBRANCH  15  16
ENDBRANCH  14  15
ENDBRANCH  13  14
ENDBRANCH  12  13
ENDBRANCH  11  12
ENDBRANCH  10  11
ENDBRANCH   1  10
TORSDOF 13
ENDMDL
MODEL 7
REMARK VINA RESULT:    -3.853      2.780      5.324
REMARK INTER + INTRA:          -8.600
REMARK INTER:                  -6.396
REMARK INTRA:                  -2.204
REMARK UNBOUND:                -1.818
REMARK SMILES CCCCCCCCCCCCCCC(=O)[O-]
REMARK SMILES IDX 9 1 10 2 11 3 12 4 13 5 14 6 15 7 16 8 17 9 8 10 7 11 6 12
REMARK SMILES IDX 5 13 4 14 3 15 2 16 1 17
REMARK H PARENT
REMARK Flexibility Score: inf
ROOT
ATOM      1  C   UNL     1     174.263 172.927 149.899  1.00  0.00     0.000 C 
ENDROOT
BRANCH   1   2
ATOM      2  C   UNL     1     174.805 174.080 150.761  1.00  0.00     0.000 C 
BRANCH   2   3
ATOM      3  C   UNL     1     174.347 173.986 152.227  1.00  0.00     0.000 C 
BRANCH   3   4
ATOM      4  C   UNL     1     175.530 173.917 153.210  1.00  0.00     0.000 C 
BRANCH   4   5
ATOM      5  C   UNL     1     175.386 172.776 154.234  1.00  0.00     0.006 C 
BRANCH   5   6
ATOM      6  C   UNL     1     174.225 171.811 153.951  1.00  0.00     0.053 C 
BRANCH   6   7
ATOM      7  C   UNL     1     174.590 170.391 154.257  1.00  0.00     0.041 C 
ATOM      8  O   UNL     1     175.798 170.059 154.385  1.00  0.00    -0.550 OA
ATOM      9  O   UNL     1     173.593 169.439 154.431  1.00  0.00    -0.550 OA
ENDBRANCH   6   7
ENDBRANCH   5   6
ENDBRANCH   4   5
ENDBRANCH   3   4
ENDBRANCH   2   3
ENDBRANCH   1   2
BRANCH   1  10
ATOM     10  C   UNL     1     175.015 171.608 150.140  1.00  0.00     0.000 C 
BRANCH  10  11
ATOM     11  C   UNL     1     174.073 170.446 150.503  1.00  0.00    -0.000 C 
BRANCH  11  12
ATOM     12  C   UNL     1     172.595 170.784 150.253  1.00  0.00    -0.000 C 
BRANCH  12  13
ATOM     13  C   UNL     1     171.714 170.525 151.485  1.00  0.00    -0.000 C 
BRANCH  13  14
ATOM     14  C   UNL     1     171.152 171.838 152.044  1.00  0.00    -0.000 C 
BRANCH  14  15
ATOM     15  C   UNL     1     170.886 172.847 150.921  1.00  0.00    -0.000 C 
BRANCH  15  16
ATOM     16  C   UNL     1     170.308 174.152 151.480  1.00  0.00    -0.003 C 
ATOM     17  C   UNL     1     171.251 175.324 151.230  1.00  0.00     0.004 C 
ENDBRANCH  15  16
ENDBRANCH  14  15
ENDBRANCH  13  14
ENDBRANCH  12  13
ENDBRANCH  11  12
ENDBRANCH  10  11
ENDBRANCH   1  10
TORSDOF 13
ENDMDL
MODEL 8
REMARK VINA RESULT:    -3.846      2.483      5.792
REMARK INTER + INTRA:          -8.586
REMARK INTER:                  -7.298
REMARK INTRA:                  -1.289
REMARK UNBOUND:                -1.818
REMARK SMILES CCCCCCCCCCCCCCC(=O)[O-]
REMARK SMILES IDX 9 1 10 2 11 3 12 4 13 5 14 6 15 7 16 8 17 9 8 10 7 11 6 12
REMARK SMILES IDX 5 13 4 14 3 15 2 16 1 17
REMARK H PARENT
REMARK Flexibility Score: inf
ROOT
ATOM      1  C   UNL     1     172.762 173.782 150.580  1.00  0.00     0.000 C 
ENDROOT
BRANCH   1   2
ATOM      2  C   UNL     1     173.253 174.001 152.021  1.00  0.00     0.000 C 
BRANCH   2   3
ATOM      3  C   UNL     1     174.762 174.289 152.093  1.00  0.00     0.000 C 
BRANCH   3   4
ATOM      4  C   UNL     1     175.399 173.770 153.395  1.00  0.00     0.000 C 
BRANCH   4   5
ATOM      5  C   UNL     1     174.584 172.637 154.045  1.00  0.00     0.006 C 
BRANCH   5   6
ATOM      6  C   UNL     1     175.403 171.702 154.949  1.00  0.00     0.053 C 
BRANCH   6   7
ATOM      7  C   UNL     1     175.038 170.264 154.746  1.00  0.00     0.041 C 
ATOM      8  O   UNL     1     174.035 169.775 155.329  1.00  0.00    -0.550 OA
ATOM      9  O   UNL     1     175.789 169.471 153.888  1.00  0.00    -0.550 OA
ENDBRANCH   6   7
ENDBRANCH   5   6
ENDBRANCH   4   5
ENDBRANCH   3   4
ENDBRANCH   2   3
ENDBRANCH   1   2
BRANCH   1  10
ATOM     10  C   UNL     1     173.736 172.931 149.749  1.00  0.00     0.000 C 
BRANCH  10  11
ATOM     11  C   UNL     1     173.713 171.444 150.147  1.00  0.00    -0.000 C 
BRANCH  11  12
ATOM     12  C   UNL     1     175.034 170.983 150.783  1.00  0.00    -0.000 C 
BRANCH  12  13
ATOM     13  C   UNL     1     175.599 169.718 150.117  1.00  0.00    -0.000 C 
BRANCH  13  14
ATOM     14  C   UNL     1     174.691 168.510 150.374  1.00  0.00    -0.000 C 
BRANCH  14  15
ATOM     15  C   UNL     1     174.443 167.722 149.083  1.00  0.00    -0.000 C 
BRANCH  15  16
ATOM     16  C   UNL     1     173.028 167.133 149.060  1.00  0.00    -0.003 C 
ATOM     17  C   UNL     1     172.122 167.908 148.109  1.00  0.00     0.004 C 
ENDBRANCH  15  16
ENDBRANCH  14  15
ENDBRANCH  13  14
ENDBRANCH  12  13
ENDBRANCH  11  12
ENDBRANCH  10  11
ENDBRANCH   1  10
TORSDOF 13
ENDMDL
MODEL 9
REMARK VINA RESULT:    -3.826      1.981      2.316
REMARK INTER + INTRA:          -8.552
REMARK INTER:                  -7.046
REMARK INTRA:                  -1.506
REMARK UNBOUND:                -1.818
REMARK SMILES CCCCCCCCCCCCCCC(=O)[O-]
REMARK SMILES IDX 9 1 10 2 11 3 12 4 13 5 14 6 15 7 16 8 17 9 8 10 7 11 6 12
REMARK SMILES IDX 5 13 4 14 3 15 2 16 1 17
REMARK H PARENT
REMARK Flexibility Score: inf
ROOT
ATOM      1  C   UNL     1     173.537 170.796 150.528  1.00  0.00     0.000 C 
ENDROOT
BRANCH   1   2
ATOM      2  C   UNL     1     175.028 170.439 150.644  1.00  0.00     0.000 C 
BRANCH   2   3
ATOM      3  C   UNL     1     175.422 169.251 149.750  1.00  0.00     0.000 C 
BRANCH   3   4
ATOM      4  C   UNL     1     174.243 168.297 149.486  1.00  0.00     0.000 C 
BRANCH   4   5
ATOM      5  C   UNL     1     174.601 166.822 149.746  1.00  0.00     0.006 C 
BRANCH   5   6
ATOM      6  C   UNL     1     173.875 166.194 150.945  1.00  0.00     0.053 C 
BRANCH   6   7
ATOM      7  C   UNL     1     174.208 166.890 152.229  1.00  0.00     0.041 C 
ATOM      8  O   UNL     1     175.349 166.760 152.745  1.00  0.00    -0.550 OA
ATOM      9  O   UNL     1     173.266 167.709 152.840  1.00  0.00    -0.550 OA
ENDBRANCH   6   7
ENDBRANCH   5   6
ENDBRANCH   4   5
ENDBRANCH   3   4
ENDBRANCH   2   3
ENDBRANCH   1   2
BRANCH   1  10
ATOM     10  C   UNL     1     173.311 172.257 150.109  1.00  0.00     0.000 C 
BRANCH  10  11
ATOM     11  C   UNL     1     174.622 172.982 149.754  1.00  0.00    -0.000 C 
BRANCH  11  12
ATOM     12  C   UNL     1     174.875 174.212 150.640  1.00  0.00    -0.000 C 
BRANCH  12  13
ATOM     13  C   UNL     1     174.314 174.042 152.060  1.00  0.00    -0.000 C 
BRANCH  13  14
ATOM     14  C   UNL     1     175.444 173.852 153.078  1.00  0.00    -0.000 C 
BRANCH  14  15
ATOM     15  C   UNL     1     175.187 172.628 153.966  1.00  0.00    -0.000 C 
BRANCH  15  16
ATOM     16  C   UNL     1     173.855 172.760 154.713  1.00  0.00    -0.003 C 
ATOM     17  C   UNL     1     173.917 173.867 155.760  1.00  0.00     0.004 C 
ENDBRANCH  15  16
ENDBRANCH  14  15
ENDBRANCH  13  14
ENDBRANCH  12  13
ENDBRANCH  11  12
ENDBRANCH  10  11
ENDBRANCH   1  10
TORSDOF 13
ENDMDL
