MODEL 1
REMARK VINA RESULT:    -7.923      0.000      0.000
REMARK INTER + INTRA:          -9.987
REMARK INTER:                  -9.775
REMARK INTRA:                  -0.211
REMARK UNBOUND:                -0.211
REMARK SMILES O=c1c(O)c(-c2cc(O)c(O)c(O)c2)oc2cc(O)cc(O)c12
REMARK SMILES IDX 5 1 3 2 2 3 1 4 23 5 21 6 20 7 18 8 17 9 16 10 15 11 6 12
REMARK SMILES IDX 7 13 8 14 14 15 10 16 12 17 9 18 11 20 13 22 4 24 22 26
REMARK SMILES IDX 19 28
REMARK H PARENT 9 19 11 21 13 23 4 25 22 27 19 29
REMARK Flexibility Score: inf
ROOT
ATOM      1  C   UNL     1     -11.110 -14.993 -34.529  1.00  0.00     0.180 A 
ATOM      2  C   UNL     1      -9.916 -15.087 -35.268  1.00  0.00     0.208 A 
ATOM      3  C   UNL     1      -9.828 -14.427 -36.503  1.00  0.00     0.238 A 
ATOM      4  O   UNL     1      -8.767 -14.513 -37.179  1.00  0.00    -0.285 OA
ATOM      5  C   UNL     1     -10.923 -13.670 -36.968  1.00  0.00     0.111 A 
ATOM      6  C   UNL     1     -10.915 -12.972 -38.200  1.00  0.00     0.134 A 
ATOM      7  C   UNL     1     -12.042 -12.232 -38.589  1.00  0.00     0.093 A 
ATOM      8  C   UNL     1     -13.175 -12.178 -37.772  1.00  0.00     0.123 A 
ATOM      9  C   UNL     1     -13.189 -12.867 -36.555  1.00  0.00     0.094 A 
ATOM     10  C   UNL     1     -12.076 -13.609 -36.150  1.00  0.00     0.146 A 
ATOM     11  O   UNL     1     -12.118 -14.258 -34.992  1.00  0.00    -0.452 OA
ENDROOT
BRANCH   1  12
ATOM     12  C   UNL     1     -11.286 -15.676 -33.227  1.00  0.00     0.029 A 
ATOM     13  C   UNL     1     -10.541 -15.250 -32.119  1.00  0.00     0.062 A 
ATOM     14  C   UNL     1     -10.701 -15.863 -30.873  1.00  0.00     0.162 A 
ATOM     15  C   UNL     1     -12.228 -16.703 -33.061  1.00  0.00     0.062 A 
ATOM     16  C   UNL     1     -11.627 -16.909 -30.712  1.00  0.00     0.200 A 
ATOM     17  C   UNL     1     -12.404 -17.326 -31.820  1.00  0.00     0.162 A 
BRANCH  14  18
ATOM     18  O   UNL     1      -9.925 -15.417 -29.803  1.00  0.00    -0.504 OA
ATOM     19  H   UNL     1      -8.941 -15.202 -29.901  1.00  0.00     0.293 HD
ENDBRANCH  14  18
BRANCH  16  20
ATOM     20  O   UNL     1     -11.749 -17.501 -29.452  1.00  0.00    -0.502 OA
ATOM     21  H   UNL     1     -12.613 -17.868 -29.079  1.00  0.00     0.293 HD
ENDBRANCH  16  20
BRANCH  17  22
ATOM     22  O   UNL     1     -13.359 -18.341 -31.734  1.00  0.00    -0.504 OA
ATOM     23  H   UNL     1     -14.276 -18.224 -31.328  1.00  0.00     0.293 HD
ENDBRANCH  17  22
ENDBRANCH   1  12
BRANCH   2  24
ATOM     24  O   UNL     1      -8.827 -15.802 -34.761  1.00  0.00    -0.502 OA
ATOM     25  H   UNL     1      -8.864 -16.802 -34.597  1.00  0.00     0.293 HD
ENDBRANCH   2  24
BRANCH   6  26
ATOM     26  O   UNL     1      -9.799 -13.006 -39.037  1.00  0.00    -0.507 OA
ATOM     27  H   UNL     1      -9.880 -12.876 -40.039  1.00  0.00     0.293 HD
ENDBRANCH   6  26
BRANCH   8  28
ATOM     28  O   UNL     1     -14.281 -11.437 -38.181  1.00  0.00    -0.508 OA
ATOM     29  H   UNL     1     -14.365 -10.450 -37.969  1.00  0.00     0.293 HD
ENDBRANCH   8  28
TORSDOF 7
ENDMDL
MODEL 2
REMARK VINA RESULT:    -7.880      0.060      1.767
REMARK INTER + INTRA:          -9.934
REMARK INTER:                  -9.734
REMARK INTRA:                  -0.200
REMARK UNBOUND:                -0.211
REMARK SMILES O=c1c(O)c(-c2cc(O)c(O)c(O)c2)oc2cc(O)cc(O)c12
REMARK SMILES IDX 5 1 3 2 2 3 1 4 23 5 21 6 20 7 18 8 17 9 16 10 15 11 6 12
REMARK SMILES IDX 7 13 8 14 14 15 10 16 12 17 9 18 11 20 13 22 4 24 22 26
REMARK SMILES IDX 19 28
REMARK H PARENT 9 19 11 21 13 23 4 25 22 27 19 29
REMARK Flexibility Score: inf
ROOT
ATOM      1  C   UNL     1     -11.135 -14.958 -34.489  1.00  0.00     0.180 A 
ATOM      2  C   UNL     1      -9.950 -15.084 -35.238  1.00  0.00     0.208 A 
ATOM      3  C   UNL     1      -9.866 -14.453 -36.489  1.00  0.00     0.238 A 
ATOM      4  O   UNL     1      -8.814 -14.568 -37.174  1.00  0.00    -0.285 OA
ATOM      5  C   UNL     1     -10.957 -13.693 -36.959  1.00  0.00     0.111 A 
ATOM      6  C   UNL     1     -10.953 -13.022 -38.207  1.00  0.00     0.134 A 
ATOM      7  C   UNL     1     -12.074 -12.277 -38.600  1.00  0.00     0.093 A 
ATOM      8  C   UNL     1     -13.197 -12.188 -37.773  1.00  0.00     0.123 A 
ATOM      9  C   UNL     1     -13.207 -12.850 -36.540  1.00  0.00     0.094 A 
ATOM     10  C   UNL     1     -12.100 -13.598 -36.131  1.00  0.00     0.146 A 
ATOM     11  O   UNL     1     -12.137 -14.220 -34.958  1.00  0.00    -0.452 OA
ENDROOT
BRANCH   1  12
ATOM     12  C   UNL     1     -11.305 -15.608 -33.170  1.00  0.00     0.029 A 
ATOM     13  C   UNL     1     -12.230 -16.651 -33.029  1.00  0.00     0.062 A 
ATOM     14  C   UNL     1     -12.397 -17.297 -31.801  1.00  0.00     0.162 A 
ATOM     15  C   UNL     1     -10.515 -15.244 -32.068  1.00  0.00     0.062 A 
ATOM     16  C   UNL     1     -11.624 -16.915 -30.690  1.00  0.00     0.200 A 
ATOM     17  C   UNL     1     -10.667 -15.882 -30.831  1.00  0.00     0.162 A 
BRANCH  14  18
ATOM     18  O   UNL     1     -13.343 -18.318 -31.705  1.00  0.00    -0.504 OA
ATOM     19  H   UNL     1     -13.697 -18.645 -30.815  1.00  0.00     0.293 HD
ENDBRANCH  14  18
BRANCH  16  20
ATOM     20  O   UNL     1     -11.829 -17.580 -29.477  1.00  0.00    -0.502 OA
ATOM     21  H   UNL     1     -12.106 -18.548 -29.401  1.00  0.00     0.293 HD
ENDBRANCH  16  20
BRANCH  17  22
ATOM     22  O   UNL     1      -9.846 -15.463 -29.782  1.00  0.00    -0.504 OA
ATOM     23  H   UNL     1      -9.855 -14.532 -29.391  1.00  0.00     0.293 HD
ENDBRANCH  17  22
ENDBRANCH   1  12
BRANCH   2  24
ATOM     24  O   UNL     1      -8.865 -15.802 -34.727  1.00  0.00    -0.502 OA
ATOM     25  H   UNL     1      -7.998 -15.355 -34.453  1.00  0.00     0.293 HD
ENDBRANCH   2  24
BRANCH   6  26
ATOM     26  O   UNL     1      -9.846 -13.090 -39.054  1.00  0.00    -0.507 OA
ATOM     27  H   UNL     1      -9.492 -13.975 -39.398  1.00  0.00     0.293 HD
ENDBRANCH   6  26
BRANCH   8  28
ATOM     28  O   UNL     1     -14.298 -11.442 -38.187  1.00  0.00    -0.508 OA
ATOM     29  H   UNL     1     -14.986 -11.822 -38.826  1.00  0.00     0.293 HD
ENDBRANCH   8  28
TORSDOF 7
ENDMDL
MODEL 3
REMARK VINA RESULT:    -7.637      1.241      6.964
REMARK INTER + INTRA:          -9.634
REMARK INTER:                  -9.360
REMARK INTRA:                  -0.274
REMARK UNBOUND:                -0.211
REMARK SMILES O=c1c(O)c(-c2cc(O)c(O)c(O)c2)oc2cc(O)cc(O)c12
REMARK SMILES IDX 5 1 3 2 2 3 1 4 23 5 21 6 20 7 18 8 17 9 16 10 15 11 6 12
REMARK SMILES IDX 7 13 8 14 14 15 10 16 12 17 9 18 11 20 13 22 4 24 22 26
REMARK SMILES IDX 19 28
REMARK H PARENT 9 19 11 21 13 23 4 25 22 27 19 29
REMARK Flexibility Score: inf
ROOT
ATOM      1  C   UNL     1     -10.598 -14.520 -34.797  1.00  0.00     0.180 A 
ATOM      2  C   UNL     1      -9.625 -14.133 -33.857  1.00  0.00     0.208 A 
ATOM      3  C   UNL     1      -9.666 -14.690 -32.569  1.00  0.00     0.238 A 
ATOM      4  O   UNL     1      -8.806 -14.343 -31.715  1.00  0.00    -0.285 OA
ATOM      5  C   UNL     1     -10.662 -15.636 -32.251  1.00  0.00     0.111 A 
ATOM      6  C   UNL     1     -10.772 -16.247 -30.978  1.00  0.00     0.134 A 
ATOM      7  C   UNL     1     -11.786 -17.187 -30.742  1.00  0.00     0.093 A 
ATOM      8  C   UNL     1     -12.691 -17.527 -31.750  1.00  0.00     0.123 A 
ATOM      9  C   UNL     1     -12.589 -16.925 -33.009  1.00  0.00     0.094 A 
ATOM     10  C   UNL     1     -11.586 -15.986 -33.264  1.00  0.00     0.146 A 
ATOM     11  O   UNL     1     -11.514 -15.426 -34.466  1.00  0.00    -0.452 OA
ENDROOT
BRANCH   1  12
ATOM     12  C   UNL     1     -10.632 -13.964 -36.169  1.00  0.00     0.029 A 
ATOM     13  C   UNL     1      -9.682 -14.387 -37.109  1.00  0.00     0.062 A 
ATOM     14  C   UNL     1      -9.702 -13.894 -38.416  1.00  0.00     0.162 A 
ATOM     15  C   UNL     1     -11.633 -13.065 -36.569  1.00  0.00     0.062 A 
ATOM     16  C   UNL     1     -10.691 -12.973 -38.810  1.00  0.00     0.200 A 
ATOM     17  C   UNL     1     -11.670 -12.562 -37.875  1.00  0.00     0.162 A 
BRANCH  14  18
ATOM     18  O   UNL     1      -8.726 -14.331 -39.312  1.00  0.00    -0.504 OA
ATOM     19  H   UNL     1      -8.738 -15.260 -39.714  1.00  0.00     0.293 HD
ENDBRANCH  14  18
BRANCH  16  20
ATOM     20  O   UNL     1     -10.669 -12.497 -40.125  1.00  0.00    -0.502 OA
ATOM     21  H   UNL     1      -9.978 -11.855 -40.484  1.00  0.00     0.293 HD
ENDBRANCH  16  20
BRANCH  17  22
ATOM     22  O   UNL     1     -12.696 -11.670 -38.197  1.00  0.00    -0.504 OA
ATOM     23  H   UNL     1     -13.220 -11.697 -39.059  1.00  0.00     0.293 HD
ENDBRANCH  17  22
ENDBRANCH   1  12
BRANCH   2  24
ATOM     24  O   UNL     1      -8.618 -13.231 -34.213  1.00  0.00    -0.502 OA
ATOM     25  H   UNL     1      -8.708 -12.602 -35.003  1.00  0.00     0.293 HD
ENDBRANCH   2  24
BRANCH   6  26
ATOM     26  O   UNL     1      -9.882 -15.930 -29.951  1.00  0.00    -0.507 OA
ATOM     27  H   UNL     1      -9.633 -14.970 -29.739  1.00  0.00     0.293 HD
ENDBRANCH   6  26
BRANCH   8  28
ATOM     28  O   UNL     1     -13.689 -18.463 -31.490  1.00  0.00    -0.508 OA
ATOM     29  H   UNL     1     -13.506 -19.295 -30.943  1.00  0.00     0.293 HD
ENDBRANCH   8  28
TORSDOF 7
ENDMDL
MODEL 4
REMARK VINA RESULT:    -7.578      4.879     10.603
REMARK INTER + INTRA:          -9.562
REMARK INTER:                  -9.320
REMARK INTRA:                  -0.241
REMARK UNBOUND:                -0.211
REMARK SMILES O=c1c(O)c(-c2cc(O)c(O)c(O)c2)oc2cc(O)cc(O)c12
REMARK SMILES IDX 5 1 3 2 2 3 1 4 23 5 21 6 20 7 18 8 17 9 16 10 15 11 6 12
REMARK SMILES IDX 7 13 8 14 14 15 10 16 12 17 9 18 11 20 13 22 4 24 22 26
REMARK SMILES IDX 19 28
REMARK H PARENT 9 19 11 21 13 23 4 25 22 27 19 29
REMARK Flexibility Score: inf
ROOT
ATOM      1  C   UNL     1     -10.541 -17.653 -27.493  1.00  0.00     0.180 A 
ATOM      2  C   UNL     1     -10.312 -19.012 -27.206  1.00  0.00     0.208 A 
ATOM      3  C   UNL     1     -10.247 -19.421 -25.866  1.00  0.00     0.238 A 
ATOM      4  O   UNL     1     -10.032 -20.634 -25.596  1.00  0.00    -0.285 OA
ATOM      5  C   UNL     1     -10.431 -18.472 -24.838  1.00  0.00     0.111 A 
ATOM      6  C   UNL     1     -10.384 -18.802 -23.462  1.00  0.00     0.134 A 
ATOM      7  C   UNL     1     -10.586 -17.803 -22.499  1.00  0.00     0.093 A 
ATOM      8  C   UNL     1     -10.834 -16.483 -22.883  1.00  0.00     0.123 A 
ATOM      9  C   UNL     1     -10.880 -16.150 -24.242  1.00  0.00     0.094 A 
ATOM     10  C   UNL     1     -10.681 -17.132 -25.216  1.00  0.00     0.146 A 
ATOM     11  O   UNL     1     -10.725 -16.789 -26.499  1.00  0.00    -0.452 OA
ENDROOT
BRANCH   1  12
ATOM     12  C   UNL     1     -10.605 -17.142 -28.882  1.00  0.00     0.029 A 
ATOM     13  C   UNL     1     -11.706 -17.467 -29.686  1.00  0.00     0.062 A 
ATOM     14  C   UNL     1     -11.802 -16.982 -30.993  1.00  0.00     0.162 A 
ATOM     15  C   UNL     1      -9.616 -16.288 -29.392  1.00  0.00     0.062 A 
ATOM     16  C   UNL     1     -10.798 -16.145 -31.514  1.00  0.00     0.200 A 
ATOM     17  C   UNL     1      -9.697 -15.790 -30.698  1.00  0.00     0.162 A 
BRANCH  14  18
ATOM     18  O   UNL     1     -12.908 -17.346 -31.763  1.00  0.00    -0.504 OA
ATOM     19  H   UNL     1     -13.851 -17.324 -31.398  1.00  0.00     0.293 HD
ENDBRANCH  14  18
BRANCH  16  20
ATOM     20  O   UNL     1     -10.929 -15.690 -32.830  1.00  0.00    -0.502 OA
ATOM     21  H   UNL     1     -11.219 -14.756 -33.080  1.00  0.00     0.293 HD
ENDBRANCH  16  20
BRANCH  17  22
ATOM     22  O   UNL     1      -8.674 -14.946 -31.135  1.00  0.00    -0.504 OA
ATOM     23  H   UNL     1      -8.827 -14.049 -31.572  1.00  0.00     0.293 HD
ENDBRANCH  17  22
ENDBRANCH   1  12
BRANCH   2  24
ATOM     24  O   UNL     1     -10.183 -19.940 -28.243  1.00  0.00    -0.502 OA
ATOM     25  H   UNL     1      -9.513 -20.699 -28.212  1.00  0.00     0.293 HD
ENDBRANCH   2  24
BRANCH   6  26
ATOM     26  O   UNL     1     -10.140 -20.112 -23.046  1.00  0.00    -0.507 OA
ATOM     27  H   UNL     1     -10.115 -20.884 -23.703  1.00  0.00     0.293 HD
ENDBRANCH   6  26
BRANCH   8  28
ATOM     28  O   UNL     1     -11.032 -15.508 -21.908  1.00  0.00    -0.508 OA
ATOM     29  H   UNL     1     -11.920 -15.033 -21.806  1.00  0.00     0.293 HD
ENDBRANCH   8  28
TORSDOF 7
ENDMDL
MODEL 5
REMARK VINA RESULT:    -7.531      4.867     10.455
REMARK INTER + INTRA:          -9.504
REMARK INTER:                  -9.274
REMARK INTRA:                  -0.229
REMARK UNBOUND:                -0.211
REMARK SMILES O=c1c(O)c(-c2cc(O)c(O)c(O)c2)oc2cc(O)cc(O)c12
REMARK SMILES IDX 5 1 3 2 2 3 1 4 23 5 21 6 20 7 18 8 17 9 16 10 15 11 6 12
REMARK SMILES IDX 7 13 8 14 14 15 10 16 12 17 9 18 11 20 13 22 4 24 22 26
REMARK SMILES IDX 19 28
REMARK H PARENT 9 19 11 21 13 23 4 25 22 27 19 29
REMARK Flexibility Score: inf
ROOT
ATOM      1  C   UNL     1     -10.606 -17.639 -27.500  1.00  0.00     0.180 A 
ATOM      2  C   UNL     1     -10.357 -18.997 -27.224  1.00  0.00     0.208 A 
ATOM      3  C   UNL     1     -10.260 -19.412 -25.887  1.00  0.00     0.238 A 
ATOM      4  O   UNL     1     -10.026 -20.624 -25.629  1.00  0.00    -0.285 OA
ATOM      5  C   UNL     1     -10.433 -18.471 -24.851  1.00  0.00     0.111 A 
ATOM      6  C   UNL     1     -10.355 -18.807 -23.478  1.00  0.00     0.134 A 
ATOM      7  C   UNL     1     -10.549 -17.814 -22.506  1.00  0.00     0.093 A 
ATOM      8  C   UNL     1     -10.818 -16.495 -22.879  1.00  0.00     0.123 A 
ATOM      9  C   UNL     1     -10.896 -16.156 -24.234  1.00  0.00     0.094 A 
ATOM     10  C   UNL     1     -10.705 -17.131 -25.217  1.00  0.00     0.146 A 
ATOM     11  O   UNL     1     -10.778 -16.782 -26.497  1.00  0.00    -0.452 OA
ENDROOT
BRANCH   1  12
ATOM     12  C   UNL     1     -10.703 -17.122 -28.884  1.00  0.00     0.029 A 
ATOM     13  C   UNL     1      -9.686 -16.300 -29.386  1.00  0.00     0.062 A 
ATOM     14  C   UNL     1      -9.742 -15.814 -30.695  1.00  0.00     0.162 A 
ATOM     15  C   UNL     1     -11.764 -17.487 -29.727  1.00  0.00     0.062 A 
ATOM     16  C   UNL     1     -10.818 -16.159 -31.533  1.00  0.00     0.200 A 
ATOM     17  C   UNL     1     -11.836 -17.012 -31.042  1.00  0.00     0.162 A 
BRANCH  14  18
ATOM     18  O   UNL     1      -8.715 -14.984 -31.146  1.00  0.00    -0.504 OA
ATOM     19  H   UNL     1      -7.794 -14.987 -30.727  1.00  0.00     0.293 HD
ENDBRANCH  14  18
BRANCH  16  20
ATOM     20  O   UNL     1     -10.841 -15.643 -32.833  1.00  0.00    -0.502 OA
ATOM     21  H   UNL     1     -10.298 -14.848 -33.137  1.00  0.00     0.293 HD
ENDBRANCH  16  20
BRANCH  17  22
ATOM     22  O   UNL     1     -12.923 -17.418 -31.819  1.00  0.00    -0.504 OA
ATOM     23  H   UNL     1     -13.748 -16.857 -31.976  1.00  0.00     0.293 HD
ENDBRANCH  17  22
ENDBRANCH   1  12
BRANCH   2  24
ATOM     24  O   UNL     1     -10.239 -19.919 -28.268  1.00  0.00    -0.502 OA
ATOM     25  H   UNL     1     -10.500 -19.695 -29.222  1.00  0.00     0.293 HD
ENDBRANCH   2  24
BRANCH   6  26
ATOM     26  O   UNL     1     -10.089 -20.116 -23.074  1.00  0.00    -0.507 OA
ATOM     27  H   UNL     1      -9.209 -20.371 -22.640  1.00  0.00     0.293 HD
ENDBRANCH   6  26
BRANCH   8  28
ATOM     28  O   UNL     1     -11.007 -15.528 -21.894  1.00  0.00    -0.508 OA
ATOM     29  H   UNL     1     -11.782 -15.577 -21.245  1.00  0.00     0.293 HD
ENDBRANCH   8  28
TORSDOF 7
ENDMDL
MODEL 6
REMARK VINA RESULT:    -7.390      8.685     11.638
REMARK INTER + INTRA:          -9.329
REMARK INTER:                  -9.714
REMARK INTRA:                   0.385
REMARK UNBOUND:                -0.211
REMARK SMILES O=c1c(O)c(-c2cc(O)c(O)c(O)c2)oc2cc(O)cc(O)c12
REMARK SMILES IDX 5 1 3 2 2 3 1 4 23 5 21 6 20 7 18 8 17 9 16 10 15 11 6 12
REMARK SMILES IDX 7 13 8 14 14 15 10 16 12 17 9 18 11 20 13 22 4 24 22 26
REMARK SMILES IDX 19 28
REMARK H PARENT 9 19 11 21 13 23 4 25 22 27 19 29
REMARK Flexibility Score: inf
ROOT
ATOM      1  C   UNL     1     -10.724 -17.490 -24.890  1.00  0.00     0.180 A 
ATOM      2  C   UNL     1     -11.572 -18.105 -23.951  1.00  0.00     0.208 A 
ATOM      3  C   UNL     1     -12.236 -17.304 -23.009  1.00  0.00     0.238 A 
ATOM      4  O   UNL     1     -12.991 -17.845 -22.156  1.00  0.00    -0.285 OA
ATOM      5  C   UNL     1     -12.058 -15.905 -23.035  1.00  0.00     0.111 A 
ATOM      6  C   UNL     1     -12.694 -15.026 -22.125  1.00  0.00     0.134 A 
ATOM      7  C   UNL     1     -12.473 -13.644 -22.222  1.00  0.00     0.093 A 
ATOM      8  C   UNL     1     -11.631 -13.125 -23.209  1.00  0.00     0.123 A 
ATOM      9  C   UNL     1     -11.000 -13.988 -24.110  1.00  0.00     0.094 A 
ATOM     10  C   UNL     1     -11.207 -15.368 -24.030  1.00  0.00     0.146 A 
ATOM     11  O   UNL     1     -10.591 -16.167 -24.895  1.00  0.00    -0.452 OA
ENDROOT
BRANCH   1  12
ATOM     12  C   UNL     1      -9.975 -18.269 -25.903  1.00  0.00     0.029 A 
ATOM     13  C   UNL     1      -9.313 -17.597 -26.940  1.00  0.00     0.062 A 
ATOM     14  C   UNL     1      -8.583 -18.306 -27.897  1.00  0.00     0.162 A 
ATOM     15  C   UNL     1      -9.862 -19.665 -25.814  1.00  0.00     0.062 A 
ATOM     16  C   UNL     1      -8.490 -19.707 -27.823  1.00  0.00     0.200 A 
ATOM     17  C   UNL     1      -9.132 -20.391 -26.762  1.00  0.00     0.162 A 
BRANCH  14  18
ATOM     18  O   UNL     1      -7.955 -17.595 -28.921  1.00  0.00    -0.504 OA
ATOM     19  H   UNL     1      -7.742 -16.609 -28.844  1.00  0.00     0.293 HD
ENDBRANCH  14  18
BRANCH  16  20
ATOM     20  O   UNL     1      -7.757 -20.378 -28.806  1.00  0.00    -0.502 OA
ATOM     21  H   UNL     1      -6.790 -20.187 -29.022  1.00  0.00     0.293 HD
ENDBRANCH  16  20
BRANCH  17  22
ATOM     22  O   UNL     1      -9.067 -21.777 -26.607  1.00  0.00    -0.504 OA
ATOM     23  H   UNL     1      -9.591 -22.296 -25.917  1.00  0.00     0.293 HD
ENDBRANCH  17  22
ENDBRANCH   1  12
BRANCH   2  24
ATOM     24  O   UNL     1     -11.770 -19.488 -23.978  1.00  0.00    -0.502 OA
ATOM     25  H   UNL     1     -11.001 -20.147 -23.950  1.00  0.00     0.293 HD
ENDBRANCH   2  24
BRANCH   6  26
ATOM     26  O   UNL     1     -13.541 -15.514 -21.129  1.00  0.00    -0.507 OA
ATOM     27  H   UNL     1     -14.375 -16.045 -21.352  1.00  0.00     0.293 HD
ENDBRANCH   6  26
BRANCH   8  28
ATOM     28  O   UNL     1     -11.428 -11.749 -23.284  1.00  0.00    -0.508 OA
ATOM     29  H   UNL     1     -11.285 -11.282 -24.171  1.00  0.00     0.293 HD
ENDBRANCH   8  28
TORSDOF 7
ENDMDL
MODEL 7
REMARK VINA RESULT:    -7.239      3.599      5.837
REMARK INTER + INTRA:          -9.143
REMARK INTER:                  -8.822
REMARK INTRA:                  -0.321
REMARK UNBOUND:                -0.211
REMARK SMILES O=c1c(O)c(-c2cc(O)c(O)c(O)c2)oc2cc(O)cc(O)c12
REMARK SMILES IDX 5 1 3 2 2 3 1 4 23 5 21 6 20 7 18 8 17 9 16 10 15 11 6 12
REMARK SMILES IDX 7 13 8 14 14 15 10 16 12 17 9 18 11 20 13 22 4 24 22 26
REMARK SMILES IDX 19 28
REMARK H PARENT 9 19 11 21 13 23 4 25 22 27 19 29
REMARK Flexibility Score: inf
ROOT
ATOM      1  C   UNL     1      -7.716 -14.691 -35.402  1.00  0.00     0.180 A 
ATOM      2  C   UNL     1      -8.186 -14.122 -34.203  1.00  0.00     0.208 A 
ATOM      3  C   UNL     1      -9.320 -13.296 -34.242  1.00  0.00     0.238 A 
ATOM      4  O   UNL     1      -9.743 -12.772 -33.176  1.00  0.00    -0.285 OA
ATOM      5  C   UNL     1      -9.974 -13.069 -35.470  1.00  0.00     0.111 A 
ATOM      6  C   UNL     1     -11.125 -12.253 -35.596  1.00  0.00     0.134 A 
ATOM      7  C   UNL     1     -11.725 -12.084 -36.853  1.00  0.00     0.093 A 
ATOM      8  C   UNL     1     -11.199 -12.713 -37.984  1.00  0.00     0.123 A 
ATOM      9  C   UNL     1     -10.062 -13.520 -37.866  1.00  0.00     0.094 A 
ATOM     10  C   UNL     1      -9.449 -13.700 -36.623  1.00  0.00     0.146 A 
ATOM     11  O   UNL     1      -8.368 -14.467 -36.539  1.00  0.00    -0.452 OA
ENDROOT
BRANCH   1  12
ATOM     12  C   UNL     1      -6.517 -15.558 -35.444  1.00  0.00     0.029 A 
ATOM     13  C   UNL     1      -6.670 -16.939 -35.628  1.00  0.00     0.062 A 
ATOM     14  C   UNL     1      -5.555 -17.779 -35.692  1.00  0.00     0.162 A 
ATOM     15  C   UNL     1      -5.223 -15.020 -35.365  1.00  0.00     0.062 A 
ATOM     16  C   UNL     1      -4.258 -17.243 -35.587  1.00  0.00     0.200 A 
ATOM     17  C   UNL     1      -4.094 -15.845 -35.430  1.00  0.00     0.162 A 
BRANCH  14  18
ATOM     18  O   UNL     1      -5.757 -19.149 -35.858  1.00  0.00    -0.504 OA
ATOM     19  H   UNL     1      -5.589 -19.815 -35.114  1.00  0.00     0.293 HD
ENDBRANCH  14  18
BRANCH  16  20
ATOM     20  O   UNL     1      -3.170 -18.119 -35.646  1.00  0.00    -0.502 OA
ATOM     21  H   UNL     1      -2.398 -18.021 -36.289  1.00  0.00     0.293 HD
ENDBRANCH  16  20
BRANCH  17  22
ATOM     22  O   UNL     1      -2.840 -15.237 -35.342  1.00  0.00    -0.504 OA
ATOM     23  H   UNL     1      -2.555 -14.445 -35.900  1.00  0.00     0.293 HD
ENDBRANCH  17  22
ENDBRANCH   1  12
BRANCH   2  24
ATOM     24  O   UNL     1      -7.548 -14.403 -32.991  1.00  0.00    -0.502 OA
ATOM     25  H   UNL     1      -7.279 -15.342 -32.725  1.00  0.00     0.293 HD
ENDBRANCH   2  24
BRANCH   6  26
ATOM     26  O   UNL     1     -11.675 -11.611 -34.485  1.00  0.00    -0.507 OA
ATOM     27  H   UNL     1     -11.897 -12.116 -33.634  1.00  0.00     0.293 HD
ENDBRANCH   6  26
BRANCH   8  28
ATOM     28  O   UNL     1     -11.813 -12.529 -39.220  1.00  0.00    -0.508 OA
ATOM     29  H   UNL     1     -11.295 -12.610 -40.086  1.00  0.00     0.293 HD
ENDBRANCH   8  28
TORSDOF 7
ENDMDL
MODEL 8
REMARK VINA RESULT:    -7.228      3.560      5.128
REMARK INTER + INTRA:          -9.129
REMARK INTER:                  -8.770
REMARK INTRA:                  -0.359
REMARK UNBOUND:                -0.211
REMARK SMILES O=c1c(O)c(-c2cc(O)c(O)c(O)c2)oc2cc(O)cc(O)c12
REMARK SMILES IDX 5 1 3 2 2 3 1 4 23 5 21 6 20 7 18 8 17 9 16 10 15 11 6 12
REMARK SMILES IDX 7 13 8 14 14 15 10 16 12 17 9 18 11 20 13 22 4 24 22 26
REMARK SMILES IDX 19 28
REMARK H PARENT 9 19 11 21 13 23 4 25 22 27 19 29
REMARK Flexibility Score: inf
ROOT
ATOM      1  C   UNL     1      -9.280 -14.304 -36.690  1.00  0.00     0.180 A 
ATOM      2  C   UNL     1      -9.447 -14.030 -38.061  1.00  0.00     0.208 A 
ATOM      3  C   UNL     1     -10.710 -13.633 -38.525  1.00  0.00     0.238 A 
ATOM      4  O   UNL     1     -10.874 -13.395 -39.752  1.00  0.00    -0.285 OA
ATOM      5  C   UNL     1     -11.777 -13.497 -37.612  1.00  0.00     0.111 A 
ATOM      6  C   UNL     1     -13.080 -13.097 -37.997  1.00  0.00     0.134 A 
ATOM      7  C   UNL     1     -14.086 -12.976 -37.027  1.00  0.00     0.093 A 
ATOM      8  C   UNL     1     -13.816 -13.245 -35.683  1.00  0.00     0.123 A 
ATOM      9  C   UNL     1     -12.530 -13.641 -35.297  1.00  0.00     0.094 A 
ATOM     10  C   UNL     1     -11.515 -13.769 -36.249  1.00  0.00     0.146 A 
ATOM     11  O   UNL     1     -10.305 -14.151 -35.856  1.00  0.00    -0.452 OA
ENDROOT
BRANCH   1  12
ATOM     12  C   UNL     1      -7.983 -14.746 -36.128  1.00  0.00     0.029 A 
ATOM     13  C   UNL     1      -7.674 -16.112 -36.097  1.00  0.00     0.062 A 
ATOM     14  C   UNL     1      -6.449 -16.556 -35.591  1.00  0.00     0.162 A 
ATOM     15  C   UNL     1      -7.028 -13.820 -35.680  1.00  0.00     0.062 A 
ATOM     16  C   UNL     1      -5.502 -15.630 -35.118  1.00  0.00     0.200 A 
ATOM     17  C   UNL     1      -5.795 -14.246 -35.172  1.00  0.00     0.162 A 
BRANCH  14  18
ATOM     18  O   UNL     1      -6.193 -17.927 -35.564  1.00  0.00    -0.504 OA
ATOM     19  H   UNL     1      -6.353 -18.523 -36.366  1.00  0.00     0.293 HD
ENDBRANCH  14  18
BRANCH  16  20
ATOM     20  O   UNL     1      -4.293 -16.116 -34.611  1.00  0.00    -0.502 OA
ATOM     21  H   UNL     1      -4.091 -16.217 -33.627  1.00  0.00     0.293 HD
ENDBRANCH  16  20
BRANCH  17  22
ATOM     22  O   UNL     1      -4.897 -13.265 -34.744  1.00  0.00    -0.504 OA
ATOM     23  H   UNL     1      -4.245 -12.790 -35.351  1.00  0.00     0.293 HD
ENDBRANCH  17  22
ENDBRANCH   1  12
BRANCH   2  24
ATOM     24  O   UNL     1      -8.361 -14.124 -38.937  1.00  0.00    -0.502 OA
ATOM     25  H   UNL     1      -8.150 -14.972 -39.449  1.00  0.00     0.293 HD
ENDBRANCH   2  24
BRANCH   6  26
ATOM     26  O   UNL     1     -13.381 -12.820 -39.331  1.00  0.00    -0.507 OA
ATOM     27  H   UNL     1     -12.837 -13.212 -40.093  1.00  0.00     0.293 HD
ENDBRANCH   6  26
BRANCH   8  28
ATOM     28  O   UNL     1     -14.832 -13.117 -34.739  1.00  0.00    -0.508 OA
ATOM     29  H   UNL     1     -14.636 -12.846 -33.783  1.00  0.00     0.293 HD
ENDBRANCH   8  28
TORSDOF 7
ENDMDL
MODEL 9
REMARK VINA RESULT:    -7.162      1.278      2.799
REMARK INTER + INTRA:          -9.048
REMARK INTER:                  -9.031
REMARK INTRA:                  -0.017
REMARK UNBOUND:                -0.211
REMARK SMILES O=c1c(O)c(-c2cc(O)c(O)c(O)c2)oc2cc(O)cc(O)c12
REMARK SMILES IDX 5 1 3 2 2 3 1 4 23 5 21 6 20 7 18 8 17 9 16 10 15 11 6 12
REMARK SMILES IDX 7 13 8 14 14 15 10 16 12 17 9 18 11 20 13 22 4 24 22 26
REMARK SMILES IDX 19 28
REMARK H PARENT 9 19 11 21 13 23 4 25 22 27 19 29
REMARK Flexibility Score: inf
ROOT
ATOM      1  C   UNL     1     -11.311 -14.772 -34.772  1.00  0.00     0.180 A 
ATOM      2  C   UNL     1     -12.488 -14.359 -35.424  1.00  0.00     0.208 A 
ATOM      3  C   UNL     1     -12.383 -13.659 -36.635  1.00  0.00     0.238 A 
ATOM      4  O   UNL     1     -13.431 -13.274 -37.222  1.00  0.00    -0.285 OA
ATOM      5  C   UNL     1     -11.110 -13.403 -37.184  1.00  0.00     0.111 A 
ATOM      6  C   UNL     1     -10.917 -12.707 -38.402  1.00  0.00     0.134 A 
ATOM      7  C   UNL     1      -9.617 -12.500 -38.887  1.00  0.00     0.093 A 
ATOM      8  C   UNL     1      -8.509 -12.973 -38.180  1.00  0.00     0.123 A 
ATOM      9  C   UNL     1      -8.693 -13.660 -36.975  1.00  0.00     0.094 A 
ATOM     10  C   UNL     1      -9.980 -13.875 -36.475  1.00  0.00     0.146 A 
ATOM     11  O   UNL     1     -10.127 -14.526 -35.326  1.00  0.00    -0.452 OA
ENDROOT
BRANCH   1  12
ATOM     12  C   UNL     1     -11.339 -15.499 -33.482  1.00  0.00     0.029 A 
ATOM     13  C   UNL     1     -10.581 -15.021 -32.404  1.00  0.00     0.062 A 
ATOM     14  C   UNL     1     -10.604 -15.676 -31.170  1.00  0.00     0.162 A 
ATOM     15  C   UNL     1     -12.158 -16.623 -33.294  1.00  0.00     0.062 A 
ATOM     16  C   UNL     1     -11.406 -16.817 -30.989  1.00  0.00     0.200 A 
ATOM     17  C   UNL     1     -12.197 -17.289 -32.064  1.00  0.00     0.162 A 
BRANCH  14  18
ATOM     18  O   UNL     1      -9.819 -15.174 -30.131  1.00  0.00    -0.504 OA
ATOM     19  H   UNL     1      -9.438 -15.768 -29.405  1.00  0.00     0.293 HD
ENDBRANCH  14  18
BRANCH  16  20
ATOM     20  O   UNL     1     -11.393 -17.448 -29.741  1.00  0.00    -0.502 OA
ATOM     21  H   UNL     1     -10.594 -17.933 -29.359  1.00  0.00     0.293 HD
ENDBRANCH  16  20
BRANCH  17  22
ATOM     22  O   UNL     1     -13.034 -18.401 -31.955  1.00  0.00    -0.504 OA
ATOM     23  H   UNL     1     -12.798 -19.241 -31.446  1.00  0.00     0.293 HD
ENDBRANCH  17  22
ENDBRANCH   1  12
BRANCH   2  24
ATOM     24  O   UNL     1     -13.740 -14.669 -34.884  1.00  0.00    -0.502 OA
ATOM     25  H   UNL     1     -13.845 -15.215 -34.037  1.00  0.00     0.293 HD
ENDBRANCH   2  24
BRANCH   6  26
ATOM     26  O   UNL     1     -12.003 -12.224 -39.133  1.00  0.00    -0.507 OA
ATOM     27  H   UNL     1     -12.255 -11.241 -39.126  1.00  0.00     0.293 HD
ENDBRANCH   6  26
BRANCH   8  28
ATOM     28  O   UNL     1      -7.228 -12.755 -38.683  1.00  0.00    -0.508 OA
ATOM     29  H   UNL     1      -6.980 -11.886 -39.141  1.00  0.00     0.293 HD
ENDBRANCH   8  28
TORSDOF 7
ENDMDL
