MODEL 1
REMARK VINA RESULT:    -6.642      0.000      0.000
REMARK INTER + INTRA:          -8.330
REMARK INTER:                  -8.001
REMARK INTRA:                  -0.329
REMARK UNBOUND:                -0.329
REMARK SMILES O=c1c(O)c(-c2ccc(O)cc2O)oc2cc(O)cc(O)c12
REMARK SMILES IDX 5 1 3 2 2 3 1 4 22 5 20 6 19 7 17 8 16 9 15 10 14 11 6 12
REMARK SMILES IDX 8 13 7 14 9 15 11 16 12 17 10 18 13 20 4 22 21 24 18 26
REMARK H PARENT 10 19 13 21 4 23 21 25 18 27
REMARK Flexibility Score: inf
ROOT
ATOM      1  C   UNL     1      16.213  -7.351 -31.644  1.00  0.00     0.184 A 
ATOM      2  C   UNL     1      15.792  -7.179 -32.975  1.00  0.00     0.208 A 
ATOM      3  C   UNL     1      16.728  -6.759 -33.933  1.00  0.00     0.238 A 
ATOM      4  O   UNL     1      16.366  -6.612 -35.131  1.00  0.00    -0.285 OA
ATOM      5  C   UNL     1      18.058  -6.501 -33.539  1.00  0.00     0.111 A 
ATOM      6  C   UNL     1      19.062  -6.071 -34.441  1.00  0.00     0.134 A 
ATOM      7  C   UNL     1      20.361  -5.826 -33.970  1.00  0.00     0.093 A 
ATOM      8  C   UNL     1      20.674  -6.001 -32.621  1.00  0.00     0.123 A 
ATOM      9  C   UNL     1      19.687  -6.425 -31.725  1.00  0.00     0.094 A 
ATOM     10  C   UNL     1      18.387  -6.676 -32.174  1.00  0.00     0.146 A 
ATOM     11  O   UNL     1      17.469  -7.083 -31.304  1.00  0.00    -0.451 OA
ENDROOT
BRANCH   1  12
ATOM     12  C   UNL     1      15.282  -7.800 -30.588  1.00  0.00     0.063 A 
ATOM     13  C   UNL     1      14.530  -9.564 -29.094  1.00  0.00     0.047 A 
ATOM     14  C   UNL     1      15.398  -9.106 -30.088  1.00  0.00     0.020 A 
ATOM     15  C   UNL     1      13.524  -8.727 -28.598  1.00  0.00     0.119 A 
ATOM     16  C   UNL     1      13.385  -7.432 -29.107  1.00  0.00     0.093 A 
ATOM     17  C   UNL     1      14.250  -6.966 -30.109  1.00  0.00     0.130 A 
BRANCH  15  18
ATOM     18  O   UNL     1      12.655  -9.172 -27.604  1.00  0.00    -0.508 OA
ATOM     19  H   UNL     1      12.999  -9.514 -26.715  1.00  0.00     0.293 HD
ENDBRANCH  15  18
BRANCH  17  20
ATOM     20  O   UNL     1      14.070  -5.689 -30.642  1.00  0.00    -0.507 OA
ATOM     21  H   UNL     1      14.463  -5.427 -31.538  1.00  0.00     0.293 HD
ENDBRANCH  17  20
ENDBRANCH   1  12
BRANCH   2  22
ATOM     22  O   UNL     1      14.457  -7.399 -33.323  1.00  0.00    -0.502 OA
ATOM     23  H   UNL     1      14.049  -7.024 -34.171  1.00  0.00     0.293 HD
ENDBRANCH   2  22
BRANCH   6  24
ATOM     24  O   UNL     1      18.780  -5.887 -35.795  1.00  0.00    -0.507 OA
ATOM     25  H   UNL     1      19.108  -5.074 -36.302  1.00  0.00     0.293 HD
ENDBRANCH   6  24
BRANCH   8  26
ATOM     26  O   UNL     1      21.972  -5.750 -32.180  1.00  0.00    -0.508 OA
ATOM     27  H   UNL     1      22.332  -4.806 -32.103  1.00  0.00     0.293 HD
ENDBRANCH   8  26
TORSDOF 6
ENDMDL
MODEL 2
REMARK VINA RESULT:    -5.880      1.626      6.723
REMARK INTER + INTRA:          -7.412
REMARK INTER:                  -6.996
REMARK INTRA:                  -0.417
REMARK UNBOUND:                -0.329
REMARK SMILES O=c1c(O)c(-c2ccc(O)cc2O)oc2cc(O)cc(O)c12
REMARK SMILES IDX 5 1 3 2 2 3 1 4 22 5 20 6 19 7 17 8 16 9 15 10 14 11 6 12
REMARK SMILES IDX 8 13 7 14 9 15 11 16 12 17 10 18 13 20 4 22 21 24 18 26
REMARK H PARENT 10 19 13 21 4 23 21 25 18 27
REMARK Flexibility Score: inf
ROOT
ATOM      1  C   UNL     1      17.019  -6.245 -31.998  1.00  0.00     0.184 A 
ATOM      2  C   UNL     1      16.337  -5.048 -31.717  1.00  0.00     0.208 A 
ATOM      3  C   UNL     1      15.183  -5.097 -30.920  1.00  0.00     0.238 A 
ATOM      4  O   UNL     1      14.568  -4.029 -30.651  1.00  0.00    -0.285 OA
ATOM      5  C   UNL     1      14.722  -6.340 -30.438  1.00  0.00     0.111 A 
ATOM      6  C   UNL     1      13.566  -6.477 -29.632  1.00  0.00     0.134 A 
ATOM      7  C   UNL     1      13.167  -7.751 -29.199  1.00  0.00     0.093 A 
ATOM      8  C   UNL     1      13.898  -8.885 -29.555  1.00  0.00     0.123 A 
ATOM      9  C   UNL     1      15.041  -8.757 -30.351  1.00  0.00     0.094 A 
ATOM     10  C   UNL     1      15.456  -7.497 -30.791  1.00  0.00     0.146 A 
ATOM     11  O   UNL     1      16.549  -7.401 -31.541  1.00  0.00    -0.451 OA
ENDROOT
BRANCH   1  12
ATOM     12  C   UNL     1      18.246  -6.264 -32.822  1.00  0.00     0.063 A 
ATOM     13  C   UNL     1      19.277  -6.518 -35.008  1.00  0.00     0.047 A 
ATOM     14  C   UNL     1      18.136  -6.489 -34.203  1.00  0.00     0.020 A 
ATOM     15  C   UNL     1      20.544  -6.337 -34.441  1.00  0.00     0.119 A 
ATOM     16  C   UNL     1      20.665  -6.137 -33.063  1.00  0.00     0.093 A 
ATOM     17  C   UNL     1      19.525  -6.111 -32.246  1.00  0.00     0.130 A 
BRANCH  15  18
ATOM     18  O   UNL     1      21.688  -6.362 -35.236  1.00  0.00    -0.508 OA
ATOM     19  H   UNL     1      22.243  -5.528 -35.390  1.00  0.00     0.293 HD
ENDBRANCH  15  18
BRANCH  17  20
ATOM     20  O   UNL     1      19.663  -5.958 -30.866  1.00  0.00    -0.507 OA
ATOM     21  H   UNL     1      19.677  -5.043 -30.432  1.00  0.00     0.293 HD
ENDBRANCH  17  20
ENDBRANCH   1  12
BRANCH   2  22
ATOM     22  O   UNL     1      16.793  -3.839 -32.247  1.00  0.00    -0.502 OA
ATOM     23  H   UNL     1      16.192  -3.217 -32.774  1.00  0.00     0.293 HD
ENDBRANCH   2  22
BRANCH   6  24
ATOM     24  O   UNL     1      12.813  -5.362 -29.260  1.00  0.00    -0.507 OA
ATOM     25  H   UNL     1      11.833  -5.277 -29.499  1.00  0.00     0.293 HD
ENDBRANCH   6  24
BRANCH   8  26
ATOM     26  O   UNL     1      13.479 -10.139 -29.112  1.00  0.00    -0.508 OA
ATOM     27  H   UNL     1      12.928 -10.245 -28.268  1.00  0.00     0.293 HD
ENDBRANCH   8  26
TORSDOF 6
ENDMDL
MODEL 3
REMARK VINA RESULT:    -5.767      1.714      3.246
REMARK INTER + INTRA:          -7.276
REMARK INTER:                  -6.848
REMARK INTRA:                  -0.428
REMARK UNBOUND:                -0.329
REMARK SMILES O=c1c(O)c(-c2ccc(O)cc2O)oc2cc(O)cc(O)c12
REMARK SMILES IDX 5 1 3 2 2 3 1 4 22 5 20 6 19 7 17 8 16 9 15 10 14 11 6 12
REMARK SMILES IDX 8 13 7 14 9 15 11 16 12 17 10 18 13 20 4 22 21 24 18 26
REMARK H PARENT 10 19 13 21 4 23 21 25 18 27
REMARK Flexibility Score: inf
ROOT
ATOM      1  C   UNL     1      16.709  -6.899 -32.515  1.00  0.00     0.184 A 
ATOM      2  C   UNL     1      18.054  -6.983 -32.113  1.00  0.00     0.208 A 
ATOM      3  C   UNL     1      19.060  -6.910 -33.089  1.00  0.00     0.238 A 
ATOM      4  O   UNL     1      20.270  -6.974 -32.740  1.00  0.00    -0.285 OA
ATOM      5  C   UNL     1      18.702  -6.776 -34.448  1.00  0.00     0.111 A 
ATOM      6  C   UNL     1      19.653  -6.700 -35.494  1.00  0.00     0.134 A 
ATOM      7  C   UNL     1      19.217  -6.575 -36.822  1.00  0.00     0.093 A 
ATOM      8  C   UNL     1      17.855  -6.527 -37.122  1.00  0.00     0.123 A 
ATOM      9  C   UNL     1      16.911  -6.602 -36.094  1.00  0.00     0.094 A 
ATOM     10  C   UNL     1      17.324  -6.724 -34.764  1.00  0.00     0.146 A 
ATOM     11  O   UNL     1      16.407  -6.788 -33.804  1.00  0.00    -0.451 OA
ENDROOT
BRANCH   1  12
ATOM     12  C   UNL     1      15.603  -6.957 -31.538  1.00  0.00     0.063 A 
ATOM     13  C   UNL     1      14.197  -8.289 -30.069  1.00  0.00     0.047 A 
ATOM     14  C   UNL     1      15.242  -8.198 -30.991  1.00  0.00     0.020 A 
ATOM     15  C   UNL     1      13.488  -7.143 -29.693  1.00  0.00     0.119 A 
ATOM     16  C   UNL     1      13.824  -5.905 -30.251  1.00  0.00     0.093 A 
ATOM     17  C   UNL     1      14.869  -5.806 -31.182  1.00  0.00     0.130 A 
BRANCH  15  18
ATOM     18  O   UNL     1      12.445  -7.221 -28.772  1.00  0.00    -0.508 OA
ATOM     19  H   UNL     1      11.700  -7.901 -28.874  1.00  0.00     0.293 HD
ENDBRANCH  15  18
BRANCH  17  20
ATOM     20  O   UNL     1      15.163  -4.574 -31.767  1.00  0.00    -0.507 OA
ATOM     21  H   UNL     1      15.869  -4.483 -32.488  1.00  0.00     0.293 HD
ENDBRANCH  17  20
ENDBRANCH   1  12
BRANCH   2  22
ATOM     22  O   UNL     1      18.374  -7.161 -30.765  1.00  0.00    -0.502 OA
ATOM     23  H   UNL     1      18.343  -6.402 -30.095  1.00  0.00     0.293 HD
ENDBRANCH   2  22
BRANCH   6  24
ATOM     24  O   UNL     1      21.022  -6.746 -35.225  1.00  0.00    -0.507 OA
ATOM     25  H   UNL     1      21.706  -6.395 -35.884  1.00  0.00     0.293 HD
ENDBRANCH   6  24
BRANCH   8  26
ATOM     26  O   UNL     1      17.449  -6.404 -38.450  1.00  0.00    -0.508 OA
ATOM     27  H   UNL     1      17.488  -7.188 -39.091  1.00  0.00     0.293 HD
ENDBRANCH   8  26
TORSDOF 6
ENDMDL
MODEL 4
REMARK VINA RESULT:    -5.665      4.040      7.021
REMARK INTER + INTRA:          -7.152
REMARK INTER:                  -6.788
REMARK INTRA:                  -0.365
REMARK UNBOUND:                -0.329
REMARK SMILES O=c1c(O)c(-c2ccc(O)cc2O)oc2cc(O)cc(O)c12
REMARK SMILES IDX 5 1 3 2 2 3 1 4 22 5 20 6 19 7 17 8 16 9 15 10 14 11 6 12
REMARK SMILES IDX 8 13 7 14 9 15 11 16 12 17 10 18 13 20 4 22 21 24 18 26
REMARK H PARENT 10 19 13 21 4 23 21 25 18 27
REMARK Flexibility Score: inf
ROOT
ATOM      1  C   UNL     1      21.556  -5.165 -35.176  1.00  0.00     0.184 A 
ATOM      2  C   UNL     1      21.534  -6.013 -36.298  1.00  0.00     0.208 A 
ATOM      3  C   UNL     1      22.562  -5.908 -37.247  1.00  0.00     0.238 A 
ATOM      4  O   UNL     1      22.560  -6.670 -38.251  1.00  0.00    -0.285 OA
ATOM      5  C   UNL     1      23.579  -4.946 -37.068  1.00  0.00     0.111 A 
ATOM      6  C   UNL     1      24.648  -4.773 -37.979  1.00  0.00     0.134 A 
ATOM      7  C   UNL     1      25.617  -3.787 -37.735  1.00  0.00     0.093 A 
ATOM      8  C   UNL     1      25.536  -2.975 -36.603  1.00  0.00     0.123 A 
ATOM      9  C   UNL     1      24.482  -3.141 -35.699  1.00  0.00     0.094 A 
ATOM     10  C   UNL     1      23.508  -4.118 -35.923  1.00  0.00     0.146 A 
ATOM     11  O   UNL     1      22.520  -4.260 -35.046  1.00  0.00    -0.451 OA
ENDROOT
BRANCH   1  12
ATOM     12  C   UNL     1      20.510  -5.231 -34.134  1.00  0.00     0.063 A 
ATOM     13  C   UNL     1      18.178  -4.946 -33.510  1.00  0.00     0.047 A 
ATOM     14  C   UNL     1      19.189  -4.900 -34.473  1.00  0.00     0.020 A 
ATOM     15  C   UNL     1      18.478  -5.309 -32.192  1.00  0.00     0.119 A 
ATOM     16  C   UNL     1      19.795  -5.616 -31.839  1.00  0.00     0.093 A 
ATOM     17  C   UNL     1      20.817  -5.567 -32.799  1.00  0.00     0.130 A 
BRANCH  15  18
ATOM     18  O   UNL     1      17.477  -5.361 -31.224  1.00  0.00    -0.508 OA
ATOM     19  H   UNL     1      17.590  -5.901 -30.374  1.00  0.00     0.293 HD
ENDBRANCH  15  18
BRANCH  17  20
ATOM     20  O   UNL     1      22.136  -5.830 -32.423  1.00  0.00    -0.507 OA
ATOM     21  H   UNL     1      22.706  -5.130 -31.963  1.00  0.00     0.293 HD
ENDBRANCH  17  20
ENDBRANCH   1  12
BRANCH   2  22
ATOM     22  O   UNL     1      20.488  -6.924 -36.469  1.00  0.00    -0.502 OA
ATOM     23  H   UNL     1      19.783  -6.811 -37.187  1.00  0.00     0.293 HD
ENDBRANCH   2  22
BRANCH   6  24
ATOM     24  O   UNL     1      24.756  -5.569 -39.120  1.00  0.00    -0.507 OA
ATOM     25  H   UNL     1      23.939  -5.932 -39.596  1.00  0.00     0.293 HD
ENDBRANCH   6  24
BRANCH   8  26
ATOM     26  O   UNL     1      26.511  -2.003 -36.385  1.00  0.00    -0.508 OA
ATOM     27  H   UNL     1      26.534  -1.145 -36.924  1.00  0.00     0.293 HD
ENDBRANCH   8  26
TORSDOF 6
ENDMDL
MODEL 5
REMARK VINA RESULT:    -5.613      0.858      1.485
REMARK INTER + INTRA:          -7.091
REMARK INTER:                  -6.660
REMARK INTRA:                  -0.431
REMARK UNBOUND:                -0.329
REMARK SMILES O=c1c(O)c(-c2ccc(O)cc2O)oc2cc(O)cc(O)c12
REMARK SMILES IDX 5 1 3 2 2 3 1 4 22 5 20 6 19 7 17 8 16 9 15 10 14 11 6 12
REMARK SMILES IDX 8 13 7 14 9 15 11 16 12 17 10 18 13 20 4 22 21 24 18 26
REMARK H PARENT 10 19 13 21 4 23 21 25 18 27
REMARK Flexibility Score: inf
ROOT
ATOM      1  C   UNL     1      15.881  -7.169 -31.625  1.00  0.00     0.184 A 
ATOM      2  C   UNL     1      15.509  -7.129 -32.981  1.00  0.00     0.208 A 
ATOM      3  C   UNL     1      16.492  -6.859 -33.946  1.00  0.00     0.238 A 
ATOM      4  O   UNL     1      16.173  -6.832 -35.165  1.00  0.00    -0.285 OA
ATOM      5  C   UNL     1      17.820  -6.615 -33.537  1.00  0.00     0.111 A 
ATOM      6  C   UNL     1      18.869  -6.333 -34.445  1.00  0.00     0.134 A 
ATOM      7  C   UNL     1      20.163  -6.092 -33.959  1.00  0.00     0.093 A 
ATOM      8  C   UNL     1      20.427  -6.128 -32.589  1.00  0.00     0.123 A 
ATOM      9  C   UNL     1      19.396  -6.407 -31.687  1.00  0.00     0.094 A 
ATOM     10  C   UNL     1      18.100  -6.651 -32.150  1.00  0.00     0.146 A 
ATOM     11  O   UNL     1      17.138  -6.919 -31.273  1.00  0.00    -0.451 OA
ENDROOT
BRANCH   1  12
ATOM     12  C   UNL     1      14.899  -7.457 -30.559  1.00  0.00     0.063 A 
ATOM     13  C   UNL     1      13.066  -6.689 -29.161  1.00  0.00     0.047 A 
ATOM     14  C   UNL     1      14.002  -6.451 -30.169  1.00  0.00     0.020 A 
ATOM     15  C   UNL     1      13.023  -7.932 -28.519  1.00  0.00     0.119 A 
ATOM     16  C   UNL     1      13.928  -8.933 -28.885  1.00  0.00     0.093 A 
ATOM     17  C   UNL     1      14.876  -8.700 -29.893  1.00  0.00     0.130 A 
BRANCH  15  18
ATOM     18  O   UNL     1      12.090  -8.182 -27.514  1.00  0.00    -0.508 OA
ATOM     19  H   UNL     1      11.097  -8.055 -27.671  1.00  0.00     0.293 HD
ENDBRANCH  15  18
BRANCH  17  20
ATOM     20  O   UNL     1      15.804  -9.691 -30.214  1.00  0.00    -0.507 OA
ATOM     21  H   UNL     1      15.699 -10.270 -31.039  1.00  0.00     0.293 HD
ENDBRANCH  17  20
ENDBRANCH   1  12
BRANCH   2  22
ATOM     22  O   UNL     1      14.177  -7.330 -33.349  1.00  0.00    -0.502 OA
ATOM     23  H   UNL     1      13.444  -7.488 -32.667  1.00  0.00     0.293 HD
ENDBRANCH   2  22
BRANCH   6  24
ATOM     24  O   UNL     1      18.636  -6.289 -35.820  1.00  0.00    -0.507 OA
ATOM     25  H   UNL     1      17.718  -6.463 -36.211  1.00  0.00     0.293 HD
ENDBRANCH   6  24
BRANCH   8  26
ATOM     26  O   UNL     1      21.722  -5.885 -32.133  1.00  0.00    -0.508 OA
ATOM     27  H   UNL     1      22.531  -6.055 -32.719  1.00  0.00     0.293 HD
ENDBRANCH   8  26
TORSDOF 6
ENDMDL
MODEL 6
REMARK VINA RESULT:    -5.588      2.217      6.826
REMARK INTER + INTRA:          -7.060
REMARK INTER:                  -6.681
REMARK INTRA:                  -0.379
REMARK UNBOUND:                -0.329
REMARK SMILES O=c1c(O)c(-c2ccc(O)cc2O)oc2cc(O)cc(O)c12
REMARK SMILES IDX 5 1 3 2 2 3 1 4 22 5 20 6 19 7 17 8 16 9 15 10 14 11 6 12
REMARK SMILES IDX 8 13 7 14 9 15 11 16 12 17 10 18 13 20 4 22 21 24 18 26
REMARK H PARENT 10 19 13 21 4 23 21 25 18 27
REMARK Flexibility Score: inf
ROOT
ATOM      1  C   UNL     1      15.553  -6.561 -31.420  1.00  0.00     0.184 A 
ATOM      2  C   UNL     1      15.067  -7.529 -30.523  1.00  0.00     0.208 A 
ATOM      3  C   UNL     1      13.847  -7.296 -29.871  1.00  0.00     0.238 A 
ATOM      4  O   UNL     1      13.394  -8.161 -29.073  1.00  0.00    -0.285 OA
ATOM      5  C   UNL     1      13.147  -6.094 -30.111  1.00  0.00     0.111 A 
ATOM      6  C   UNL     1      11.913  -5.781 -29.492  1.00  0.00     0.134 A 
ATOM      7  C   UNL     1      11.282  -4.560 -29.777  1.00  0.00     0.093 A 
ATOM      8  C   UNL     1      11.860  -3.651 -30.664  1.00  0.00     0.123 A 
ATOM      9  C   UNL     1      13.079  -3.954 -31.278  1.00  0.00     0.094 A 
ATOM     10  C   UNL     1      13.722  -5.166 -31.010  1.00  0.00     0.146 A 
ATOM     11  O   UNL     1      14.877  -5.433 -31.611  1.00  0.00    -0.451 OA
ENDROOT
BRANCH   1  12
ATOM     12  C   UNL     1      16.825  -6.747 -32.148  1.00  0.00     0.063 A 
ATOM     13  C   UNL     1      19.247  -6.944 -32.081  1.00  0.00     0.047 A 
ATOM     14  C   UNL     1      18.027  -6.776 -31.423  1.00  0.00     0.020 A 
ATOM     15  C   UNL     1      19.284  -7.072 -33.474  1.00  0.00     0.119 A 
ATOM     16  C   UNL     1      18.095  -7.020 -34.207  1.00  0.00     0.093 A 
ATOM     17  C   UNL     1      16.865  -6.846 -33.554  1.00  0.00     0.130 A 
BRANCH  15  18
ATOM     18  O   UNL     1      20.496  -7.244 -34.140  1.00  0.00    -0.508 OA
ATOM     19  H   UNL     1      20.603  -7.936 -34.872  1.00  0.00     0.293 HD
ENDBRANCH  15  18
BRANCH  17  20
ATOM     20  O   UNL     1      15.690  -6.748 -34.302  1.00  0.00    -0.507 OA
ATOM     21  H   UNL     1      14.804  -7.082 -33.943  1.00  0.00     0.293 HD
ENDBRANCH  17  20
ENDBRANCH   1  12
BRANCH   2  22
ATOM     22  O   UNL     1      15.806  -8.687 -30.273  1.00  0.00    -0.502 OA
ATOM     23  H   UNL     1      15.565  -9.583 -30.680  1.00  0.00     0.293 HD
ENDBRANCH   2  22
BRANCH   6  24
ATOM     24  O   UNL     1      11.311  -6.670 -28.600  1.00  0.00    -0.507 OA
ATOM     25  H   UNL     1      10.352  -6.974 -28.718  1.00  0.00     0.293 HD
ENDBRANCH   6  24
BRANCH   8  26
ATOM     26  O   UNL     1      11.213  -2.445 -30.928  1.00  0.00    -0.508 OA
ATOM     27  H   UNL     1      10.722  -1.936 -30.202  1.00  0.00     0.293 HD
ENDBRANCH   8  26
TORSDOF 6
ENDMDL
MODEL 7
REMARK VINA RESULT:    -5.581      3.230      8.799
REMARK INTER + INTRA:          -7.051
REMARK INTER:                  -6.784
REMARK INTRA:                  -0.267
REMARK UNBOUND:                -0.329
REMARK SMILES O=c1c(O)c(-c2ccc(O)cc2O)oc2cc(O)cc(O)c12
REMARK SMILES IDX 5 1 3 2 2 3 1 4 22 5 20 6 19 7 17 8 16 9 15 10 14 11 6 12
REMARK SMILES IDX 8 13 7 14 9 15 11 16 12 17 10 18 13 20 4 22 21 24 18 26
REMARK H PARENT 10 19 13 21 4 23 21 25 18 27
REMARK Flexibility Score: inf
ROOT
ATOM      1  C   UNL     1      21.333  -5.467 -35.150  1.00  0.00     0.184 A 
ATOM      2  C   UNL     1      21.665  -5.618 -33.791  1.00  0.00     0.208 A 
ATOM      3  C   UNL     1      20.662  -6.001 -32.888  1.00  0.00     0.238 A 
ATOM      4  O   UNL     1      20.949  -6.151 -31.669  1.00  0.00    -0.285 OA
ATOM      5  C   UNL     1      19.345  -6.203 -33.354  1.00  0.00     0.111 A 
ATOM      6  C   UNL     1      18.276  -6.585 -32.508  1.00  0.00     0.134 A 
ATOM      7  C   UNL     1      16.992  -6.759 -33.047  1.00  0.00     0.093 A 
ATOM      8  C   UNL     1      16.758  -6.558 -34.408  1.00  0.00     0.123 A 
ATOM      9  C   UNL     1      17.810  -6.180 -35.248  1.00  0.00     0.094 A 
ATOM     10  C   UNL     1      19.096  -6.003 -34.732  1.00  0.00     0.146 A 
ATOM     11  O   UNL     1      20.080  -5.650 -35.552  1.00  0.00    -0.451 OA
ENDROOT
BRANCH   1  12
ATOM     12  C   UNL     1      22.343  -5.077 -36.156  1.00  0.00     0.063 A 
ATOM     13  C   UNL     1      23.672  -5.669 -38.103  1.00  0.00     0.047 A 
ATOM     14  C   UNL     1      22.716  -6.004 -37.141  1.00  0.00     0.020 A 
ATOM     15  C   UNL     1      24.278  -4.408 -38.083  1.00  0.00     0.119 A 
ATOM     16  C   UNL     1      23.931  -3.486 -37.091  1.00  0.00     0.093 A 
ATOM     17  C   UNL     1      22.976  -3.817 -36.118  1.00  0.00     0.130 A 
BRANCH  15  18
ATOM     18  O   UNL     1      25.231  -4.062 -39.040  1.00  0.00    -0.508 OA
ATOM     19  H   UNL     1      26.223  -4.104 -38.837  1.00  0.00     0.293 HD
ENDBRANCH  15  18
BRANCH  17  20
ATOM     20  O   UNL     1      22.673  -2.905 -35.105  1.00  0.00    -0.507 OA
ATOM     21  H   UNL     1      22.239  -2.012 -35.306  1.00  0.00     0.293 HD
ENDBRANCH  17  20
ENDBRANCH   1  12
BRANCH   2  22
ATOM     22  O   UNL     1      22.968  -5.366 -33.355  1.00  0.00    -0.502 OA
ATOM     23  H   UNL     1      23.183  -4.637 -32.685  1.00  0.00     0.293 HD
ENDBRANCH   2  22
BRANCH   6  24
ATOM     24  O   UNL     1      18.478  -6.794 -31.143  1.00  0.00    -0.507 OA
ATOM     25  H   UNL     1      18.047  -7.568 -30.653  1.00  0.00     0.293 HD
ENDBRANCH   6  24
BRANCH   8  26
ATOM     26  O   UNL     1      15.472  -6.736 -34.917  1.00  0.00    -0.508 OA
ATOM     27  H   UNL     1      14.670  -6.273 -34.505  1.00  0.00     0.293 HD
ENDBRANCH   8  26
TORSDOF 6
ENDMDL
MODEL 8
REMARK VINA RESULT:    -5.485      1.957      2.814
REMARK INTER + INTRA:          -6.937
REMARK INTER:                  -6.508
REMARK INTRA:                  -0.428
REMARK UNBOUND:                -0.329
REMARK SMILES O=c1c(O)c(-c2ccc(O)cc2O)oc2cc(O)cc(O)c12
REMARK SMILES IDX 5 1 3 2 2 3 1 4 22 5 20 6 19 7 17 8 16 9 15 10 14 11 6 12
REMARK SMILES IDX 8 13 7 14 9 15 11 16 12 17 10 18 13 20 4 22 21 24 18 26
REMARK H PARENT 10 19 13 21 4 23 21 25 18 27
REMARK Flexibility Score: inf
ROOT
ATOM      1  C   UNL     1      16.913  -6.606 -32.345  1.00  0.00     0.184 A 
ATOM      2  C   UNL     1      17.134  -5.303 -31.864  1.00  0.00     0.208 A 
ATOM      3  C   UNL     1      18.116  -4.511 -32.478  1.00  0.00     0.238 A 
ATOM      4  O   UNL     1      18.316  -3.337 -32.064  1.00  0.00    -0.285 OA
ATOM      5  C   UNL     1      18.871  -5.042 -33.546  1.00  0.00     0.111 A 
ATOM      6  C   UNL     1      19.881  -4.312 -34.217  1.00  0.00     0.134 A 
ATOM      7  C   UNL     1      20.594  -4.915 -35.264  1.00  0.00     0.093 A 
ATOM      8  C   UNL     1      20.318  -6.227 -35.652  1.00  0.00     0.123 A 
ATOM      9  C   UNL     1      19.321  -6.953 -34.993  1.00  0.00     0.094 A 
ATOM     10  C   UNL     1      18.598  -6.371 -33.948  1.00  0.00     0.146 A 
ATOM     11  O   UNL     1      17.652  -7.081 -33.342  1.00  0.00    -0.451 OA
ENDROOT
BRANCH   1  12
ATOM     12  C   UNL     1      15.887  -7.488 -31.751  1.00  0.00     0.063 A 
ATOM     13  C   UNL     1      15.208  -8.954 -29.934  1.00  0.00     0.047 A 
ATOM     14  C   UNL     1      16.153  -8.110 -30.521  1.00  0.00     0.020 A 
ATOM     15  C   UNL     1      13.989  -9.201 -30.578  1.00  0.00     0.119 A 
ATOM     16  C   UNL     1      13.725  -8.606 -31.815  1.00  0.00     0.093 A 
ATOM     17  C   UNL     1      14.672  -7.760 -32.413  1.00  0.00     0.130 A 
BRANCH  15  18
ATOM     18  O   UNL     1      13.038 -10.039 -30.001  1.00  0.00    -0.508 OA
ATOM     19  H   UNL     1      13.289 -10.948 -29.631  1.00  0.00     0.293 HD
ENDBRANCH  15  18
BRANCH  17  20
ATOM     20  O   UNL     1      14.416  -7.211 -33.670  1.00  0.00    -0.507 OA
ATOM     21  H   UNL     1      14.943  -7.489 -34.489  1.00  0.00     0.293 HD
ENDBRANCH  17  20
ENDBRANCH   1  12
BRANCH   2  22
ATOM     22  O   UNL     1      16.401  -4.823 -30.776  1.00  0.00    -0.502 OA
ATOM     23  H   UNL     1      15.983  -5.440 -30.090  1.00  0.00     0.293 HD
ENDBRANCH   2  22
BRANCH   6  24
ATOM     24  O   UNL     1      20.181  -2.999 -33.852  1.00  0.00    -0.507 OA
ATOM     25  H   UNL     1      20.461  -2.307 -34.537  1.00  0.00     0.293 HD
ENDBRANCH   6  24
BRANCH   8  26
ATOM     26  O   UNL     1      21.042  -6.801 -36.695  1.00  0.00    -0.508 OA
ATOM     27  H   UNL     1      20.652  -6.888 -37.626  1.00  0.00     0.293 HD
ENDBRANCH   8  26
TORSDOF 6
ENDMDL
MODEL 9
REMARK VINA RESULT:    -5.223      5.312     10.125
REMARK INTER + INTRA:          -6.621
REMARK INTER:                  -6.437
REMARK INTRA:                  -0.183
REMARK UNBOUND:                -0.329
REMARK SMILES O=c1c(O)c(-c2ccc(O)cc2O)oc2cc(O)cc(O)c12
REMARK SMILES IDX 5 1 3 2 2 3 1 4 22 5 20 6 19 7 17 8 16 9 15 10 14 11 6 12
REMARK SMILES IDX 8 13 7 14 9 15 11 16 12 17 10 18 13 20 4 22 21 24 18 26
REMARK H PARENT 10 19 13 21 4 23 21 25 18 27
REMARK Flexibility Score: inf
ROOT
ATOM      1  C   UNL     1      22.654  -5.021 -36.443  1.00  0.00     0.184 A 
ATOM      2  C   UNL     1      22.348  -5.251 -35.089  1.00  0.00     0.208 A 
ATOM      3  C   UNL     1      21.172  -5.946 -34.768  1.00  0.00     0.238 A 
ATOM      4  O   UNL     1      20.893  -6.168 -33.559  1.00  0.00    -0.285 OA
ATOM      5  C   UNL     1      20.316  -6.379 -35.803  1.00  0.00     0.111 A 
ATOM      6  C   UNL     1      19.110  -7.082 -35.564  1.00  0.00     0.134 A 
ATOM      7  C   UNL     1      18.307  -7.471 -36.647  1.00  0.00     0.093 A 
ATOM      8  C   UNL     1      18.684  -7.172 -37.958  1.00  0.00     0.123 A 
ATOM      9  C   UNL     1      19.874  -6.478 -38.199  1.00  0.00     0.094 A 
ATOM     10  C   UNL     1      20.689  -6.082 -37.135  1.00  0.00     0.146 A 
ATOM     11  O   UNL     1      21.817  -5.429 -37.391  1.00  0.00    -0.451 OA
ENDROOT
BRANCH   1  12
ATOM     12  C   UNL     1      23.881  -4.305 -36.850  1.00  0.00     0.063 A 
ATOM     13  C   UNL     1      25.328  -2.366 -36.620  1.00  0.00     0.047 A 
ATOM     14  C   UNL     1      24.179  -3.071 -36.253  1.00  0.00     0.020 A 
ATOM     15  C   UNL     1      26.186  -2.879 -37.600  1.00  0.00     0.119 A 
ATOM     16  C   UNL     1      25.884  -4.097 -38.218  1.00  0.00     0.093 A 
ATOM     17  C   UNL     1      24.729  -4.808 -37.858  1.00  0.00     0.130 A 
BRANCH  15  18
ATOM     18  O   UNL     1      27.336  -2.186 -37.971  1.00  0.00    -0.508 OA
ATOM     19  H   UNL     1      27.916  -1.718 -37.285  1.00  0.00     0.293 HD
ENDBRANCH  15  18
BRANCH  17  20
ATOM     20  O   UNL     1      24.415  -5.998 -38.517  1.00  0.00    -0.507 OA
ATOM     21  H   UNL     1      23.734  -6.026 -39.267  1.00  0.00     0.293 HD
ENDBRANCH  17  20
ENDBRANCH   1  12
BRANCH   2  22
ATOM     22  O   UNL     1      23.195  -4.769 -34.087  1.00  0.00    -0.502 OA
ATOM     23  H   UNL     1      24.203  -4.837 -34.152  1.00  0.00     0.293 HD
ENDBRANCH   2  22
BRANCH   6  24
ATOM     24  O   UNL     1      18.706  -7.396 -34.266  1.00  0.00    -0.507 OA
ATOM     25  H   UNL     1      19.224  -7.079 -33.456  1.00  0.00     0.293 HD
ENDBRANCH   6  24
BRANCH   8  26
ATOM     26  O   UNL     1      17.868  -7.570 -39.015  1.00  0.00    -0.508 OA
ATOM     27  H   UNL     1      18.231  -7.673 -39.956  1.00  0.00     0.293 HD
ENDBRANCH   8  26
TORSDOF 6
ENDMDL
