MODEL 1
REMARK VINA RESULT:    -7.767      0.000      0.000
REMARK INTER + INTRA:          -9.086
REMARK INTER:                  -9.129
REMARK INTRA:                   0.044
REMARK UNBOUND:                 0.044
REMARK SMILES O=c1c(O)c(-c2ccc(O)c(O)c2)oc2cc(O)ccc12
REMARK SMILES IDX 5 1 3 2 2 3 1 4 21 5 15 6 14 7 16 8 17 9 19 10 20 11 6 12
REMARK SMILES IDX 7 13 8 14 9 15 13 16 11 17 10 18 12 20 4 22 18 24
REMARK H PARENT 10 19 12 21 4 23 18 25
REMARK Flexibility Score: inf
ROOT
ATOM      1  C   UNL     1     -10.023 -15.428  -3.085  1.00  0.00     0.180 A 
ATOM      2  C   UNL     1      -8.680 -15.795  -2.858  1.00  0.00     0.208 A 
ATOM      3  C   UNL     1      -8.337 -16.377  -1.627  1.00  0.00     0.235 A 
ATOM      4  O   UNL     1      -7.141 -16.703  -1.396  1.00  0.00    -0.285 OA
ATOM      5  C   UNL     1      -9.336 -16.597  -0.665  1.00  0.00     0.069 A 
ATOM      6  C   UNL     1     -10.661 -16.223  -0.980  1.00  0.00     0.142 A 
ATOM      7  O   UNL     1     -10.942 -15.668  -2.152  1.00  0.00    -0.452 OA
ATOM      8  C   UNL     1     -11.686 -16.435  -0.051  1.00  0.00     0.094 A 
ATOM      9  C   UNL     1     -11.403 -17.017   1.193  1.00  0.00     0.119 A 
ATOM     10  C   UNL     1     -10.090 -17.386   1.506  1.00  0.00     0.047 A 
ATOM     11  C   UNL     1      -9.059 -17.180   0.585  1.00  0.00     0.020 A 
ENDROOT
BRANCH   1  12
ATOM     12  C   UNL     1     -10.461 -14.794  -4.350  1.00  0.00     0.025 A 
ATOM     13  C   UNL     1     -11.656 -15.210  -4.952  1.00  0.00     0.016 A 
ATOM     14  C   UNL     1     -12.097 -14.611  -6.134  1.00  0.00     0.051 A 
ATOM     15  C   UNL     1     -11.365 -13.578  -6.727  1.00  0.00     0.157 A 
ATOM     16  C   UNL     1      -9.734 -13.740  -4.931  1.00  0.00     0.062 A 
ATOM     17  C   UNL     1     -10.171 -13.131  -6.113  1.00  0.00     0.158 A 
BRANCH  15  18
ATOM     18  O   UNL     1     -11.857 -13.026  -7.912  1.00  0.00    -0.504 OA
ATOM     19  H   UNL     1     -12.515 -12.260  -7.948  1.00  0.00     0.293 HD
ENDBRANCH  15  18
BRANCH  17  20
ATOM     20  O   UNL     1      -9.398 -12.091  -6.635  1.00  0.00    -0.504 OA
ATOM     21  H   UNL     1      -8.820 -11.481  -6.075  1.00  0.00     0.293 HD
ENDBRANCH  17  20
ENDBRANCH   1  12
BRANCH   2  22
ATOM     22  O   UNL     1      -7.717 -15.609  -3.853  1.00  0.00    -0.502 OA
ATOM     23  H   UNL     1      -6.983 -16.284  -4.028  1.00  0.00     0.293 HD
ENDBRANCH   2  22
BRANCH   9  24
ATOM     24  O   UNL     1     -12.418 -17.231   2.123  1.00  0.00    -0.508 OA
ATOM     25  H   UNL     1     -12.358 -16.864   3.065  1.00  0.00     0.293 HD
ENDBRANCH   9  24
TORSDOF 5
ENDMDL
MODEL 2
REMARK VINA RESULT:    -7.751      0.600      1.500
REMARK INTER + INTRA:          -9.066
REMARK INTER:                  -9.212
REMARK INTRA:                   0.146
REMARK UNBOUND:                 0.044
REMARK SMILES O=c1c(O)c(-c2ccc(O)c(O)c2)oc2cc(O)ccc12
REMARK SMILES IDX 5 1 3 2 2 3 1 4 21 5 15 6 14 7 16 8 17 9 19 10 20 11 6 12
REMARK SMILES IDX 7 13 8 14 9 15 13 16 11 17 10 18 12 20 4 22 18 24
REMARK H PARENT 10 19 12 21 4 23 18 25
REMARK Flexibility Score: inf
ROOT
ATOM      1  C   UNL     1     -10.057 -15.398  -3.098  1.00  0.00     0.180 A 
ATOM      2  C   UNL     1      -8.709 -15.753  -2.885  1.00  0.00     0.208 A 
ATOM      3  C   UNL     1      -8.351 -16.345  -1.664  1.00  0.00     0.235 A 
ATOM      4  O   UNL     1      -7.149 -16.663  -1.445  1.00  0.00    -0.285 OA
ATOM      5  C   UNL     1      -9.340 -16.586  -0.697  1.00  0.00     0.069 A 
ATOM      6  C   UNL     1     -10.670 -16.222  -0.997  1.00  0.00     0.142 A 
ATOM      7  O   UNL     1     -10.967 -15.656  -2.161  1.00  0.00    -0.452 OA
ATOM      8  C   UNL     1     -11.686 -16.454  -0.063  1.00  0.00     0.094 A 
ATOM      9  C   UNL     1     -11.387 -17.047   1.172  1.00  0.00     0.119 A 
ATOM     10  C   UNL     1     -10.069 -17.407   1.471  1.00  0.00     0.047 A 
ATOM     11  C   UNL     1      -9.047 -17.180   0.544  1.00  0.00     0.020 A 
ENDROOT
BRANCH   1  12
ATOM     12  C   UNL     1     -10.511 -14.753  -4.352  1.00  0.00     0.025 A 
ATOM     13  C   UNL     1      -9.723 -13.754  -4.939  1.00  0.00     0.016 A 
ATOM     14  C   UNL     1     -10.122 -13.148  -6.131  1.00  0.00     0.051 A 
ATOM     15  C   UNL     1     -11.305 -13.537  -6.769  1.00  0.00     0.157 A 
ATOM     16  C   UNL     1     -11.688 -15.163  -5.002  1.00  0.00     0.062 A 
ATOM     17  C   UNL     1     -12.095 -14.564  -6.201  1.00  0.00     0.158 A 
BRANCH  15  18
ATOM     18  O   UNL     1     -11.651 -12.887  -7.955  1.00  0.00    -0.504 OA
ATOM     19  H   UNL     1     -12.553 -12.971  -8.403  1.00  0.00     0.293 HD
ENDBRANCH  15  18
BRANCH  17  20
ATOM     20  O   UNL     1     -13.276 -15.020  -6.789  1.00  0.00    -0.504 OA
ATOM     21  H   UNL     1     -13.404 -15.955  -7.149  1.00  0.00     0.293 HD
ENDBRANCH  17  20
ENDBRANCH   1  12
BRANCH   2  22
ATOM     22  O   UNL     1      -7.756 -15.547  -3.886  1.00  0.00    -0.502 OA
ATOM     23  H   UNL     1      -6.797 -15.860  -3.792  1.00  0.00     0.293 HD
ENDBRANCH   2  22
BRANCH   9  24
ATOM     24  O   UNL     1     -12.393 -17.281   2.108  1.00  0.00    -0.508 OA
ATOM     25  H   UNL     1     -12.478 -18.173   2.581  1.00  0.00     0.293 HD
ENDBRANCH   9  24
TORSDOF 5
ENDMDL
MODEL 3
REMARK VINA RESULT:    -7.195      1.955      6.606
REMARK INTER + INTRA:          -8.412
REMARK INTER:                  -8.096
REMARK INTRA:                  -0.316
REMARK UNBOUND:                 0.044
REMARK SMILES O=c1c(O)c(-c2ccc(O)c(O)c2)oc2cc(O)ccc12
REMARK SMILES IDX 5 1 3 2 2 3 1 4 21 5 15 6 14 7 16 8 17 9 19 10 20 11 6 12
REMARK SMILES IDX 7 13 8 14 9 15 13 16 11 17 10 18 12 20 4 22 18 24
REMARK H PARENT 10 19 12 21 4 23 18 25
REMARK Flexibility Score: inf
ROOT
ATOM      1  C   UNL     1     -10.184 -14.648  -3.681  1.00  0.00     0.180 A 
ATOM      2  C   UNL     1      -9.052 -14.905  -4.482  1.00  0.00     0.208 A 
ATOM      3  C   UNL     1      -9.143 -14.698  -5.868  1.00  0.00     0.235 A 
ATOM      4  O   UNL     1      -8.148 -14.931  -6.608  1.00  0.00    -0.285 OA
ATOM      5  C   UNL     1     -10.345 -14.223  -6.418  1.00  0.00     0.069 A 
ATOM      6  C   UNL     1     -11.424 -13.968  -5.544  1.00  0.00     0.142 A 
ATOM      7  O   UNL     1     -11.300 -14.184  -4.240  1.00  0.00    -0.452 OA
ATOM      8  C   UNL     1     -12.636 -13.485  -6.053  1.00  0.00     0.094 A 
ATOM      9  C   UNL     1     -12.782 -13.255  -7.428  1.00  0.00     0.119 A 
ATOM     10  C   UNL     1     -11.714 -13.510  -8.294  1.00  0.00     0.047 A 
ATOM     11  C   UNL     1     -10.500 -13.991  -7.797  1.00  0.00     0.020 A 
ENDROOT
BRANCH   1  12
ATOM     12  C   UNL     1     -10.173 -14.858  -2.215  1.00  0.00     0.025 A 
ATOM     13  C   UNL     1     -10.530 -16.110  -1.696  1.00  0.00     0.016 A 
ATOM     14  C   UNL     1     -10.507 -16.336  -0.318  1.00  0.00     0.051 A 
ATOM     15  C   UNL     1     -10.114 -15.325   0.564  1.00  0.00     0.157 A 
ATOM     16  C   UNL     1      -9.755 -13.847  -1.333  1.00  0.00     0.062 A 
ATOM     17  C   UNL     1      -9.725 -14.066   0.050  1.00  0.00     0.158 A 
BRANCH  15  18
ATOM     18  O   UNL     1     -10.119 -15.613   1.931  1.00  0.00    -0.504 OA
ATOM     19  H   UNL     1     -10.344 -16.520   2.316  1.00  0.00     0.293 HD
ENDBRANCH  15  18
BRANCH  17  20
ATOM     20  O   UNL     1      -9.301 -13.015   0.867  1.00  0.00    -0.504 OA
ATOM     21  H   UNL     1      -9.284 -12.048   0.579  1.00  0.00     0.293 HD
ENDBRANCH  17  20
ENDBRANCH   1  12
BRANCH   2  22
ATOM     22  O   UNL     1      -7.855 -15.329  -3.901  1.00  0.00    -0.502 OA
ATOM     23  H   UNL     1      -7.107 -15.742  -4.444  1.00  0.00     0.293 HD
ENDBRANCH   2  22
BRANCH   9  24
ATOM     24  O   UNL     1     -13.985 -12.775  -7.942  1.00  0.00    -0.508 OA
ATOM     25  H   UNL     1     -14.648 -12.277  -7.360  1.00  0.00     0.293 HD
ENDBRANCH   9  24
TORSDOF 5
ENDMDL
MODEL 4
REMARK VINA RESULT:    -7.177      2.385      2.934
REMARK INTER + INTRA:          -8.392
REMARK INTER:                  -8.190
REMARK INTRA:                  -0.202
REMARK UNBOUND:                 0.044
REMARK SMILES O=c1c(O)c(-c2ccc(O)c(O)c2)oc2cc(O)ccc12
REMARK SMILES IDX 5 1 3 2 2 3 1 4 21 5 15 6 14 7 16 8 17 9 19 10 20 11 6 12
REMARK SMILES IDX 7 13 8 14 9 15 13 16 11 17 10 18 12 20 4 22 18 24
REMARK H PARENT 10 19 12 21 4 23 18 25
REMARK Flexibility Score: inf
ROOT
ATOM      1  C   UNL     1     -10.477 -14.827  -3.223  1.00  0.00     0.180 A 
ATOM      2  C   UNL     1     -11.064 -15.982  -2.668  1.00  0.00     0.208 A 
ATOM      3  C   UNL     1     -11.099 -16.119  -1.271  1.00  0.00     0.235 A 
ATOM      4  O   UNL     1     -11.609 -17.149  -0.751  1.00  0.00    -0.285 OA
ATOM      5  C   UNL     1     -10.571 -15.098  -0.464  1.00  0.00     0.069 A 
ATOM      6  C   UNL     1     -10.022 -13.962  -1.098  1.00  0.00     0.142 A 
ATOM      7  O   UNL     1     -10.000 -13.875  -2.423  1.00  0.00    -0.452 OA
ATOM      8  C   UNL     1      -9.494 -12.920  -0.328  1.00  0.00     0.094 A 
ATOM      9  C   UNL     1      -9.507 -12.999   1.072  1.00  0.00     0.119 A 
ATOM     10  C   UNL     1     -10.048 -14.125   1.700  1.00  0.00     0.047 A 
ATOM     11  C   UNL     1     -10.579 -15.172   0.940  1.00  0.00     0.020 A 
ENDROOT
BRANCH   1  12
ATOM     12  C   UNL     1     -10.386 -14.617  -4.687  1.00  0.00     0.025 A 
ATOM     13  C   UNL     1     -11.549 -14.342  -5.418  1.00  0.00     0.016 A 
ATOM     14  C   UNL     1     -11.482 -14.121  -6.795  1.00  0.00     0.051 A 
ATOM     15  C   UNL     1     -10.255 -14.156  -7.465  1.00  0.00     0.157 A 
ATOM     16  C   UNL     1      -9.148 -14.631  -5.353  1.00  0.00     0.062 A 
ATOM     17  C   UNL     1      -9.071 -14.407  -6.733  1.00  0.00     0.158 A 
BRANCH  15  18
ATOM     18  O   UNL     1     -10.258 -13.935  -8.844  1.00  0.00    -0.504 OA
ATOM     19  H   UNL     1     -10.894 -14.385  -9.487  1.00  0.00     0.293 HD
ENDBRANCH  15  18
BRANCH  17  20
ATOM     20  O   UNL     1      -7.808 -14.437  -7.329  1.00  0.00    -0.504 OA
ATOM     21  H   UNL     1      -6.960 -14.688  -6.842  1.00  0.00     0.293 HD
ENDBRANCH  17  20
ENDBRANCH   1  12
BRANCH   2  22
ATOM     22  O   UNL     1     -11.626 -16.958  -3.495  1.00  0.00    -0.502 OA
ATOM     23  H   UNL     1     -11.201 -17.868  -3.626  1.00  0.00     0.293 HD
ENDBRANCH   2  22
BRANCH   9  24
ATOM     24  O   UNL     1      -8.983 -11.965   1.845  1.00  0.00    -0.508 OA
ATOM     25  H   UNL     1      -9.228 -10.998   1.671  1.00  0.00     0.293 HD
ENDBRANCH   9  24
TORSDOF 5
ENDMDL
MODEL 5
REMARK VINA RESULT:    -6.644      2.747      4.728
REMARK INTER + INTRA:          -7.765
REMARK INTER:                  -7.520
REMARK INTRA:                  -0.245
REMARK UNBOUND:                 0.044
REMARK SMILES O=c1c(O)c(-c2ccc(O)c(O)c2)oc2cc(O)ccc12
REMARK SMILES IDX 5 1 3 2 2 3 1 4 21 5 15 6 14 7 16 8 17 9 19 10 20 11 6 12
REMARK SMILES IDX 7 13 8 14 9 15 13 16 11 17 10 18 12 20 4 22 18 24
REMARK H PARENT 10 19 12 21 4 23 18 25
REMARK Flexibility Score: inf
ROOT
ATOM      1  C   UNL     1      -9.400 -14.078  -6.239  1.00  0.00     0.180 A 
ATOM      2  C   UNL     1     -10.648 -13.607  -5.781  1.00  0.00     0.208 A 
ATOM      3  C   UNL     1     -11.046 -13.913  -4.470  1.00  0.00     0.235 A 
ATOM      4  O   UNL     1     -12.163 -13.513  -4.040  1.00  0.00    -0.285 OA
ATOM      5  C   UNL     1     -10.189 -14.658  -3.644  1.00  0.00     0.069 A 
ATOM      6  C   UNL     1      -8.946 -15.071  -4.171  1.00  0.00     0.142 A 
ATOM      7  O   UNL     1      -8.611 -14.769  -5.419  1.00  0.00    -0.452 OA
ATOM      8  C   UNL     1      -8.060 -15.808  -3.376  1.00  0.00     0.094 A 
ATOM      9  C   UNL     1      -8.403 -16.138  -2.057  1.00  0.00     0.119 A 
ATOM     10  C   UNL     1      -9.635 -15.730  -1.535  1.00  0.00     0.047 A 
ATOM     11  C   UNL     1     -10.526 -14.993  -2.320  1.00  0.00     0.020 A 
ENDROOT
BRANCH   1  12
ATOM     12  C   UNL     1      -8.917 -13.813  -7.614  1.00  0.00     0.025 A 
ATOM     13  C   UNL     1      -8.432 -12.539  -7.941  1.00  0.00     0.016 A 
ATOM     14  C   UNL     1      -7.953 -12.274  -9.226  1.00  0.00     0.051 A 
ATOM     15  C   UNL     1      -7.935 -13.275 -10.202  1.00  0.00     0.157 A 
ATOM     16  C   UNL     1      -8.880 -14.828  -8.586  1.00  0.00     0.062 A 
ATOM     17  C   UNL     1      -8.397 -14.572  -9.876  1.00  0.00     0.158 A 
BRANCH  15  18
ATOM     18  O   UNL     1      -7.450 -12.943 -11.468  1.00  0.00    -0.504 OA
ATOM     19  H   UNL     1      -6.762 -12.223 -11.639  1.00  0.00     0.293 HD
ENDBRANCH  15  18
BRANCH  17  20
ATOM     20  O   UNL     1      -8.391 -15.627 -10.791  1.00  0.00    -0.504 OA
ATOM     21  H   UNL     1      -9.161 -15.845 -11.406  1.00  0.00     0.293 HD
ENDBRANCH  17  20
ENDBRANCH   1  12
BRANCH   2  22
ATOM     22  O   UNL     1     -11.458 -12.826  -6.609  1.00  0.00    -0.502 OA
ATOM     23  H   UNL     1     -11.146 -11.943  -6.994  1.00  0.00     0.293 HD
ENDBRANCH   2  22
BRANCH   9  24
ATOM     24  O   UNL     1      -7.526 -16.871  -1.260  1.00  0.00    -0.508 OA
ATOM     25  H   UNL     1      -7.214 -16.525  -0.360  1.00  0.00     0.293 HD
ENDBRANCH   9  24
TORSDOF 5
ENDMDL
MODEL 6
REMARK VINA RESULT:    -6.581      2.111      7.094
REMARK INTER + INTRA:          -7.692
REMARK INTER:                  -7.480
REMARK INTRA:                  -0.212
REMARK UNBOUND:                 0.044
REMARK SMILES O=c1c(O)c(-c2ccc(O)c(O)c2)oc2cc(O)ccc12
REMARK SMILES IDX 5 1 3 2 2 3 1 4 21 5 15 6 14 7 16 8 17 9 19 10 20 11 6 12
REMARK SMILES IDX 7 13 8 14 9 15 13 16 11 17 10 18 12 20 4 22 18 24
REMARK H PARENT 10 19 12 21 4 23 18 25
REMARK Flexibility Score: inf
ROOT
ATOM      1  C   UNL     1     -10.938 -14.369  -5.422  1.00  0.00     0.180 A 
ATOM      2  C   UNL     1     -10.499 -13.254  -6.164  1.00  0.00     0.208 A 
ATOM      3  C   UNL     1     -11.279 -12.809  -7.243  1.00  0.00     0.235 A 
ATOM      4  O   UNL     1     -10.902 -11.820  -7.929  1.00  0.00    -0.285 OA
ATOM      5  C   UNL     1     -12.481 -13.469  -7.544  1.00  0.00     0.069 A 
ATOM      6  C   UNL     1     -12.862 -14.564  -6.737  1.00  0.00     0.142 A 
ATOM      7  O   UNL     1     -12.092 -14.958  -5.731  1.00  0.00    -0.452 OA
ATOM      8  C   UNL     1     -14.058 -15.242  -6.999  1.00  0.00     0.094 A 
ATOM      9  C   UNL     1     -14.881 -14.839  -8.061  1.00  0.00     0.119 A 
ATOM     10  C   UNL     1     -14.503 -13.756  -8.862  1.00  0.00     0.047 A 
ATOM     11  C   UNL     1     -13.311 -13.071  -8.608  1.00  0.00     0.020 A 
ENDROOT
BRANCH   1  12
ATOM     12  C   UNL     1     -10.162 -14.909  -4.282  1.00  0.00     0.025 A 
ATOM     13  C   UNL     1      -8.941 -15.554  -4.522  1.00  0.00     0.016 A 
ATOM     14  C   UNL     1      -8.184 -16.052  -3.460  1.00  0.00     0.051 A 
ATOM     15  C   UNL     1      -8.622 -15.904  -2.140  1.00  0.00     0.157 A 
ATOM     16  C   UNL     1     -10.594 -14.738  -2.955  1.00  0.00     0.062 A 
ATOM     17  C   UNL     1      -9.839 -15.231  -1.883  1.00  0.00     0.158 A 
BRANCH  15  18
ATOM     18  O   UNL     1      -7.822 -16.431  -1.124  1.00  0.00    -0.504 OA
ATOM     19  H   UNL     1      -7.754 -17.417  -0.913  1.00  0.00     0.293 HD
ENDBRANCH  15  18
BRANCH  17  20
ATOM     20  O   UNL     1     -10.331 -15.027  -0.592  1.00  0.00    -0.504 OA
ATOM     21  H   UNL     1      -9.877 -15.365   0.244  1.00  0.00     0.293 HD
ENDBRANCH  17  20
ENDBRANCH   1  12
BRANCH   2  22
ATOM     22  O   UNL     1      -9.323 -12.586  -5.811  1.00  0.00    -0.502 OA
ATOM     23  H   UNL     1      -9.064 -12.420  -4.846  1.00  0.00     0.293 HD
ENDBRANCH   2  22
BRANCH   9  24
ATOM     24  O   UNL     1     -16.072 -15.509  -8.328  1.00  0.00    -0.508 OA
ATOM     25  H   UNL     1     -16.417 -16.241  -7.718  1.00  0.00     0.293 HD
ENDBRANCH   9  24
TORSDOF 5
ENDMDL
MODEL 7
REMARK VINA RESULT:    -6.525      2.189      4.037
REMARK INTER + INTRA:          -7.626
REMARK INTER:                  -7.335
REMARK INTRA:                  -0.291
REMARK UNBOUND:                 0.044
REMARK SMILES O=c1c(O)c(-c2ccc(O)c(O)c2)oc2cc(O)ccc12
REMARK SMILES IDX 5 1 3 2 2 3 1 4 21 5 15 6 14 7 16 8 17 9 19 10 20 11 6 12
REMARK SMILES IDX 7 13 8 14 9 15 13 16 11 17 10 18 12 20 4 22 18 24
REMARK H PARENT 10 19 12 21 4 23 18 25
REMARK Flexibility Score: inf
ROOT
ATOM      1  C   UNL     1     -11.172 -14.299  -5.921  1.00  0.00     0.180 A 
ATOM      2  C   UNL     1      -9.872 -14.415  -6.453  1.00  0.00     0.208 A 
ATOM      3  C   UNL     1      -8.835 -14.854  -5.615  1.00  0.00     0.235 A 
ATOM      4  O   UNL     1      -7.660 -14.955  -6.065  1.00  0.00    -0.285 OA
ATOM      5  C   UNL     1      -9.118 -15.183  -4.280  1.00  0.00     0.069 A 
ATOM      6  C   UNL     1     -10.451 -15.062  -3.831  1.00  0.00     0.142 A 
ATOM      7  O   UNL     1     -11.402 -14.635  -4.653  1.00  0.00    -0.452 OA
ATOM      8  C   UNL     1     -10.776 -15.390  -2.510  1.00  0.00     0.094 A 
ATOM      9  C   UNL     1      -9.782 -15.838  -1.628  1.00  0.00     0.119 A 
ATOM     10  C   UNL     1      -8.460 -15.957  -2.072  1.00  0.00     0.047 A 
ATOM     11  C   UNL     1      -8.126 -15.633  -3.390  1.00  0.00     0.020 A 
ENDROOT
BRANCH   1  12
ATOM     12  C   UNL     1     -12.315 -13.827  -6.736  1.00  0.00     0.025 A 
ATOM     13  C   UNL     1     -12.481 -12.453  -6.961  1.00  0.00     0.016 A 
ATOM     14  C   UNL     1     -13.541 -11.988  -7.743  1.00  0.00     0.051 A 
ATOM     15  C   UNL     1     -14.443 -12.883  -8.327  1.00  0.00     0.157 A 
ATOM     16  C   UNL     1     -13.207 -14.730  -7.340  1.00  0.00     0.062 A 
ATOM     17  C   UNL     1     -14.270 -14.273  -8.129  1.00  0.00     0.158 A 
BRANCH  15  18
ATOM     18  O   UNL     1     -15.484 -12.353  -9.091  1.00  0.00    -0.504 OA
ATOM     19  H   UNL     1     -15.620 -12.547 -10.074  1.00  0.00     0.293 HD
ENDBRANCH  15  18
BRANCH  17  20
ATOM     20  O   UNL     1     -15.118 -15.227  -8.696  1.00  0.00    -0.504 OA
ATOM     21  H   UNL     1     -16.109 -15.283  -8.510  1.00  0.00     0.293 HD
ENDBRANCH  17  20
ENDBRANCH   1  12
BRANCH   2  22
ATOM     22  O   UNL     1      -9.629 -14.128  -7.799  1.00  0.00    -0.502 OA
ATOM     23  H   UNL     1     -10.278 -14.384  -8.533  1.00  0.00     0.293 HD
ENDBRANCH   2  22
BRANCH   9  24
ATOM     24  O   UNL     1     -10.097 -16.166  -0.312  1.00  0.00    -0.508 OA
ATOM     25  H   UNL     1     -10.871 -16.781  -0.090  1.00  0.00     0.293 HD
ENDBRANCH   9  24
TORSDOF 5
ENDMDL
MODEL 8
REMARK VINA RESULT:    -6.344      2.328      7.627
REMARK INTER + INTRA:          -7.413
REMARK INTER:                  -7.360
REMARK INTRA:                  -0.053
REMARK UNBOUND:                 0.044
REMARK SMILES O=c1c(O)c(-c2ccc(O)c(O)c2)oc2cc(O)ccc12
REMARK SMILES IDX 5 1 3 2 2 3 1 4 21 5 15 6 14 7 16 8 17 9 19 10 20 11 6 12
REMARK SMILES IDX 7 13 8 14 9 15 13 16 11 17 10 18 12 20 4 22 18 24
REMARK H PARENT 10 19 12 21 4 23 18 25
REMARK Flexibility Score: inf
ROOT
ATOM      1  C   UNL     1      -9.663 -14.503  -5.185  1.00  0.00     0.180 A 
ATOM      2  C   UNL     1     -10.901 -14.589  -5.853  1.00  0.00     0.208 A 
ATOM      3  C   UNL     1     -10.979 -14.167  -7.190  1.00  0.00     0.235 A 
ATOM      4  O   UNL     1     -12.078 -14.224  -7.807  1.00  0.00    -0.285 OA
ATOM      5  C   UNL     1      -9.825 -13.690  -7.832  1.00  0.00     0.069 A 
ATOM      6  C   UNL     1      -8.618 -13.658  -7.100  1.00  0.00     0.142 A 
ATOM      7  O   UNL     1      -8.588 -14.058  -5.834  1.00  0.00    -0.452 OA
ATOM      8  C   UNL     1      -7.444 -13.198  -7.707  1.00  0.00     0.094 A 
ATOM      9  C   UNL     1      -7.461 -12.769  -9.042  1.00  0.00     0.119 A 
ATOM     10  C   UNL     1      -8.657 -12.799  -9.768  1.00  0.00     0.047 A 
ATOM     11  C   UNL     1      -9.835 -13.257  -9.170  1.00  0.00     0.020 A 
ENDROOT
BRANCH   1  12
ATOM     12  C   UNL     1      -9.503 -14.911  -3.770  1.00  0.00     0.025 A 
ATOM     13  C   UNL     1      -8.464 -15.782  -3.417  1.00  0.00     0.016 A 
ATOM     14  C   UNL     1      -8.283 -16.164  -2.086  1.00  0.00     0.051 A 
ATOM     15  C   UNL     1      -9.125 -15.673  -1.082  1.00  0.00     0.157 A 
ATOM     16  C   UNL     1     -10.337 -14.398  -2.761  1.00  0.00     0.062 A 
ATOM     17  C   UNL     1     -10.161 -14.772  -1.423  1.00  0.00     0.158 A 
BRANCH  15  18
ATOM     18  O   UNL     1      -8.895 -16.100   0.228  1.00  0.00    -0.504 OA
ATOM     19  H   UNL     1      -8.036 -16.531   0.539  1.00  0.00     0.293 HD
ENDBRANCH  15  18
BRANCH  17  20
ATOM     20  O   UNL     1     -11.027 -14.225  -0.474  1.00  0.00    -0.504 OA
ATOM     21  H   UNL     1     -10.908 -14.325   0.524  1.00  0.00     0.293 HD
ENDBRANCH  17  20
ENDBRANCH   1  12
BRANCH   2  22
ATOM     22  O   UNL     1     -12.021 -15.114  -5.204  1.00  0.00    -0.502 OA
ATOM     23  H   UNL     1     -11.981 -15.968  -4.662  1.00  0.00     0.293 HD
ENDBRANCH   2  22
BRANCH   9  24
ATOM     24  O   UNL     1      -6.297 -12.310  -9.653  1.00  0.00    -0.508 OA
ATOM     25  H   UNL     1      -5.784 -12.883 -10.313  1.00  0.00     0.293 HD
ENDBRANCH   9  24
TORSDOF 5
ENDMDL
MODEL 9
REMARK VINA RESULT:    -6.287      5.875      7.791
REMARK INTER + INTRA:          -7.346
REMARK INTER:                  -7.055
REMARK INTRA:                  -0.291
REMARK UNBOUND:                 0.044
REMARK SMILES O=c1c(O)c(-c2ccc(O)c(O)c2)oc2cc(O)ccc12
REMARK SMILES IDX 5 1 3 2 2 3 1 4 21 5 15 6 14 7 16 8 17 9 19 10 20 11 6 12
REMARK SMILES IDX 7 13 8 14 9 15 13 16 11 17 10 18 12 20 4 22 18 24
REMARK H PARENT 10 19 12 21 4 23 18 25
REMARK Flexibility Score: inf
ROOT
ATOM      1  C   UNL     1     -11.549 -13.486  -8.273  1.00  0.00     0.180 A 
ATOM      2  C   UNL     1     -12.331 -12.492  -8.898  1.00  0.00     0.208 A 
ATOM      3  C   UNL     1     -13.697 -12.740  -9.109  1.00  0.00     0.235 A 
ATOM      4  O   UNL     1     -14.415 -11.871  -9.675  1.00  0.00    -0.285 OA
ATOM      5  C   UNL     1     -14.253 -13.955  -8.677  1.00  0.00     0.069 A 
ATOM      6  C   UNL     1     -13.407 -14.887  -8.039  1.00  0.00     0.142 A 
ATOM      7  O   UNL     1     -12.119 -14.619  -7.866  1.00  0.00    -0.452 OA
ATOM      8  C   UNL     1     -13.926 -16.106  -7.586  1.00  0.00     0.094 A 
ATOM      9  C   UNL     1     -15.284 -16.405  -7.765  1.00  0.00     0.119 A 
ATOM     10  C   UNL     1     -16.123 -15.482  -8.399  1.00  0.00     0.047 A 
ATOM     11  C   UNL     1     -15.614 -14.262  -8.854  1.00  0.00     0.020 A 
ENDROOT
BRANCH   1  12
ATOM     12  C   UNL     1     -10.099 -13.308  -8.032  1.00  0.00     0.025 A 
ATOM     13  C   UNL     1      -9.645 -13.029  -6.736  1.00  0.00     0.016 A 
ATOM     14  C   UNL     1      -8.280 -12.878  -6.483  1.00  0.00     0.051 A 
ATOM     15  C   UNL     1      -7.343 -13.016  -7.512  1.00  0.00     0.157 A 
ATOM     16  C   UNL     1      -9.159 -13.470  -9.065  1.00  0.00     0.062 A 
ATOM     17  C   UNL     1      -7.788 -13.324  -8.819  1.00  0.00     0.158 A 
BRANCH  15  18
ATOM     18  O   UNL     1      -5.994 -12.845  -7.194  1.00  0.00    -0.504 OA
ATOM     19  H   UNL     1      -5.542 -11.945  -7.116  1.00  0.00     0.293 HD
ENDBRANCH  15  18
BRANCH  17  20
ATOM     20  O   UNL     1      -6.912 -13.497  -9.893  1.00  0.00    -0.504 OA
ATOM     21  H   UNL     1      -5.912 -13.599  -9.795  1.00  0.00     0.293 HD
ENDBRANCH  17  20
ENDBRANCH   1  12
BRANCH   2  22
ATOM     22  O   UNL     1     -11.761 -11.273  -9.271  1.00  0.00    -0.502 OA
ATOM     23  H   UNL     1     -10.805 -11.029  -9.041  1.00  0.00     0.293 HD
ENDBRANCH   2  22
BRANCH   9  24
ATOM     24  O   UNL     1     -15.808 -17.616  -7.318  1.00  0.00    -0.508 OA
ATOM     25  H   UNL     1     -16.531 -18.103  -7.833  1.00  0.00     0.293 HD
ENDBRANCH   9  24
TORSDOF 5
ENDMDL
