MODEL 1
REMARK VINA RESULT:    -4.621      0.000      0.000
REMARK INTER + INTRA:          -6.703
REMARK INTER:                  -6.512
REMARK INTRA:                  -0.190
REMARK UNBOUND:                -0.190
REMARK SMILES CCCCCCCCC(=O)[O-]
REMARK SMILES IDX 6 1 7 2 8 3 9 4 10 5 11 6 5 7 4 8 3 9 2 10 1 11
REMARK H PARENT
REMARK Flexibility Score: inf
ROOT
ATOM      1  C   UNL     1     116.064 164.112 119.385  1.00  0.00     0.000 C 
ENDROOT
BRANCH   1   2
ATOM      2  C   UNL     1     115.667 164.609 120.783  1.00  0.00     0.006 C 
BRANCH   2   3
ATOM      3  C   UNL     1     116.889 164.693 121.702  1.00  0.00     0.053 C 
BRANCH   3   4
ATOM      4  C   UNL     1     116.675 165.721 122.767  1.00  0.00     0.041 C 
ATOM      5  O   UNL     1     117.493 166.669 122.907  1.00  0.00    -0.550 OA
ATOM      6  O   UNL     1     115.545 165.663 123.574  1.00  0.00    -0.550 OA
ENDBRANCH   3   4
ENDBRANCH   2   3
ENDBRANCH   1   2
BRANCH   1   7
ATOM      7  C   UNL     1     115.590 165.051 118.263  1.00  0.00     0.000 C 
BRANCH   7   8
ATOM      8  C   UNL     1     116.694 165.346 117.233  1.00  0.00    -0.000 C 
BRANCH   8   9
ATOM      9  C   UNL     1     116.148 166.005 115.957  1.00  0.00    -0.000 C 
BRANCH   9  10
ATOM     10  C   UNL     1     115.461 167.351 116.231  1.00  0.00    -0.003 C 
ATOM     11  C   UNL     1     115.213 168.115 114.933  1.00  0.00     0.004 C 
ENDBRANCH   9  10
ENDBRANCH   8   9
ENDBRANCH   7   8
ENDBRANCH   1   7
TORSDOF 7
ENDMDL
MODEL 2
REMARK VINA RESULT:    -4.561     13.699     15.472
REMARK INTER + INTRA:          -6.618
REMARK INTER:                  -5.875
REMARK INTRA:                  -0.742
REMARK UNBOUND:                -0.190
REMARK SMILES CCCCCCCCC(=O)[O-]
REMARK SMILES IDX 6 1 7 2 8 3 9 4 10 5 11 6 5 7 4 8 3 9 2 10 1 11
REMARK H PARENT
REMARK Flexibility Score: inf
ROOT
ATOM      1  C   UNL     1     118.131 177.619 127.766  1.00  0.00     0.000 C 
ENDROOT
BRANCH   1   2
ATOM      2  C   UNL     1     117.745 178.879 126.976  1.00  0.00     0.006 C 
BRANCH   2   3
ATOM      3  C   UNL     1     118.564 178.987 125.686  1.00  0.00     0.053 C 
BRANCH   3   4
ATOM      4  C   UNL     1     118.149 177.929 124.712  1.00  0.00     0.041 C 
ATOM      5  O   UNL     1     118.993 177.101 124.279  1.00  0.00    -0.550 OA
ATOM      6  O   UNL     1     116.820 177.826 124.320  1.00  0.00    -0.550 OA
ENDBRANCH   3   4
ENDBRANCH   2   3
ENDBRANCH   1   2
BRANCH   1   7
ATOM      7  C   UNL     1     119.132 177.910 128.897  1.00  0.00     0.000 C 
BRANCH   7   8
ATOM      8  C   UNL     1     120.496 177.237 128.667  1.00  0.00    -0.000 C 
BRANCH   8   9
ATOM      9  C   UNL     1     121.663 178.235 128.723  1.00  0.00    -0.000 C 
BRANCH   9  10
ATOM     10  C   UNL     1     121.967 178.870 127.358  1.00  0.00    -0.003 C 
ATOM     11  C   UNL     1     122.086 177.805 126.271  1.00  0.00     0.004 C 
ENDBRANCH   9  10
ENDBRANCH   8   9
ENDBRANCH   7   8
ENDBRANCH   1   7
TORSDOF 7
ENDMDL
MODEL 3
REMARK VINA RESULT:    -4.556     13.489     14.400
REMARK INTER + INTRA:          -6.610
REMARK INTER:                  -5.934
REMARK INTRA:                  -0.676
REMARK UNBOUND:                -0.190
REMARK SMILES CCCCCCCCC(=O)[O-]
REMARK SMILES IDX 6 1 7 2 8 3 9 4 10 5 11 6 5 7 4 8 3 9 2 10 1 11
REMARK H PARENT
REMARK Flexibility Score: inf
ROOT
ATOM      1  C   UNL     1     117.549 177.032 127.418  1.00  0.00     0.000 C 
ENDROOT
BRANCH   1   2
ATOM      2  C   UNL     1     116.033 177.280 127.377  1.00  0.00     0.006 C 
BRANCH   2   3
ATOM      3  C   UNL     1     115.469 176.989 125.984  1.00  0.00     0.053 C 
BRANCH   3   4
ATOM      4  C   UNL     1     115.146 178.264 125.271  1.00  0.00     0.041 C 
ATOM      5  O   UNL     1     115.270 179.369 125.862  1.00  0.00    -0.550 OA
ATOM      6  O   UNL     1     114.756 178.237 123.937  1.00  0.00    -0.550 OA
ENDBRANCH   3   4
ENDBRANCH   2   3
ENDBRANCH   1   2
BRANCH   1   7
ATOM      7  C   UNL     1     118.360 178.330 127.564  1.00  0.00     0.000 C 
BRANCH   7   8
ATOM      8  C   UNL     1     119.391 178.512 126.437  1.00  0.00    -0.000 C 
BRANCH   8   9
ATOM      9  C   UNL     1     118.766 179.081 125.153  1.00  0.00    -0.000 C 
BRANCH   9  10
ATOM     10  C   UNL     1     118.701 178.049 124.017  1.00  0.00    -0.003 C 
ATOM     11  C   UNL     1     119.348 178.591 122.746  1.00  0.00     0.004 C 
ENDBRANCH   9  10
ENDBRANCH   8   9
ENDBRANCH   7   8
ENDBRANCH   1   7
TORSDOF 7
ENDMDL
MODEL 4
REMARK VINA RESULT:    -4.554     13.335     14.437
REMARK INTER + INTRA:          -6.608
REMARK INTER:                  -6.225
REMARK INTRA:                  -0.384
REMARK UNBOUND:                -0.190
REMARK SMILES CCCCCCCCC(=O)[O-]
REMARK SMILES IDX 6 1 7 2 8 3 9 4 10 5 11 6 5 7 4 8 3 9 2 10 1 11
REMARK H PARENT
REMARK Flexibility Score: inf
ROOT
ATOM      1  C   UNL     1     122.521 176.704 119.278  1.00  0.00     0.000 C 
ENDROOT
BRANCH   1   2
ATOM      2  C   UNL     1     123.459 177.596 120.106  1.00  0.00     0.006 C 
BRANCH   2   3
ATOM      3  C   UNL     1     124.747 177.899 119.335  1.00  0.00     0.053 C 
BRANCH   3   4
ATOM      4  C   UNL     1     125.939 177.392 120.086  1.00  0.00     0.041 C 
ATOM      5  O   UNL     1     125.791 176.826 121.201  1.00  0.00    -0.550 OA
ATOM      6  O   UNL     1     127.208 177.501 119.532  1.00  0.00    -0.550 OA
ENDBRANCH   3   4
ENDBRANCH   2   3
ENDBRANCH   1   2
BRANCH   1   7
ATOM      7  C   UNL     1     123.085 176.381 117.884  1.00  0.00     0.000 C 
BRANCH   7   8
ATOM      8  C   UNL     1     122.243 176.990 116.750  1.00  0.00    -0.000 C 
BRANCH   8   9
ATOM      9  C   UNL     1     122.954 178.159 116.051  1.00  0.00    -0.000 C 
BRANCH   9  10
ATOM     10  C   UNL     1     121.976 179.123 115.364  1.00  0.00    -0.003 C 
ATOM     11  C   UNL     1     122.689 179.975 114.317  1.00  0.00     0.004 C 
ENDBRANCH   9  10
ENDBRANCH   8   9
ENDBRANCH   7   8
ENDBRANCH   1   7
TORSDOF 7
ENDMDL
MODEL 5
REMARK VINA RESULT:    -4.466     14.441     15.658
REMARK INTER + INTRA:          -6.484
REMARK INTER:                  -5.925
REMARK INTRA:                  -0.559
REMARK UNBOUND:                -0.190
REMARK SMILES CCCCCCCCC(=O)[O-]
REMARK SMILES IDX 6 1 7 2 8 3 9 4 10 5 11 6 5 7 4 8 3 9 2 10 1 11
REMARK H PARENT
REMARK Flexibility Score: inf
ROOT
ATOM      1  C   UNL     1     118.094 177.634 127.915  1.00  0.00     0.000 C 
ENDROOT
BRANCH   1   2
ATOM      2  C   UNL     1     118.088 178.733 126.841  1.00  0.00     0.006 C 
BRANCH   2   3
ATOM      3  C   UNL     1     116.683 179.316 126.663  1.00  0.00     0.053 C 
BRANCH   3   4
ATOM      4  C   UNL     1     115.749 178.277 126.126  1.00  0.00     0.041 C 
ATOM      5  O   UNL     1     114.692 177.993 126.749  1.00  0.00    -0.550 OA
ATOM      6  O   UNL     1     116.021 177.657 124.912  1.00  0.00    -0.550 OA
ENDBRANCH   3   4
ENDBRANCH   2   3
ENDBRANCH   1   2
BRANCH   1   7
ATOM      7  C   UNL     1     119.149 177.876 129.007  1.00  0.00     0.000 C 
BRANCH   7   8
ATOM      8  C   UNL     1     120.508 177.241 128.666  1.00  0.00    -0.000 C 
BRANCH   8   9
ATOM      9  C   UNL     1     121.667 178.248 128.749  1.00  0.00    -0.000 C 
BRANCH   9  10
ATOM     10  C   UNL     1     122.025 178.854 127.385  1.00  0.00    -0.003 C 
ATOM     11  C   UNL     1     121.850 177.831 126.266  1.00  0.00     0.004 C 
ENDBRANCH   9  10
ENDBRANCH   8   9
ENDBRANCH   7   8
ENDBRANCH   1   7
TORSDOF 7
ENDMDL
MODEL 6
REMARK VINA RESULT:    -4.446     13.857     15.095
REMARK INTER + INTRA:          -6.456
REMARK INTER:                  -5.958
REMARK INTRA:                  -0.498
REMARK UNBOUND:                -0.190
REMARK SMILES CCCCCCCCC(=O)[O-]
REMARK SMILES IDX 6 1 7 2 8 3 9 4 10 5 11 6 5 7 4 8 3 9 2 10 1 11
REMARK H PARENT
REMARK Flexibility Score: inf
ROOT
ATOM      1  C   UNL     1     118.660 179.062 125.501  1.00  0.00     0.000 C 
ENDROOT
BRANCH   1   2
ATOM      2  C   UNL     1     117.725 178.918 126.712  1.00  0.00     0.006 C 
BRANCH   2   3
ATOM      3  C   UNL     1     116.387 179.618 126.456  1.00  0.00     0.053 C 
BRANCH   3   4
ATOM      4  C   UNL     1     115.343 178.623 126.057  1.00  0.00     0.041 C 
ATOM      5  O   UNL     1     114.840 177.853 126.917  1.00  0.00    -0.550 OA
ATOM      6  O   UNL     1     114.888 178.580 124.745  1.00  0.00    -0.550 OA
ENDBRANCH   3   4
ENDBRANCH   2   3
ENDBRANCH   1   2
BRANCH   1   7
ATOM      7  C   UNL     1     118.912 177.726 124.783  1.00  0.00     0.000 C 
BRANCH   7   8
ATOM      8  C   UNL     1     120.409 177.392 124.666  1.00  0.00    -0.000 C 
BRANCH   8   9
ATOM      9  C   UNL     1     121.041 177.039 126.022  1.00  0.00    -0.000 C 
BRANCH   9  10
ATOM     10  C   UNL     1     122.295 177.871 126.327  1.00  0.00    -0.003 C 
ATOM     11  C   UNL     1     122.020 178.899 127.420  1.00  0.00     0.004 C 
ENDBRANCH   9  10
ENDBRANCH   8   9
ENDBRANCH   7   8
ENDBRANCH   1   7
TORSDOF 7
ENDMDL
MODEL 7
REMARK VINA RESULT:    -4.422     13.139     14.714
REMARK INTER + INTRA:          -6.422
REMARK INTER:                  -5.956
REMARK INTRA:                  -0.466
REMARK UNBOUND:                -0.190
REMARK SMILES CCCCCCCCC(=O)[O-]
REMARK SMILES IDX 6 1 7 2 8 3 9 4 10 5 11 6 5 7 4 8 3 9 2 10 1 11
REMARK H PARENT
REMARK Flexibility Score: inf
ROOT
ATOM      1  C   UNL     1     124.827 177.088 118.519  1.00  0.00     0.000 C 
ENDROOT
BRANCH   1   2
ATOM      2  C   UNL     1     123.918 178.271 118.151  1.00  0.00     0.006 C 
BRANCH   2   3
ATOM      3  C   UNL     1     123.845 178.454 116.632  1.00  0.00     0.053 C 
BRANCH   3   4
ATOM      4  C   UNL     1     122.474 178.127 116.130  1.00  0.00     0.041 C 
ATOM      5  O   UNL     1     121.947 177.017 116.404  1.00  0.00    -0.550 OA
ATOM      6  O   UNL     1     121.758 179.068 115.400  1.00  0.00    -0.550 OA
ENDBRANCH   3   4
ENDBRANCH   2   3
ENDBRANCH   1   2
BRANCH   1   7
ATOM      7  C   UNL     1     124.221 176.189 119.609  1.00  0.00     0.000 C 
BRANCH   7   8
ATOM      8  C   UNL     1     122.693 176.338 119.716  1.00  0.00    -0.000 C 
BRANCH   8   9
ATOM      9  C   UNL     1     122.240 176.752 121.125  1.00  0.00    -0.000 C 
BRANCH   9  10
ATOM     10  C   UNL     1     123.273 176.407 122.207  1.00  0.00    -0.003 C 
ATOM     11  C   UNL     1     122.693 176.607 123.605  1.00  0.00     0.004 C 
ENDBRANCH   9  10
ENDBRANCH   8   9
ENDBRANCH   7   8
ENDBRANCH   1   7
TORSDOF 7
ENDMDL
MODEL 8
REMARK VINA RESULT:    -4.392     13.368     15.307
REMARK INTER + INTRA:          -6.379
REMARK INTER:                  -5.824
REMARK INTRA:                  -0.555
REMARK UNBOUND:                -0.190
REMARK SMILES CCCCCCCCC(=O)[O-]
REMARK SMILES IDX 6 1 7 2 8 3 9 4 10 5 11 6 5 7 4 8 3 9 2 10 1 11
REMARK H PARENT
REMARK Flexibility Score: inf
ROOT
ATOM      1  C   UNL     1     118.546 178.954 126.235  1.00  0.00     0.000 C 
ENDROOT
BRANCH   1   2
ATOM      2  C   UNL     1     118.218 178.139 124.975  1.00  0.00     0.006 C 
BRANCH   2   3
ATOM      3  C   UNL     1     116.963 177.287 125.186  1.00  0.00     0.053 C 
BRANCH   3   4
ATOM      4  C   UNL     1     115.758 177.983 124.636  1.00  0.00     0.041 C 
ATOM      5  O   UNL     1     115.126 178.810 125.344  1.00  0.00    -0.550 OA
ATOM      6  O   UNL     1     115.361 177.756 123.324  1.00  0.00    -0.550 OA
ENDBRANCH   3   4
ENDBRANCH   2   3
ENDBRANCH   1   2
BRANCH   1   7
ATOM      7  C   UNL     1     118.001 178.308 127.519  1.00  0.00     0.000 C 
BRANCH   7   8
ATOM      8  C   UNL     1     119.102 178.044 128.561  1.00  0.00    -0.000 C 
BRANCH   8   9
ATOM      9  C   UNL     1     120.284 177.251 127.981  1.00  0.00    -0.000 C 
BRANCH   9  10
ATOM     10  C   UNL     1     121.645 177.865 128.340  1.00  0.00    -0.003 C 
ATOM     11  C   UNL     1     122.001 179.004 127.387  1.00  0.00     0.004 C 
ENDBRANCH   9  10
ENDBRANCH   8   9
ENDBRANCH   7   8
ENDBRANCH   1   7
TORSDOF 7
ENDMDL
MODEL 9
REMARK VINA RESULT:    -4.375     13.567     15.682
REMARK INTER + INTRA:          -6.355
REMARK INTER:                  -5.966
REMARK INTRA:                  -0.389
REMARK UNBOUND:                -0.190
REMARK SMILES CCCCCCCCC(=O)[O-]
REMARK SMILES IDX 6 1 7 2 8 3 9 4 10 5 11 6 5 7 4 8 3 9 2 10 1 11
REMARK H PARENT
REMARK Flexibility Score: inf
ROOT
ATOM      1  C   UNL     1     117.952 179.314 125.970  1.00  0.00     0.000 C 
ENDROOT
BRANCH   1   2
ATOM      2  C   UNL     1     116.641 179.277 126.771  1.00  0.00     0.006 C 
BRANCH   2   3
ATOM      3  C   UNL     1     115.436 179.107 125.840  1.00  0.00     0.053 C 
BRANCH   3   4
ATOM      4  C   UNL     1     115.499 177.787 125.138  1.00  0.00     0.041 C 
ATOM      5  O   UNL     1     115.440 177.734 123.881  1.00  0.00    -0.550 OA
ATOM      6  O   UNL     1     115.672 176.617 125.868  1.00  0.00    -0.550 OA
ENDBRANCH   3   4
ENDBRANCH   2   3
ENDBRANCH   1   2
BRANCH   1   7
ATOM      7  C   UNL     1     119.078 178.507 126.636  1.00  0.00     0.000 C 
BRANCH   7   8
ATOM      8  C   UNL     1     118.684 177.977 128.025  1.00  0.00    -0.000 C 
BRANCH   8   9
ATOM      9  C   UNL     1     119.904 177.701 128.918  1.00  0.00    -0.000 C 
BRANCH   9  10
ATOM     10  C   UNL     1     119.611 177.924 130.409  1.00  0.00    -0.003 C 
ATOM     11  C   UNL     1     119.308 176.604 131.113  1.00  0.00     0.004 C 
ENDBRANCH   9  10
ENDBRANCH   8   9
ENDBRANCH   7   8
ENDBRANCH   1   7
TORSDOF 7
ENDMDL
