MODEL 1
REMARK VINA RESULT:    -6.255      0.000      0.000
REMARK INTER + INTRA:          -7.222
REMARK INTER:                  -7.169
REMARK INTRA:                  -0.052
REMARK UNBOUND:                -0.052
REMARK SMILES O=C([O-])c1cc(O)c(O)c(O)c1
REMARK SMILES IDX 4 1 5 2 12 3 6 4 10 5 8 6 2 7 1 8 3 9 7 10 11 12 9 14
REMARK H PARENT 7 11 11 13 9 15
REMARK Flexibility Score: inf
ROOT
ATOM      1  C   UNL     1     -16.836 -10.160  -9.415  1.00  0.00     0.005 A 
ATOM      2  C   UNL     1     -16.440  -9.452  -8.267  1.00  0.00     0.060 A 
ATOM      3  C   UNL     1     -15.997 -11.169  -9.917  1.00  0.00     0.060 A 
ATOM      4  C   UNL     1     -15.226  -9.747  -7.631  1.00  0.00     0.162 A 
ATOM      5  C   UNL     1     -14.784 -11.468  -9.288  1.00  0.00     0.162 A 
ATOM      6  C   UNL     1     -14.394 -10.758  -8.141  1.00  0.00     0.200 A 
ENDROOT
BRANCH   1   7
ATOM      7  C   UNL     1     -18.117  -9.851 -10.089  1.00  0.00     0.072 C 
ATOM      8  O   UNL     1     -18.350 -10.280 -11.251  1.00  0.00    -0.545 OA
ATOM      9  O   UNL     1     -19.082  -9.081  -9.449  1.00  0.00    -0.545 OA
ENDBRANCH   1   7
BRANCH   4  10
ATOM     10  O   UNL     1     -14.844  -9.038  -6.493  1.00  0.00    -0.504 OA
ATOM     11  H   UNL     1     -14.547  -9.511  -5.647  1.00  0.00     0.293 HD
ENDBRANCH   4  10
BRANCH   5  12
ATOM     12  O   UNL     1     -13.980 -12.477  -9.818  1.00  0.00    -0.504 OA
ATOM     13  H   UNL     1     -14.040 -13.437  -9.501  1.00  0.00     0.293 HD
ENDBRANCH   5  12
BRANCH   6  14
ATOM     14  O   UNL     1     -13.182 -11.064  -7.519  1.00  0.00    -0.502 OA
ATOM     15  H   UNL     1     -12.768 -11.987  -7.569  1.00  0.00     0.293 HD
ENDBRANCH   6  14
TORSDOF 4
ENDMDL
MODEL 2
REMARK VINA RESULT:    -6.246      0.098      2.429
REMARK INTER + INTRA:          -7.212
REMARK INTER:                  -7.160
REMARK INTRA:                  -0.052
REMARK UNBOUND:                -0.052
REMARK SMILES O=C([O-])c1cc(O)c(O)c(O)c1
REMARK SMILES IDX 4 1 5 2 12 3 6 4 10 5 8 6 2 7 1 8 3 9 7 10 11 12 9 14
REMARK H PARENT 7 11 11 13 9 15
REMARK Flexibility Score: inf
ROOT
ATOM      1  C   UNL     1     -16.825 -10.138  -9.454  1.00  0.00     0.005 A 
ATOM      2  C   UNL     1     -16.010 -11.183  -9.924  1.00  0.00     0.060 A 
ATOM      3  C   UNL     1     -16.393  -9.379  -8.353  1.00  0.00     0.060 A 
ATOM      4  C   UNL     1     -14.785 -11.465  -9.305  1.00  0.00     0.162 A 
ATOM      5  C   UNL     1     -15.172  -9.656  -7.730  1.00  0.00     0.162 A 
ATOM      6  C   UNL     1     -14.362 -10.701  -8.204  1.00  0.00     0.200 A 
ENDROOT
BRANCH   1   7
ATOM      7  C   UNL     1     -18.119  -9.838 -10.106  1.00  0.00     0.072 C 
ATOM      8  O   UNL     1     -18.371 -10.275 -11.260  1.00  0.00    -0.545 OA
ATOM      9  O   UNL     1     -19.076  -9.068  -9.453  1.00  0.00    -0.545 OA
ENDBRANCH   1   7
BRANCH   4  10
ATOM     10  O   UNL     1     -13.986 -12.504  -9.780  1.00  0.00    -0.504 OA
ATOM     11  H   UNL     1     -14.278 -13.473  -9.713  1.00  0.00     0.293 HD
ENDBRANCH   4  10
BRANCH   5  12
ATOM     12  O   UNL     1     -14.780  -8.879  -6.640  1.00  0.00    -0.504 OA
ATOM     13  H   UNL     1     -15.392  -8.190  -6.220  1.00  0.00     0.293 HD
ENDBRANCH   5  12
BRANCH   6  14
ATOM     14  O   UNL     1     -13.145 -10.969  -7.577  1.00  0.00    -0.502 OA
ATOM     15  H   UNL     1     -12.833 -10.456  -6.759  1.00  0.00     0.293 HD
ENDBRANCH   6  14
TORSDOF 4
ENDMDL
MODEL 3
REMARK VINA RESULT:    -6.094      8.563     11.247
REMARK INTER + INTRA:          -7.037
REMARK INTER:                  -6.988
REMARK INTRA:                  -0.050
REMARK UNBOUND:                -0.052
REMARK SMILES O=C([O-])c1cc(O)c(O)c(O)c1
REMARK SMILES IDX 4 1 5 2 12 3 6 4 10 5 8 6 2 7 1 8 3 9 7 10 11 12 9 14
REMARK H PARENT 7 11 11 13 9 15
REMARK Flexibility Score: inf
ROOT
ATOM      1  C   UNL     1      -8.837 -13.660  -1.299  1.00  0.00     0.005 A 
ATOM      2  C   UNL     1      -9.762 -13.534  -2.349  1.00  0.00     0.060 A 
ATOM      3  C   UNL     1      -9.025 -12.903  -0.130  1.00  0.00     0.060 A 
ATOM      4  C   UNL     1     -10.857 -12.667  -2.235  1.00  0.00     0.162 A 
ATOM      5  C   UNL     1     -10.115 -12.035  -0.010  1.00  0.00     0.162 A 
ATOM      6  C   UNL     1     -11.037 -11.914  -1.063  1.00  0.00     0.200 A 
ENDROOT
BRANCH   1   7
ATOM      7  C   UNL     1      -7.679 -14.575  -1.417  1.00  0.00     0.072 C 
ATOM      8  O   UNL     1      -7.793 -15.676  -2.018  1.00  0.00    -0.545 OA
ATOM      9  O   UNL     1      -6.449 -14.231  -0.866  1.00  0.00    -0.545 OA
ENDBRANCH   1   7
BRANCH   4  10
ATOM     10  O   UNL     1     -11.768 -12.551  -3.285  1.00  0.00    -0.504 OA
ATOM     11  H   UNL     1     -11.668 -13.091  -4.138  1.00  0.00     0.293 HD
ENDBRANCH   4  10
BRANCH   5  12
ATOM     12  O   UNL     1     -10.266 -11.302   1.167  1.00  0.00    -0.504 OA
ATOM     13  H   UNL     1      -9.472 -10.967   1.700  1.00  0.00     0.293 HD
ENDBRANCH   5  12
BRANCH   6  14
ATOM     14  O   UNL     1     -12.122 -11.046  -0.933  1.00  0.00    -0.502 OA
ATOM     15  H   UNL     1     -12.004 -10.059  -0.733  1.00  0.00     0.293 HD
ENDBRANCH   6  14
TORSDOF 4
ENDMDL
MODEL 4
REMARK VINA RESULT:    -6.073      8.539     11.023
REMARK INTER + INTRA:          -7.013
REMARK INTER:                  -6.962
REMARK INTRA:                  -0.050
REMARK UNBOUND:                -0.052
REMARK SMILES O=C([O-])c1cc(O)c(O)c(O)c1
REMARK SMILES IDX 4 1 5 2 12 3 6 4 10 5 8 6 2 7 1 8 3 9 7 10 11 12 9 14
REMARK H PARENT 7 11 11 13 9 15
REMARK Flexibility Score: inf
ROOT
ATOM      1  C   UNL     1      -8.846 -13.690  -1.330  1.00  0.00     0.005 A 
ATOM      2  C   UNL     1      -9.037 -12.953  -0.148  1.00  0.00     0.060 A 
ATOM      3  C   UNL     1      -9.754 -13.527  -2.389  1.00  0.00     0.060 A 
ATOM      4  C   UNL     1     -10.117 -12.069  -0.026  1.00  0.00     0.162 A 
ATOM      5  C   UNL     1     -10.835 -12.646  -2.274  1.00  0.00     0.162 A 
ATOM      6  C   UNL     1     -11.021 -11.912  -1.091  1.00  0.00     0.200 A 
ENDROOT
BRANCH   1   7
ATOM      7  C   UNL     1      -7.706 -14.624  -1.461  1.00  0.00     0.072 C 
ATOM      8  O   UNL     1      -7.822 -15.686  -2.130  1.00  0.00    -0.545 OA
ATOM      9  O   UNL     1      -6.490 -14.344  -0.847  1.00  0.00    -0.545 OA
ENDBRANCH   1   7
BRANCH   4  10
ATOM     10  O   UNL     1     -10.296 -11.344   1.152  1.00  0.00    -0.504 OA
ATOM     11  H   UNL     1     -10.439 -11.805   2.044  1.00  0.00     0.293 HD
ENDBRANCH   4  10
BRANCH   5  12
ATOM     12  O   UNL     1     -11.714 -12.513  -3.349  1.00  0.00    -0.504 OA
ATOM     13  H   UNL     1     -11.863 -13.259  -4.019  1.00  0.00     0.293 HD
ENDBRANCH   5  12
BRANCH   6  14
ATOM     14  O   UNL     1     -12.101 -11.036  -0.986  1.00  0.00    -0.502 OA
ATOM     15  H   UNL     1     -12.856 -11.025  -1.663  1.00  0.00     0.293 HD
ENDBRANCH   6  14
TORSDOF 4
ENDMDL
MODEL 5
REMARK VINA RESULT:    -6.058      1.454      2.188
REMARK INTER + INTRA:          -6.996
REMARK INTER:                  -6.946
REMARK INTRA:                  -0.050
REMARK UNBOUND:                -0.052
REMARK SMILES O=C([O-])c1cc(O)c(O)c(O)c1
REMARK SMILES IDX 4 1 5 2 12 3 6 4 10 5 8 6 2 7 1 8 3 9 7 10 11 12 9 14
REMARK H PARENT 7 11 11 13 9 15
REMARK Flexibility Score: inf
ROOT
ATOM      1  C   UNL     1     -16.707 -10.094  -8.938  1.00  0.00     0.005 A 
ATOM      2  C   UNL     1     -15.869 -10.513  -7.890  1.00  0.00     0.060 A 
ATOM      3  C   UNL     1     -16.649 -10.768 -10.168  1.00  0.00     0.060 A 
ATOM      4  C   UNL     1     -14.987 -11.587  -8.068  1.00  0.00     0.162 A 
ATOM      5  C   UNL     1     -15.771 -11.841 -10.354  1.00  0.00     0.162 A 
ATOM      6  C   UNL     1     -14.936 -12.256  -9.303  1.00  0.00     0.200 A 
ENDROOT
BRANCH   1   7
ATOM      7  C   UNL     1     -17.640  -8.959  -8.751  1.00  0.00     0.072 C 
ATOM      8  O   UNL     1     -17.321  -7.982  -8.022  1.00  0.00    -0.545 OA
ATOM      9  O   UNL     1     -18.881  -8.957  -9.378  1.00  0.00    -0.545 OA
ENDBRANCH   1   7
BRANCH   4  10
ATOM     10  O   UNL     1     -14.160 -11.993  -7.021  1.00  0.00    -0.504 OA
ATOM     11  H   UNL     1     -13.170 -12.161  -7.161  1.00  0.00     0.293 HD
ENDBRANCH   4  10
BRANCH   5  12
ATOM     12  O   UNL     1     -15.744 -12.484 -11.591  1.00  0.00    -0.504 OA
ATOM     13  H   UNL     1     -15.745 -13.494 -11.675  1.00  0.00     0.293 HD
ENDBRANCH   5  12
BRANCH   6  14
ATOM     14  O   UNL     1     -14.063 -13.327  -9.498  1.00  0.00    -0.502 OA
ATOM     15  H   UNL     1     -13.314 -13.538  -8.848  1.00  0.00     0.293 HD
ENDBRANCH   6  14
TORSDOF 4
ENDMDL
MODEL 6
REMARK VINA RESULT:    -5.918      1.611      3.487
REMARK INTER + INTRA:          -6.835
REMARK INTER:                  -6.785
REMARK INTRA:                  -0.050
REMARK UNBOUND:                -0.052
REMARK SMILES O=C([O-])c1cc(O)c(O)c(O)c1
REMARK SMILES IDX 4 1 5 2 12 3 6 4 10 5 8 6 2 7 1 8 3 9 7 10 11 12 9 14
REMARK H PARENT 7 11 11 13 9 15
REMARK Flexibility Score: inf
ROOT
ATOM      1  C   UNL     1     -15.347 -11.076  -8.783  1.00  0.00     0.005 A 
ATOM      2  C   UNL     1     -14.250 -10.807  -7.946  1.00  0.00     0.060 A 
ATOM      3  C   UNL     1     -16.488 -10.260  -8.694  1.00  0.00     0.060 A 
ATOM      4  C   UNL     1     -14.290  -9.742  -7.037  1.00  0.00     0.162 A 
ATOM      5  C   UNL     1     -16.536  -9.196  -7.789  1.00  0.00     0.162 A 
ATOM      6  C   UNL     1     -15.436  -8.932  -6.956  1.00  0.00     0.200 A 
ENDROOT
BRANCH   1   7
ATOM      7  C   UNL     1     -15.306 -12.201  -9.744  1.00  0.00     0.072 C 
ATOM      8  O   UNL     1     -14.683 -13.260  -9.464  1.00  0.00    -0.545 OA
ATOM      9  O   UNL     1     -15.955 -12.104 -10.971  1.00  0.00    -0.545 OA
ENDBRANCH   1   7
BRANCH   4  10
ATOM     10  O   UNL     1     -13.196  -9.485  -6.213  1.00  0.00    -0.504 OA
ATOM     11  H   UNL     1     -13.068  -9.972  -5.332  1.00  0.00     0.293 HD
ENDBRANCH   4  10
BRANCH   5  12
ATOM     12  O   UNL     1     -17.687  -8.410  -7.732  1.00  0.00    -0.504 OA
ATOM     13  H   UNL     1     -17.651  -7.398  -7.762  1.00  0.00     0.293 HD
ENDBRANCH   5  12
BRANCH   6  14
ATOM     14  O   UNL     1     -15.493  -7.867  -6.055  1.00  0.00    -0.502 OA
ATOM     15  H   UNL     1     -15.926  -6.982  -6.292  1.00  0.00     0.293 HD
ENDBRANCH   6  14
TORSDOF 4
ENDMDL
MODEL 7
REMARK VINA RESULT:    -5.914      1.588      3.386
REMARK INTER + INTRA:          -6.830
REMARK INTER:                  -6.780
REMARK INTRA:                  -0.050
REMARK UNBOUND:                -0.052
REMARK SMILES O=C([O-])c1cc(O)c(O)c(O)c1
REMARK SMILES IDX 4 1 5 2 12 3 6 4 10 5 8 6 2 7 1 8 3 9 7 10 11 12 9 14
REMARK H PARENT 7 11 11 13 9 15
REMARK Flexibility Score: inf
ROOT
ATOM      1  C   UNL     1     -15.391 -11.070  -8.821  1.00  0.00     0.005 A 
ATOM      2  C   UNL     1     -16.536 -10.258  -8.744  1.00  0.00     0.060 A 
ATOM      3  C   UNL     1     -14.306 -10.801  -7.971  1.00  0.00     0.060 A 
ATOM      4  C   UNL     1     -16.597  -9.196  -7.833  1.00  0.00     0.162 A 
ATOM      5  C   UNL     1     -14.359  -9.741  -7.059  1.00  0.00     0.162 A 
ATOM      6  C   UNL     1     -15.506  -8.934  -6.986  1.00  0.00     0.200 A 
ENDROOT
BRANCH   1   7
ATOM      7  C   UNL     1     -15.325 -12.193  -9.783  1.00  0.00     0.072 C 
ATOM      8  O   UNL     1     -14.707 -13.252  -9.490  1.00  0.00    -0.545 OA
ATOM      9  O   UNL     1     -15.944 -12.096 -11.024  1.00  0.00    -0.545 OA
ENDBRANCH   1   7
BRANCH   4  10
ATOM     10  O   UNL     1     -17.738  -8.397  -7.765  1.00  0.00    -0.504 OA
ATOM     11  H   UNL     1     -18.288  -8.327  -6.916  1.00  0.00     0.293 HD
ENDBRANCH   4  10
BRANCH   5  12
ATOM     12  O   UNL     1     -13.260  -9.507  -6.233  1.00  0.00    -0.504 OA
ATOM     13  H   UNL     1     -12.484  -8.923  -6.520  1.00  0.00     0.293 HD
ENDBRANCH   5  12
BRANCH   6  14
ATOM     14  O   UNL     1     -15.550  -7.879  -6.073  1.00  0.00    -0.502 OA
ATOM     15  H   UNL     1     -15.457  -6.911  -6.361  1.00  0.00     0.293 HD
ENDBRANCH   6  14
TORSDOF 4
ENDMDL
MODEL 8
REMARK VINA RESULT:    -5.820      1.619      3.225
REMARK INTER + INTRA:          -6.723
REMARK INTER:                  -6.671
REMARK INTRA:                  -0.051
REMARK UNBOUND:                -0.052
REMARK SMILES O=C([O-])c1cc(O)c(O)c(O)c1
REMARK SMILES IDX 4 1 5 2 12 3 6 4 10 5 8 6 2 7 1 8 3 9 7 10 11 12 9 14
REMARK H PARENT 7 11 11 13 9 15
REMARK Flexibility Score: inf
ROOT
ATOM      1  C   UNL     1     -18.183 -10.529 -10.685  1.00  0.00     0.005 A 
ATOM      2  C   UNL     1     -16.947 -11.198 -10.627  1.00  0.00     0.060 A 
ATOM      3  C   UNL     1     -18.418  -9.454  -9.812  1.00  0.00     0.060 A 
ATOM      4  C   UNL     1     -15.964 -10.799  -9.712  1.00  0.00     0.162 A 
ATOM      5  C   UNL     1     -17.441  -9.051  -8.896  1.00  0.00     0.162 A 
ATOM      6  C   UNL     1     -16.208  -9.722  -8.843  1.00  0.00     0.200 A 
ENDROOT
BRANCH   1   7
ATOM      7  C   UNL     1     -19.224 -10.949 -11.651  1.00  0.00     0.072 C 
ATOM      8  O   UNL     1     -19.248 -12.129 -12.094  1.00  0.00    -0.545 OA
ATOM      9  O   UNL     1     -20.189 -10.047 -12.083  1.00  0.00    -0.545 OA
ENDBRANCH   1   7
BRANCH   4  10
ATOM     10  O   UNL     1     -14.742 -11.470  -9.663  1.00  0.00    -0.504 OA
ATOM     11  H   UNL     1     -14.226 -11.573  -8.796  1.00  0.00     0.293 HD
ENDBRANCH   4  10
BRANCH   5  12
ATOM     12  O   UNL     1     -17.714  -7.979  -8.047  1.00  0.00    -0.504 OA
ATOM     13  H   UNL     1     -18.506  -7.980  -7.415  1.00  0.00     0.293 HD
ENDBRANCH   5  12
BRANCH   6  14
ATOM     14  O   UNL     1     -15.239  -9.313  -7.926  1.00  0.00    -0.502 OA
ATOM     15  H   UNL     1     -15.155  -9.731  -7.006  1.00  0.00     0.293 HD
ENDBRANCH   6  14
TORSDOF 4
ENDMDL
MODEL 9
REMARK VINA RESULT:    -5.809      1.646      2.351
REMARK INTER + INTRA:          -6.711
REMARK INTER:                  -6.659
REMARK INTRA:                  -0.051
REMARK UNBOUND:                -0.052
REMARK SMILES O=C([O-])c1cc(O)c(O)c(O)c1
REMARK SMILES IDX 4 1 5 2 12 3 6 4 10 5 8 6 2 7 1 8 3 9 7 10 11 12 9 14
REMARK H PARENT 7 11 11 13 9 15
REMARK Flexibility Score: inf
ROOT
ATOM      1  C   UNL     1     -18.207 -10.513 -10.697  1.00  0.00     0.005 A 
ATOM      2  C   UNL     1     -18.454  -9.445  -9.817  1.00  0.00     0.060 A 
ATOM      3  C   UNL     1     -16.962 -11.162 -10.648  1.00  0.00     0.060 A 
ATOM      4  C   UNL     1     -17.475  -9.031  -8.904  1.00  0.00     0.162 A 
ATOM      5  C   UNL     1     -15.979 -10.754  -9.741  1.00  0.00     0.162 A 
ATOM      6  C   UNL     1     -16.232  -9.687  -8.864  1.00  0.00     0.200 A 
ENDROOT
BRANCH   1   7
ATOM      7  C   UNL     1     -19.241 -10.952 -11.661  1.00  0.00     0.072 C 
ATOM      8  O   UNL     1     -19.246 -12.133 -12.102  1.00  0.00    -0.545 OA
ATOM      9  O   UNL     1     -20.221 -10.066 -12.095  1.00  0.00    -0.545 OA
ENDBRANCH   1   7
BRANCH   4  10
ATOM     10  O   UNL     1     -17.731  -7.971  -8.037  1.00  0.00    -0.504 OA
ATOM     11  H   UNL     1     -17.318  -7.056  -8.179  1.00  0.00     0.293 HD
ENDBRANCH   4  10
BRANCH   5  12
ATOM     12  O   UNL     1     -14.756 -11.424  -9.725  1.00  0.00    -0.504 OA
ATOM     13  H   UNL     1     -14.476 -12.052 -10.469  1.00  0.00     0.293 HD
ENDBRANCH   5  12
BRANCH   6  14
ATOM     14  O   UNL     1     -15.245  -9.287  -7.962  1.00  0.00    -0.502 OA
ATOM     15  H   UNL     1     -14.258  -9.321  -8.190  1.00  0.00     0.293 HD
ENDBRANCH   6  14
TORSDOF 4
ENDMDL
