MODEL 1
REMARK VINA RESULT:    -4.294      0.000      0.000
REMARK INTER + INTRA:          -7.694
REMARK INTER:                  -6.302
REMARK INTRA:                  -1.392
REMARK UNBOUND:                -1.392
REMARK SMILES Cc1cc2c(C(C)C)c(O)c(O)c(C=O)c2c(O)c1-c1c(C)cc2c(C(C)C)c(O)c(O)c(C=O)c2c1O
REMARK SMILES IDX 1 1 2 2 3 3 4 4 16 5 13 6 11 7 9 8 5 9 17 10 19 11 20 12
REMARK SMILES IDX 37 13 21 14 36 15 23 16 22 17 24 18 33 19 25 20 31 21 29 22
REMARK SMILES IDX 38 23 34 25 35 26 26 27 27 28 28 29 32 30 30 32 18 34 6 36
REMARK SMILES IDX 7 37 8 38 14 39 15 40 10 41 12 43
REMARK H PARENT 38 24 32 31 30 33 18 35 10 42 12 44
REMARK Flexibility Score: inf
ROOT
ATOM      1  C   UNL     1      37.531 -47.741 -11.125  1.00  0.00     0.045 C 
ATOM      2  C   UNL     1      36.866 -48.363  -9.921  1.00  0.00    -0.039 A 
ATOM      3  C   UNL     1      35.476 -48.470  -9.886  1.00  0.00     0.013 A 
ATOM      4  C   UNL     1      34.799 -49.084  -8.809  1.00  0.00    -0.006 A 
ATOM      5  C   UNL     1      35.557 -49.512  -7.675  1.00  0.00     0.039 A 
ATOM      6  C   UNL     1      34.863 -50.016  -6.533  1.00  0.00     0.072 A 
ATOM      7  C   UNL     1      33.453 -50.023  -6.514  1.00  0.00     0.169 A 
ATOM      8  C   UNL     1      32.725 -49.604  -7.631  1.00  0.00     0.162 A 
ATOM      9  C   UNL     1      33.379 -49.244  -8.828  1.00  0.00     0.008 A 
ATOM     10  C   UNL     1      36.980 -49.380  -7.707  1.00  0.00     0.132 A 
ATOM     11  C   UNL     1      37.624 -48.823  -8.832  1.00  0.00     0.031 A 
ENDROOT
BRANCH  11  12
ATOM     12  C   UNL     1      39.105 -48.698  -8.859  1.00  0.00     0.031 A 
ATOM     13  C   UNL     1      39.720 -47.487  -8.479  1.00  0.00     0.132 A 
ATOM     14  C   UNL     1      39.894 -49.799  -9.235  1.00  0.00    -0.039 A 
ATOM     15  C   UNL     1      41.136 -47.346  -8.541  1.00  0.00     0.039 A 
ATOM     16  C   UNL     1      41.287 -49.700  -9.174  1.00  0.00     0.013 A 
ATOM     17  C   UNL     1      39.266 -51.115  -9.624  1.00  0.00     0.045 C 
ATOM     18  C   UNL     1      41.935 -48.486  -8.858  1.00  0.00    -0.006 A 
ATOM     19  C   UNL     1      41.784 -46.115  -8.241  1.00  0.00     0.072 A 
ATOM     20  C   UNL     1      43.361 -48.394  -8.807  1.00  0.00     0.008 A 
ATOM     21  C   UNL     1      43.168 -46.089  -8.015  1.00  0.00     0.169 A 
ATOM     22  C   UNL     1      43.941 -47.246  -8.218  1.00  0.00     0.162 A 
BRANCH  13  23
ATOM     23  O   UNL     1      38.932 -46.441  -7.986  1.00  0.00    -0.507 OA
ATOM     24  H   UNL     1      39.216 -45.827  -7.232  1.00  0.00     0.293 HD
ENDBRANCH  13  23
BRANCH  19  25
ATOM     25  C   UNL     1      41.080 -44.812  -8.232  1.00  0.00     0.264 C 
ATOM     26  O   UNL     1      40.818 -44.231  -7.146  1.00  0.00    -0.298 OA
ENDBRANCH  19  25
BRANCH  20  27
ATOM     27  C   UNL     1      44.267 -49.530  -9.315  1.00  0.00     0.017 C 
ATOM     28  C   UNL     1      44.714 -50.433  -8.161  1.00  0.00     0.012 C 
ATOM     29  C   UNL     1      45.471 -49.042 -10.143  1.00  0.00     0.012 C 
ENDBRANCH  20  27
BRANCH  21  30
ATOM     30  O   UNL     1      43.761 -44.879  -7.633  1.00  0.00    -0.504 OA
ATOM     31  H   UNL     1      44.389 -44.347  -8.219  1.00  0.00     0.293 HD
ENDBRANCH  21  30
BRANCH  22  32
ATOM     32  O   UNL     1      45.285 -47.281  -7.836  1.00  0.00    -0.504 OA
ATOM     33  H   UNL     1      45.600 -47.339  -6.878  1.00  0.00     0.293 HD
ENDBRANCH  22  32
ENDBRANCH  11  12
BRANCH  10  34
ATOM     34  O   UNL     1      37.756 -49.790  -6.617  1.00  0.00    -0.507 OA
ATOM     35  H   UNL     1      38.748 -49.989  -6.667  1.00  0.00     0.293 HD
ENDBRANCH  10  34
BRANCH   9  36
ATOM     36  C   UNL     1      32.551 -49.015 -10.107  1.00  0.00     0.017 C 
ATOM     37  C   UNL     1      31.792 -47.687 -10.032  1.00  0.00     0.012 C 
ATOM     38  C   UNL     1      31.608 -50.180 -10.458  1.00  0.00     0.012 C 
ENDBRANCH   9  36
BRANCH   6  39
ATOM     39  C   UNL     1      35.575 -50.521  -5.343  1.00  0.00     0.264 C 
ATOM     40  O   UNL     1      35.623 -49.836  -4.288  1.00  0.00    -0.298 OA
ENDBRANCH   6  39
BRANCH   8  41
ATOM     41  O   UNL     1      31.331 -49.549  -7.555  1.00  0.00    -0.504 OA
ATOM     42  H   UNL     1      30.730 -49.569  -8.371  1.00  0.00     0.293 HD
ENDBRANCH   8  41
BRANCH   7  43
ATOM     43  O   UNL     1      32.736 -50.475  -5.398  1.00  0.00    -0.504 OA
ATOM     44  H   UNL     1      32.282 -49.867  -4.731  1.00  0.00     0.293 HD
ENDBRANCH   7  43
TORSDOF 11
ENDMDL
MODEL 2
REMARK VINA RESULT:    -4.273      0.369      9.154
REMARK INTER + INTRA:          -7.664
REMARK INTER:                  -6.234
REMARK INTRA:                  -1.430
REMARK UNBOUND:                -1.392
REMARK SMILES Cc1cc2c(C(C)C)c(O)c(O)c(C=O)c2c(O)c1-c1c(C)cc2c(C(C)C)c(O)c(O)c(C=O)c2c1O
REMARK SMILES IDX 1 1 2 2 3 3 4 4 16 5 13 6 11 7 9 8 5 9 17 10 19 11 20 12
REMARK SMILES IDX 37 13 21 14 36 15 23 16 22 17 24 18 33 19 25 20 31 21 29 22
REMARK SMILES IDX 38 23 34 25 35 26 26 27 27 28 28 29 32 30 30 32 18 34 6 36
REMARK SMILES IDX 7 37 8 38 14 39 15 40 10 41 12 43
REMARK H PARENT 38 24 32 31 30 33 18 35 10 42 12 44
REMARK Flexibility Score: inf
ROOT
ATOM      1  C   UNL     1      39.377 -51.029  -9.623  1.00  0.00     0.045 C 
ATOM      2  C   UNL     1      39.941 -49.696  -9.192  1.00  0.00    -0.039 A 
ATOM      3  C   UNL     1      41.323 -49.512  -9.169  1.00  0.00     0.013 A 
ATOM      4  C   UNL     1      41.908 -48.275  -8.820  1.00  0.00    -0.006 A 
ATOM      5  C   UNL     1      41.059 -47.214  -8.376  1.00  0.00     0.039 A 
ATOM      6  C   UNL     1      41.657 -46.007  -7.903  1.00  0.00     0.072 A 
ATOM      7  C   UNL     1      43.060 -45.903  -7.818  1.00  0.00     0.169 A 
ATOM      8  C   UNL     1      43.878 -46.948  -8.258  1.00  0.00     0.162 A 
ATOM      9  C   UNL     1      43.324 -48.092  -8.871  1.00  0.00     0.008 A 
ATOM     10  C   UNL     1      39.644 -47.415  -8.382  1.00  0.00     0.132 A 
ATOM     11  C   UNL     1      39.095 -48.645  -8.803  1.00  0.00     0.031 A 
ENDROOT
BRANCH  11  12
ATOM     12  C   UNL     1      37.621 -48.841  -8.813  1.00  0.00     0.031 A 
ATOM     13  C   UNL     1      36.976 -49.412  -7.697  1.00  0.00     0.132 A 
ATOM     14  C   UNL     1      36.868 -48.428  -9.925  1.00  0.00    -0.039 A 
ATOM     15  C   UNL     1      35.570 -49.641  -7.714  1.00  0.00     0.039 A 
ATOM     16  C   UNL     1      35.475 -48.537  -9.891  1.00  0.00     0.013 A 
ATOM     17  C   UNL     1      37.526 -47.793 -11.125  1.00  0.00     0.045 C 
ATOM     18  C   UNL     1      34.801 -49.159  -8.816  1.00  0.00    -0.006 A 
ATOM     19  C   UNL     1      34.899 -50.286  -6.637  1.00  0.00     0.072 A 
ATOM     20  C   UNL     1      33.376 -49.272  -8.795  1.00  0.00     0.008 A 
ATOM     21  C   UNL     1      33.500 -50.222  -6.546  1.00  0.00     0.169 A 
ATOM     22  C   UNL     1      32.748 -49.644  -7.584  1.00  0.00     0.162 A 
BRANCH  13  23
ATOM     23  O   UNL     1      37.719 -49.701  -6.546  1.00  0.00    -0.507 OA
ATOM     24  H   UNL     1      38.635 -49.313  -6.353  1.00  0.00     0.293 HD
ENDBRANCH  13  23
BRANCH  19  25
ATOM     25  C   UNL     1      35.599 -51.110  -5.626  1.00  0.00     0.264 C 
ATOM     26  O   UNL     1      35.791 -50.671  -4.461  1.00  0.00    -0.298 OA
ENDBRANCH  19  25
BRANCH  20  27
ATOM     27  C   UNL     1      32.517 -48.940 -10.029  1.00  0.00     0.017 C 
ATOM     28  C   UNL     1      31.740 -47.637  -9.822  1.00  0.00     0.012 C 
ATOM     29  C   UNL     1      31.583 -50.086 -10.462  1.00  0.00     0.012 C 
ENDBRANCH  20  27
BRANCH  21  30
ATOM     30  O   UNL     1      32.877 -50.790  -5.429  1.00  0.00    -0.504 OA
ATOM     31  H   UNL     1      32.290 -50.277  -4.786  1.00  0.00     0.293 HD
ENDBRANCH  21  30
BRANCH  22  32
ATOM     32  O   UNL     1      31.377 -49.422  -7.431  1.00  0.00    -0.504 OA
ATOM     33  H   UNL     1      30.974 -48.833  -6.715  1.00  0.00     0.293 HD
ENDBRANCH  22  32
ENDBRANCH  11  12
BRANCH  10  34
ATOM     34  O   UNL     1      38.780 -46.399  -7.957  1.00  0.00    -0.507 OA
ATOM     35  H   UNL     1      38.261 -46.419  -7.088  1.00  0.00     0.293 HD
ENDBRANCH  10  34
BRANCH   9  36
ATOM     36  C   UNL     1      44.254 -49.113  -9.554  1.00  0.00     0.017 C 
ATOM     37  C   UNL     1      44.890 -50.045  -8.519  1.00  0.00     0.012 C 
ATOM     38  C   UNL     1      45.319 -48.475 -10.464  1.00  0.00     0.012 C 
ENDBRANCH   9  36
BRANCH   6  39
ATOM     39  C   UNL     1      40.848 -44.848  -7.473  1.00  0.00     0.264 C 
ATOM     40  O   UNL     1      40.687 -44.600  -6.249  1.00  0.00    -0.298 OA
ENDBRANCH   6  39
BRANCH   8  41
ATOM     41  O   UNL     1      45.261 -46.848  -8.090  1.00  0.00    -0.504 OA
ATOM     42  H   UNL     1      45.823 -47.580  -7.672  1.00  0.00     0.293 HD
ENDBRANCH   8  41
BRANCH   7  43
ATOM     43  O   UNL     1      43.682 -44.749  -7.324  1.00  0.00    -0.504 OA
ATOM     44  H   UNL     1      44.314 -44.738  -6.535  1.00  0.00     0.293 HD
ENDBRANCH   7  43
TORSDOF 11
ENDMDL
MODEL 3
REMARK VINA RESULT:    -4.235      3.408     10.695
REMARK INTER + INTRA:          -7.607
REMARK INTER:                  -6.224
REMARK INTRA:                  -1.383
REMARK UNBOUND:                -1.392
REMARK SMILES Cc1cc2c(C(C)C)c(O)c(O)c(C=O)c2c(O)c1-c1c(C)cc2c(C(C)C)c(O)c(O)c(C=O)c2c1O
REMARK SMILES IDX 1 1 2 2 3 3 4 4 16 5 13 6 11 7 9 8 5 9 17 10 19 11 20 12
REMARK SMILES IDX 37 13 21 14 36 15 23 16 22 17 24 18 33 19 25 20 31 21 29 22
REMARK SMILES IDX 38 23 34 25 35 26 26 27 27 28 28 29 32 30 30 32 18 34 6 36
REMARK SMILES IDX 7 37 8 38 14 39 15 40 10 41 12 43
REMARK H PARENT 38 24 32 31 30 33 18 35 10 42 12 44
REMARK Flexibility Score: inf
ROOT
ATOM      1  C   UNL     1      43.186 -44.536  -7.897  1.00  0.00     0.045 C 
ATOM      2  C   UNL     1      44.413 -45.173  -8.504  1.00  0.00    -0.039 A 
ATOM      3  C   UNL     1      45.580 -44.422  -8.635  1.00  0.00     0.013 A 
ATOM      4  C   UNL     1      46.773 -44.975  -9.151  1.00  0.00    -0.006 A 
ATOM      5  C   UNL     1      46.751 -46.314  -9.649  1.00  0.00     0.039 A 
ATOM      6  C   UNL     1      47.919 -46.831 -10.286  1.00  0.00     0.072 A 
ATOM      7  C   UNL     1      49.044 -46.003 -10.472  1.00  0.00     0.169 A 
ATOM      8  C   UNL     1      49.053 -44.695  -9.977  1.00  0.00     0.162 A 
ATOM      9  C   UNL     1      47.975 -44.203  -9.211  1.00  0.00     0.008 A 
ATOM     10  C   UNL     1      45.546 -47.074  -9.531  1.00  0.00     0.132 A 
ATOM     11  C   UNL     1      44.393 -46.506  -8.947  1.00  0.00     0.031 A 
ENDROOT
BRANCH  11  12
ATOM     12  C   UNL     1      43.147 -47.307  -8.821  1.00  0.00     0.031 A 
ATOM     13  C   UNL     1      42.936 -48.111  -7.682  1.00  0.00     0.132 A 
ATOM     14  C   UNL     1      42.165 -47.237  -9.824  1.00  0.00    -0.039 A 
ATOM     15  C   UNL     1      41.763 -48.913  -7.572  1.00  0.00     0.039 A 
ATOM     16  C   UNL     1      40.960 -47.924  -9.656  1.00  0.00     0.013 A 
ATOM     17  C   UNL     1      42.352 -46.367 -11.043  1.00  0.00     0.045 C 
ATOM     18  C   UNL     1      40.740 -48.786  -8.559  1.00  0.00    -0.006 A 
ATOM     19  C   UNL     1      41.554 -49.795  -6.475  1.00  0.00     0.072 A 
ATOM     20  C   UNL     1      39.506 -49.491  -8.402  1.00  0.00     0.008 A 
ATOM     21  C   UNL     1      40.279 -50.329  -6.239  1.00  0.00     0.169 A 
ATOM     22  C   UNL     1      39.238 -50.110  -7.159  1.00  0.00     0.162 A 
BRANCH  13  23
ATOM     23  O   UNL     1      43.861 -48.074  -6.632  1.00  0.00    -0.507 OA
ATOM     24  H   UNL     1      43.823 -47.409  -5.869  1.00  0.00     0.293 HD
ENDBRANCH  13  23
BRANCH  19  25
ATOM     25  C   UNL     1      42.648 -50.259  -5.591  1.00  0.00     0.264 C 
ATOM     26  O   UNL     1      42.805 -49.759  -4.445  1.00  0.00    -0.298 OA
ENDBRANCH  19  25
BRANCH  20  27
ATOM     27  C   UNL     1      38.449 -49.538  -9.520  1.00  0.00     0.017 C 
ATOM     28  C   UNL     1      37.296 -48.574  -9.226  1.00  0.00     0.012 C 
ATOM     29  C   UNL     1      37.929 -50.956  -9.825  1.00  0.00     0.012 C 
ENDBRANCH  20  27
BRANCH  21  30
ATOM     30  O   UNL     1      40.086 -51.121  -5.101  1.00  0.00    -0.504 OA
ATOM     31  H   UNL     1      40.622 -51.951  -4.891  1.00  0.00     0.293 HD
ENDBRANCH  21  30
BRANCH  22  32
ATOM     32  O   UNL     1      37.928 -50.490  -6.855  1.00  0.00    -0.504 OA
ATOM     33  H   UNL     1      37.206 -49.849  -6.557  1.00  0.00     0.293 HD
ENDBRANCH  22  32
ENDBRANCH  11  12
BRANCH  10  34
ATOM     34  O   UNL     1      45.485 -48.389 -10.005  1.00  0.00    -0.507 OA
ATOM     35  H   UNL     1      44.771 -48.736 -10.633  1.00  0.00     0.293 HD
ENDBRANCH  10  34
BRANCH   9  36
ATOM     36  C   UNL     1      48.112 -42.852  -8.485  1.00  0.00     0.017 C 
ATOM     37  C   UNL     1      47.878 -43.017  -6.981  1.00  0.00     0.012 C 
ATOM     38  C   UNL     1      47.227 -41.736  -9.070  1.00  0.00     0.012 C 
ENDBRANCH   9  36
BRANCH   6  39
ATOM     39  C   UNL     1      47.991 -48.220 -10.784  1.00  0.00     0.264 C 
ATOM     40  O   UNL     1      48.543 -49.118 -10.096  1.00  0.00    -0.298 OA
ENDBRANCH   6  39
BRANCH   8  41
ATOM     41  O   UNL     1      50.151 -43.873 -10.244  1.00  0.00    -0.504 OA
ATOM     42  H   UNL     1      50.062 -42.938 -10.624  1.00  0.00     0.293 HD
ENDBRANCH   8  41
BRANCH   7  43
ATOM     43  O   UNL     1      50.195 -46.463 -11.125  1.00  0.00    -0.504 OA
ATOM     44  H   UNL     1      50.288 -47.384 -11.530  1.00  0.00     0.293 HD
ENDBRANCH   7  43
TORSDOF 11
ENDMDL
MODEL 4
REMARK VINA RESULT:    -4.223      3.075      5.417
REMARK INTER + INTRA:          -7.590
REMARK INTER:                  -6.404
REMARK INTRA:                  -1.186
REMARK UNBOUND:                -1.392
REMARK SMILES Cc1cc2c(C(C)C)c(O)c(O)c(C=O)c2c(O)c1-c1c(C)cc2c(C(C)C)c(O)c(O)c(C=O)c2c1O
REMARK SMILES IDX 1 1 2 2 3 3 4 4 16 5 13 6 11 7 9 8 5 9 17 10 19 11 20 12
REMARK SMILES IDX 37 13 21 14 36 15 23 16 22 17 24 18 33 19 25 20 31 21 29 22
REMARK SMILES IDX 38 23 34 25 35 26 26 27 27 28 28 29 32 30 30 32 18 34 6 36
REMARK SMILES IDX 7 37 8 38 14 39 15 40 10 41 12 43
REMARK H PARENT 38 24 32 31 30 33 18 35 10 42 12 44
REMARK Flexibility Score: inf
ROOT
ATOM      1  C   UNL     1      43.369 -47.657  -5.398  1.00  0.00     0.045 C 
ATOM      2  C   UNL     1      42.172 -48.148  -6.176  1.00  0.00    -0.039 A 
ATOM      3  C   UNL     1      40.923 -48.190  -5.557  1.00  0.00     0.013 A 
ATOM      4  C   UNL     1      39.759 -48.595  -6.246  1.00  0.00    -0.006 A 
ATOM      5  C   UNL     1      39.885 -49.075  -7.586  1.00  0.00     0.039 A 
ATOM      6  C   UNL     1      38.731 -49.603  -8.240  1.00  0.00     0.072 A 
ATOM      7  C   UNL     1      37.511 -49.704  -7.540  1.00  0.00     0.169 A 
ATOM      8  C   UNL     1      37.401 -49.228  -6.231  1.00  0.00     0.162 A 
ATOM      9  C   UNL     1      38.480 -48.563  -5.609  1.00  0.00     0.008 A 
ATOM     10  C   UNL     1      41.171 -49.049  -8.210  1.00  0.00     0.132 A 
ATOM     11  C   UNL     1      42.299 -48.573  -7.509  1.00  0.00     0.031 A 
ENDROOT
BRANCH  11  12
ATOM     12  C   UNL     1      43.631 -48.542  -8.169  1.00  0.00     0.031 A 
ATOM     13  C   UNL     1      44.090 -47.358  -8.780  1.00  0.00     0.132 A 
ATOM     14  C   UNL     1      44.446 -49.688  -8.156  1.00  0.00    -0.039 A 
ATOM     15  C   UNL     1      45.347 -47.331  -9.450  1.00  0.00     0.039 A 
ATOM     16  C   UNL     1      45.730 -49.624  -8.701  1.00  0.00     0.013 A 
ATOM     17  C   UNL     1      43.992 -50.963  -7.489  1.00  0.00     0.045 C 
ATOM     18  C   UNL     1      46.199 -48.474  -9.375  1.00  0.00    -0.006 A 
ATOM     19  C   UNL     1      45.807 -46.176 -10.144  1.00  0.00     0.072 A 
ATOM     20  C   UNL     1      47.513 -48.423  -9.937  1.00  0.00     0.008 A 
ATOM     21  C   UNL     1      47.154 -46.077 -10.523  1.00  0.00     0.169 A 
ATOM     22  C   UNL     1      48.022 -47.169 -10.345  1.00  0.00     0.162 A 
BRANCH  13  23
ATOM     23  O   UNL     1      43.326 -46.189  -8.676  1.00  0.00    -0.507 OA
ATOM     24  H   UNL     1      43.458 -45.491  -7.954  1.00  0.00     0.293 HD
ENDBRANCH  13  23
BRANCH  19  25
ATOM     25  C   UNL     1      44.908 -45.081 -10.572  1.00  0.00     0.264 C 
ATOM     26  O   UNL     1      44.915 -43.972  -9.974  1.00  0.00    -0.298 OA
ENDBRANCH  19  25
BRANCH  20  27
ATOM     27  C   UNL     1      48.397 -49.678 -10.048  1.00  0.00     0.017 C 
ATOM     28  C   UNL     1      47.860 -50.635 -11.117  1.00  0.00     0.012 C 
ATOM     29  C   UNL     1      48.619 -50.404  -8.707  1.00  0.00     0.012 C 
ENDBRANCH  20  27
BRANCH  21  30
ATOM     30  O   UNL     1      47.593 -44.892 -11.124  1.00  0.00    -0.504 OA
ATOM     31  H   UNL     1      48.153 -44.856 -11.964  1.00  0.00     0.293 HD
ENDBRANCH  21  30
BRANCH  22  32
ATOM     32  O   UNL     1      49.396 -47.028 -10.559  1.00  0.00    -0.504 OA
ATOM     33  H   UNL     1      50.061 -47.785 -10.486  1.00  0.00     0.293 HD
ENDBRANCH  22  32
ENDBRANCH  11  12
BRANCH  10  34
ATOM     34  O   UNL     1      41.334 -49.509  -9.522  1.00  0.00    -0.507 OA
ATOM     35  H   UNL     1      40.637 -49.412 -10.250  1.00  0.00     0.293 HD
ENDBRANCH  10  34
BRANCH   9  36
ATOM     36  C   UNL     1      38.257 -47.847  -4.264  1.00  0.00     0.017 C 
ATOM     37  C   UNL     1      38.032 -48.861  -3.139  1.00  0.00     0.012 C 
ATOM     38  C   UNL     1      37.138 -46.790  -4.298  1.00  0.00     0.012 C 
ENDBRANCH   9  36
BRANCH   6  39
ATOM     39  C   UNL     1      38.769 -50.074  -9.639  1.00  0.00     0.264 C 
ATOM     40  O   UNL     1      38.149 -51.115  -9.980  1.00  0.00    -0.298 OA
ENDBRANCH   6  39
BRANCH   8  41
ATOM     41  O   UNL     1      36.203 -49.411  -5.536  1.00  0.00    -0.504 OA
ATOM     42  H   UNL     1      36.005 -48.970  -4.646  1.00  0.00     0.293 HD
ENDBRANCH   8  41
BRANCH   7  43
ATOM     43  O   UNL     1      36.366 -50.250  -8.135  1.00  0.00    -0.504 OA
ATOM     44  H   UNL     1      35.465 -50.313  -7.681  1.00  0.00     0.293 HD
ENDBRANCH   7  43
TORSDOF 11
ENDMDL
MODEL 5
REMARK VINA RESULT:    -4.214      2.842      5.514
REMARK INTER + INTRA:          -7.577
REMARK INTER:                  -6.379
REMARK INTRA:                  -1.197
REMARK UNBOUND:                -1.392
REMARK SMILES Cc1cc2c(C(C)C)c(O)c(O)c(C=O)c2c(O)c1-c1c(C)cc2c(C(C)C)c(O)c(O)c(C=O)c2c1O
REMARK SMILES IDX 1 1 2 2 3 3 4 4 16 5 13 6 11 7 9 8 5 9 17 10 19 11 20 12
REMARK SMILES IDX 37 13 21 14 36 15 23 16 22 17 24 18 33 19 25 20 31 21 29 22
REMARK SMILES IDX 38 23 34 25 35 26 26 27 27 28 28 29 32 30 30 32 18 34 6 36
REMARK SMILES IDX 7 37 8 38 14 39 15 40 10 41 12 43
REMARK H PARENT 38 24 32 31 30 33 18 35 10 42 12 44
REMARK Flexibility Score: inf
ROOT
ATOM      1  C   UNL     1      41.530 -51.124  -9.105  1.00  0.00     0.045 C 
ATOM      2  C   UNL     1      40.950 -49.732  -9.036  1.00  0.00    -0.039 A 
ATOM      3  C   UNL     1      39.616 -49.529  -9.385  1.00  0.00     0.013 A 
ATOM      4  C   UNL     1      39.004 -48.259  -9.297  1.00  0.00    -0.006 A 
ATOM      5  C   UNL     1      39.807 -47.132  -8.940  1.00  0.00     0.039 A 
ATOM      6  C   UNL     1      39.221 -45.830  -8.974  1.00  0.00     0.072 A 
ATOM      7  C   UNL     1      37.893 -45.668  -9.417  1.00  0.00     0.169 A 
ATOM      8  C   UNL     1      37.118 -46.780  -9.761  1.00  0.00     0.162 A 
ATOM      9  C   UNL     1      37.616 -48.089  -9.595  1.00  0.00     0.008 A 
ATOM     10  C   UNL     1      41.180 -47.342  -8.603  1.00  0.00     0.132 A 
ATOM     11  C   UNL     1      41.737 -48.639  -8.638  1.00  0.00     0.031 A 
ENDROOT
BRANCH  11  12
ATOM     12  C   UNL     1      43.164 -48.849  -8.277  1.00  0.00     0.031 A 
ATOM     13  C   UNL     1      43.513 -49.231  -6.966  1.00  0.00     0.132 A 
ATOM     14  C   UNL     1      44.163 -48.697  -9.254  1.00  0.00    -0.039 A 
ATOM     15  C   UNL     1      44.880 -49.396  -6.601  1.00  0.00     0.039 A 
ATOM     16  C   UNL     1      45.492 -48.981  -8.930  1.00  0.00     0.013 A 
ATOM     17  C   UNL     1      43.818 -48.311 -10.672  1.00  0.00     0.045 C 
ATOM     18  C   UNL     1      45.884 -49.306  -7.612  1.00  0.00    -0.006 A 
ATOM     19  C   UNL     1      45.273 -49.704  -5.268  1.00  0.00     0.072 A 
ATOM     20  C   UNL     1      47.249 -49.587  -7.289  1.00  0.00     0.008 A 
ATOM     21  C   UNL     1      46.575 -50.156  -5.009  1.00  0.00     0.169 A 
ATOM     22  C   UNL     1      47.537 -50.174  -6.035  1.00  0.00     0.162 A 
BRANCH  13  23
ATOM     23  O   UNL     1      42.502 -49.504  -6.037  1.00  0.00    -0.507 OA
ATOM     24  H   UNL     1      42.628 -50.092  -5.222  1.00  0.00     0.293 HD
ENDBRANCH  13  23
BRANCH  19  25
ATOM     25  C   UNL     1      44.391 -49.495  -4.098  1.00  0.00     0.264 C 
ATOM     26  O   UNL     1      43.869 -50.475  -3.503  1.00  0.00    -0.298 OA
ENDBRANCH  19  25
BRANCH  20  27
ATOM     27  C   UNL     1      48.390 -49.327  -8.289  1.00  0.00     0.017 C 
ATOM     28  C   UNL     1      48.476 -47.841  -8.649  1.00  0.00     0.012 C 
ATOM     29  C   UNL     1      48.321 -50.206  -9.553  1.00  0.00     0.012 C 
ENDBRANCH  20  27
BRANCH  21  30
ATOM     30  O   UNL     1      46.903 -50.536  -3.702  1.00  0.00    -0.504 OA
ATOM     31  H   UNL     1      47.528 -50.017  -3.101  1.00  0.00     0.293 HD
ENDBRANCH  21  30
BRANCH  22  32
ATOM     32  O   UNL     1      48.781 -50.776  -5.834  1.00  0.00    -0.504 OA
ATOM     33  H   UNL     1      48.969 -51.757  -5.992  1.00  0.00     0.293 HD
ENDBRANCH  22  32
ENDBRANCH  11  12
BRANCH  10  34
ATOM     34  O   UNL     1      41.998 -46.264  -8.245  1.00  0.00    -0.507 OA
ATOM     35  H   UNL     1      42.062 -45.400  -8.769  1.00  0.00     0.293 HD
ENDBRANCH  10  34
BRANCH   9  36
ATOM     36  C   UNL     1      36.666 -49.290  -9.757  1.00  0.00     0.017 C 
ATOM     37  C   UNL     1      35.978 -49.258 -11.125  1.00  0.00     0.012 C 
ATOM     38  C   UNL     1      35.640 -49.433  -8.618  1.00  0.00     0.012 C 
ENDBRANCH   9  36
BRANCH   6  39
ATOM     39  C   UNL     1      39.970 -44.623  -8.573  1.00  0.00     0.264 C 
ATOM     40  O   UNL     1      39.541 -43.880  -7.651  1.00  0.00    -0.298 OA
ENDBRANCH   6  39
BRANCH   8  41
ATOM     41  O   UNL     1      35.832 -46.583 -10.271  1.00  0.00    -0.504 OA
ATOM     42  H   UNL     1      35.038 -46.336  -9.691  1.00  0.00     0.293 HD
ENDBRANCH   8  41
BRANCH   7  43
ATOM     43  O   UNL     1      37.295 -44.404  -9.500  1.00  0.00    -0.504 OA
ATOM     44  H   UNL     1      37.487 -43.732 -10.230  1.00  0.00     0.293 HD
ENDBRANCH   7  43
TORSDOF 11
ENDMDL
MODEL 6
REMARK VINA RESULT:    -4.073      2.693      5.148
REMARK INTER + INTRA:          -7.370
REMARK INTER:                  -6.229
REMARK INTRA:                  -1.141
REMARK UNBOUND:                -1.392
REMARK SMILES Cc1cc2c(C(C)C)c(O)c(O)c(C=O)c2c(O)c1-c1c(C)cc2c(C(C)C)c(O)c(O)c(C=O)c2c1O
REMARK SMILES IDX 1 1 2 2 3 3 4 4 16 5 13 6 11 7 9 8 5 9 17 10 19 11 20 12
REMARK SMILES IDX 37 13 21 14 36 15 23 16 22 17 24 18 33 19 25 20 31 21 29 22
REMARK SMILES IDX 38 23 34 25 35 26 26 27 27 28 28 29 32 30 30 32 18 34 6 36
REMARK SMILES IDX 7 37 8 38 14 39 15 40 10 41 12 43
REMARK H PARENT 38 24 32 31 30 33 18 35 10 42 12 44
REMARK Flexibility Score: inf
ROOT
ATOM      1  C   UNL     1      41.378 -45.926 -10.818  1.00  0.00     0.045 C 
ATOM      2  C   UNL     1      40.826 -46.975  -9.882  1.00  0.00    -0.039 A 
ATOM      3  C   UNL     1      39.476 -47.316  -9.955  1.00  0.00     0.013 A 
ATOM      4  C   UNL     1      38.913 -48.322  -9.139  1.00  0.00    -0.006 A 
ATOM      5  C   UNL     1      39.729 -48.933  -8.138  1.00  0.00     0.039 A 
ATOM      6  C   UNL     1      39.129 -49.857  -7.230  1.00  0.00     0.072 A 
ATOM      7  C   UNL     1      37.742 -50.102  -7.290  1.00  0.00     0.169 A 
ATOM      8  C   UNL     1      36.956 -49.499  -8.277  1.00  0.00     0.162 A 
ATOM      9  C   UNL     1      37.541 -48.701  -9.281  1.00  0.00     0.008 A 
ATOM     10  C   UNL     1      41.108 -48.565  -8.054  1.00  0.00     0.132 A 
ATOM     11  C   UNL     1      41.649 -47.604  -8.933  1.00  0.00     0.031 A 
ENDROOT
BRANCH  11  12
ATOM     12  C   UNL     1      43.087 -47.234  -8.843  1.00  0.00     0.031 A 
ATOM     13  C   UNL     1      44.061 -48.023  -9.486  1.00  0.00     0.132 A 
ATOM     14  C   UNL     1      43.469 -46.078  -8.141  1.00  0.00    -0.039 A 
ATOM     15  C   UNL     1      45.444 -47.700  -9.372  1.00  0.00     0.039 A 
ATOM     16  C   UNL     1      44.812 -45.690  -8.135  1.00  0.00     0.013 A 
ATOM     17  C   UNL     1      42.447 -45.200  -7.462  1.00  0.00     0.045 C 
ATOM     18  C   UNL     1      45.822 -46.489  -8.716  1.00  0.00    -0.006 A 
ATOM     19  C   UNL     1      46.459 -48.518  -9.942  1.00  0.00     0.072 A 
ATOM     20  C   UNL     1      47.194 -46.086  -8.697  1.00  0.00     0.008 A 
ATOM     21  C   UNL     1      47.765 -48.022 -10.076  1.00  0.00     0.169 A 
ATOM     22  C   UNL     1      48.109 -46.774  -9.526  1.00  0.00     0.162 A 
BRANCH  13  23
ATOM     23  O   UNL     1      43.658 -49.098 -10.287  1.00  0.00    -0.507 OA
ATOM     24  H   UNL     1      43.140 -48.995 -11.152  1.00  0.00     0.293 HD
ENDBRANCH  13  23
BRANCH  19  25
ATOM     25  C   UNL     1      46.234 -49.926 -10.338  1.00  0.00     0.264 C 
ATOM     26  O   UNL     1      46.781 -50.868  -9.704  1.00  0.00    -0.298 OA
ENDBRANCH  19  25
BRANCH  20  27
ATOM     27  C   UNL     1      47.678 -44.895  -7.850  1.00  0.00     0.017 C 
ATOM     28  C   UNL     1      48.000 -43.687  -8.736  1.00  0.00     0.012 C 
ATOM     29  C   UNL     1      48.856 -45.234  -6.917  1.00  0.00     0.012 C 
ENDBRANCH  20  27
BRANCH  21  30
ATOM     30  O   UNL     1      48.718 -48.817 -10.722  1.00  0.00    -0.504 OA
ATOM     31  H   UNL     1      48.662 -49.095 -11.692  1.00  0.00     0.293 HD
ENDBRANCH  21  30
BRANCH  22  32
ATOM     32  O   UNL     1      49.351 -46.195  -9.798  1.00  0.00    -0.504 OA
ATOM     33  H   UNL     1      50.095 -46.104  -9.119  1.00  0.00     0.293 HD
ENDBRANCH  22  32
ENDBRANCH  11  12
BRANCH  10  34
ATOM     34  O   UNL     1      41.940 -49.143  -7.088  1.00  0.00    -0.507 OA
ATOM     35  H   UNL     1      42.929 -49.317  -7.219  1.00  0.00     0.293 HD
ENDBRANCH  10  34
BRANCH   9  36
ATOM     36  C   UNL     1      36.691 -48.245 -10.482  1.00  0.00     0.017 C 
ATOM     37  C   UNL     1      35.808 -47.053 -10.102  1.00  0.00     0.012 C 
ATOM     38  C   UNL     1      35.862 -49.374 -11.124  1.00  0.00     0.012 C 
ENDBRANCH   9  36
BRANCH   6  39
ATOM     39  C   UNL     1      39.914 -50.566  -6.200  1.00  0.00     0.264 C 
ATOM     40  O   UNL     1      39.842 -50.221  -4.991  1.00  0.00    -0.298 OA
ENDBRANCH   6  39
BRANCH   8  41
ATOM     41  O   UNL     1      35.573 -49.700  -8.263  1.00  0.00    -0.504 OA
ATOM     42  H   UNL     1      35.147 -50.615  -8.182  1.00  0.00     0.293 HD
ENDBRANCH   8  41
BRANCH   7  43
ATOM     43  O   UNL     1      37.111 -50.973  -6.393  1.00  0.00    -0.504 OA
ATOM     44  H   UNL     1      36.594 -50.673  -5.578  1.00  0.00     0.293 HD
ENDBRANCH   7  43
TORSDOF 11
ENDMDL
MODEL 7
REMARK VINA RESULT:    -4.000      3.075      9.786
REMARK INTER + INTRA:          -7.263
REMARK INTER:                  -5.762
REMARK INTRA:                  -1.500
REMARK UNBOUND:                -1.392
REMARK SMILES Cc1cc2c(C(C)C)c(O)c(O)c(C=O)c2c(O)c1-c1c(C)cc2c(C(C)C)c(O)c(O)c(C=O)c2c1O
REMARK SMILES IDX 1 1 2 2 3 3 4 4 16 5 13 6 11 7 9 8 5 9 17 10 19 11 20 12
REMARK SMILES IDX 37 13 21 14 36 15 23 16 22 17 24 18 33 19 25 20 31 21 29 22
REMARK SMILES IDX 38 23 34 25 35 26 26 27 27 28 28 29 32 30 30 32 18 34 6 36
REMARK SMILES IDX 7 37 8 38 14 39 15 40 10 41 12 43
REMARK H PARENT 38 24 32 31 30 33 18 35 10 42 12 44
REMARK Flexibility Score: inf
ROOT
ATOM      1  C   UNL     1      42.085 -47.814  -4.829  1.00  0.00     0.045 C 
ATOM      2  C   UNL     1      43.193 -48.447  -5.635  1.00  0.00    -0.039 A 
ATOM      3  C   UNL     1      44.479 -48.511  -5.099  1.00  0.00     0.013 A 
ATOM      4  C   UNL     1      45.546 -49.132  -5.785  1.00  0.00    -0.006 A 
ATOM      5  C   UNL     1      45.322 -49.615  -7.112  1.00  0.00     0.039 A 
ATOM      6  C   UNL     1      46.429 -50.128  -7.853  1.00  0.00     0.072 A 
ATOM      7  C   UNL     1      47.725 -50.090  -7.300  1.00  0.00     0.169 A 
ATOM      8  C   UNL     1      47.929 -49.617  -6.000  1.00  0.00     0.162 A 
ATOM      9  C   UNL     1      46.839 -49.245  -5.186  1.00  0.00     0.008 A 
ATOM     10  C   UNL     1      44.007 -49.529  -7.664  1.00  0.00     0.132 A 
ATOM     11  C   UNL     1      42.951 -48.962  -6.919  1.00  0.00     0.031 A 
ENDROOT
BRANCH  11  12
ATOM     12  C   UNL     1      41.584 -48.884  -7.499  1.00  0.00     0.031 A 
ATOM     13  C   UNL     1      41.219 -47.784  -8.302  1.00  0.00     0.132 A 
ATOM     14  C   UNL     1      40.667 -49.924  -7.272  1.00  0.00    -0.039 A 
ATOM     15  C   UNL     1      39.899 -47.681  -8.828  1.00  0.00     0.039 A 
ATOM     16  C   UNL     1      39.415 -49.885  -7.892  1.00  0.00     0.013 A 
ATOM     17  C   UNL     1      41.037 -51.125  -6.437  1.00  0.00     0.045 C 
ATOM     18  C   UNL     1      38.993 -48.771  -8.651  1.00  0.00    -0.006 A 
ATOM     19  C   UNL     1      39.472 -46.548  -9.576  1.00  0.00     0.072 A 
ATOM     20  C   UNL     1      37.707 -48.738  -9.274  1.00  0.00     0.008 A 
ATOM     21  C   UNL     1      38.290 -46.611 -10.329  1.00  0.00     0.169 A 
ATOM     22  C   UNL     1      37.452 -47.737 -10.240  1.00  0.00     0.162 A 
BRANCH  13  23
ATOM     23  O   UNL     1      42.180 -46.819  -8.626  1.00  0.00    -0.507 OA
ATOM     24  H   UNL     1      41.957 -45.900  -8.987  1.00  0.00     0.293 HD
ENDBRANCH  13  23
BRANCH  19  25
ATOM     25  C   UNL     1      40.176 -45.246  -9.543  1.00  0.00     0.264 C 
ATOM     26  O   UNL     1      40.854 -44.857 -10.531  1.00  0.00    -0.298 OA
ENDBRANCH  19  25
BRANCH  20  27
ATOM     27  C   UNL     1      36.629 -49.792  -8.967  1.00  0.00     0.017 C 
ATOM     28  C   UNL     1      36.526 -50.819 -10.100  1.00  0.00     0.012 C 
ATOM     29  C   UNL     1      35.250 -49.192  -8.629  1.00  0.00     0.012 C 
ENDBRANCH  20  27
BRANCH  21  30
ATOM     30  O   UNL     1      37.945 -45.512 -11.124  1.00  0.00    -0.504 OA
ATOM     31  H   UNL     1      38.335 -45.329 -12.038  1.00  0.00     0.293 HD
ENDBRANCH  21  30
BRANCH  22  32
ATOM     32  O   UNL     1      36.366 -47.886 -11.106  1.00  0.00    -0.504 OA
ATOM     33  H   UNL     1      35.821 -47.117 -11.470  1.00  0.00     0.293 HD
ENDBRANCH  22  32
ENDBRANCH  11  12
BRANCH  10  34
ATOM     34  O   UNL     1      43.748 -49.994  -8.959  1.00  0.00    -0.507 OA
ATOM     35  H   UNL     1      43.582 -49.393  -9.757  1.00  0.00     0.293 HD
ENDBRANCH  10  34
BRANCH   9  36
ATOM     36  C   UNL     1      47.071 -48.954  -3.691  1.00  0.00     0.017 C 
ATOM     37  C   UNL     1      47.870 -47.661  -3.507  1.00  0.00     0.012 C 
ATOM     38  C   UNL     1      47.712 -50.123  -2.920  1.00  0.00     0.012 C 
ENDBRANCH   9  36
BRANCH   6  39
ATOM     39  C   UNL     1      46.271 -50.689  -9.210  1.00  0.00     0.264 C 
ATOM     40  O   UNL     1      46.668 -50.047 -10.218  1.00  0.00    -0.298 OA
ENDBRANCH   6  39
BRANCH   8  41
ATOM     41  O   UNL     1      49.232 -49.519  -5.507  1.00  0.00    -0.504 OA
ATOM     42  H   UNL     1      49.860 -48.762  -5.749  1.00  0.00     0.293 HD
ENDBRANCH   8  41
BRANCH   7  43
ATOM     43  O   UNL     1      48.841 -50.550  -8.011  1.00  0.00    -0.504 OA
ATOM     44  H   UNL     1      48.826 -50.802  -8.990  1.00  0.00     0.293 HD
ENDBRANCH   7  43
TORSDOF 11
ENDMDL
MODEL 8
REMARK VINA RESULT:    -4.000      2.992      9.669
REMARK INTER + INTRA:          -7.262
REMARK INTER:                  -5.986
REMARK INTRA:                  -1.276
REMARK UNBOUND:                -1.392
REMARK SMILES Cc1cc2c(C(C)C)c(O)c(O)c(C=O)c2c(O)c1-c1c(C)cc2c(C(C)C)c(O)c(O)c(C=O)c2c1O
REMARK SMILES IDX 1 1 2 2 3 3 4 4 16 5 13 6 11 7 9 8 5 9 17 10 19 11 20 12
REMARK SMILES IDX 37 13 21 14 36 15 23 16 22 17 24 18 33 19 25 20 31 21 29 22
REMARK SMILES IDX 38 23 34 25 35 26 26 27 27 28 28 29 32 30 30 32 18 34 6 36
REMARK SMILES IDX 7 37 8 38 14 39 15 40 10 41 12 43
REMARK H PARENT 38 24 32 31 30 33 18 35 10 42 12 44
REMARK Flexibility Score: inf
ROOT
ATOM      1  C   UNL     1      42.967 -47.150 -11.123  1.00  0.00     0.045 C 
ATOM      2  C   UNL     1      43.657 -47.824  -9.962  1.00  0.00    -0.039 A 
ATOM      3  C   UNL     1      44.966 -48.278 -10.114  1.00  0.00     0.013 A 
ATOM      4  C   UNL     1      45.680 -48.874  -9.050  1.00  0.00    -0.006 A 
ATOM      5  C   UNL     1      45.003 -49.112  -7.815  1.00  0.00     0.039 A 
ATOM      6  C   UNL     1      45.683 -49.828  -6.784  1.00  0.00     0.072 A 
ATOM      7  C   UNL     1      46.974 -50.343  -7.018  1.00  0.00     0.169 A 
ATOM      8  C   UNL     1      47.626 -50.100  -8.231  1.00  0.00     0.162 A 
ATOM      9  C   UNL     1      47.044 -49.270  -9.212  1.00  0.00     0.008 A 
ATOM     10  C   UNL     1      43.653 -48.662  -7.671  1.00  0.00     0.132 A 
ATOM     11  C   UNL     1      42.997 -48.010  -8.736  1.00  0.00     0.031 A 
ENDROOT
BRANCH  11  12
ATOM     12  C   UNL     1      41.596 -47.538  -8.574  1.00  0.00     0.031 A 
ATOM     13  C   UNL     1      40.521 -48.405  -8.858  1.00  0.00     0.132 A 
ATOM     14  C   UNL     1      41.345 -46.236  -8.107  1.00  0.00    -0.039 A 
ATOM     15  C   UNL     1      39.176 -47.948  -8.744  1.00  0.00     0.039 A 
ATOM     16  C   UNL     1      40.028 -45.831  -7.875  1.00  0.00     0.013 A 
ATOM     17  C   UNL     1      42.475 -45.294  -7.772  1.00  0.00     0.045 C 
ATOM     18  C   UNL     1      38.926 -46.650  -8.206  1.00  0.00    -0.006 A 
ATOM     19  C   UNL     1      38.069 -48.770  -9.098  1.00  0.00     0.072 A 
ATOM     20  C   UNL     1      37.582 -46.222  -7.971  1.00  0.00     0.008 A 
ATOM     21  C   UNL     1      36.775 -48.413  -8.692  1.00  0.00     0.169 A 
ATOM     22  C   UNL     1      36.546 -47.179  -8.058  1.00  0.00     0.162 A 
BRANCH  13  23
ATOM     23  O   UNL     1      40.783 -49.737  -9.199  1.00  0.00    -0.507 OA
ATOM     24  H   UNL     1      41.168 -50.419  -8.557  1.00  0.00     0.293 HD
ENDBRANCH  13  23
BRANCH  19  25
ATOM     25  C   UNL     1      38.195 -49.968  -9.959  1.00  0.00     0.264 C 
ATOM     26  O   UNL     1      38.112 -51.125  -9.467  1.00  0.00    -0.298 OA
ENDBRANCH  19  25
BRANCH  20  27
ATOM     27  C   UNL     1      37.250 -44.773  -7.570  1.00  0.00     0.017 C 
ATOM     28  C   UNL     1      37.699 -43.787  -8.653  1.00  0.00     0.012 C 
ATOM     29  C   UNL     1      37.796 -44.371  -6.186  1.00  0.00     0.012 C 
ENDBRANCH  20  27
BRANCH  21  30
ATOM     30  O   UNL     1      35.720 -49.288  -8.978  1.00  0.00    -0.504 OA
ATOM     31  H   UNL     1      35.732 -50.277  -8.771  1.00  0.00     0.293 HD
ENDBRANCH  21  30
BRANCH  22  32
ATOM     32  O   UNL     1      35.299 -46.886  -7.500  1.00  0.00    -0.504 OA
ATOM     33  H   UNL     1      35.065 -46.004  -7.066  1.00  0.00     0.293 HD
ENDBRANCH  22  32
ENDBRANCH  11  12
BRANCH  10  34
ATOM     34  O   UNL     1      42.957 -48.874  -6.475  1.00  0.00    -0.507 OA
ATOM     35  H   UNL     1      42.006 -48.571  -6.310  1.00  0.00     0.293 HD
ENDBRANCH  10  34
BRANCH   9  36
ATOM     36  C   UNL     1      47.880 -48.832 -10.430  1.00  0.00     0.017 C 
ATOM     37  C   UNL     1      48.504 -50.046 -11.125  1.00  0.00     0.012 C 
ATOM     38  C   UNL     1      48.942 -47.765 -10.107  1.00  0.00     0.012 C 
ENDBRANCH   9  36
BRANCH   6  39
ATOM     39  C   UNL     1      45.068 -50.071  -5.463  1.00  0.00     0.264 C 
ATOM     40  O   UNL     1      44.413 -51.124  -5.247  1.00  0.00    -0.298 OA
ENDBRANCH   6  39
BRANCH   8  41
ATOM     41  O   UNL     1      48.872 -50.688  -8.464  1.00  0.00    -0.504 OA
ATOM     42  H   UNL     1      49.361 -50.615  -9.348  1.00  0.00     0.293 HD
ENDBRANCH   8  41
BRANCH   7  43
ATOM     43  O   UNL     1      47.658 -51.081  -6.044  1.00  0.00    -0.504 OA
ATOM     44  H   UNL     1      48.297 -51.837  -6.250  1.00  0.00     0.293 HD
ENDBRANCH   7  43
TORSDOF 11
ENDMDL
MODEL 9
REMARK VINA RESULT:    -3.967      1.818      8.920
REMARK INTER + INTRA:          -7.214
REMARK INTER:                  -5.993
REMARK INTRA:                  -1.221
REMARK UNBOUND:                -1.392
REMARK SMILES Cc1cc2c(C(C)C)c(O)c(O)c(C=O)c2c(O)c1-c1c(C)cc2c(C(C)C)c(O)c(O)c(C=O)c2c1O
REMARK SMILES IDX 1 1 2 2 3 3 4 4 16 5 13 6 11 7 9 8 5 9 17 10 19 11 20 12
REMARK SMILES IDX 37 13 21 14 36 15 23 16 22 17 24 18 33 19 25 20 31 21 29 22
REMARK SMILES IDX 38 23 34 25 35 26 26 27 27 28 28 29 32 30 30 32 18 34 6 36
REMARK SMILES IDX 7 37 8 38 14 39 15 40 10 41 12 43
REMARK H PARENT 38 24 32 31 30 33 18 35 10 42 12 44
REMARK Flexibility Score: inf
ROOT
ATOM      1  C   UNL     1      38.201 -45.383  -8.834  1.00  0.00     0.045 C 
ATOM      2  C   UNL     1      39.336 -46.356  -9.043  1.00  0.00    -0.039 A 
ATOM      3  C   UNL     1      40.610 -45.869  -9.336  1.00  0.00     0.013 A 
ATOM      4  C   UNL     1      41.721 -46.727  -9.496  1.00  0.00    -0.006 A 
ATOM      5  C   UNL     1      41.510 -48.140  -9.459  1.00  0.00     0.039 A 
ATOM      6  C   UNL     1      42.607 -49.008  -9.746  1.00  0.00     0.072 A 
ATOM      7  C   UNL     1      43.852 -48.466 -10.122  1.00  0.00     0.169 A 
ATOM      8  C   UNL     1      44.045 -47.081 -10.152  1.00  0.00     0.162 A 
ATOM      9  C   UNL     1      43.029 -46.200  -9.728  1.00  0.00     0.008 A 
ATOM     10  C   UNL     1      40.198 -48.634  -9.178  1.00  0.00     0.132 A 
ATOM     11  C   UNL     1      39.127 -47.742  -8.957  1.00  0.00     0.031 A 
ENDROOT
BRANCH  11  12
ATOM     12  C   UNL     1      37.768 -48.266  -8.657  1.00  0.00     0.031 A 
ATOM     13  C   UNL     1      37.403 -48.565  -7.329  1.00  0.00     0.132 A 
ATOM     14  C   UNL     1      36.837 -48.432  -9.697  1.00  0.00    -0.039 A 
ATOM     15  C   UNL     1      36.118 -49.106  -7.037  1.00  0.00     0.039 A 
ATOM     16  C   UNL     1      35.535 -48.842  -9.395  1.00  0.00     0.013 A 
ATOM     17  C   UNL     1      37.190 -48.098 -11.125  1.00  0.00     0.045 C 
ATOM     18  C   UNL     1      35.154 -49.209  -8.085  1.00  0.00    -0.006 A 
ATOM     19  C   UNL     1      35.744 -49.493  -5.720  1.00  0.00     0.072 A 
ATOM     20  C   UNL     1      33.821 -49.634  -7.789  1.00  0.00     0.008 A 
ATOM     21  C   UNL     1      34.395 -49.727  -5.415  1.00  0.00     0.169 A 
ATOM     22  C   UNL     1      33.426 -49.717  -6.434  1.00  0.00     0.162 A 
BRANCH  13  23
ATOM     23  O   UNL     1      38.294 -48.276  -6.288  1.00  0.00    -0.507 OA
ATOM     24  H   UNL     1      38.129 -48.520  -5.319  1.00  0.00     0.293 HD
ENDBRANCH  13  23
BRANCH  19  25
ATOM     25  C   UNL     1      36.727 -49.748  -4.643  1.00  0.00     0.264 C 
ATOM     26  O   UNL     1      36.868 -48.932  -3.693  1.00  0.00    -0.298 OA
ENDBRANCH  19  25
BRANCH  20  27
ATOM     27  C   UNL     1      32.800 -49.939  -8.901  1.00  0.00     0.017 C 
ATOM     28  C   UNL     1      33.455 -50.712 -10.050  1.00  0.00     0.012 C 
ATOM     29  C   UNL     1      32.053 -48.695  -9.417  1.00  0.00     0.012 C 
ENDBRANCH  20  27
BRANCH  21  30
ATOM     30  O   UNL     1      34.050 -50.018  -4.090  1.00  0.00    -0.504 OA
ATOM     31  H   UNL     1      34.003 -49.330  -3.352  1.00  0.00     0.293 HD
ENDBRANCH  21  30
BRANCH  22  32
ATOM     32  O   UNL     1      32.065 -49.780  -6.123  1.00  0.00    -0.504 OA
ATOM     33  H   UNL     1      31.515 -48.987  -5.822  1.00  0.00     0.293 HD
ENDBRANCH  22  32
ENDBRANCH  11  12
BRANCH  10  34
ATOM     34  O   UNL     1      39.952 -50.011  -9.130  1.00  0.00    -0.507 OA
ATOM     35  H   UNL     1      39.433 -50.521  -9.834  1.00  0.00     0.293 HD
ENDBRANCH  10  34
BRANCH   9  36
ATOM     36  C   UNL     1      43.347 -44.703  -9.549  1.00  0.00     0.017 C 
ATOM     37  C   UNL     1      43.595 -44.034 -10.904  1.00  0.00     0.012 C 
ATOM     38  C   UNL     1      44.500 -44.424  -8.567  1.00  0.00     0.012 C 
ENDBRANCH   9  36
BRANCH   6  39
ATOM     39  C   UNL     1      42.481 -50.477  -9.681  1.00  0.00     0.264 C 
ATOM     40  O   UNL     1      42.940 -51.116  -8.698  1.00  0.00    -0.298 OA
ENDBRANCH   6  39
BRANCH   8  41
ATOM     41  O   UNL     1      45.266 -46.573 -10.603  1.00  0.00    -0.504 OA
ATOM     42  H   UNL     1      45.842 -45.947 -10.053  1.00  0.00     0.293 HD
ENDBRANCH   8  41
BRANCH   7  43
ATOM     43  O   UNL     1      44.941 -49.285 -10.447  1.00  0.00    -0.504 OA
ATOM     44  H   UNL     1      45.764 -49.392  -9.869  1.00  0.00     0.293 HD
ENDBRANCH   7  43
TORSDOF 11
ENDMDL
