MODEL 1
REMARK VINA RESULT:    -6.003      0.000      0.000
REMARK INTER + INTRA:          -6.003
REMARK INTER:                  -6.003
REMARK INTRA:                   0.000
REMARK UNBOUND:                 0.000
REMARK SMILES C=C1CCC[C@@]2(C)CC(=O)C(=C(C)C)C[C@@H]12
REMARK SMILES IDX 13 1 12 2 11 3 15 4 16 5 2 6 1 7 3 8 4 9 5 10 6 11 8 12 9 13
REMARK SMILES IDX 10 14 7 15 14 16
REMARK H PARENT
REMARK Flexibility Score: inf
ROOT
ATOM      1  C   UNL     1      84.006  36.800  30.973  1.00  0.00     0.039 C 
ATOM      2  C   UNL     1      85.026  37.476  30.086  1.00  0.00    -0.070 C 
ATOM      3  C   UNL     1      85.755  36.772  29.173  1.00  0.00    -0.006 C 
ATOM      4  C   UNL     1      86.722  37.419  28.201  1.00  0.00     0.047 C 
ATOM      5  C   UNL     1      86.370  37.111  26.709  1.00  0.00     0.025 C 
ATOM      6  C   UNL     1      87.541  37.423  25.754  1.00  0.00    -0.073 C 
ATOM      7  C   UNL     1      88.498  38.326  26.054  1.00  0.00     0.008 C 
ATOM      8  C   UNL     1      87.575  36.860  24.349  1.00  0.00     0.031 C 
ATOM      9  C   UNL     1      86.396  35.944  24.052  1.00  0.00     0.005 C 
ATOM     10  C   UNL     1      86.213  34.960  25.201  1.00  0.00     0.008 C 
ATOM     11  C   UNL     1      85.726  35.662  26.503  1.00  0.00    -0.018 C 
ATOM     12  C   UNL     1      86.070  34.714  27.690  1.00  0.00     0.088 C 
ATOM     13  C   UNL     1      85.656  35.303  29.004  1.00  0.00     0.159 C 
ATOM     14  O   UNL     1      85.317  34.540  29.947  1.00  0.00    -0.295 OA
ATOM     15  C   UNL     1      84.179  35.799  26.420  1.00  0.00     0.012 C 
ATOM     16  C   UNL     1      85.171  38.974  30.222  1.00  0.00     0.039 C 
ENDROOT
TORSDOF 0
ENDMDL
MODEL 2
REMARK VINA RESULT:    -5.702      2.013      4.886
REMARK INTER + INTRA:          -5.702
REMARK INTER:                  -5.702
REMARK INTRA:                   0.000
REMARK UNBOUND:                 0.000
REMARK SMILES C=C1CCC[C@@]2(C)CC(=O)C(=C(C)C)C[C@@H]12
REMARK SMILES IDX 13 1 12 2 11 3 15 4 16 5 2 6 1 7 3 8 4 9 5 10 6 11 8 12 9 13
REMARK SMILES IDX 10 14 7 15 14 16
REMARK H PARENT
REMARK Flexibility Score: inf
ROOT
ATOM      1  C   UNL     1      85.553  34.125  22.883  1.00  0.00     0.039 C 
ATOM      2  C   UNL     1      86.514  35.065  23.572  1.00  0.00    -0.070 C 
ATOM      3  C   UNL     1      86.081  35.990  24.476  1.00  0.00    -0.006 C 
ATOM      4  C   UNL     1      87.016  36.891  25.259  1.00  0.00     0.047 C 
ATOM      5  C   UNL     1      86.849  36.731  26.805  1.00  0.00     0.025 C 
ATOM      6  C   UNL     1      87.493  37.896  27.587  1.00  0.00    -0.073 C 
ATOM      7  C   UNL     1      88.506  38.631  27.085  1.00  0.00     0.008 C 
ATOM      8  C   UNL     1      87.136  38.155  29.036  1.00  0.00     0.031 C 
ATOM      9  C   UNL     1      86.068  37.204  29.560  1.00  0.00     0.005 C 
ATOM     10  C   UNL     1      84.925  37.120  28.557  1.00  0.00     0.008 C 
ATOM     11  C   UNL     1      85.348  36.400  27.243  1.00  0.00    -0.018 C 
ATOM     12  C   UNL     1      84.329  36.820  26.142  1.00  0.00     0.088 C 
ATOM     13  C   UNL     1      84.654  36.192  24.821  1.00  0.00     0.159 C 
ATOM     14  O   UNL     1      83.724  35.929  24.013  1.00  0.00    -0.295 OA
ATOM     15  C   UNL     1      85.211  34.867  27.475  1.00  0.00     0.012 C 
ATOM     16  C   UNL     1      87.982  34.906  23.251  1.00  0.00     0.039 C 
ENDROOT
TORSDOF 0
ENDMDL
MODEL 3
REMARK VINA RESULT:    -5.089      1.874      4.611
REMARK INTER + INTRA:          -5.089
REMARK INTER:                  -5.089
REMARK INTRA:                   0.000
REMARK UNBOUND:                 0.000
REMARK SMILES C=C1CCC[C@@]2(C)CC(=O)C(=C(C)C)C[C@@H]12
REMARK SMILES IDX 13 1 12 2 11 3 15 4 16 5 2 6 1 7 3 8 4 9 5 10 6 11 8 12 9 13
REMARK SMILES IDX 10 14 7 15 14 16
REMARK H PARENT
REMARK Flexibility Score: inf
ROOT
ATOM      1  C   UNL     1      84.141  33.342  23.926  1.00  0.00     0.039 C 
ATOM      2  C   UNL     1      85.257  34.359  23.963  1.00  0.00    -0.070 C 
ATOM      3  C   UNL     1      85.192  35.459  24.767  1.00  0.00    -0.006 C 
ATOM      4  C   UNL     1      86.325  36.457  24.907  1.00  0.00     0.047 C 
ATOM      5  C   UNL     1      86.814  36.608  26.384  1.00  0.00     0.025 C 
ATOM      6  C   UNL     1      87.670  37.876  26.592  1.00  0.00    -0.073 C 
ATOM      7  C   UNL     1      88.354  38.459  25.586  1.00  0.00     0.008 C 
ATOM      8  C   UNL     1      87.927  38.426  27.979  1.00  0.00     0.031 C 
ATOM      9  C   UNL     1      87.212  37.638  29.068  1.00  0.00     0.005 C 
ATOM     10  C   UNL     1      85.763  37.405  28.661  1.00  0.00     0.008 C 
ATOM     11  C   UNL     1      85.642  36.427  27.455  1.00  0.00    -0.018 C 
ATOM     12  C   UNL     1      84.243  36.665  26.812  1.00  0.00     0.088 C 
ATOM     13  C   UNL     1      84.026  35.780  25.623  1.00  0.00     0.159 C 
ATOM     14  O   UNL     1      82.859  35.402  25.335  1.00  0.00    -0.295 OA
ATOM     15  C   UNL     1      85.681  34.976  28.014  1.00  0.00     0.012 C 
ATOM     16  C   UNL     1      86.470  34.083  23.105  1.00  0.00     0.039 C 
ENDROOT
TORSDOF 0
ENDMDL
MODEL 4
REMARK VINA RESULT:    -4.936      8.354      9.835
REMARK INTER + INTRA:          -4.936
REMARK INTER:                  -4.936
REMARK INTRA:                   0.000
REMARK UNBOUND:                 0.000
REMARK SMILES C=C1CCC[C@@]2(C)CC(=O)C(=C(C)C)C[C@@H]12
REMARK SMILES IDX 13 1 12 2 11 3 15 4 16 5 2 6 1 7 3 8 4 9 5 10 6 11 8 12 9 13
REMARK SMILES IDX 10 14 7 15 14 16
REMARK H PARENT
REMARK Flexibility Score: inf
ROOT
ATOM      1  C   UNL     1      78.512  47.109  28.362  1.00  0.00     0.039 C 
ATOM      2  C   UNL     1      78.830  46.341  27.100  1.00  0.00    -0.070 C 
ATOM      3  C   UNL     1      79.879  45.470  27.040  1.00  0.00    -0.006 C 
ATOM      4  C   UNL     1      80.181  44.611  25.828  1.00  0.00     0.047 C 
ATOM      5  C   UNL     1      80.192  43.084  26.161  1.00  0.00     0.025 C 
ATOM      6  C   UNL     1      80.871  42.248  25.056  1.00  0.00    -0.073 C 
ATOM      7  C   UNL     1      80.943  42.665  23.775  1.00  0.00     0.008 C 
ATOM      8  C   UNL     1      81.335  40.831  25.322  1.00  0.00     0.031 C 
ATOM      9  C   UNL     1      81.111  40.398  26.764  1.00  0.00     0.005 C 
ATOM     10  C   UNL     1      81.603  41.489  27.706  1.00  0.00     0.008 C 
ATOM     11  C   UNL     1      80.718  42.768  27.637  1.00  0.00    -0.018 C 
ATOM     12  C   UNL     1      81.570  43.944  28.201  1.00  0.00     0.088 C 
ATOM     13  C   UNL     1      80.815  45.238  28.165  1.00  0.00     0.159 C 
ATOM     14  O   UNL     1      81.051  46.119  29.034  1.00  0.00    -0.295 OA
ATOM     15  C   UNL     1      79.498  42.554  28.579  1.00  0.00     0.012 C 
ATOM     16  C   UNL     1      77.909  46.545  25.919  1.00  0.00     0.039 C 
ENDROOT
TORSDOF 0
ENDMDL
MODEL 5
REMARK VINA RESULT:    -4.900      2.454      4.670
REMARK INTER + INTRA:          -4.900
REMARK INTER:                  -4.900
REMARK INTRA:                   0.000
REMARK UNBOUND:                 0.000
REMARK SMILES C=C1CCC[C@@]2(C)CC(=O)C(=C(C)C)C[C@@H]12
REMARK SMILES IDX 13 1 12 2 11 3 15 4 16 5 2 6 1 7 3 8 4 9 5 10 6 11 8 12 9 13
REMARK SMILES IDX 10 14 7 15 14 16
REMARK H PARENT
REMARK Flexibility Score: inf
ROOT
ATOM      1  C   UNL     1      84.515  31.764  28.133  1.00  0.00     0.039 C 
ATOM      2  C   UNL     1      85.465  32.939  28.173  1.00  0.00    -0.070 C 
ATOM      3  C   UNL     1      85.014  34.223  28.087  1.00  0.00    -0.006 C 
ATOM      4  C   UNL     1      85.918  35.434  28.214  1.00  0.00     0.047 C 
ATOM      5  C   UNL     1      85.484  36.388  29.374  1.00  0.00     0.025 C 
ATOM      6  C   UNL     1      86.137  37.782  29.261  1.00  0.00    -0.073 C 
ATOM      7  C   UNL     1      87.304  37.984  28.615  1.00  0.00     0.008 C 
ATOM      8  C   UNL     1      85.587  38.967  30.027  1.00  0.00     0.031 C 
ATOM      9  C   UNL     1      84.335  38.624  30.824  1.00  0.00     0.005 C 
ATOM     10  C   UNL     1      83.368  37.845  29.943  1.00  0.00     0.008 C 
ATOM     11  C   UNL     1      83.902  36.423  29.599  1.00  0.00    -0.018 C 
ATOM     12  C   UNL     1      83.137  35.942  28.331  1.00  0.00     0.088 C 
ATOM     13  C   UNL     1      83.588  34.580  27.899  1.00  0.00     0.159 C 
ATOM     14  O   UNL     1      82.775  33.811  27.320  1.00  0.00    -0.295 OA
ATOM     15  C   UNL     1      83.534  35.478  30.779  1.00  0.00     0.012 C 
ATOM     16  C   UNL     1      86.933  32.632  28.358  1.00  0.00     0.039 C 
ENDROOT
TORSDOF 0
ENDMDL
MODEL 6
REMARK VINA RESULT:    -4.845      1.705      3.239
REMARK INTER + INTRA:          -4.845
REMARK INTER:                  -4.845
REMARK INTRA:                   0.000
REMARK UNBOUND:                 0.000
REMARK SMILES C=C1CCC[C@@]2(C)CC(=O)C(=C(C)C)C[C@@H]12
REMARK SMILES IDX 13 1 12 2 11 3 15 4 16 5 2 6 1 7 3 8 4 9 5 10 6 11 8 12 9 13
REMARK SMILES IDX 10 14 7 15 14 16
REMARK H PARENT
REMARK Flexibility Score: inf
ROOT
ATOM      1  C   UNL     1      87.067  38.206  28.889  1.00  0.00     0.039 C 
ATOM      2  C   UNL     1      87.289  37.636  27.508  1.00  0.00    -0.070 C 
ATOM      3  C   UNL     1      86.527  36.611  27.028  1.00  0.00    -0.006 C 
ATOM      4  C   UNL     1      86.652  36.069  25.618  1.00  0.00     0.047 C 
ATOM      5  C   UNL     1      85.309  36.151  24.821  1.00  0.00     0.025 C 
ATOM      6  C   UNL     1      85.321  35.262  23.559  1.00  0.00    -0.073 C 
ATOM      7  C   UNL     1      86.464  34.912  22.932  1.00  0.00     0.008 C 
ATOM      8  C   UNL     1      84.034  34.886  22.856  1.00  0.00     0.031 C 
ATOM      9  C   UNL     1      82.797  35.421  23.565  1.00  0.00     0.005 C 
ATOM     10  C   UNL     1      82.897  35.126  25.056  1.00  0.00     0.008 C 
ATOM     11  C   UNL     1      84.019  35.958  25.745  1.00  0.00    -0.018 C 
ATOM     12  C   UNL     1      84.376  35.230  27.075  1.00  0.00     0.088 C 
ATOM     13  C   UNL     1      85.466  35.941  27.817  1.00  0.00     0.159 C 
ATOM     14  O   UNL     1      85.500  35.885  29.075  1.00  0.00    -0.295 OA
ATOM     15  C   UNL     1      83.429  37.354  26.096  1.00  0.00     0.012 C 
ATOM     16  C   UNL     1      88.363  38.279  26.662  1.00  0.00     0.039 C 
ENDROOT
TORSDOF 0
ENDMDL
MODEL 7
REMARK VINA RESULT:    -4.770      3.725      5.923
REMARK INTER + INTRA:          -4.770
REMARK INTER:                  -4.770
REMARK INTRA:                   0.000
REMARK UNBOUND:                 0.000
REMARK SMILES C=C1CCC[C@@]2(C)CC(=O)C(=C(C)C)C[C@@H]12
REMARK SMILES IDX 13 1 12 2 11 3 15 4 16 5 2 6 1 7 3 8 4 9 5 10 6 11 8 12 9 13
REMARK SMILES IDX 10 14 7 15 14 16
REMARK H PARENT
REMARK Flexibility Score: inf
ROOT
ATOM      1  C   UNL     1      86.675  32.976  24.757  1.00  0.00     0.039 C 
ATOM      2  C   UNL     1      86.220  33.871  23.627  1.00  0.00    -0.070 C 
ATOM      3  C   UNL     1      84.944  34.349  23.567  1.00  0.00    -0.006 C 
ATOM      4  C   UNL     1      84.468  35.322  22.506  1.00  0.00     0.047 C 
ATOM      5  C   UNL     1      83.899  36.644  23.115  1.00  0.00     0.025 C 
ATOM      6  C   UNL     1      83.070  37.451  22.093  1.00  0.00    -0.073 C 
ATOM      7  C   UNL     1      83.258  37.341  20.762  1.00  0.00     0.008 C 
ATOM      8  C   UNL     1      82.122  38.543  22.544  1.00  0.00     0.031 C 
ATOM      9  C   UNL     1      82.058  38.679  24.059  1.00  0.00     0.005 C 
ATOM     10  C   UNL     1      81.895  37.301  24.689  1.00  0.00     0.008 C 
ATOM     11  C   UNL     1      83.172  36.425  24.521  1.00  0.00    -0.018 C 
ATOM     12  C   UNL     1      82.735  34.942  24.710  1.00  0.00     0.088 C 
ATOM     13  C   UNL     1      83.893  34.003  24.552  1.00  0.00     0.159 C 
ATOM     14  O   UNL     1      83.903  32.917  25.191  1.00  0.00    -0.295 OA
ATOM     15  C   UNL     1      84.156  36.794  25.668  1.00  0.00     0.012 C 
ATOM     16  C   UNL     1      87.252  34.251  22.592  1.00  0.00     0.039 C 
ENDROOT
TORSDOF 0
ENDMDL
MODEL 8
REMARK VINA RESULT:    -4.742      2.912      4.736
REMARK INTER + INTRA:          -4.742
REMARK INTER:                  -4.742
REMARK INTRA:                   0.000
REMARK UNBOUND:                 0.000
REMARK SMILES C=C1CCC[C@@]2(C)CC(=O)C(=C(C)C)C[C@@H]12
REMARK SMILES IDX 13 1 12 2 11 3 15 4 16 5 2 6 1 7 3 8 4 9 5 10 6 11 8 12 9 13
REMARK SMILES IDX 10 14 7 15 14 16
REMARK H PARENT
REMARK Flexibility Score: inf
ROOT
ATOM      1  C   UNL     1      82.800  38.279  28.970  1.00  0.00     0.039 C 
ATOM      2  C   UNL     1      83.592  37.671  30.104  1.00  0.00    -0.070 C 
ATOM      3  C   UNL     1      83.740  36.321  30.227  1.00  0.00    -0.006 C 
ATOM      4  C   UNL     1      84.599  35.669  31.292  1.00  0.00     0.047 C 
ATOM      5  C   UNL     1      85.717  34.758  30.689  1.00  0.00     0.025 C 
ATOM      6  C   UNL     1      86.326  33.804  31.739  1.00  0.00    -0.073 C 
ATOM      7  C   UNL     1      86.312  34.079  33.059  1.00  0.00     0.008 C 
ATOM      8  C   UNL     1      87.131  32.592  31.319  1.00  0.00     0.031 C 
ATOM      9  C   UNL     1      87.196  32.422  29.807  1.00  0.00     0.005 C 
ATOM     10  C   UNL     1      85.800  32.578  29.217  1.00  0.00     0.008 C 
ATOM     11  C   UNL     1      85.276  34.040  29.331  1.00  0.00    -0.018 C 
ATOM     12  C   UNL     1      83.725  33.980  29.197  1.00  0.00     0.088 C 
ATOM     13  C   UNL     1      83.109  35.342  29.310  1.00  0.00     0.159 C 
ATOM     14  O   UNL     1      82.039  35.592  28.694  1.00  0.00    -0.295 OA
ATOM     15  C   UNL     1      85.839  34.843  28.123  1.00  0.00     0.012 C 
ATOM     16  C   UNL     1      84.253  38.625  31.072  1.00  0.00     0.039 C 
ENDROOT
TORSDOF 0
ENDMDL
MODEL 9
REMARK VINA RESULT:    -4.737      1.919      5.003
REMARK INTER + INTRA:          -4.737
REMARK INTER:                  -4.737
REMARK INTRA:                   0.000
REMARK UNBOUND:                 0.000
REMARK SMILES C=C1CCC[C@@]2(C)CC(=O)C(=C(C)C)C[C@@H]12
REMARK SMILES IDX 13 1 12 2 11 3 15 4 16 5 2 6 1 7 3 8 4 9 5 10 6 11 8 12 9 13
REMARK SMILES IDX 10 14 7 15 14 16
REMARK H PARENT
REMARK Flexibility Score: inf
ROOT
ATOM      1  C   UNL     1      86.655  34.699  23.139  1.00  0.00     0.039 C 
ATOM      2  C   UNL     1      86.637  35.619  24.338  1.00  0.00    -0.070 C 
ATOM      3  C   UNL     1      85.792  35.407  25.387  1.00  0.00    -0.006 C 
ATOM      4  C   UNL     1      85.801  36.248  26.649  1.00  0.00     0.047 C 
ATOM      5  C   UNL     1      86.050  35.397  27.936  1.00  0.00     0.025 C 
ATOM      6  C   UNL     1      85.676  36.160  29.224  1.00  0.00    -0.073 C 
ATOM      7  C   UNL     1      85.670  37.508  29.290  1.00  0.00     0.008 C 
ATOM      8  C   UNL     1      85.470  35.428  30.534  1.00  0.00     0.031 C 
ATOM      9  C   UNL     1      85.610  33.919  30.394  1.00  0.00     0.005 C 
ATOM     10  C   UNL     1      84.811  33.442  29.188  1.00  0.00     0.008 C 
ATOM     11  C   UNL     1      85.432  33.926  27.845  1.00  0.00    -0.018 C 
ATOM     12  C   UNL     1      84.310  33.846  26.768  1.00  0.00     0.088 C 
ATOM     13  C   UNL     1      84.798  34.309  25.428  1.00  0.00     0.159 C 
ATOM     14  O   UNL     1      84.298  33.816  24.382  1.00  0.00    -0.295 OA
ATOM     15  C   UNL     1      86.556  32.924  27.452  1.00  0.00     0.012 C 
ATOM     16  C   UNL     1      87.628  36.760  24.345  1.00  0.00     0.039 C 
ENDROOT
TORSDOF 0
ENDMDL
