MODEL 1
REMARK VINA RESULT:    -4.477      0.000      0.000
REMARK INTER + INTRA:          -8.968
REMARK INTER:                  -7.617
REMARK INTRA:                  -1.351
REMARK UNBOUND:                -1.351
REMARK SMILES CCCCCCCCCCCCCC(=O)[O-]
REMARK SMILES IDX 8 1 9 2 10 3 11 4 12 5 13 6 14 7 15 8 16 9 7 10 6 11 5 12
REMARK SMILES IDX 4 13 3 14 2 15 1 16
REMARK H PARENT
REMARK Flexibility Score: inf
ROOT
ATOM      1  C   UNL     1       4.809 -14.058   5.020  1.00  0.00     0.000 C 
ENDROOT
BRANCH   1   2
ATOM      2  C   UNL     1       4.909 -13.556   6.468  1.00  0.00     0.000 C 
BRANCH   2   3
ATOM      3  C   UNL     1       5.940 -12.424   6.585  1.00  0.00     0.000 C 
BRANCH   3   4
ATOM      4  C   UNL     1       5.333 -11.121   7.132  1.00  0.00     0.000 C 
BRANCH   4   5
ATOM      5  C   UNL     1       3.833 -10.994   6.826  1.00  0.00     0.006 C 
BRANCH   5   6
ATOM      6  C   UNL     1       3.598 -10.083   5.616  1.00  0.00     0.053 C 
BRANCH   6   7
ATOM      7  C   UNL     1       3.640  -8.645   6.028  1.00  0.00     0.041 C 
ATOM      8  O   UNL     1       4.442  -7.850   5.472  1.00  0.00    -0.550 OA
ATOM      9  O   UNL     1       2.827  -8.193   7.061  1.00  0.00    -0.550 OA
ENDBRANCH   6   7
ENDBRANCH   5   6
ENDBRANCH   4   5
ENDBRANCH   3   4
ENDBRANCH   2   3
ENDBRANCH   1   2
BRANCH   1  10
ATOM     10  C   UNL     1       3.364 -14.072   4.495  1.00  0.00     0.000 C 
BRANCH  10  11
ATOM     11  C   UNL     1       3.172 -13.161   3.268  1.00  0.00    -0.000 C 
BRANCH  11  12
ATOM     12  C   UNL     1       4.502 -12.604   2.736  1.00  0.00    -0.000 C 
BRANCH  12  13
ATOM     13  C   UNL     1       4.394 -12.115   1.280  1.00  0.00    -0.000 C 
BRANCH  13  14
ATOM     14  C   UNL     1       5.669 -12.390   0.462  1.00  0.00    -0.000 C 
BRANCH  14  15
ATOM     15  C   UNL     1       6.606 -13.455   1.058  1.00  0.00    -0.003 C 
ATOM     16  C   UNL     1       8.082 -13.187   0.765  1.00  0.00     0.004 C 
ENDBRANCH  14  15
ENDBRANCH  13  14
ENDBRANCH  12  13
ENDBRANCH  11  12
ENDBRANCH  10  11
ENDBRANCH   1  10
TORSDOF 12
ENDMDL
MODEL 2
REMARK VINA RESULT:    -4.391      3.030      6.089
REMARK INTER + INTRA:          -8.823
REMARK INTER:                  -7.551
REMARK INTRA:                  -1.272
REMARK UNBOUND:                -1.351
REMARK SMILES CCCCCCCCCCCCCC(=O)[O-]
REMARK SMILES IDX 8 1 9 2 10 3 11 4 12 5 13 6 14 7 15 8 16 9 7 10 6 11 5 12
REMARK SMILES IDX 4 13 3 14 2 15 1 16
REMARK H PARENT
REMARK Flexibility Score: inf
ROOT
ATOM      1  C   UNL     1       3.464 -13.967   4.455  1.00  0.00     0.000 C 
ENDROOT
BRANCH   1   2
ATOM      2  C   UNL     1       2.949 -12.632   3.897  1.00  0.00     0.000 C 
BRANCH   2   3
ATOM      3  C   UNL     1       2.730 -12.719   2.380  1.00  0.00     0.000 C 
BRANCH   3   4
ATOM      4  C   UNL     1       3.917 -12.165   1.575  1.00  0.00     0.000 C 
BRANCH   4   5
ATOM      5  C   UNL     1       4.788 -13.275   0.967  1.00  0.00     0.006 C 
BRANCH   5   6
ATOM      6  C   UNL     1       6.164 -13.319   1.639  1.00  0.00     0.053 C 
BRANCH   6   7
ATOM      7  C   UNL     1       7.223 -12.842   0.695  1.00  0.00     0.041 C 
ATOM      8  O   UNL     1       6.952 -11.973  -0.174  1.00  0.00    -0.550 OA
ATOM      9  O   UNL     1       8.498 -13.392   0.744  1.00  0.00    -0.550 OA
ENDBRANCH   6   7
ENDBRANCH   5   6
ENDBRANCH   4   5
ENDBRANCH   3   4
ENDBRANCH   2   3
ENDBRANCH   1   2
BRANCH   1  10
ATOM     10  C   UNL     1       4.880 -13.859   5.043  1.00  0.00     0.000 C 
BRANCH  10  11
ATOM     11  C   UNL     1       4.878 -13.387   6.508  1.00  0.00    -0.000 C 
BRANCH  11  12
ATOM     12  C   UNL     1       6.086 -12.495   6.840  1.00  0.00    -0.000 C 
BRANCH  12  13
ATOM     13  C   UNL     1       5.670 -11.075   7.267  1.00  0.00    -0.000 C 
BRANCH  13  14
ATOM     14  C   UNL     1       4.194 -10.768   6.957  1.00  0.00    -0.000 C 
BRANCH  14  15
ATOM     15  C   UNL     1       3.966  -9.692   5.881  1.00  0.00    -0.003 C 
ATOM     16  C   UNL     1       4.573  -8.338   6.249  1.00  0.00     0.004 C 
ENDBRANCH  14  15
ENDBRANCH  13  14
ENDBRANCH  12  13
ENDBRANCH  11  12
ENDBRANCH  10  11
ENDBRANCH   1  10
TORSDOF 12
ENDMDL
MODEL 3
REMARK VINA RESULT:    -4.377      0.779      1.749
REMARK INTER + INTRA:          -8.798
REMARK INTER:                  -7.841
REMARK INTRA:                  -0.957
REMARK UNBOUND:                -1.351
REMARK SMILES CCCCCCCCCCCCCC(=O)[O-]
REMARK SMILES IDX 8 1 9 2 10 3 11 4 12 5 13 6 14 7 15 8 16 9 7 10 6 11 5 12
REMARK SMILES IDX 4 13 3 14 2 15 1 16
REMARK H PARENT
REMARK Flexibility Score: inf
ROOT
ATOM      1  C   UNL     1       3.613 -13.495   4.214  1.00  0.00     0.000 C 
ENDROOT
BRANCH   1   2
ATOM      2  C   UNL     1       4.945 -13.850   4.892  1.00  0.00     0.000 C 
BRANCH   2   3
ATOM      3  C   UNL     1       4.929 -13.450   6.375  1.00  0.00     0.000 C 
BRANCH   3   4
ATOM      4  C   UNL     1       6.018 -12.423   6.725  1.00  0.00     0.000 C 
BRANCH   4   5
ATOM      5  C   UNL     1       5.437 -11.091   7.226  1.00  0.00     0.006 C 
BRANCH   5   6
ATOM      6  C   UNL     1       3.943 -10.991   6.899  1.00  0.00     0.053 C 
BRANCH   6   7
ATOM      7  C   UNL     1       3.587  -9.591   6.508  1.00  0.00     0.041 C 
ATOM      8  O   UNL     1       2.786  -8.921   7.212  1.00  0.00    -0.550 OA
ATOM      9  O   UNL     1       4.101  -9.042   5.340  1.00  0.00    -0.550 OA
ENDBRANCH   6   7
ENDBRANCH   5   6
ENDBRANCH   4   5
ENDBRANCH   3   4
ENDBRANCH   2   3
ENDBRANCH   1   2
BRANCH   1  10
ATOM     10  C   UNL     1       3.723 -12.270   3.292  1.00  0.00     0.000 C 
BRANCH  10  11
ATOM     11  C   UNL     1       3.696 -12.647   1.800  1.00  0.00    -0.000 C 
BRANCH  11  12
ATOM     12  C   UNL     1       4.664 -11.797   0.961  1.00  0.00    -0.000 C 
BRANCH  12  13
ATOM     13  C   UNL     1       5.728 -12.649   0.246  1.00  0.00    -0.000 C 
BRANCH  13  14
ATOM     14  C   UNL     1       6.678 -13.362   1.226  1.00  0.00    -0.000 C 
BRANCH  14  15
ATOM     15  C   UNL     1       7.603 -14.412   0.584  1.00  0.00    -0.003 C 
ATOM     16  C   UNL     1       9.072 -13.990   0.573  1.00  0.00     0.004 C 
ENDBRANCH  14  15
ENDBRANCH  13  14
ENDBRANCH  12  13
ENDBRANCH  11  12
ENDBRANCH  10  11
ENDBRANCH   1  10
TORSDOF 12
ENDMDL
MODEL 4
REMARK VINA RESULT:    -4.354      1.578      2.943
REMARK INTER + INTRA:          -8.758
REMARK INTER:                  -7.241
REMARK INTRA:                  -1.518
REMARK UNBOUND:                -1.351
REMARK SMILES CCCCCCCCCCCCCC(=O)[O-]
REMARK SMILES IDX 8 1 9 2 10 3 11 4 12 5 13 6 14 7 15 8 16 9 7 10 6 11 5 12
REMARK SMILES IDX 4 13 3 14 2 15 1 16
REMARK H PARENT
REMARK Flexibility Score: inf
ROOT
ATOM      1  C   UNL     1       3.520 -11.367   3.542  1.00  0.00     0.000 C 
ENDROOT
BRANCH   1   2
ATOM      2  C   UNL     1       2.649 -12.565   3.946  1.00  0.00     0.000 C 
BRANCH   2   3
ATOM      3  C   UNL     1       3.514 -13.803   4.225  1.00  0.00     0.000 C 
BRANCH   3   4
ATOM      4  C   UNL     1       4.918 -13.443   4.740  1.00  0.00     0.000 C 
BRANCH   4   5
ATOM      5  C   UNL     1       5.017 -13.494   6.272  1.00  0.00     0.006 C 
BRANCH   5   6
ATOM      6  C   UNL     1       5.819 -12.302   6.806  1.00  0.00     0.053 C 
BRANCH   6   7
ATOM      7  C   UNL     1       4.930 -11.112   6.985  1.00  0.00     0.041 C 
ATOM      8  O   UNL     1       3.688 -11.263   7.125  1.00  0.00    -0.550 OA
ATOM      9  O   UNL     1       5.467  -9.831   6.947  1.00  0.00    -0.550 OA
ENDBRANCH   6   7
ENDBRANCH   5   6
ENDBRANCH   4   5
ENDBRANCH   3   4
ENDBRANCH   2   3
ENDBRANCH   1   2
BRANCH   1  10
ATOM     10  C   UNL     1       3.080 -10.734   2.212  1.00  0.00     0.000 C 
BRANCH  10  11
ATOM     11  C   UNL     1       3.934 -11.205   1.021  1.00  0.00    -0.000 C 
BRANCH  11  12
ATOM     12  C   UNL     1       3.416 -12.516   0.409  1.00  0.00    -0.000 C 
BRANCH  12  13
ATOM     13  C   UNL     1       4.543 -13.533   0.154  1.00  0.00    -0.000 C 
BRANCH  13  14
ATOM     14  C   UNL     1       5.744 -13.342   1.100  1.00  0.00    -0.000 C 
BRANCH  14  15
ATOM     15  C   UNL     1       7.001 -14.145   0.723  1.00  0.00    -0.003 C 
ATOM     16  C   UNL     1       8.288 -13.328   0.830  1.00  0.00     0.004 C 
ENDBRANCH  14  15
ENDBRANCH  13  14
ENDBRANCH  12  13
ENDBRANCH  11  12
ENDBRANCH  10  11
ENDBRANCH   1  10
TORSDOF 12
ENDMDL
MODEL 5
REMARK VINA RESULT:    -4.349      3.814      6.612
REMARK INTER + INTRA:          -8.751
REMARK INTER:                  -7.573
REMARK INTRA:                  -1.178
REMARK UNBOUND:                -1.351
REMARK SMILES CCCCCCCCCCCCCC(=O)[O-]
REMARK SMILES IDX 8 1 9 2 10 3 11 4 12 5 13 6 14 7 15 8 16 9 7 10 6 11 5 12
REMARK SMILES IDX 4 13 3 14 2 15 1 16
REMARK H PARENT
REMARK Flexibility Score: inf
ROOT
ATOM      1  C   UNL     1       3.001 -11.732   3.323  1.00  0.00     0.000 C 
ENDROOT
BRANCH   1   2
ATOM      2  C   UNL     1       2.914 -12.078   1.830  1.00  0.00     0.000 C 
BRANCH   2   3
ATOM      3  C   UNL     1       4.146 -11.557   1.074  1.00  0.00     0.000 C 
BRANCH   3   4
ATOM      4  C   UNL     1       4.985 -12.687   0.455  1.00  0.00     0.000 C 
BRANCH   4   5
ATOM      5  C   UNL     1       6.431 -12.258   0.162  1.00  0.00     0.006 C 
BRANCH   5   6
ATOM      6  C   UNL     1       7.419 -13.028   1.043  1.00  0.00     0.053 C 
BRANCH   6   7
ATOM      7  C   UNL     1       8.156 -14.049   0.234  1.00  0.00     0.041 C 
ATOM      8  O   UNL     1       7.609 -14.579  -0.768  1.00  0.00    -0.550 OA
ATOM      9  O   UNL     1       9.430 -14.451   0.615  1.00  0.00    -0.550 OA
ENDBRANCH   6   7
ENDBRANCH   5   6
ENDBRANCH   4   5
ENDBRANCH   3   4
ENDBRANCH   2   3
ENDBRANCH   1   2
BRANCH   1  10
ATOM     10  C   UNL     1       2.758 -12.949   4.230  1.00  0.00     0.000 C 
BRANCH  10  11
ATOM     11  C   UNL     1       3.775 -14.079   3.989  1.00  0.00    -0.000 C 
BRANCH  11  12
ATOM     12  C   UNL     1       5.076 -13.879   4.783  1.00  0.00    -0.000 C 
BRANCH  12  13
ATOM     13  C   UNL     1       4.816 -13.477   6.247  1.00  0.00    -0.000 C 
BRANCH  13  14
ATOM     14  C   UNL     1       5.900 -12.540   6.810  1.00  0.00    -0.000 C 
BRANCH  14  15
ATOM     15  C   UNL     1       5.453 -11.082   7.019  1.00  0.00    -0.003 C 
ATOM     16  C   UNL     1       3.935 -10.910   6.983  1.00  0.00     0.004 C 
ENDBRANCH  14  15
ENDBRANCH  13  14
ENDBRANCH  12  13
ENDBRANCH  11  12
ENDBRANCH  10  11
ENDBRANCH   1  10
TORSDOF 12
ENDMDL
MODEL 6
REMARK VINA RESULT:    -4.333      3.694      6.526
REMARK INTER + INTRA:          -8.724
REMARK INTER:                  -7.468
REMARK INTRA:                  -1.256
REMARK UNBOUND:                -1.351
REMARK SMILES CCCCCCCCCCCCCC(=O)[O-]
REMARK SMILES IDX 8 1 9 2 10 3 11 4 12 5 13 6 14 7 15 8 16 9 7 10 6 11 5 12
REMARK SMILES IDX 4 13 3 14 2 15 1 16
REMARK H PARENT
REMARK Flexibility Score: inf
ROOT
ATOM      1  C   UNL     1       4.868 -13.741   4.042  1.00  0.00     0.000 C 
ENDROOT
BRANCH   1   2
ATOM      2  C   UNL     1       3.844 -13.352   2.966  1.00  0.00     0.000 C 
BRANCH   2   3
ATOM      3  C   UNL     1       4.382 -12.216   2.083  1.00  0.00     0.000 C 
BRANCH   3   4
ATOM      4  C   UNL     1       4.719 -12.680   0.656  1.00  0.00     0.000 C 
BRANCH   4   5
ATOM      5  C   UNL     1       6.171 -12.371   0.262  1.00  0.00     0.006 C 
BRANCH   5   6
ATOM      6  C   UNL     1       7.154 -13.115   1.172  1.00  0.00     0.053 C 
BRANCH   6   7
ATOM      7  C   UNL     1       7.974 -14.081   0.376  1.00  0.00     0.041 C 
ATOM      8  O   UNL     1       7.412 -14.940  -0.353  1.00  0.00    -0.550 OA
ATOM      9  O   UNL     1       9.360 -14.066   0.478  1.00  0.00    -0.550 OA
ENDBRANCH   6   7
ENDBRANCH   5   6
ENDBRANCH   4   5
ENDBRANCH   3   4
ENDBRANCH   2   3
ENDBRANCH   1   2
BRANCH   1  10
ATOM     10  C   UNL     1       4.326 -13.563   5.470  1.00  0.00     0.000 C 
BRANCH  10  11
ATOM     11  C   UNL     1       5.445 -13.355   6.506  1.00  0.00    -0.000 C 
BRANCH  11  12
ATOM     12  C   UNL     1       5.581 -11.885   6.937  1.00  0.00    -0.000 C 
BRANCH  12  13
ATOM     13  C   UNL     1       4.230 -11.148   6.952  1.00  0.00    -0.000 C 
BRANCH  13  14
ATOM     14  C   UNL     1       4.345  -9.681   6.502  1.00  0.00    -0.000 C 
BRANCH  14  15
ATOM     15  C   UNL     1       3.668  -9.359   5.158  1.00  0.00    -0.003 C 
ATOM     16  C   UNL     1       2.527 -10.317   4.817  1.00  0.00     0.004 C 
ENDBRANCH  14  15
ENDBRANCH  13  14
ENDBRANCH  12  13
ENDBRANCH  11  12
ENDBRANCH  10  11
ENDBRANCH   1  10
TORSDOF 12
ENDMDL
MODEL 7
REMARK VINA RESULT:    -4.266      3.855      6.596
REMARK INTER + INTRA:          -8.610
REMARK INTER:                  -7.434
REMARK INTRA:                  -1.176
REMARK UNBOUND:                -1.351
REMARK SMILES CCCCCCCCCCCCCC(=O)[O-]
REMARK SMILES IDX 8 1 9 2 10 3 11 4 12 5 13 6 14 7 15 8 16 9 7 10 6 11 5 12
REMARK SMILES IDX 4 13 3 14 2 15 1 16
REMARK H PARENT
REMARK Flexibility Score: inf
ROOT
ATOM      1  C   UNL     1       3.275 -12.178   2.756  1.00  0.00     0.000 C 
ENDROOT
BRANCH   1   2
ATOM      2  C   UNL     1       4.191 -13.400   2.916  1.00  0.00     0.000 C 
BRANCH   2   3
ATOM      3  C   UNL     1       5.550 -13.159   2.243  1.00  0.00     0.000 C 
BRANCH   3   4
ATOM      4  C   UNL     1       5.423 -12.825   0.748  1.00  0.00     0.000 C 
BRANCH   4   5
ATOM      5  C   UNL     1       6.774 -12.485   0.100  1.00  0.00     0.006 C 
BRANCH   5   6
ATOM      6  C   UNL     1       7.934 -13.033   0.938  1.00  0.00     0.053 C 
BRANCH   6   7
ATOM      7  C   UNL     1       8.502 -14.263   0.302  1.00  0.00     0.041 C 
ATOM      8  O   UNL     1       9.748 -14.404   0.195  1.00  0.00    -0.550 OA
ATOM      9  O   UNL     1       7.653 -15.234  -0.216  1.00  0.00    -0.550 OA
ENDBRANCH   6   7
ENDBRANCH   5   6
ENDBRANCH   4   5
ENDBRANCH   3   4
ENDBRANCH   2   3
ENDBRANCH   1   2
BRANCH   1  10
ATOM     10  C   UNL     1       2.754 -11.646   4.101  1.00  0.00     0.000 C 
BRANCH  10  11
ATOM     11  C   UNL     1       3.454 -10.345   4.534  1.00  0.00    -0.000 C 
BRANCH  11  12
ATOM     12  C   UNL     1       3.172  -9.985   6.002  1.00  0.00    -0.000 C 
BRANCH  12  13
ATOM     13  C   UNL     1       3.813 -10.981   6.985  1.00  0.00    -0.000 C 
BRANCH  13  14
ATOM     14  C   UNL     1       5.351 -10.967   6.931  1.00  0.00    -0.000 C 
BRANCH  14  15
ATOM     15  C   UNL     1       6.012 -12.355   6.860  1.00  0.00    -0.003 C 
ATOM     16  C   UNL     1       5.036 -13.463   6.466  1.00  0.00     0.004 C 
ENDBRANCH  14  15
ENDBRANCH  13  14
ENDBRANCH  12  13
ENDBRANCH  11  12
ENDBRANCH  10  11
ENDBRANCH   1  10
TORSDOF 12
ENDMDL
MODEL 8
REMARK VINA RESULT:    -4.213      2.340      3.896
REMARK INTER + INTRA:          -8.520
REMARK INTER:                  -6.689
REMARK INTRA:                  -1.831
REMARK UNBOUND:                -1.351
REMARK SMILES CCCCCCCCCCCCCC(=O)[O-]
REMARK SMILES IDX 8 1 9 2 10 3 11 4 12 5 13 6 14 7 15 8 16 9 7 10 6 11 5 12
REMARK SMILES IDX 4 13 3 14 2 15 1 16
REMARK H PARENT
REMARK Flexibility Score: inf
ROOT
ATOM      1  C   UNL     1       5.218 -11.431   7.124  1.00  0.00     0.000 C 
ENDROOT
BRANCH   1   2
ATOM      2  C   UNL     1       3.738 -11.066   6.935  1.00  0.00     0.000 C 
BRANCH   2   3
ATOM      3  C   UNL     1       3.544  -9.542   6.943  1.00  0.00     0.000 C 
BRANCH   3   4
ATOM      4  C   UNL     1       4.560  -8.808   6.052  1.00  0.00     0.000 C 
BRANCH   4   5
ATOM      5  C   UNL     1       4.021  -7.473   5.517  1.00  0.00     0.006 C 
BRANCH   5   6
ATOM      6  C   UNL     1       2.771  -7.040   6.288  1.00  0.00     0.053 C 
BRANCH   6   7
ATOM      7  C   UNL     1       3.019  -5.750   7.006  1.00  0.00     0.041 C 
ATOM      8  O   UNL     1       2.374  -4.716   6.692  1.00  0.00    -0.550 OA
ATOM      9  O   UNL     1       3.998  -5.679   7.989  1.00  0.00    -0.550 OA
ENDBRANCH   6   7
ENDBRANCH   5   6
ENDBRANCH   4   5
ENDBRANCH   3   4
ENDBRANCH   2   3
ENDBRANCH   1   2
BRANCH   1  10
ATOM     10  C   UNL     1       5.642 -12.646   6.284  1.00  0.00     0.000 C 
BRANCH  10  11
ATOM     11  C   UNL     1       4.467 -13.271   5.511  1.00  0.00    -0.000 C 
BRANCH  11  12
ATOM     12  C   UNL     1       4.495 -12.918   4.014  1.00  0.00    -0.000 C 
BRANCH  12  13
ATOM     13  C   UNL     1       3.191 -12.248   3.543  1.00  0.00    -0.000 C 
BRANCH  13  14
ATOM     14  C   UNL     1       3.410 -10.813   3.030  1.00  0.00    -0.000 C 
BRANCH  14  15
ATOM     15  C   UNL     1       2.235  -9.849   3.277  1.00  0.00    -0.003 C 
ATOM     16  C   UNL     1       1.169 -10.430   4.206  1.00  0.00     0.004 C 
ENDBRANCH  14  15
ENDBRANCH  13  14
ENDBRANCH  12  13
ENDBRANCH  11  12
ENDBRANCH  10  11
ENDBRANCH   1  10
TORSDOF 12
ENDMDL
MODEL 9
REMARK VINA RESULT:    -4.195      3.153      6.079
REMARK INTER + INTRA:          -8.488
REMARK INTER:                  -6.917
REMARK INTRA:                  -1.572
REMARK UNBOUND:                -1.351
REMARK SMILES CCCCCCCCCCCCCC(=O)[O-]
REMARK SMILES IDX 8 1 9 2 10 3 11 4 12 5 13 6 14 7 15 8 16 9 7 10 6 11 5 12
REMARK SMILES IDX 4 13 3 14 2 15 1 16
REMARK H PARENT
REMARK Flexibility Score: inf
ROOT
ATOM      1  C   UNL     1       2.408 -10.366   4.147  1.00  0.00     0.000 C 
ENDROOT
BRANCH   1   2
ATOM      2  C   UNL     1       3.603 -10.818   3.295  1.00  0.00     0.000 C 
BRANCH   2   3
ATOM      3  C   UNL     1       3.129 -11.567   2.041  1.00  0.00     0.000 C 
BRANCH   3   4
ATOM      4  C   UNL     1       4.210 -11.645   0.951  1.00  0.00     0.000 C 
BRANCH   4   5
ATOM      5  C   UNL     1       4.745 -13.071   0.748  1.00  0.00     0.006 C 
BRANCH   5   6
ATOM      6  C   UNL     1       5.961 -13.330   1.643  1.00  0.00     0.053 C 
BRANCH   6   7
ATOM      7  C   UNL     1       7.192 -13.517   0.812  1.00  0.00     0.041 C 
ATOM      8  O   UNL     1       7.983 -12.556   0.625  1.00  0.00    -0.550 OA
ATOM      9  O   UNL     1       7.440 -14.741   0.203  1.00  0.00    -0.550 OA
ENDBRANCH   6   7
ENDBRANCH   5   6
ENDBRANCH   4   5
ENDBRANCH   3   4
ENDBRANCH   2   3
ENDBRANCH   1   2
BRANCH   1  10
ATOM     10  C   UNL     1       2.676 -10.483   5.657  1.00  0.00     0.000 C 
BRANCH  10  11
ATOM     11  C   UNL     1       4.109 -10.070   6.038  1.00  0.00    -0.000 C 
BRANCH  11  12
ATOM     12  C   UNL     1       4.721 -10.990   7.107  1.00  0.00    -0.000 C 
BRANCH  12  13
ATOM     13  C   UNL     1       5.617 -12.084   6.498  1.00  0.00    -0.000 C 
BRANCH  13  14
ATOM     14  C   UNL     1       4.895 -13.436   6.355  1.00  0.00    -0.000 C 
BRANCH  14  15
ATOM     15  C   UNL     1       4.791 -13.967   4.914  1.00  0.00    -0.003 C 
ATOM     16  C   UNL     1       3.365 -14.343   4.515  1.00  0.00     0.004 C 
ENDBRANCH  14  15
ENDBRANCH  13  14
ENDBRANCH  12  13
ENDBRANCH  11  12
ENDBRANCH  10  11
ENDBRANCH   1  10
TORSDOF 12
ENDMDL
