MODEL 1
REMARK VINA RESULT:    -5.487      0.000      0.000
REMARK INTER + INTRA:          -7.963
REMARK INTER:                  -8.373
REMARK INTRA:                   0.410
REMARK UNBOUND:                 0.410
REMARK SMILES CC1=CCC[C@@H](C)C(=O)C[C@@H](C(C)C)C(=O)C1
REMARK SMILES IDX 8 1 9 2 6 3 7 4 5 5 4 6 3 7 2 8 1 9 10 11 11 12 15 13 16 14
REMARK SMILES IDX 17 15 12 17 13 18 14 19
REMARK H PARENT
REMARK Flexibility Score: 70.00
ROOT
ATOM      1  C   UNL     1      -9.121  32.272  21.391  1.00  0.00     0.136 C 
ATOM      2  O   UNL     1      -9.210  31.574  20.392  1.00  0.00    -0.299 OA
ENDROOT
BRANCH   1   3
ATOM      3  C   UNL     1      -8.146  33.439  21.361  1.00  0.00     0.053 C 
ATOM      4  C   UNL     1      -7.158  33.389  20.185  1.00  0.00     0.016 C 
BRANCH   3   5
ATOM      5  C   UNL     1      -7.465  33.665  22.730  1.00  0.00     0.015 C 
BRANCH   5   6
ATOM      6  C   UNL     1      -8.314  34.465  23.736  1.00  0.00     0.028 C 
BRANCH   6   7
ATOM      7  C   UNL     1      -8.005  34.117  25.172  1.00  0.00    -0.028 C 
ATOM      8  C   UNL     1      -8.610  33.139  25.890  1.00  0.00    -0.070 CG0
ATOM      9  C   UNL     1      -8.103  32.881  27.287  1.00  0.00     0.039 C 
ATOM     10  G   UNL     1      -9.787  32.319  25.375  1.00  0.00     0.000 G0
ENDBRANCH   6   7
ENDBRANCH   5   6
ENDBRANCH   3   5
ENDBRANCH   1   3
BRANCH   1  11
ATOM     11  C   UNL     1      -9.973  31.910  22.595  1.00  0.00     0.087 C 
BRANCH  11  12
ATOM     12  C   UNL     1      -9.412  30.687  23.367  1.00  0.00     0.066 C 
BRANCH  12  13
ATOM     13  C   UNL     1      -9.392  30.949  24.867  1.00  0.00     0.140 C 
ATOM     14  O   UNL     1      -9.076  30.064  25.648  1.00  0.00    -0.299 OA
BRANCH  13  15
ATOM     15  C   UNL     1      -9.783  32.306  25.397  1.00  0.00     0.106 CG0
ATOM     16  G   UNL     1      -8.601  33.143  25.873  1.00  0.00     0.000 G0
ENDBRANCH  13  15
ENDBRANCH  12  13
BRANCH  12  17
ATOM     17  C   UNL     1      -8.048  30.195  22.789  1.00  0.00    -0.006 C 
ATOM     18  C   UNL     1      -8.105  28.713  22.384  1.00  0.00     0.008 C 
ATOM     19  C   UNL     1      -6.834  30.454  23.700  1.00  0.00     0.008 C 
ENDBRANCH  12  17
ENDBRANCH  11  12
ENDBRANCH   1  11
TORSDOF 1
ENDMDL
MODEL 2
REMARK VINA RESULT:    -5.299      1.784      3.818
REMARK INTER + INTRA:          -7.676
REMARK INTER:                  -8.010
REMARK INTRA:                   0.334
REMARK UNBOUND:                 0.410
REMARK SMILES CC1=CCC[C@@H](C)C(=O)C[C@@H](C(C)C)C(=O)C1
REMARK SMILES IDX 8 1 9 2 6 3 7 4 5 5 4 6 3 7 2 8 1 9 10 11 11 12 15 13 16 14
REMARK SMILES IDX 17 15 12 17 13 18 14 19
REMARK H PARENT
REMARK Flexibility Score: 70.00
ROOT
ATOM      1  C   UNL     1      -7.686  34.083  22.099  1.00  0.00     0.136 C 
ATOM      2  O   UNL     1      -7.144  35.157  21.883  1.00  0.00    -0.299 OA
ENDROOT
BRANCH   1   3
ATOM      3  C   UNL     1      -7.339  32.915  21.188  1.00  0.00     0.053 C 
ATOM      4  C   UNL     1      -7.257  33.294  19.700  1.00  0.00     0.016 C 
BRANCH   3   5
ATOM      5  C   UNL     1      -8.228  31.680  21.460  1.00  0.00     0.015 C 
BRANCH   5   6
ATOM      6  C   UNL     1      -7.466  30.462  22.018  1.00  0.00     0.028 C 
BRANCH   6   7
ATOM      7  C   UNL     1      -8.349  29.534  22.817  1.00  0.00    -0.028 C 
ATOM      8  C   UNL     1      -8.675  29.694  24.124  1.00  0.00    -0.070 CG0
ATOM      9  C   UNL     1      -9.644  28.708  24.729  1.00  0.00     0.039 C 
ATOM     10  G   UNL     1      -8.091  30.785  25.013  1.00  0.00     0.000 G0
ENDBRANCH   6   7
ENDBRANCH   5   6
ENDBRANCH   3   5
ENDBRANCH   1   3
BRANCH   1  11
ATOM     11  C   UNL     1      -8.679  33.999  23.245  1.00  0.00     0.087 C 
BRANCH  11  12
ATOM     12  C   UNL     1      -8.061  33.355  24.513  1.00  0.00     0.066 C 
BRANCH  12  13
ATOM     13  C   UNL     1      -8.824  32.102  24.918  1.00  0.00     0.140 C 
ATOM     14  O   UNL     1     -10.019  32.155  25.165  1.00  0.00    -0.299 OA
BRANCH  13  15
ATOM     15  C   UNL     1      -8.097  30.785  25.035  1.00  0.00     0.106 CG0
ATOM     16  G   UNL     1      -8.656  29.693  24.131  1.00  0.00     0.000 G0
ENDBRANCH  13  15
ENDBRANCH  12  13
BRANCH  12  17
ATOM     17  C   UNL     1      -7.873  34.387  25.671  1.00  0.00    -0.006 C 
ATOM     18  C   UNL     1      -8.252  33.784  27.033  1.00  0.00     0.008 C 
ATOM     19  C   UNL     1      -8.598  35.729  25.458  1.00  0.00     0.008 C 
ENDBRANCH  12  17
ENDBRANCH  11  12
ENDBRANCH   1  11
TORSDOF 1
ENDMDL
MODEL 3
REMARK VINA RESULT:    -4.896      1.740      3.890
REMARK INTER + INTRA:          -7.061
REMARK INTER:                  -7.637
REMARK INTRA:                   0.576
REMARK UNBOUND:                 0.410
REMARK SMILES CC1=CCC[C@@H](C)C(=O)C[C@@H](C(C)C)C(=O)C1
REMARK SMILES IDX 8 1 9 2 6 3 7 4 5 5 4 6 3 7 2 8 1 9 10 11 11 12 15 13 16 14
REMARK SMILES IDX 17 15 12 17 13 18 14 19
REMARK H PARENT
REMARK Flexibility Score: 70.00
ROOT
ATOM      1  C   UNL     1      -8.457  30.223  25.404  1.00  0.00     0.136 C 
ATOM      2  O   UNL     1      -9.556  29.813  25.063  1.00  0.00    -0.299 OA
ENDROOT
BRANCH   1   3
ATOM      3  C   UNL     1      -8.224  30.489  26.884  1.00  0.00     0.053 C 
ATOM      4  C   UNL     1      -8.609  29.311  27.793  1.00  0.00     0.016 C 
BRANCH   3   5
ATOM      5  C   UNL     1      -8.828  31.839  27.334  1.00  0.00     0.015 C 
BRANCH   5   6
ATOM      6  C   UNL     1      -7.803  32.983  27.455  1.00  0.00     0.028 C 
BRANCH   6   7
ATOM      7  C   UNL     1      -8.300  34.280  26.863  1.00  0.00    -0.028 C 
ATOM      8  C   UNL     1      -8.269  34.605  25.547  1.00  0.00    -0.070 CG0
ATOM      9  C   UNL     1      -8.894  35.914  25.134  1.00  0.00     0.039 C 
ATOM     10  G   UNL     1      -7.610  33.739  24.479  1.00  0.00     0.000 G0
ENDBRANCH   6   7
ENDBRANCH   5   6
ENDBRANCH   3   5
ENDBRANCH   1   3
BRANCH   1  11
ATOM     11  C   UNL     1      -7.413  30.457  24.326  1.00  0.00     0.087 C 
BRANCH  11  12
ATOM     12  C   UNL     1      -7.897  31.459  23.246  1.00  0.00     0.066 C 
BRANCH  12  13
ATOM     13  C   UNL     1      -8.512  32.697  23.884  1.00  0.00     0.140 C 
ATOM     14  O   UNL     1      -9.725  32.837  23.925  1.00  0.00    -0.299 OA
BRANCH  13  15
ATOM     15  C   UNL     1      -7.618  33.770  24.453  1.00  0.00     0.106 CG0
ATOM     16  G   UNL     1      -8.278  34.601  25.548  1.00  0.00     0.000 G0
ENDBRANCH  13  15
ENDBRANCH  12  13
BRANCH  12  17
ATOM     17  C   UNL     1      -8.803  30.781  22.170  1.00  0.00    -0.006 C 
ATOM     18  C   UNL     1      -8.437  29.302  21.971  1.00  0.00     0.008 C 
ATOM     19  C   UNL     1      -8.845  31.510  20.814  1.00  0.00     0.008 C 
ENDBRANCH  12  17
ENDBRANCH  11  12
ENDBRANCH   1  11
TORSDOF 1
ENDMDL
MODEL 4
REMARK VINA RESULT:    -4.729      1.866      3.709
REMARK INTER + INTRA:          -6.806
REMARK INTER:                  -7.631
REMARK INTRA:                   0.824
REMARK UNBOUND:                 0.410
REMARK SMILES CC1=CCC[C@@H](C)C(=O)C[C@@H](C(C)C)C(=O)C1
REMARK SMILES IDX 8 1 9 2 6 3 7 4 5 5 4 6 3 7 2 8 1 9 10 11 11 12 15 13 16 14
REMARK SMILES IDX 17 15 12 17 13 18 14 19
REMARK H PARENT
REMARK Flexibility Score: 70.00
ROOT
ATOM      1  C   UNL     1      -8.923  31.573  22.767  1.00  0.00     0.136 C 
ATOM      2  O   UNL     1      -9.067  31.872  21.590  1.00  0.00    -0.299 OA
ENDROOT
BRANCH   1   3
ATOM      3  C   UNL     1      -8.166  30.294  23.090  1.00  0.00     0.053 C 
ATOM      4  C   UNL     1      -8.251  29.229  21.985  1.00  0.00     0.016 C 
BRANCH   3   5
ATOM      5  C   UNL     1      -8.511  29.752  24.496  1.00  0.00     0.015 C 
BRANCH   5   6
ATOM      6  C   UNL     1      -7.488  30.125  25.586  1.00  0.00     0.028 C 
BRANCH   6   7
ATOM      7  C   UNL     1      -8.070  30.073  26.978  1.00  0.00    -0.028 C 
ATOM      8  C   UNL     1      -9.086  30.848  27.434  1.00  0.00    -0.070 CG0
ATOM      9  C   UNL     1      -9.591  30.590  28.831  1.00  0.00     0.039 C 
ATOM     10  G   UNL     1      -9.711  31.980  26.626  1.00  0.00     0.000 G0
ENDBRANCH   6   7
ENDBRANCH   5   6
ENDBRANCH   3   5
ENDBRANCH   1   3
BRANCH   1  11
ATOM     11  C   UNL     1      -9.529  32.488  23.816  1.00  0.00     0.087 C 
BRANCH  11  12
ATOM     12  C   UNL     1      -8.448  33.203  24.669  1.00  0.00     0.066 C 
BRANCH  12  13
ATOM     13  C   UNL     1      -8.724  33.034  26.156  1.00  0.00     0.140 C 
ATOM     14  O   UNL     1      -8.134  33.717  26.979  1.00  0.00    -0.299 OA
BRANCH  13  15
ATOM     15  C   UNL     1      -9.720  32.001  26.622  1.00  0.00     0.106 CG0
ATOM     16  G   UNL     1      -9.097  30.868  27.429  1.00  0.00     0.000 G0
ENDBRANCH  13  15
ENDBRANCH  12  13
BRANCH  12  17
ATOM     17  C   UNL     1      -8.228  34.685  24.228  1.00  0.00    -0.006 C 
ATOM     18  C   UNL     1      -9.369  35.595  24.709  1.00  0.00     0.008 C 
ATOM     19  C   UNL     1      -7.990  34.876  22.718  1.00  0.00     0.008 C 
ENDBRANCH  12  17
ENDBRANCH  11  12
ENDBRANCH   1  11
TORSDOF 1
ENDMDL
MODEL 5
REMARK VINA RESULT:    -4.717      2.027      3.938
REMARK INTER + INTRA:          -6.788
REMARK INTER:                  -7.321
REMARK INTRA:                   0.533
REMARK UNBOUND:                 0.410
REMARK SMILES CC1=CCC[C@@H](C)C(=O)C[C@@H](C(C)C)C(=O)C1
REMARK SMILES IDX 8 1 9 2 6 3 7 4 5 5 4 6 3 7 2 8 1 9 10 11 11 12 15 13 16 14
REMARK SMILES IDX 17 15 12 17 13 18 14 19
REMARK H PARENT
REMARK Flexibility Score: 70.00
ROOT
ATOM      1  C   UNL     1      -8.623  34.008  23.614  1.00  0.00     0.136 C 
ATOM      2  O   UNL     1      -8.777  35.166  23.973  1.00  0.00    -0.299 OA
ENDROOT
BRANCH   1   3
ATOM      3  C   UNL     1      -7.868  33.759  22.317  1.00  0.00     0.053 C 
ATOM      4  C   UNL     1      -7.037  34.962  21.844  1.00  0.00     0.016 C 
BRANCH   3   5
ATOM      5  C   UNL     1      -8.779  33.169  21.217  1.00  0.00     0.015 C 
BRANCH   5   6
ATOM      6  C   UNL     1      -9.667  32.001  21.688  1.00  0.00     0.028 C 
BRANCH   6   7
ATOM      7  C   UNL     1      -9.045  30.650  21.429  1.00  0.00    -0.028 C 
ATOM      8  C   UNL     1      -8.739  29.732  22.380  1.00  0.00    -0.070 CG0
ATOM      9  C   UNL     1      -8.202  28.400  21.919  1.00  0.00     0.039 C 
ATOM     10  G   UNL     1      -8.875  29.990  23.876  1.00  0.00     0.000 G0
ENDBRANCH   6   7
ENDBRANCH   5   6
ENDBRANCH   3   5
ENDBRANCH   1   3
BRANCH   1  11
ATOM     11  C   UNL     1      -9.216  32.906  24.475  1.00  0.00     0.087 C 
BRANCH  11  12
ATOM     12  C   UNL     1      -8.127  32.094  25.223  1.00  0.00     0.066 C 
BRANCH  12  13
ATOM     13  C   UNL     1      -7.774  30.823  24.463  1.00  0.00     0.140 C 
ATOM     14  O   UNL     1      -6.608  30.498  24.302  1.00  0.00    -0.299 OA
BRANCH  13  15
ATOM     15  C   UNL     1      -8.873  29.965  23.885  1.00  0.00     0.106 CG0
ATOM     16  G   UNL     1      -8.731  29.714  22.388  1.00  0.00     0.000 G0
ENDBRANCH  13  15
ENDBRANCH  12  13
BRANCH  12  17
ATOM     17  C   UNL     1      -8.487  31.858  26.723  1.00  0.00    -0.006 C 
ATOM     18  C   UNL     1      -9.964  31.470  26.897  1.00  0.00     0.008 C 
ATOM     19  C   UNL     1      -8.126  33.024  27.662  1.00  0.00     0.008 C 
ENDBRANCH  12  17
ENDBRANCH  11  12
ENDBRANCH   1  11
TORSDOF 1
ENDMDL
MODEL 6
REMARK VINA RESULT:    -4.556      1.908      3.354
REMARK INTER + INTRA:          -6.543
REMARK INTER:                  -6.641
REMARK INTRA:                   0.098
REMARK UNBOUND:                 0.410
REMARK SMILES CC1=CCC[C@@H](C)C(=O)C[C@@H](C(C)C)C(=O)C1
REMARK SMILES IDX 8 1 9 2 6 3 7 4 5 5 4 6 3 7 2 8 1 9 10 11 11 12 15 13 16 14
REMARK SMILES IDX 17 15 12 17 13 18 14 19
REMARK H PARENT
REMARK Flexibility Score: 70.00
ROOT
ATOM      1  C   UNL     1      -8.106  34.055  23.718  1.00  0.00     0.136 C 
ATOM      2  O   UNL     1      -8.191  34.721  22.696  1.00  0.00    -0.299 OA
ENDROOT
BRANCH   1   3
ATOM      3  C   UNL     1      -8.616  34.671  25.013  1.00  0.00     0.053 C 
ATOM      4  C   UNL     1      -7.571  35.527  25.745  1.00  0.00     0.016 C 
BRANCH   3   5
ATOM      5  C   UNL     1      -9.305  33.628  25.922  1.00  0.00     0.015 C 
BRANCH   5   6
ATOM      6  C   UNL     1      -8.348  32.892  26.880  1.00  0.00     0.028 C 
BRANCH   6   7
ATOM      7  C   UNL     1      -8.812  31.495  27.214  1.00  0.00    -0.028 C 
ATOM      8  C   UNL     1      -8.438  30.367  26.561  1.00  0.00    -0.070 CG0
ATOM      9  C   UNL     1      -8.940  29.049  27.097  1.00  0.00     0.039 C 
ATOM     10  G   UNL     1      -7.575  30.366  25.305  1.00  0.00     0.000 G0
ENDBRANCH   6   7
ENDBRANCH   5   6
ENDBRANCH   3   5
ENDBRANCH   1   3
BRANCH   1  11
ATOM     11  C   UNL     1      -7.480  32.675  23.625  1.00  0.00     0.087 C 
BRANCH  11  12
ATOM     12  C   UNL     1      -8.495  31.598  23.163  1.00  0.00     0.066 C 
BRANCH  12  13
ATOM     13  C   UNL     1      -8.388  30.343  24.019  1.00  0.00     0.140 C 
ATOM     14  O   UNL     1      -8.971  29.319  23.696  1.00  0.00    -0.299 OA
BRANCH  13  15
ATOM     15  C   UNL     1      -7.573  30.367  25.288  1.00  0.00     0.106 CG0
ATOM     16  G   UNL     1      -8.415  30.375  26.558  1.00  0.00     0.000 G0
ENDBRANCH  13  15
ENDBRANCH  12  13
BRANCH  12  17
ATOM     17  C   UNL     1      -8.417  31.328  21.627  1.00  0.00    -0.006 C 
ATOM     18  C   UNL     1      -7.214  32.039  20.987  1.00  0.00     0.008 C 
ATOM     19  C   UNL     1      -9.707  31.655  20.852  1.00  0.00     0.008 C 
ENDBRANCH  12  17
ENDBRANCH  11  12
ENDBRANCH   1  11
TORSDOF 1
ENDMDL
