MODEL 1
REMARK VINA RESULT:     2.102      0.000      0.000
REMARK INTER + INTRA:           2.005
REMARK INTER:                   2.656
REMARK INTRA:                  -0.650
REMARK UNBOUND:                -0.650
REMARK SMILES O=C(C=Cc1ccc(O)cc1)c1ccc(O)cc1O
REMARK SMILES IDX 4 1 3 2 5 3 6 4 7 5 8 6 11 7 10 8 9 9 2 11 1 12 12 13 18 14
REMARK SMILES IDX 13 15 17 16 14 17 15 18 19 19 16 21
REMARK H PARENT 9 10 19 20 16 22
REMARK Flexibility Score: inf
ROOT
ATOM      1  C   UNL     1     -23.595   3.151   1.114  1.00  0.00     0.012 C 
ATOM      2  C   UNL     1     -23.991   2.436   0.050  1.00  0.00     0.053 C 
ENDROOT
BRANCH   1   3
ATOM      3  C   UNL     1     -23.004   4.508   1.023  1.00  0.00    -0.025 A 
ATOM      4  C   UNL     1     -22.178   4.952   2.071  1.00  0.00     0.012 A 
ATOM      5  C   UNL     1     -21.592   6.220   2.028  1.00  0.00     0.047 A 
ATOM      6  C   UNL     1     -21.813   7.060   0.931  1.00  0.00     0.115 A 
ATOM      7  C   UNL     1     -23.209   5.356  -0.085  1.00  0.00     0.012 A 
ATOM      8  C   UNL     1     -22.619   6.623  -0.125  1.00  0.00     0.047 A 
BRANCH   6   9
ATOM      9  O   UNL     1     -21.234   8.326   0.876  1.00  0.00    -0.508 OA
ATOM     10  H   UNL     1     -20.624   8.661   1.612  1.00  0.00     0.293 HD
ENDBRANCH   6   9
ENDBRANCH   1   3
BRANCH   2  11
ATOM     11  C   UNL     1     -24.577   1.084   0.168  1.00  0.00     0.189 C 
ATOM     12  O   UNL     1     -23.810   0.090   0.061  1.00  0.00    -0.289 OA
BRANCH  11  13
ATOM     13  C   UNL     1     -26.018   0.847   0.411  1.00  0.00     0.064 A 
ATOM     14  C   UNL     1     -26.464  -0.233   1.202  1.00  0.00     0.130 A 
ATOM     15  C   UNL     1     -26.960   1.740  -0.125  1.00  0.00     0.020 A 
ATOM     16  C   UNL     1     -27.838  -0.426   1.408  1.00  0.00     0.093 A 
ATOM     17  C   UNL     1     -28.326   1.544   0.089  1.00  0.00     0.047 A 
ATOM     18  C   UNL     1     -28.769   0.457   0.853  1.00  0.00     0.119 A 
BRANCH  14  19
ATOM     19  O   UNL     1     -25.545  -1.098   1.797  1.00  0.00    -0.507 OA
ATOM     20  H   UNL     1     -25.820  -1.745   2.527  1.00  0.00     0.293 HD
ENDBRANCH  14  19
BRANCH  18  21
ATOM     21  O   UNL     1     -30.129   0.249   1.070  1.00  0.00    -0.508 OA
ATOM     22  H   UNL     1     -30.800   0.299   0.313  1.00  0.00     0.293 HD
ENDBRANCH  18  21
ENDBRANCH  11  13
ENDBRANCH   2  11
TORSDOF 6
ENDMDL
