MODEL 1
REMARK VINA RESULT:    -2.807      0.000      0.000
REMARK INTER + INTRA:          -6.669
REMARK INTER:                  -4.939
REMARK INTRA:                  -1.730
REMARK UNBOUND:                -1.730
REMARK SMILES CCCCCCCCCCCCCCC(=O)[O-]
REMARK SMILES IDX 9 1 10 2 11 3 12 4 13 5 14 6 15 7 16 8 17 9 8 10 7 11 6 12
REMARK SMILES IDX 5 13 4 14 3 15 2 16 1 17
REMARK H PARENT
REMARK Flexibility Score: inf
ROOT
ATOM      1  C   UNL     1       2.095   8.953   5.279  1.00  0.00     0.000 C 
ENDROOT
BRANCH   1   2
ATOM      2  C   UNL     1       3.205   9.884   4.766  1.00  0.00     0.000 C 
BRANCH   2   3
ATOM      3  C   UNL     1       4.365   9.114   4.112  1.00  0.00     0.000 C 
BRANCH   3   4
ATOM      4  C   UNL     1       4.126   8.828   2.620  1.00  0.00     0.000 C 
BRANCH   4   5
ATOM      5  C   UNL     1       3.858   7.341   2.309  1.00  0.00     0.006 C 
BRANCH   5   6
ATOM      6  C   UNL     1       4.276   6.423   3.465  1.00  0.00     0.053 C 
BRANCH   6   7
ATOM      7  C   UNL     1       5.451   5.585   3.070  1.00  0.00     0.041 C 
ATOM      8  O   UNL     1       6.559   6.126   2.819  1.00  0.00    -0.550 OA
ATOM      9  O   UNL     1       5.334   4.201   3.028  1.00  0.00    -0.550 OA
ENDBRANCH   6   7
ENDBRANCH   5   6
ENDBRANCH   4   5
ENDBRANCH   3   4
ENDBRANCH   2   3
ENDBRANCH   1   2
BRANCH   1  10
ATOM     10  C   UNL     1       0.688   9.454   4.905  1.00  0.00     0.000 C 
BRANCH  10  11
ATOM     11  C   UNL     1       0.491   9.577   3.385  1.00  0.00    -0.000 C 
BRANCH  11  12
ATOM     12  C   UNL     1      -0.828   8.955   2.904  1.00  0.00    -0.000 C 
BRANCH  12  13
ATOM     13  C   UNL     1      -1.084   7.609   3.598  1.00  0.00    -0.000 C 
BRANCH  13  14
ATOM     14  C   UNL     1      -0.494   6.416   2.826  1.00  0.00    -0.000 C 
BRANCH  14  15
ATOM     15  C   UNL     1       0.693   5.714   3.515  1.00  0.00    -0.000 C 
BRANCH  15  16
ATOM     16  C   UNL     1       0.322   4.865   4.742  1.00  0.00    -0.003 C 
ATOM     17  C   UNL     1      -1.002   4.121   4.575  1.00  0.00     0.004 C 
ENDBRANCH  15  16
ENDBRANCH  14  15
ENDBRANCH  13  14
ENDBRANCH  12  13
ENDBRANCH  11  12
ENDBRANCH  10  11
ENDBRANCH   1  10
TORSDOF 13
ENDMDL
MODEL 2
REMARK VINA RESULT:    -2.455      2.231      5.196
REMARK INTER + INTRA:          -6.050
REMARK INTER:                  -4.993
REMARK INTRA:                  -1.057
REMARK UNBOUND:                -1.730
REMARK SMILES CCCCCCCCCCCCCCC(=O)[O-]
REMARK SMILES IDX 9 1 10 2 11 3 12 4 13 5 14 6 15 7 16 8 17 9 8 10 7 11 6 12
REMARK SMILES IDX 5 13 4 14 3 15 2 16 1 17
REMARK H PARENT
REMARK Flexibility Score: inf
ROOT
ATOM      1  C   UNL     1       2.169   9.009   5.327  1.00  0.00     0.000 C 
ENDROOT
BRANCH   1   2
ATOM      2  C   UNL     1       0.769   8.663   4.795  1.00  0.00     0.000 C 
BRANCH   2   3
ATOM      3  C   UNL     1       0.666   8.809   3.268  1.00  0.00     0.000 C 
BRANCH   3   4
ATOM      4  C   UNL     1       0.550   7.455   2.546  1.00  0.00     0.000 C 
BRANCH   4   5
ATOM      5  C   UNL     1      -0.789   6.730   2.799  1.00  0.00     0.006 C 
BRANCH   5   6
ATOM      6  C   UNL     1      -0.630   5.205   2.800  1.00  0.00     0.053 C 
BRANCH   6   7
ATOM      7  C   UNL     1      -0.266   4.716   4.167  1.00  0.00     0.041 C 
ATOM      8  O   UNL     1      -1.122   4.132   4.880  1.00  0.00    -0.550 OA
ATOM      9  O   UNL     1       1.035   4.864   4.633  1.00  0.00    -0.550 OA
ENDBRANCH   6   7
ENDBRANCH   5   6
ENDBRANCH   4   5
ENDBRANCH   3   4
ENDBRANCH   2   3
ENDBRANCH   1   2
BRANCH   1  10
ATOM     10  C   UNL     1       2.930   9.971   4.396  1.00  0.00     0.000 C 
BRANCH  10  11
ATOM     11  C   UNL     1       4.381   9.527   4.147  1.00  0.00    -0.000 C 
BRANCH  11  12
ATOM     12  C   UNL     1       4.547   8.747   2.834  1.00  0.00    -0.000 C 
BRANCH  12  13
ATOM     13  C   UNL     1       6.033   8.515   2.520  1.00  0.00    -0.000 C 
BRANCH  13  14
ATOM     14  C   UNL     1       6.430   7.029   2.572  1.00  0.00    -0.000 C 
BRANCH  14  15
ATOM     15  C   UNL     1       5.841   6.235   3.754  1.00  0.00    -0.000 C 
BRANCH  15  16
ATOM     16  C   UNL     1       4.966   5.033   3.358  1.00  0.00    -0.003 C 
ATOM     17  C   UNL     1       5.675   4.067   2.410  1.00  0.00     0.004 C 
ENDBRANCH  15  16
ENDBRANCH  14  15
ENDBRANCH  13  14
ENDBRANCH  12  13
ENDBRANCH  11  12
ENDBRANCH  10  11
ENDBRANCH   1  10
TORSDOF 13
ENDMDL
MODEL 3
REMARK VINA RESULT:    -2.016      2.544      4.446
REMARK INTER + INTRA:          -5.278
REMARK INTER:                  -3.457
REMARK INTRA:                  -1.821
REMARK UNBOUND:                -1.730
REMARK SMILES CCCCCCCCCCCCCCC(=O)[O-]
REMARK SMILES IDX 9 1 10 2 11 3 12 4 13 5 14 6 15 7 16 8 17 9 8 10 7 11 6 12
REMARK SMILES IDX 5 13 4 14 3 15 2 16 1 17
REMARK H PARENT
REMARK Flexibility Score: inf
ROOT
ATOM      1  C   UNL     1       5.980   6.410   3.726  1.00  0.00     0.000 C 
ENDROOT
BRANCH   1   2
ATOM      2  C   UNL     1       6.655   6.993   2.474  1.00  0.00     0.000 C 
BRANCH   2   3
ATOM      3  C   UNL     1       6.662   8.531   2.469  1.00  0.00     0.000 C 
BRANCH   3   4
ATOM      4  C   UNL     1       5.254   9.133   2.329  1.00  0.00     0.000 C 
BRANCH   4   5
ATOM      5  C   UNL     1       4.797   9.936   3.566  1.00  0.00     0.006 C 
BRANCH   5   6
ATOM      6  C   UNL     1       3.901   9.107   4.495  1.00  0.00     0.053 C 
BRANCH   6   7
ATOM      7  C   UNL     1       2.488   9.594   4.433  1.00  0.00     0.041 C 
ATOM      8  O   UNL     1       2.047  10.125   3.381  1.00  0.00    -0.550 OA
ATOM      9  O   UNL     1       1.644   9.417   5.523  1.00  0.00    -0.550 OA
ENDBRANCH   6   7
ENDBRANCH   5   6
ENDBRANCH   4   5
ENDBRANCH   3   4
ENDBRANCH   2   3
ENDBRANCH   1   2
BRANCH   1  10
ATOM     10  C   UNL     1       4.829   5.450   3.378  1.00  0.00     0.000 C 
BRANCH  10  11
ATOM     11  C   UNL     1       4.093   5.853   2.089  1.00  0.00    -0.000 C 
BRANCH  11  12
ATOM     12  C   UNL     1       2.679   6.389   2.354  1.00  0.00    -0.000 C 
BRANCH  12  13
ATOM     13  C   UNL     1       2.164   5.923   3.724  1.00  0.00    -0.000 C 
BRANCH  13  14
ATOM     14  C   UNL     1       0.670   6.225   3.937  1.00  0.00    -0.000 C 
BRANCH  14  15
ATOM     15  C   UNL     1       0.022   7.113   2.856  1.00  0.00    -0.000 C 
BRANCH  15  16
ATOM     16  C   UNL     1      -0.926   8.200   3.390  1.00  0.00    -0.003 C 
ATOM     17  C   UNL     1      -1.125   9.353   2.407  1.00  0.00     0.004 C 
ENDBRANCH  15  16
ENDBRANCH  14  15
ENDBRANCH  13  14
ENDBRANCH  12  13
ENDBRANCH  11  12
ENDBRANCH  10  11
ENDBRANCH   1  10
TORSDOF 13
ENDMDL
MODEL 4
REMARK VINA RESULT:    -1.860      2.757      4.448
REMARK INTER + INTRA:          -5.003
REMARK INTER:                  -3.690
REMARK INTRA:                  -1.312
REMARK UNBOUND:                -1.730
REMARK SMILES CCCCCCCCCCCCCCC(=O)[O-]
REMARK SMILES IDX 9 1 10 2 11 3 12 4 13 5 14 6 15 7 16 8 17 9 8 10 7 11 6 12
REMARK SMILES IDX 5 13 4 14 3 15 2 16 1 17
REMARK H PARENT
REMARK Flexibility Score: inf
ROOT
ATOM      1  C   UNL     1       6.109   7.124   3.558  1.00  0.00     0.000 C 
ENDROOT
BRANCH   1   2
ATOM      2  C   UNL     1       6.260   8.128   2.405  1.00  0.00     0.000 C 
BRANCH   2   3
ATOM      3  C   UNL     1       5.614   9.488   2.719  1.00  0.00     0.000 C 
BRANCH   3   4
ATOM      4  C   UNL     1       4.108   9.380   3.012  1.00  0.00     0.000 C 
BRANCH   4   5
ATOM      5  C   UNL     1       3.737   9.702   4.475  1.00  0.00     0.006 C 
BRANCH   5   6
ATOM      6  C   UNL     1       2.472   8.962   4.928  1.00  0.00     0.053 C 
BRANCH   6   7
ATOM      7  C   UNL     1       1.247   9.684   4.462  1.00  0.00     0.041 C 
ATOM      8  O   UNL     1       0.313   9.933   5.268  1.00  0.00    -0.550 OA
ATOM      9  O   UNL     1       1.159  10.125   3.147  1.00  0.00    -0.550 OA
ENDBRANCH   6   7
ENDBRANCH   5   6
ENDBRANCH   4   5
ENDBRANCH   3   4
ENDBRANCH   2   3
ENDBRANCH   1   2
BRANCH   1  10
ATOM     10  C   UNL     1       5.735   5.715   3.065  1.00  0.00     0.000 C 
BRANCH  10  11
ATOM     11  C   UNL     1       4.496   5.719   2.152  1.00  0.00    -0.000 C 
BRANCH  11  12
ATOM     12  C   UNL     1       3.179   5.805   2.938  1.00  0.00    -0.000 C 
BRANCH  12  13
ATOM     13  C   UNL     1       2.146   6.656   2.183  1.00  0.00    -0.000 C 
BRANCH  13  14
ATOM     14  C   UNL     1       0.723   6.076   2.259  1.00  0.00    -0.000 C 
BRANCH  14  15
ATOM     15  C   UNL     1      -0.109   6.541   3.471  1.00  0.00    -0.000 C 
BRANCH  15  16
ATOM     16  C   UNL     1      -1.121   5.510   3.999  1.00  0.00    -0.003 C 
ATOM     17  C   UNL     1      -0.467   4.198   4.427  1.00  0.00     0.004 C 
ENDBRANCH  15  16
ENDBRANCH  14  15
ENDBRANCH  13  14
ENDBRANCH  12  13
ENDBRANCH  11  12
ENDBRANCH  10  11
ENDBRANCH   1  10
TORSDOF 13
ENDMDL
MODEL 5
REMARK VINA RESULT:    -1.354      3.705      7.087
REMARK INTER + INTRA:          -4.112
REMARK INTER:                  -3.326
REMARK INTRA:                  -0.786
REMARK UNBOUND:                -1.730
REMARK SMILES CCCCCCCCCCCCCCC(=O)[O-]
REMARK SMILES IDX 9 1 10 2 11 3 12 4 13 5 14 6 15 7 16 8 17 9 8 10 7 11 6 12
REMARK SMILES IDX 5 13 4 14 3 15 2 16 1 17
REMARK H PARENT
REMARK Flexibility Score: inf
ROOT
ATOM      1  C   UNL     1       4.684   8.433   4.339  1.00  0.00     0.000 C 
ENDROOT
BRANCH   1   2
ATOM      2  C   UNL     1       3.390   8.423   5.170  1.00  0.00     0.000 C 
BRANCH   2   3
ATOM      3  C   UNL     1       2.355   9.440   4.661  1.00  0.00     0.000 C 
BRANCH   3   4
ATOM      4  C   UNL     1       2.460   9.692   3.146  1.00  0.00     0.000 C 
BRANCH   4   5
ATOM      5  C   UNL     1       1.325   9.040   2.330  1.00  0.00     0.006 C 
BRANCH   5   6
ATOM      6  C   UNL     1       0.377   8.217   3.210  1.00  0.00     0.053 C 
BRANCH   6   7
ATOM      7  C   UNL     1       0.500   6.760   2.895  1.00  0.00     0.041 C 
ATOM      8  O   UNL     1      -0.195   6.249   1.978  1.00  0.00    -0.550 OA
ATOM      9  O   UNL     1       1.418   5.975   3.581  1.00  0.00    -0.550 OA
ENDBRANCH   6   7
ENDBRANCH   5   6
ENDBRANCH   4   5
ENDBRANCH   3   4
ENDBRANCH   2   3
ENDBRANCH   1   2
BRANCH   1  10
ATOM     10  C   UNL     1       4.710   7.317   3.280  1.00  0.00     0.000 C 
BRANCH  10  11
ATOM     11  C   UNL     1       5.212   7.813   1.913  1.00  0.00    -0.000 C 
BRANCH  11  12
ATOM     12  C   UNL     1       6.657   8.330   1.962  1.00  0.00    -0.000 C 
BRANCH  12  13
ATOM     13  C   UNL     1       7.607   7.249   2.498  1.00  0.00    -0.000 C 
BRANCH  13  14
ATOM     14  C   UNL     1       9.013   7.325   1.876  1.00  0.00    -0.000 C 
BRANCH  14  15
ATOM     15  C   UNL     1       9.833   8.572   2.265  1.00  0.00    -0.000 C 
BRANCH  15  16
ATOM     16  C   UNL     1      11.297   8.293   2.645  1.00  0.00    -0.003 C 
ATOM     17  C   UNL     1      12.266   9.337   2.092  1.00  0.00     0.004 C 
ENDBRANCH  15  16
ENDBRANCH  14  15
ENDBRANCH  13  14
ENDBRANCH  12  13
ENDBRANCH  11  12
ENDBRANCH  10  11
ENDBRANCH   1  10
TORSDOF 13
ENDMDL
MODEL 6
REMARK VINA RESULT:    -0.757     19.159     22.450
REMARK INTER + INTRA:          -3.061
REMARK INTER:                  -2.191
REMARK INTRA:                  -0.870
REMARK UNBOUND:                -1.730
REMARK SMILES CCCCCCCCCCCCCCC(=O)[O-]
REMARK SMILES IDX 9 1 10 2 11 3 12 4 13 5 14 6 15 7 16 8 17 9 8 10 7 11 6 12
REMARK SMILES IDX 5 13 4 14 3 15 2 16 1 17
REMARK H PARENT
REMARK Flexibility Score: inf
ROOT
ATOM      1  C   UNL     1      14.801  -9.961  10.806  1.00  0.00     0.000 C 
ENDROOT
BRANCH   1   2
ATOM      2  C   UNL     1      14.128  -9.942   9.425  1.00  0.00     0.000 C 
BRANCH   2   3
ATOM      3  C   UNL     1      12.593  -9.970   9.516  1.00  0.00     0.000 C 
BRANCH   3   4
ATOM      4  C   UNL     1      11.940  -8.683   8.982  1.00  0.00     0.000 C 
BRANCH   4   5
ATOM      5  C   UNL     1      10.644  -8.292   9.723  1.00  0.00     0.006 C 
BRANCH   5   6
ATOM      6  C   UNL     1      10.666  -6.835  10.200  1.00  0.00     0.053 C 
BRANCH   6   7
ATOM      7  C   UNL     1       9.545  -6.579  11.157  1.00  0.00     0.041 C 
ATOM      8  O   UNL     1       8.444  -7.173  11.017  1.00  0.00    -0.550 OA
ATOM      9  O   UNL     1       9.733  -5.719  12.232  1.00  0.00    -0.550 OA
ENDBRANCH   6   7
ENDBRANCH   5   6
ENDBRANCH   4   5
ENDBRANCH   3   4
ENDBRANCH   2   3
ENDBRANCH   1   2
BRANCH   1  10
ATOM     10  C   UNL     1      15.908  -8.899  10.935  1.00  0.00     0.000 C 
BRANCH  10  11
ATOM     11  C   UNL     1      17.319  -9.500  10.811  1.00  0.00    -0.000 C 
BRANCH  11  12
ATOM     12  C   UNL     1      18.234  -9.113  11.982  1.00  0.00    -0.000 C 
BRANCH  12  13
ATOM     13  C   UNL     1      18.027 -10.059  13.175  1.00  0.00    -0.000 C 
BRANCH  13  14
ATOM     14  C   UNL     1      18.216  -9.360  14.533  1.00  0.00    -0.000 C 
BRANCH  14  15
ATOM     15  C   UNL     1      17.112  -9.640  15.572  1.00  0.00    -0.000 C 
BRANCH  15  16
ATOM     16  C   UNL     1      15.734  -9.046  15.231  1.00  0.00    -0.003 C 
ATOM     17  C   UNL     1      14.779 -10.069  14.618  1.00  0.00     0.004 C 
ENDBRANCH  15  16
ENDBRANCH  14  15
ENDBRANCH  13  14
ENDBRANCH  12  13
ENDBRANCH  11  12
ENDBRANCH  10  11
ENDBRANCH   1  10
TORSDOF 13
ENDMDL
MODEL 7
REMARK VINA RESULT:    -0.604     19.755     22.590
REMARK INTER + INTRA:          -2.793
REMARK INTER:                  -2.108
REMARK INTRA:                  -0.686
REMARK UNBOUND:                -1.730
REMARK SMILES CCCCCCCCCCCCCCC(=O)[O-]
REMARK SMILES IDX 9 1 10 2 11 3 12 4 13 5 14 6 15 7 16 8 17 9 8 10 7 11 6 12
REMARK SMILES IDX 5 13 4 14 3 15 2 16 1 17
REMARK H PARENT
REMARK Flexibility Score: inf
ROOT
ATOM      1  C   UNL     1      17.429 -10.068  10.315  1.00  0.00     0.000 C 
ENDROOT
BRANCH   1   2
ATOM      2  C   UNL     1      17.252  -9.052  11.455  1.00  0.00     0.000 C 
BRANCH   2   3
ATOM      3  C   UNL     1      18.594  -8.574  12.033  1.00  0.00     0.000 C 
BRANCH   3   4
ATOM      4  C   UNL     1      18.930  -9.230  13.384  1.00  0.00     0.000 C 
BRANCH   4   5
ATOM      5  C   UNL     1      17.773 -10.066  13.970  1.00  0.00     0.006 C 
BRANCH   5   6
ATOM      6  C   UNL     1      17.257  -9.492  15.296  1.00  0.00     0.053 C 
BRANCH   6   7
ATOM      7  C   UNL     1      15.762  -9.515  15.330  1.00  0.00     0.041 C 
ATOM      8  O   UNL     1      15.148  -9.252  16.397  1.00  0.00    -0.550 OA
ATOM      9  O   UNL     1      15.044  -9.779  14.170  1.00  0.00    -0.550 OA
ENDBRANCH   6   7
ENDBRANCH   5   6
ENDBRANCH   4   5
ENDBRANCH   3   4
ENDBRANCH   2   3
ENDBRANCH   1   2
BRANCH   1  10
ATOM     10  C   UNL     1      16.205 -10.125   9.384  1.00  0.00     0.000 C 
BRANCH  10  11
ATOM     11  C   UNL     1      14.909  -9.685  10.086  1.00  0.00    -0.000 C 
BRANCH  11  12
ATOM     12  C   UNL     1      13.692  -9.696   9.149  1.00  0.00    -0.000 C 
BRANCH  12  13
ATOM     13  C   UNL     1      12.739  -8.537   9.476  1.00  0.00    -0.000 C 
BRANCH  13  14
ATOM     14  C   UNL     1      11.273  -8.987   9.610  1.00  0.00    -0.000 C 
BRANCH  14  15
ATOM     15  C   UNL     1      10.240  -7.843   9.663  1.00  0.00    -0.000 C 
BRANCH  15  16
ATOM     16  C   UNL     1       9.438  -7.752  10.972  1.00  0.00    -0.003 C 
ATOM     17  C   UNL     1       9.133  -6.313  11.385  1.00  0.00     0.004 C 
ENDBRANCH  15  16
ENDBRANCH  14  15
ENDBRANCH  13  14
ENDBRANCH  12  13
ENDBRANCH  11  12
ENDBRANCH  10  11
ENDBRANCH   1  10
TORSDOF 13
ENDMDL
MODEL 8
REMARK VINA RESULT:    -0.123      3.017      6.536
REMARK INTER + INTRA:          -1.946
REMARK INTER:                  -1.420
REMARK INTRA:                  -0.526
REMARK UNBOUND:                -1.730
REMARK SMILES CCCCCCCCCCCCCCC(=O)[O-]
REMARK SMILES IDX 9 1 10 2 11 3 12 4 13 5 14 6 15 7 16 8 17 9 8 10 7 11 6 12
REMARK SMILES IDX 5 13 4 14 3 15 2 16 1 17
REMARK H PARENT
REMARK Flexibility Score: inf
ROOT
ATOM      1  C   UNL     1       3.925   8.781   4.600  1.00  0.00     0.000 C 
ENDROOT
BRANCH   1   2
ATOM      2  C   UNL     1       2.963   7.992   5.504  1.00  0.00     0.000 C 
BRANCH   2   3
ATOM      3  C   UNL     1       1.564   8.627   5.572  1.00  0.00     0.000 C 
BRANCH   3   4
ATOM      4  C   UNL     1       0.965   8.901   4.182  1.00  0.00     0.000 C 
BRANCH   4   5
ATOM      5  C   UNL     1      -0.186   7.944   3.804  1.00  0.00     0.006 C 
BRANCH   5   6
ATOM      6  C   UNL     1       0.124   6.489   4.178  1.00  0.00     0.053 C 
BRANCH   6   7
ATOM      7  C   UNL     1       0.237   5.645   2.948  1.00  0.00     0.041 C 
ATOM      8  O   UNL     1       1.163   4.799   2.843  1.00  0.00    -0.550 OA
ATOM      9  O   UNL     1      -0.711   5.758   1.938  1.00  0.00    -0.550 OA
ENDBRANCH   6   7
ENDBRANCH   5   6
ENDBRANCH   4   5
ENDBRANCH   3   4
ENDBRANCH   2   3
ENDBRANCH   1   2
BRANCH   1  10
ATOM     10  C   UNL     1       4.329   7.990   3.343  1.00  0.00     0.000 C 
BRANCH  10  11
ATOM     11  C   UNL     1       4.961   6.630   3.679  1.00  0.00    -0.000 C 
BRANCH  11  12
ATOM     12  C   UNL     1       5.138   5.733   2.444  1.00  0.00    -0.000 C 
BRANCH  12  13
ATOM     13  C   UNL     1       6.591   5.763   1.949  1.00  0.00    -0.000 C 
BRANCH  13  14
ATOM     14  C   UNL     1       7.357   7.014   2.415  1.00  0.00    -0.000 C 
BRANCH  14  15
ATOM     15  C   UNL     1       8.807   7.122   1.903  1.00  0.00    -0.000 C 
BRANCH  15  16
ATOM     16  C   UNL     1       9.494   8.471   2.175  1.00  0.00    -0.003 C 
ATOM     17  C   UNL     1      10.996   8.337   2.417  1.00  0.00     0.004 C 
ENDBRANCH  15  16
ENDBRANCH  14  15
ENDBRANCH  13  14
ENDBRANCH  12  13
ENDBRANCH  11  12
ENDBRANCH  10  11
ENDBRANCH   1  10
TORSDOF 13
ENDMDL
