MODEL 1
REMARK VINA RESULT:    -5.265      0.000      0.000
REMARK INTER + INTRA:          -6.148
REMARK INTER:                  -5.881
REMARK INTRA:                  -0.267
REMARK UNBOUND:                -0.267
REMARK SMILES CC(=O)c1ccc(O)cc1O
REMARK SMILES IDX 4 1 10 2 9 3 7 4 6 5 5 6 2 7 1 8 3 9 11 10 8 12
REMARK H PARENT 11 11 8 13
REMARK Flexibility Score: inf
ROOT
ATOM      1  C   UNL     1       1.030   1.411 -18.850  1.00  0.00     0.059 A 
ATOM      2  C   UNL     1       0.176   2.520 -19.076  1.00  0.00     0.130 A 
ATOM      3  C   UNL     1       0.546   3.788 -18.609  1.00  0.00     0.093 A 
ATOM      4  C   UNL     1       1.732   3.967 -17.894  1.00  0.00     0.119 A 
ATOM      5  C   UNL     1       2.563   2.870 -17.643  1.00  0.00     0.047 A 
ATOM      6  C   UNL     1       2.215   1.604 -18.117  1.00  0.00     0.019 A 
ENDROOT
BRANCH   1   7
ATOM      7  C   UNL     1       0.730   0.065 -19.394  1.00  0.00     0.163 C 
ATOM      8  C   UNL     1       1.822  -0.925 -19.656  1.00  0.00     0.093 C 
ATOM      9  O   UNL     1      -0.451  -0.233 -19.720  1.00  0.00    -0.294 OA
ENDBRANCH   1   7
BRANCH   2  10
ATOM     10  O   UNL     1      -1.054   2.398 -19.727  1.00  0.00    -0.507 OA
ATOM     11  H   UNL     1      -1.656   1.591 -19.633  1.00  0.00     0.293 HD
ENDBRANCH   2  10
BRANCH   4  12
ATOM     12  O   UNL     1       2.073   5.237 -17.434  1.00  0.00    -0.508 OA
ATOM     13  H   UNL     1       2.267   5.997 -18.075  1.00  0.00     0.293 HD
ENDBRANCH   4  12
TORSDOF 3
ENDMDL
MODEL 2
REMARK VINA RESULT:    -4.866      0.980      0.980
REMARK INTER + INTRA:          -5.702
REMARK INTER:                  -5.446
REMARK INTRA:                  -0.257
REMARK UNBOUND:                -0.267
REMARK SMILES CC(=O)c1ccc(O)cc1O
REMARK SMILES IDX 4 1 10 2 9 3 7 4 6 5 5 6 2 7 1 8 3 9 11 10 8 12
REMARK H PARENT 11 11 8 13
REMARK Flexibility Score: inf
ROOT
ATOM      1  C   UNL     1       1.066   1.272 -19.453  1.00  0.00     0.059 A 
ATOM      2  C   UNL     1       0.825   2.504 -20.112  1.00  0.00     0.130 A 
ATOM      3  C   UNL     1       1.163   3.707 -19.480  1.00  0.00     0.093 A 
ATOM      4  C   UNL     1       1.705   3.710 -18.193  1.00  0.00     0.119 A 
ATOM      5  C   UNL     1       1.917   2.498 -17.527  1.00  0.00     0.047 A 
ATOM      6  C   UNL     1       1.601   1.290 -18.151  1.00  0.00     0.019 A 
ENDROOT
BRANCH   1   7
ATOM      7  C   UNL     1       0.807  -0.033 -20.107  1.00  0.00     0.163 C 
ATOM      8  C   UNL     1       1.933  -0.889 -20.600  1.00  0.00     0.093 C 
ATOM      9  O   UNL     1      -0.378  -0.401 -20.329  1.00  0.00    -0.294 OA
ENDBRANCH   1   7
BRANCH   2  10
ATOM     10  O   UNL     1       0.227   2.574 -21.373  1.00  0.00    -0.507 OA
ATOM     11  H   UNL     1      -0.744   2.817 -21.515  1.00  0.00     0.293 HD
ENDBRANCH   2  10
BRANCH   4  12
ATOM     12  O   UNL     1       2.025   4.921 -17.583  1.00  0.00    -0.508 OA
ATOM     13  H   UNL     1       2.946   5.332 -17.675  1.00  0.00     0.293 HD
ENDBRANCH   4  12
TORSDOF 3
ENDMDL
MODEL 3
REMARK VINA RESULT:    -4.737      1.886      3.037
REMARK INTER + INTRA:          -5.558
REMARK INTER:                  -5.248
REMARK INTRA:                  -0.310
REMARK UNBOUND:                -0.267
REMARK SMILES CC(=O)c1ccc(O)cc1O
REMARK SMILES IDX 4 1 10 2 9 3 7 4 6 5 5 6 2 7 1 8 3 9 11 10 8 12
REMARK H PARENT 11 11 8 13
REMARK Flexibility Score: inf
ROOT
ATOM      1  C   UNL     1      -0.401   1.564 -19.447  1.00  0.00     0.059 A 
ATOM      2  C   UNL     1       0.470   0.453 -19.310  1.00  0.00     0.130 A 
ATOM      3  C   UNL     1       1.638   0.575 -18.546  1.00  0.00     0.093 A 
ATOM      4  C   UNL     1       1.971   1.789 -17.943  1.00  0.00     0.119 A 
ATOM      5  C   UNL     1       1.131   2.896 -18.099  1.00  0.00     0.047 A 
ATOM      6  C   UNL     1      -0.044   2.785 -18.844  1.00  0.00     0.019 A 
ENDROOT
BRANCH   1   7
ATOM      7  C   UNL     1      -1.689   1.468 -20.172  1.00  0.00     0.163 C 
ATOM      8  C   UNL     1      -2.981   1.833 -19.508  1.00  0.00     0.093 C 
ATOM      9  O   UNL     1      -1.720   0.996 -21.341  1.00  0.00    -0.294 OA
ENDBRANCH   1   7
BRANCH   2  10
ATOM     10  O   UNL     1       0.227  -0.770 -19.940  1.00  0.00    -0.507 OA
ATOM     11  H   UNL     1      -0.687  -1.200 -19.987  1.00  0.00     0.293 HD
ENDBRANCH   2  10
BRANCH   4  12
ATOM     12  O   UNL     1       3.142   1.886 -17.194  1.00  0.00    -0.508 OA
ATOM     13  H   UNL     1       3.801   1.118 -17.140  1.00  0.00     0.293 HD
ENDBRANCH   4  12
TORSDOF 3
ENDMDL
MODEL 4
REMARK VINA RESULT:    -4.730      1.541      4.144
REMARK INTER + INTRA:          -5.550
REMARK INTER:                  -5.253
REMARK INTRA:                  -0.297
REMARK UNBOUND:                -0.267
REMARK SMILES CC(=O)c1ccc(O)cc1O
REMARK SMILES IDX 4 1 10 2 9 3 7 4 6 5 5 6 2 7 1 8 3 9 11 10 8 12
REMARK H PARENT 11 11 8 13
REMARK Flexibility Score: inf
ROOT
ATOM      1  C   UNL     1       1.735   2.892 -19.026  1.00  0.00     0.059 A 
ATOM      2  C   UNL     1       1.088   2.544 -20.238  1.00  0.00     0.130 A 
ATOM      3  C   UNL     1       0.542   1.263 -20.390  1.00  0.00     0.093 A 
ATOM      4  C   UNL     1       0.656   0.313 -19.373  1.00  0.00     0.119 A 
ATOM      5  C   UNL     1       1.320   0.643 -18.187  1.00  0.00     0.047 A 
ATOM      6  C   UNL     1       1.854   1.921 -18.015  1.00  0.00     0.019 A 
ENDROOT
BRANCH   1   7
ATOM      7  C   UNL     1       2.256   4.258 -18.778  1.00  0.00     0.163 C 
ATOM      8  C   UNL     1       2.106   4.913 -17.439  1.00  0.00     0.093 C 
ATOM      9  O   UNL     1       2.764   4.919 -19.724  1.00  0.00    -0.294 OA
ENDBRANCH   1   7
BRANCH   2  10
ATOM     10  O   UNL     1       0.996   3.425 -21.318  1.00  0.00    -0.507 OA
ATOM     11  H   UNL     1       1.033   4.431 -21.220  1.00  0.00     0.293 HD
ENDBRANCH   2  10
BRANCH   4  12
ATOM     12  O   UNL     1       0.110  -0.956 -19.553  1.00  0.00    -0.508 OA
ATOM     13  H   UNL     1       0.443  -1.577 -20.281  1.00  0.00     0.293 HD
ENDBRANCH   4  12
TORSDOF 3
ENDMDL
MODEL 5
REMARK VINA RESULT:    -4.628      1.835      4.436
REMARK INTER + INTRA:          -5.437
REMARK INTER:                  -5.175
REMARK INTRA:                  -0.262
REMARK UNBOUND:                -0.267
REMARK SMILES CC(=O)c1ccc(O)cc1O
REMARK SMILES IDX 4 1 10 2 9 3 7 4 6 5 5 6 2 7 1 8 3 9 11 10 8 12
REMARK H PARENT 11 11 8 13
REMARK Flexibility Score: inf
ROOT
ATOM      1  C   UNL     1       0.625   1.689 -18.681  1.00  0.00     0.059 A 
ATOM      2  C   UNL     1       0.858   0.416 -19.260  1.00  0.00     0.130 A 
ATOM      3  C   UNL     1      -0.147  -0.194 -20.022  1.00  0.00     0.093 A 
ATOM      4  C   UNL     1      -1.388   0.423 -20.192  1.00  0.00     0.119 A 
ATOM      5  C   UNL     1      -1.632   1.666 -19.598  1.00  0.00     0.047 A 
ATOM      6  C   UNL     1      -0.634   2.293 -18.850  1.00  0.00     0.019 A 
ENDROOT
BRANCH   1   7
ATOM      7  C   UNL     1       1.680   2.418 -17.937  1.00  0.00     0.163 C 
ATOM      8  C   UNL     1       1.645   3.910 -17.806  1.00  0.00     0.093 C 
ATOM      9  O   UNL     1       2.669   1.791 -17.471  1.00  0.00    -0.294 OA
ENDBRANCH   1   7
BRANCH   2  10
ATOM     10  O   UNL     1       2.053  -0.284 -19.075  1.00  0.00    -0.507 OA
ATOM     11  H   UNL     1       2.125  -1.289 -19.147  1.00  0.00     0.293 HD
ENDBRANCH   2  10
BRANCH   4  12
ATOM     12  O   UNL     1      -2.372  -0.209 -20.949  1.00  0.00    -0.508 OA
ATOM     13  H   UNL     1      -2.612  -1.182 -20.799  1.00  0.00     0.293 HD
ENDBRANCH   4  12
TORSDOF 3
ENDMDL
MODEL 6
REMARK VINA RESULT:    -4.614      5.659      7.079
REMARK INTER + INTRA:          -5.420
REMARK INTER:                  -5.122
REMARK INTRA:                  -0.299
REMARK UNBOUND:                -0.267
REMARK SMILES CC(=O)c1ccc(O)cc1O
REMARK SMILES IDX 4 1 10 2 9 3 7 4 6 5 5 6 2 7 1 8 3 9 11 10 8 12
REMARK H PARENT 11 11 8 13
REMARK Flexibility Score: inf
ROOT
ATOM      1  C   UNL     1       2.268   5.538 -23.511  1.00  0.00     0.059 A 
ATOM      2  C   UNL     1       1.061   5.687 -24.240  1.00  0.00     0.130 A 
ATOM      3  C   UNL     1       0.204   4.590 -24.396  1.00  0.00     0.093 A 
ATOM      4  C   UNL     1       0.541   3.341 -23.868  1.00  0.00     0.119 A 
ATOM      5  C   UNL     1       1.745   3.183 -23.174  1.00  0.00     0.047 A 
ATOM      6  C   UNL     1       2.601   4.271 -22.997  1.00  0.00     0.019 A 
ENDROOT
BRANCH   1   7
ATOM      7  C   UNL     1       3.171   6.684 -23.244  1.00  0.00     0.163 C 
ATOM      8  C   UNL     1       3.433   7.153 -21.846  1.00  0.00     0.093 C 
ATOM      9  O   UNL     1       3.667   7.331 -24.205  1.00  0.00    -0.294 OA
ENDBRANCH   1   7
BRANCH   2  10
ATOM     10  O   UNL     1       0.697   6.891 -24.847  1.00  0.00    -0.507 OA
ATOM     11  H   UNL     1      -0.204   7.046 -25.278  1.00  0.00     0.293 HD
ENDBRANCH   2  10
BRANCH   4  12
ATOM     12  O   UNL     1      -0.326   2.264 -24.043  1.00  0.00    -0.508 OA
ATOM     13  H   UNL     1      -0.035   1.314 -23.848  1.00  0.00     0.293 HD
ENDBRANCH   4  12
TORSDOF 3
ENDMDL
MODEL 7
REMARK VINA RESULT:    -4.603      2.806      4.513
REMARK INTER + INTRA:          -5.408
REMARK INTER:                  -5.112
REMARK INTRA:                  -0.296
REMARK UNBOUND:                -0.267
REMARK SMILES CC(=O)c1ccc(O)cc1O
REMARK SMILES IDX 4 1 10 2 9 3 7 4 6 5 5 6 2 7 1 8 3 9 11 10 8 12
REMARK H PARENT 11 11 8 13
REMARK Flexibility Score: inf
ROOT
ATOM      1  C   UNL     1      -1.033   0.591 -19.993  1.00  0.00     0.059 A 
ATOM      2  C   UNL     1      -1.524   1.843 -19.545  1.00  0.00     0.130 A 
ATOM      3  C   UNL     1      -2.898   2.015 -19.334  1.00  0.00     0.093 A 
ATOM      4  C   UNL     1      -3.795   0.977 -19.590  1.00  0.00     0.119 A 
ATOM      5  C   UNL     1      -3.319  -0.252 -20.061  1.00  0.00     0.047 A 
ATOM      6  C   UNL     1      -1.951  -0.443 -20.260  1.00  0.00     0.019 A 
ENDROOT
BRANCH   1   7
ATOM      7  C   UNL     1       0.416   0.326 -20.153  1.00  0.00     0.163 C 
ATOM      8  C   UNL     1       1.116  -0.692 -19.306  1.00  0.00     0.093 C 
ATOM      9  O   UNL     1       1.098   1.020 -20.955  1.00  0.00    -0.294 OA
ENDBRANCH   1   7
BRANCH   2  10
ATOM     10  O   UNL     1      -0.688   2.942 -19.332  1.00  0.00    -0.507 OA
ATOM     11  H   UNL     1      -0.900   3.684 -18.679  1.00  0.00     0.293 HD
ENDBRANCH   2  10
BRANCH   4  12
ATOM     12  O   UNL     1      -5.158   1.177 -19.379  1.00  0.00    -0.508 OA
ATOM     13  H   UNL     1      -5.848   0.886 -20.061  1.00  0.00     0.293 HD
ENDBRANCH   4  12
TORSDOF 3
ENDMDL
MODEL 8
REMARK VINA RESULT:    -4.572      2.046      2.708
REMARK INTER + INTRA:          -5.374
REMARK INTER:                  -5.170
REMARK INTRA:                  -0.204
REMARK UNBOUND:                -0.267
REMARK SMILES CC(=O)c1ccc(O)cc1O
REMARK SMILES IDX 4 1 10 2 9 3 7 4 6 5 5 6 2 7 1 8 3 9 11 10 8 12
REMARK H PARENT 11 11 8 13
REMARK Flexibility Score: inf
ROOT
ATOM      1  C   UNL     1      -0.658   0.508 -19.849  1.00  0.00     0.059 A 
ATOM      2  C   UNL     1      -0.677   1.819 -19.310  1.00  0.00     0.130 A 
ATOM      3  C   UNL     1       0.421   2.285 -18.576  1.00  0.00     0.093 A 
ATOM      4  C   UNL     1       1.524   1.462 -18.342  1.00  0.00     0.119 A 
ATOM      5  C   UNL     1       1.536   0.157 -18.847  1.00  0.00     0.047 A 
ATOM      6  C   UNL     1       0.455  -0.315 -19.594  1.00  0.00     0.019 A 
ENDROOT
BRANCH   1   7
ATOM      7  C   UNL     1      -1.754  -0.008 -20.703  1.00  0.00     0.163 C 
ATOM      8  C   UNL     1      -2.637  -1.125 -20.239  1.00  0.00     0.093 C 
ATOM      9  O   UNL     1      -1.904   0.440 -21.872  1.00  0.00    -0.294 OA
ENDBRANCH   1   7
BRANCH   2  10
ATOM     10  O   UNL     1      -1.776   2.671 -19.453  1.00  0.00    -0.507 OA
ATOM     11  H   UNL     1      -2.060   3.068 -20.338  1.00  0.00     0.293 HD
ENDBRANCH   2  10
BRANCH   4  12
ATOM     12  O   UNL     1       2.601   1.948 -17.603  1.00  0.00    -0.508 OA
ATOM     13  H   UNL     1       3.550   1.895 -17.954  1.00  0.00     0.293 HD
ENDBRANCH   4  12
TORSDOF 3
ENDMDL
MODEL 9
REMARK VINA RESULT:    -4.478      1.448      4.505
REMARK INTER + INTRA:          -5.269
REMARK INTER:                  -4.994
REMARK INTRA:                  -0.275
REMARK UNBOUND:                -0.267
REMARK SMILES CC(=O)c1ccc(O)cc1O
REMARK SMILES IDX 4 1 10 2 9 3 7 4 6 5 5 6 2 7 1 8 3 9 11 10 8 12
REMARK H PARENT 11 11 8 13
REMARK Flexibility Score: inf
ROOT
ATOM      1  C   UNL     1       1.596   3.152 -18.592  1.00  0.00     0.059 A 
ATOM      2  C   UNL     1       2.093   1.923 -18.087  1.00  0.00     0.130 A 
ATOM      3  C   UNL     1       1.513   0.717 -18.501  1.00  0.00     0.093 A 
ATOM      4  C   UNL     1       0.429   0.711 -19.381  1.00  0.00     0.119 A 
ATOM      5  C   UNL     1      -0.083   1.922 -19.859  1.00  0.00     0.047 A 
ATOM      6  C   UNL     1       0.495   3.131 -19.469  1.00  0.00     0.019 A 
ENDROOT
BRANCH   1   7
ATOM      7  C   UNL     1       2.224   4.451 -18.256  1.00  0.00     0.163 C 
ATOM      8  C   UNL     1       2.986   5.232 -19.281  1.00  0.00     0.093 C 
ATOM      9  O   UNL     1       2.192   4.877 -17.069  1.00  0.00    -0.294 OA
ENDBRANCH   1   7
BRANCH   2  10
ATOM     10  O   UNL     1       3.132   1.862 -17.155  1.00  0.00    -0.507 OA
ATOM     11  H   UNL     1       3.636   2.676 -16.830  1.00  0.00     0.293 HD
ENDBRANCH   2  10
BRANCH   4  12
ATOM     12  O   UNL     1      -0.134  -0.502 -19.771  1.00  0.00    -0.508 OA
ATOM     13  H   UNL     1      -1.097  -0.731 -19.558  1.00  0.00     0.293 HD
ENDBRANCH   4  12
TORSDOF 3
ENDMDL
