MODEL 1
REMARK VINA RESULT:    -6.341      0.000      0.000
REMARK INTER + INTRA:          -7.190
REMARK INTER:                  -6.897
REMARK INTRA:                  -0.293
REMARK UNBOUND:                -0.293
REMARK SMILES CC1=C[C@@H]2[C@@H](C(C)C)CC[C@@](C)(O)[C@@H]2CC1
REMARK SMILES IDX 1 1 2 2 3 3 4 4 5 5 9 6 10 7 11 8 14 9 15 10 16 11 12 12
REMARK SMILES IDX 6 13 7 14 8 15 13 16
REMARK H PARENT 13 17
REMARK Flexibility Score: inf
ROOT
ATOM      1  C   UNL     1       0.124  23.073  45.679  1.00  0.00     0.039 C 
ATOM      2  C   UNL     1      -0.688  21.948  46.258  1.00  0.00    -0.077 C 
ATOM      3  C   UNL     1      -1.994  21.850  45.958  1.00  0.00    -0.024 C 
ATOM      4  C   UNL     1      -2.829  20.703  46.468  1.00  0.00     0.021 C 
ATOM      5  C   UNL     1      -3.412  20.931  47.901  1.00  0.00    -0.001 C 
ATOM      6  C   UNL     1      -4.250  19.683  48.289  1.00  0.00     0.007 C 
ATOM      7  C   UNL     1      -3.437  18.384  48.208  1.00  0.00     0.035 C 
ATOM      8  C   UNL     1      -2.835  18.164  46.798  1.00  0.00     0.065 C 
ATOM      9  C   UNL     1      -1.986  19.404  46.378  1.00  0.00     0.028 C 
ATOM     10  C   UNL     1      -0.623  19.537  47.128  1.00  0.00     0.011 C 
ATOM     11  C   UNL     1      -0.060  20.974  47.226  1.00  0.00     0.031 C 
ATOM     12  C   UNL     1      -1.982  16.875  46.781  1.00  0.00     0.042 C 
ENDROOT
BRANCH   5  13
ATOM     13  C   UNL     1      -4.223  22.283  47.992  1.00  0.00    -0.014 C 
ATOM     14  C   UNL     1      -5.736  22.155  47.724  1.00  0.00     0.007 C 
ATOM     15  C   UNL     1      -4.043  22.946  49.372  1.00  0.00     0.007 C 
ENDBRANCH   5  13
BRANCH   8  16
ATOM     16  O   UNL     1      -3.875  18.018  45.856  1.00  0.00    -0.390 OA
ATOM     17  H   UNL     1      -4.694  18.442  46.225  1.00  0.00     0.211 HD
ENDBRANCH   8  16
TORSDOF 2
ENDMDL
MODEL 2
REMARK VINA RESULT:    -6.141      3.938      7.170
REMARK INTER + INTRA:          -6.973
REMARK INTER:                  -6.635
REMARK INTRA:                  -0.338
REMARK UNBOUND:                -0.293
REMARK SMILES CC1=C[C@@H]2[C@@H](C(C)C)CC[C@@](C)(O)[C@@H]2CC1
REMARK SMILES IDX 1 1 2 2 3 3 4 4 5 5 9 6 10 7 11 8 14 9 15 10 16 11 12 12
REMARK SMILES IDX 6 13 7 14 8 15 13 16
REMARK H PARENT 13 17
REMARK Flexibility Score: inf
ROOT
ATOM      1  C   UNL     1      -2.387  25.128  53.348  1.00  0.00     0.039 C 
ATOM      2  C   UNL     1      -3.228  25.281  52.111  1.00  0.00    -0.077 C 
ATOM      3  C   UNL     1      -4.123  24.330  51.795  1.00  0.00    -0.024 C 
ATOM      4  C   UNL     1      -5.028  24.476  50.598  1.00  0.00     0.021 C 
ATOM      5  C   UNL     1      -4.387  23.994  49.256  1.00  0.00    -0.001 C 
ATOM      6  C   UNL     1      -5.428  24.193  48.121  1.00  0.00     0.007 C 
ATOM      7  C   UNL     1      -5.918  25.643  48.025  1.00  0.00     0.035 C 
ATOM      8  C   UNL     1      -6.531  26.137  49.359  1.00  0.00     0.065 C 
ATOM      9  C   UNL     1      -5.508  25.949  50.522  1.00  0.00     0.028 C 
ATOM     10  C   UNL     1      -4.314  26.954  50.500  1.00  0.00     0.011 C 
ATOM     11  C   UNL     1      -3.021  26.461  51.190  1.00  0.00     0.031 C 
ATOM     12  C   UNL     1      -6.961  27.616  49.230  1.00  0.00     0.042 C 
ENDROOT
BRANCH   5  13
ATOM     13  C   UNL     1      -3.854  22.510  49.364  1.00  0.00    -0.014 C 
ATOM     14  C   UNL     1      -4.522  21.507  48.403  1.00  0.00     0.007 C 
ATOM     15  C   UNL     1      -2.332  22.449  49.128  1.00  0.00     0.007 C 
ENDBRANCH   5  13
BRANCH   8  16
ATOM     16  O   UNL     1      -7.676  25.370  49.667  1.00  0.00    -0.390 OA
ATOM     17  H   UNL     1      -7.529  24.443  49.343  1.00  0.00     0.211 HD
ENDBRANCH   8  16
TORSDOF 2
ENDMDL
MODEL 3
REMARK VINA RESULT:    -5.957      3.879      6.580
REMARK INTER + INTRA:          -6.773
REMARK INTER:                  -6.468
REMARK INTRA:                  -0.304
REMARK UNBOUND:                -0.293
REMARK SMILES CC1=C[C@@H]2[C@@H](C(C)C)CC[C@@](C)(O)[C@@H]2CC1
REMARK SMILES IDX 1 1 2 2 3 3 4 4 5 5 9 6 10 7 11 8 14 9 15 10 16 11 12 12
REMARK SMILES IDX 6 13 7 14 8 15 13 16
REMARK H PARENT 13 17
REMARK Flexibility Score: inf
ROOT
ATOM      1  C   UNL     1      -4.534  20.706  47.957  1.00  0.00     0.039 C 
ATOM      2  C   UNL     1      -4.466  22.122  48.459  1.00  0.00    -0.077 C 
ATOM      3  C   UNL     1      -5.440  22.988  48.134  1.00  0.00    -0.024 C 
ATOM      4  C   UNL     1      -5.441  24.399  48.667  1.00  0.00     0.021 C 
ATOM      5  C   UNL     1      -4.587  25.398  47.820  1.00  0.00    -0.001 C 
ATOM      6  C   UNL     1      -4.687  26.802  48.476  1.00  0.00     0.007 C 
ATOM      7  C   UNL     1      -4.253  26.791  49.947  1.00  0.00     0.035 C 
ATOM      8  C   UNL     1      -5.077  25.785  50.788  1.00  0.00     0.065 C 
ATOM      9  C   UNL     1      -4.997  24.362  50.153  1.00  0.00     0.028 C 
ATOM     10  C   UNL     1      -3.620  23.651  50.335  1.00  0.00     0.011 C 
ATOM     11  C   UNL     1      -3.277  22.589  49.264  1.00  0.00     0.031 C 
ATOM     12  C   UNL     1      -4.568  25.772  52.248  1.00  0.00     0.042 C 
ENDROOT
BRANCH   5  13
ATOM     13  C   UNL     1      -5.014  25.386  46.299  1.00  0.00    -0.014 C 
ATOM     14  C   UNL     1      -5.928  26.551  45.870  1.00  0.00     0.007 C 
ATOM     15  C   UNL     1      -3.779  25.390  45.376  1.00  0.00     0.007 C 
ENDBRANCH   5  13
BRANCH   8  16
ATOM     16  O   UNL     1      -6.434  26.175  50.797  1.00  0.00    -0.390 OA
ATOM     17  H   UNL     1      -6.656  26.516  51.703  1.00  0.00     0.211 HD
ENDBRANCH   8  16
TORSDOF 2
ENDMDL
MODEL 4
REMARK VINA RESULT:    -5.806      1.930      4.295
REMARK INTER + INTRA:          -6.608
REMARK INTER:                  -6.270
REMARK INTRA:                  -0.338
REMARK UNBOUND:                -0.293
REMARK SMILES CC1=C[C@@H]2[C@@H](C(C)C)CC[C@@](C)(O)[C@@H]2CC1
REMARK SMILES IDX 1 1 2 2 3 3 4 4 5 5 9 6 10 7 11 8 14 9 15 10 16 11 12 12
REMARK SMILES IDX 6 13 7 14 8 15 13 16
REMARK H PARENT 13 17
REMARK Flexibility Score: inf
ROOT
ATOM      1  C   UNL     1      -5.760  24.895  49.479  1.00  0.00     0.039 C 
ATOM      2  C   UNL     1      -5.003  23.699  48.970  1.00  0.00    -0.077 C 
ATOM      3  C   UNL     1      -3.933  23.254  49.649  1.00  0.00    -0.024 C 
ATOM      4  C   UNL     1      -3.185  22.022  49.207  1.00  0.00     0.021 C 
ATOM      5  C   UNL     1      -2.093  22.299  48.121  1.00  0.00    -0.001 C 
ATOM      6  C   UNL     1      -1.403  20.952  47.771  1.00  0.00     0.007 C 
ATOM      7  C   UNL     1      -2.404  19.885  47.309  1.00  0.00     0.035 C 
ATOM      8  C   UNL     1      -3.504  19.624  48.368  1.00  0.00     0.065 C 
ATOM      9  C   UNL     1      -4.217  20.961  48.742  1.00  0.00     0.028 C 
ATOM     10  C   UNL     1      -5.170  21.515  47.637  1.00  0.00     0.011 C 
ATOM     11  C   UNL     1      -5.400  23.044  47.668  1.00  0.00     0.031 C 
ATOM     12  C   UNL     1      -4.516  18.584  47.836  1.00  0.00     0.042 C 
ENDROOT
BRANCH   5  13
ATOM     13  C   UNL     1      -1.081  23.419  48.585  1.00  0.00    -0.014 C 
ATOM     14  C   UNL     1       0.380  22.951  48.745  1.00  0.00     0.007 C 
ATOM     15  C   UNL     1      -1.090  24.613  47.611  1.00  0.00     0.007 C 
ENDBRANCH   5  13
BRANCH   8  16
ATOM     16  O   UNL     1      -2.917  19.108  49.543  1.00  0.00    -0.390 OA
ATOM     17  H   UNL     1      -1.986  18.832  49.333  1.00  0.00     0.211 HD
ENDBRANCH   8  16
TORSDOF 2
ENDMDL
MODEL 5
REMARK VINA RESULT:    -5.766      4.547      7.074
REMARK INTER + INTRA:          -6.564
REMARK INTER:                  -6.291
REMARK INTRA:                  -0.274
REMARK UNBOUND:                -0.293
REMARK SMILES CC1=C[C@@H]2[C@@H](C(C)C)CC[C@@](C)(O)[C@@H]2CC1
REMARK SMILES IDX 1 1 2 2 3 3 4 4 5 5 9 6 10 7 11 8 14 9 15 10 16 11 12 12
REMARK SMILES IDX 6 13 7 14 8 15 13 16
REMARK H PARENT 13 17
REMARK Flexibility Score: inf
ROOT
ATOM      1  C   UNL     1      -5.380  22.088  47.745  1.00  0.00     0.039 C 
ATOM      2  C   UNL     1      -4.856  23.176  48.640  1.00  0.00    -0.077 C 
ATOM      3  C   UNL     1      -5.719  23.970  49.294  1.00  0.00    -0.024 C 
ATOM      4  C   UNL     1      -5.234  25.032  50.249  1.00  0.00     0.021 C 
ATOM      5  C   UNL     1      -4.869  26.387  49.558  1.00  0.00    -0.001 C 
ATOM      6  C   UNL     1      -4.398  27.380  50.655  1.00  0.00     0.007 C 
ATOM      7  C   UNL     1      -3.226  26.830  51.479  1.00  0.00     0.035 C 
ATOM      8  C   UNL     1      -3.572  25.475  52.145  1.00  0.00     0.065 C 
ATOM      9  C   UNL     1      -4.051  24.453  51.067  1.00  0.00     0.028 C 
ATOM     10  C   UNL     1      -2.914  23.907  50.147  1.00  0.00     0.011 C 
ATOM     11  C   UNL     1      -3.369  23.421  48.751  1.00  0.00     0.031 C 
ATOM     12  C   UNL     1      -2.347  24.936  52.917  1.00  0.00     0.042 C 
ENDROOT
BRANCH   5  13
ATOM     13  C   UNL     1      -6.064  26.938  48.686  1.00  0.00    -0.014 C 
ATOM     14  C   UNL     1      -7.317  27.352  49.484  1.00  0.00     0.007 C 
ATOM     15  C   UNL     1      -5.622  28.148  47.839  1.00  0.00     0.007 C 
ENDBRANCH   5  13
BRANCH   8  16
ATOM     16  O   UNL     1      -4.629  25.655  53.064  1.00  0.00    -0.390 OA
ATOM     17  H   UNL     1      -4.782  24.795  53.537  1.00  0.00     0.211 HD
ENDBRANCH   8  16
TORSDOF 2
ENDMDL
MODEL 6
REMARK VINA RESULT:    -5.575      2.773      5.457
REMARK INTER + INTRA:          -6.358
REMARK INTER:                  -6.020
REMARK INTRA:                  -0.337
REMARK UNBOUND:                -0.293
REMARK SMILES CC1=C[C@@H]2[C@@H](C(C)C)CC[C@@](C)(O)[C@@H]2CC1
REMARK SMILES IDX 1 1 2 2 3 3 4 4 5 5 9 6 10 7 11 8 14 9 15 10 16 11 12 12
REMARK SMILES IDX 6 13 7 14 8 15 13 16
REMARK H PARENT 13 17
REMARK Flexibility Score: inf
ROOT
ATOM      1  C   UNL     1      -7.357  26.182  49.238  1.00  0.00     0.039 C 
ATOM      2  C   UNL     1      -6.178  25.271  49.030  1.00  0.00    -0.077 C 
ATOM      3  C   UNL     1      -5.798  24.443  50.017  1.00  0.00    -0.024 C 
ATOM      4  C   UNL     1      -4.662  23.471  49.827  1.00  0.00     0.021 C 
ATOM      5  C   UNL     1      -3.250  24.083  50.109  1.00  0.00    -0.001 C 
ATOM      6  C   UNL     1      -2.186  22.975  49.885  1.00  0.00     0.007 C 
ATOM      7  C   UNL     1      -2.267  22.362  48.480  1.00  0.00     0.035 C 
ATOM      8  C   UNL     1      -3.670  21.777  48.184  1.00  0.00     0.065 C 
ATOM      9  C   UNL     1      -4.764  22.868  48.402  1.00  0.00     0.028 C 
ATOM     10  C   UNL     1      -4.802  23.973  47.299  1.00  0.00     0.011 C 
ATOM     11  C   UNL     1      -5.383  25.335  47.748  1.00  0.00     0.031 C 
ATOM     12  C   UNL     1      -3.719  21.221  46.742  1.00  0.00     0.042 C 
ENDROOT
BRANCH   5  13
ATOM     13  C   UNL     1      -3.176  24.741  51.544  1.00  0.00    -0.014 C 
ATOM     14  C   UNL     1      -2.189  24.068  52.519  1.00  0.00     0.007 C 
ATOM     15  C   UNL     1      -2.803  26.234  51.451  1.00  0.00     0.007 C 
ENDBRANCH   5  13
BRANCH   8  16
ATOM     16  O   UNL     1      -3.940  20.716  49.075  1.00  0.00    -0.390 OA
ATOM     17  H   UNL     1      -3.833  19.859  48.584  1.00  0.00     0.211 HD
ENDBRANCH   8  16
TORSDOF 2
ENDMDL
MODEL 7
REMARK VINA RESULT:    -5.477      4.235      7.356
REMARK INTER + INTRA:          -6.251
REMARK INTER:                  -6.016
REMARK INTRA:                  -0.235
REMARK UNBOUND:                -0.293
REMARK SMILES CC1=C[C@@H]2[C@@H](C(C)C)CC[C@@](C)(O)[C@@H]2CC1
REMARK SMILES IDX 1 1 2 2 3 3 4 4 5 5 9 6 10 7 11 8 14 9 15 10 16 11 12 12
REMARK SMILES IDX 6 13 7 14 8 15 13 16
REMARK H PARENT 13 17
REMARK Flexibility Score: inf
ROOT
ATOM      1  C   UNL     1      -7.125  27.908  46.804  1.00  0.00     0.039 C 
ATOM      2  C   UNL     1      -6.513  27.093  47.910  1.00  0.00    -0.077 C 
ATOM      3  C   UNL     1      -5.331  26.487  47.710  1.00  0.00    -0.024 C 
ATOM      4  C   UNL     1      -4.654  25.712  48.812  1.00  0.00     0.021 C 
ATOM      5  C   UNL     1      -5.134  24.228  48.931  1.00  0.00    -0.001 C 
ATOM      6  C   UNL     1      -4.352  23.556  50.092  1.00  0.00     0.007 C 
ATOM      7  C   UNL     1      -4.511  24.310  51.418  1.00  0.00     0.035 C 
ATOM      8  C   UNL     1      -4.063  25.788  51.302  1.00  0.00     0.065 C 
ATOM      9  C   UNL     1      -4.831  26.493  50.141  1.00  0.00     0.028 C 
ATOM     10  C   UNL     1      -6.332  26.793  50.450  1.00  0.00     0.011 C 
ATOM     11  C   UNL     1      -7.253  26.897  49.212  1.00  0.00     0.031 C 
ATOM     12  C   UNL     1      -4.292  26.519  52.645  1.00  0.00     0.042 C 
ENDROOT
BRANCH   5  13
ATOM     13  C   UNL     1      -4.999  23.460  47.557  1.00  0.00    -0.014 C 
ATOM     14  C   UNL     1      -3.579  23.445  46.957  1.00  0.00     0.007 C 
ATOM     15  C   UNL     1      -5.471  21.999  47.690  1.00  0.00     0.007 C 
ENDBRANCH   5  13
BRANCH   8  16
ATOM     16  O   UNL     1      -2.685  25.843  50.999  1.00  0.00    -0.390 OA
ATOM     17  H   UNL     1      -2.253  25.024  51.359  1.00  0.00     0.211 HD
ENDBRANCH   8  16
TORSDOF 2
ENDMDL
MODEL 8
REMARK VINA RESULT:    -5.407      1.972      4.210
REMARK INTER + INTRA:          -6.175
REMARK INTER:                  -5.856
REMARK INTRA:                  -0.319
REMARK UNBOUND:                -0.293
REMARK SMILES CC1=C[C@@H]2[C@@H](C(C)C)CC[C@@](C)(O)[C@@H]2CC1
REMARK SMILES IDX 1 1 2 2 3 3 4 4 5 5 9 6 10 7 11 8 14 9 15 10 16 11 12 12
REMARK SMILES IDX 6 13 7 14 8 15 13 16
REMARK H PARENT 13 17
REMARK Flexibility Score: inf
ROOT
ATOM      1  C   UNL     1       0.879  22.139  45.869  1.00  0.00     0.039 C 
ATOM      2  C   UNL     1      -0.534  22.181  46.381  1.00  0.00    -0.077 C 
ATOM      3  C   UNL     1      -0.859  21.494  47.488  1.00  0.00    -0.024 C 
ATOM      4  C   UNL     1      -2.249  21.559  48.069  1.00  0.00     0.021 C 
ATOM      5  C   UNL     1      -3.254  20.549  47.425  1.00  0.00    -0.001 C 
ATOM      6  C   UNL     1      -4.631  20.722  48.122  1.00  0.00     0.007 C 
ATOM      7  C   UNL     1      -5.149  22.164  48.044  1.00  0.00     0.035 C 
ATOM      8  C   UNL     1      -4.147  23.174  48.657  1.00  0.00     0.065 C 
ATOM      9  C   UNL     1      -2.750  23.024  47.977  1.00  0.00     0.028 C 
ATOM     10  C   UNL     1      -2.681  23.577  46.518  1.00  0.00     0.011 C 
ATOM     11  C   UNL     1      -1.598  22.935  45.619  1.00  0.00     0.031 C 
ATOM     12  C   UNL     1      -4.687  24.614  48.506  1.00  0.00     0.042 C 
ENDROOT
BRANCH   5  13
ATOM     13  C   UNL     1      -2.707  19.068  47.478  1.00  0.00    -0.014 C 
ATOM     14  C   UNL     1      -3.416  18.148  48.491  1.00  0.00     0.007 C 
ATOM     15  C   UNL     1      -2.788  18.397  46.092  1.00  0.00     0.007 C 
ENDBRANCH   5  13
BRANCH   8  16
ATOM     16  O   UNL     1      -3.985  22.905  50.033  1.00  0.00    -0.390 OA
ATOM     17  H   UNL     1      -4.183  23.735  50.540  1.00  0.00     0.211 HD
ENDBRANCH   8  16
TORSDOF 2
ENDMDL
MODEL 9
REMARK VINA RESULT:    -5.315      3.764      6.016
REMARK INTER + INTRA:          -6.074
REMARK INTER:                  -5.748
REMARK INTRA:                  -0.326
REMARK UNBOUND:                -0.293
REMARK SMILES CC1=C[C@@H]2[C@@H](C(C)C)CC[C@@](C)(O)[C@@H]2CC1
REMARK SMILES IDX 1 1 2 2 3 3 4 4 5 5 9 6 10 7 11 8 14 9 15 10 16 11 12 12
REMARK SMILES IDX 6 13 7 14 8 15 13 16
REMARK H PARENT 13 17
REMARK Flexibility Score: inf
ROOT
ATOM      1  C   UNL     1       0.205  22.403  48.249  1.00  0.00     0.039 C 
ATOM      2  C   UNL     1      -1.066  22.854  48.912  1.00  0.00    -0.077 C 
ATOM      3  C   UNL     1      -1.093  24.027  49.566  1.00  0.00    -0.024 C 
ATOM      4  C   UNL     1      -2.364  24.544  50.192  1.00  0.00     0.021 C 
ATOM      5  C   UNL     1      -2.630  23.997  51.632  1.00  0.00    -0.001 C 
ATOM      6  C   UNL     1      -3.956  24.616  52.151  1.00  0.00     0.007 C 
ATOM      7  C   UNL     1      -5.138  24.337  51.212  1.00  0.00     0.035 C 
ATOM      8  C   UNL     1      -4.871  24.852  49.776  1.00  0.00     0.065 C 
ATOM      9  C   UNL     1      -3.542  24.248  49.226  1.00  0.00     0.028 C 
ATOM     10  C   UNL     1      -3.627  22.735  48.852  1.00  0.00     0.011 C 
ATOM     11  C   UNL     1      -2.287  21.964  48.904  1.00  0.00     0.031 C 
ATOM     12  C   UNL     1      -6.063  24.501  48.857  1.00  0.00     0.042 C 
ENDROOT
BRANCH   5  13
ATOM     13  C   UNL     1      -1.401  24.257  52.591  1.00  0.00    -0.014 C 
ATOM     14  C   UNL     1      -1.648  25.304  53.696  1.00  0.00     0.007 C 
ATOM     15  C   UNL     1      -0.941  22.952  53.270  1.00  0.00     0.007 C 
ENDBRANCH   5  13
BRANCH   8  16
ATOM     16  O   UNL     1      -4.728  26.256  49.795  1.00  0.00    -0.390 OA
ATOM     17  H   UNL     1      -4.679  26.580  48.858  1.00  0.00     0.211 HD
ENDBRANCH   8  16
TORSDOF 2
ENDMDL
