MODEL 1
REMARK VINA RESULT:    -1.491      0.000      0.000
REMARK INTER + INTRA:          -2.910
REMARK INTER:                  -2.013
REMARK INTRA:                  -0.896
REMARK UNBOUND:                -0.896
REMARK SMILES C=CC(C)=CCC=C(C)CCC=C(C)C
REMARK SMILES IDX 8 1 7 2 9 3 10 4 11 5 12 6 14 7 13 8 15 9 6 10 5 11 3 12
REMARK SMILES IDX 4 13 2 14 1 15
REMARK H PARENT
REMARK Flexibility Score: inf
ROOT
ATOM      1  C   UNL     1     152.358 135.622 161.527  1.00  0.00    -0.077 C 
ATOM      2  C   UNL     1     152.539 136.602 160.613  1.00  0.00    -0.024 C 
ATOM      3  C   UNL     1     151.049 134.876 161.644  1.00  0.00     0.039 C 
ENDROOT
BRANCH   1   4
ATOM      4  C   UNL     1     153.488 135.279 162.475  1.00  0.00     0.034 C 
BRANCH   4   5
ATOM      5  C   UNL     1     154.537 136.395 162.535  1.00  0.00     0.032 C 
BRANCH   5   6
ATOM      6  C   UNL     1     154.336 137.265 163.754  1.00  0.00    -0.028 C 
ATOM      7  C   UNL     1     153.707 139.261 165.040  1.00  0.00     0.039 C 
ATOM      8  C   UNL     1     153.917 138.550 163.729  1.00  0.00    -0.080 C 
ATOM      9  C   UNL     1     153.657 139.285 162.436  1.00  0.00     0.039 C 
ENDBRANCH   5   6
ENDBRANCH   4   5
ENDBRANCH   1   4
BRANCH   2  10
ATOM     10  C   UNL     1     151.485 137.045 159.630  1.00  0.00     0.055 C 
BRANCH  10  11
ATOM     11  C   UNL     1     152.105 137.549 158.352  1.00  0.00    -0.020 C 
ATOM     12  C   UNL     1     151.693 137.177 157.124  1.00  0.00    -0.055 C 
ATOM     13  C   UNL     1     150.552 136.203 156.934  1.00  0.00     0.044 C 
BRANCH  12  14
ATOM     14  C   UNL     1     152.442 137.698 155.951  1.00  0.00    -0.005 C 
ATOM     15  C   UNL     1     153.590 138.367 156.047  1.00  0.00     0.009 C 
ENDBRANCH  12  14
ENDBRANCH  10  11
ENDBRANCH   2  10
TORSDOF 6
ENDMDL
MODEL 2
REMARK VINA RESULT:    -1.360     21.138     22.097
REMARK INTER + INTRA:          -2.733
REMARK INTER:                  -2.670
REMARK INTRA:                  -0.064
REMARK UNBOUND:                -0.896
REMARK SMILES C=CC(C)=CCC=C(C)CCC=C(C)C
REMARK SMILES IDX 8 1 7 2 9 3 10 4 11 5 12 6 14 7 13 8 15 9 6 10 5 11 3 12
REMARK SMILES IDX 4 13 2 14 1 15
REMARK H PARENT
REMARK Flexibility Score: inf
ROOT
ATOM      1  C   UNL     1     138.928 154.153 161.206  1.00  0.00    -0.077 C 
ATOM      2  C   UNL     1     139.369 154.695 160.048  1.00  0.00    -0.024 C 
ATOM      3  C   UNL     1     138.794 152.659 161.384  1.00  0.00     0.039 C 
ENDROOT
BRANCH   1   4
ATOM      4  C   UNL     1     138.535 155.069 162.346  1.00  0.00     0.034 C 
BRANCH   4   5
ATOM      5  C   UNL     1     137.194 154.659 162.966  1.00  0.00     0.032 C 
BRANCH   5   6
ATOM      6  C   UNL     1     137.376 153.536 163.961  1.00  0.00    -0.028 C 
ATOM      7  C   UNL     1     137.001 151.343 165.003  1.00  0.00     0.039 C 
ATOM      8  C   UNL     1     136.652 152.395 163.982  1.00  0.00    -0.080 C 
ATOM      9  C   UNL     1     135.514 152.148 163.022  1.00  0.00     0.039 C 
ENDBRANCH   5   6
ENDBRANCH   4   5
ENDBRANCH   1   4
BRANCH   2  10
ATOM     10  C   UNL     1     139.772 153.890 158.838  1.00  0.00     0.055 C 
BRANCH  10  11
ATOM     11  C   UNL     1     138.567 153.355 158.109  1.00  0.00    -0.020 C 
ATOM     12  C   UNL     1     138.494 153.240 156.769  1.00  0.00    -0.055 C 
ATOM     13  C   UNL     1     139.645 153.649 155.876  1.00  0.00     0.044 C 
BRANCH  12  14
ATOM     14  C   UNL     1     137.217 152.763 156.178  1.00  0.00    -0.005 C 
ATOM     15  C   UNL     1     136.908 151.475 156.032  1.00  0.00     0.009 C 
ENDBRANCH  12  14
ENDBRANCH  10  11
ENDBRANCH   2  10
TORSDOF 6
ENDMDL
MODEL 3
REMARK VINA RESULT:    -0.787      1.273      1.600
REMARK INTER + INTRA:          -1.959
REMARK INTER:                  -1.364
REMARK INTRA:                  -0.596
REMARK UNBOUND:                -0.896
REMARK SMILES C=CC(C)=CCC=C(C)CCC=C(C)C
REMARK SMILES IDX 8 1 7 2 9 3 10 4 11 5 12 6 14 7 13 8 15 9 6 10 5 11 3 12
REMARK SMILES IDX 4 13 2 14 1 15
REMARK H PARENT
REMARK Flexibility Score: inf
ROOT
ATOM      1  C   UNL     1     152.604 135.695 161.986  1.00  0.00    -0.077 C 
ATOM      2  C   UNL     1     152.590 136.739 161.126  1.00  0.00    -0.024 C 
ATOM      3  C   UNL     1     151.364 134.875 162.260  1.00  0.00     0.039 C 
ENDROOT
BRANCH   1   4
ATOM      4  C   UNL     1     153.888 135.353 162.711  1.00  0.00     0.034 C 
BRANCH   4   5
ATOM      5  C   UNL     1     154.837 136.554 162.781  1.00  0.00     0.032 C 
BRANCH   5   6
ATOM      6  C   UNL     1     154.519 137.429 163.972  1.00  0.00    -0.028 C 
ATOM      7  C   UNL     1     153.651 139.378 165.190  1.00  0.00     0.039 C 
ATOM      8  C   UNL     1     153.963 138.659 163.903  1.00  0.00    -0.080 C 
ATOM      9  C   UNL     1     153.650 139.326 162.586  1.00  0.00     0.039 C 
ENDBRANCH   5   6
ENDBRANCH   4   5
ENDBRANCH   1   4
BRANCH   2  10
ATOM     10  C   UNL     1     151.371 137.187 160.360  1.00  0.00     0.055 C 
BRANCH  10  11
ATOM     11  C   UNL     1     151.449 136.774 158.914  1.00  0.00    -0.020 C 
ATOM     12  C   UNL     1     150.429 136.903 158.043  1.00  0.00    -0.055 C 
ATOM     13  C   UNL     1     149.098 137.486 158.464  1.00  0.00     0.044 C 
BRANCH  12  14
ATOM     14  C   UNL     1     150.621 136.388 156.663  1.00  0.00    -0.005 C 
ATOM     15  C   UNL     1     150.418 135.117 156.315  1.00  0.00     0.009 C 
ENDBRANCH  12  14
ENDBRANCH  10  11
ENDBRANCH   2  10
TORSDOF 6
ENDMDL
MODEL 4
REMARK VINA RESULT:    -0.686      0.843      6.352
REMARK INTER + INTRA:          -1.822
REMARK INTER:                  -1.884
REMARK INTRA:                   0.062
REMARK UNBOUND:                -0.896
REMARK SMILES C=CC(C)=CCC=C(C)CCC=C(C)C
REMARK SMILES IDX 8 1 7 2 9 3 10 4 11 5 12 6 14 7 13 8 15 9 6 10 5 11 3 12
REMARK SMILES IDX 4 13 2 14 1 15
REMARK H PARENT
REMARK Flexibility Score: inf
ROOT
ATOM      1  C   UNL     1     151.932 136.474 161.190  1.00  0.00    -0.077 C 
ATOM      2  C   UNL     1     153.105 137.109 161.412  1.00  0.00    -0.024 C 
ATOM      3  C   UNL     1     151.628 135.128 161.806  1.00  0.00     0.039 C 
ENDROOT
BRANCH   1   4
ATOM      4  C   UNL     1     150.906 137.116 160.281  1.00  0.00     0.034 C 
BRANCH   4   5
ATOM      5  C   UNL     1     151.066 136.655 158.828  1.00  0.00     0.032 C 
BRANCH   5   6
ATOM      6  C   UNL     1     152.287 137.280 158.191  1.00  0.00    -0.028 C 
ATOM      7  C   UNL     1     153.671 138.254 156.411  1.00  0.00     0.039 C 
ATOM      8  C   UNL     1     152.410 137.573 156.878  1.00  0.00    -0.080 C 
ATOM      9  C   UNL     1     151.331 137.240 155.875  1.00  0.00     0.039 C 
ENDBRANCH   5   6
ENDBRANCH   4   5
ENDBRANCH   1   4
BRANCH   2  10
ATOM     10  C   UNL     1     154.210 136.563 162.281  1.00  0.00     0.055 C 
BRANCH  10  11
ATOM     11  C   UNL     1     154.142 137.129 163.675  1.00  0.00    -0.020 C 
ATOM     12  C   UNL     1     154.033 138.445 163.945  1.00  0.00    -0.055 C 
ATOM     13  C   UNL     1     153.970 139.475 162.839  1.00  0.00     0.044 C 
BRANCH  12  14
ATOM     14  C   UNL     1     154.047 138.869 165.368  1.00  0.00    -0.005 C 
ATOM     15  C   UNL     1     153.978 140.141 165.759  1.00  0.00     0.009 C 
ENDBRANCH  12  14
ENDBRANCH  10  11
ENDBRANCH   2  10
TORSDOF 6
ENDMDL
MODEL 5
REMARK VINA RESULT:    -0.447     20.921     22.640
REMARK INTER + INTRA:          -1.500
REMARK INTER:                  -0.876
REMARK INTRA:                  -0.625
REMARK UNBOUND:                -0.896
REMARK SMILES C=CC(C)=CCC=C(C)CCC=C(C)C
REMARK SMILES IDX 8 1 7 2 9 3 10 4 11 5 12 6 14 7 13 8 15 9 6 10 5 11 3 12
REMARK SMILES IDX 4 13 2 14 1 15
REMARK H PARENT
REMARK Flexibility Score: inf
ROOT
ATOM      1  C   UNL     1     140.072 153.790 158.878  1.00  0.00    -0.077 C 
ATOM      2  C   UNL     1     139.222 154.562 159.593  1.00  0.00    -0.024 C 
ATOM      3  C   UNL     1     141.168 152.989 159.543  1.00  0.00     0.039 C 
ENDROOT
BRANCH   1   4
ATOM      4  C   UNL     1     139.939 153.744 157.371  1.00  0.00     0.034 C 
BRANCH   4   5
ATOM      5  C   UNL     1     138.475 153.610 156.935  1.00  0.00     0.032 C 
BRANCH   5   6
ATOM      6  C   UNL     1     138.123 152.167 156.651  1.00  0.00    -0.028 C 
ATOM      7  C   UNL     1     136.765 150.272 155.877  1.00  0.00     0.039 C 
ATOM      8  C   UNL     1     136.936 151.742 156.165  1.00  0.00    -0.080 C 
ATOM      9  C   UNL     1     135.788 152.687 155.907  1.00  0.00     0.039 C 
ENDBRANCH   5   6
ENDBRANCH   4   5
ENDBRANCH   1   4
BRANCH   2  10
ATOM     10  C   UNL     1     139.267 154.704 161.093  1.00  0.00     0.055 C 
BRANCH  10  11
ATOM     11  C   UNL     1     138.533 153.577 161.772  1.00  0.00    -0.020 C 
ATOM     12  C   UNL     1     137.690 153.752 162.809  1.00  0.00    -0.055 C 
ATOM     13  C   UNL     1     137.413 155.125 163.381  1.00  0.00     0.044 C 
BRANCH  12  14
ATOM     14  C   UNL     1     137.088 152.544 163.429  1.00  0.00    -0.005 C 
ATOM     15  C   UNL     1     136.003 151.933 162.952  1.00  0.00     0.009 C 
ENDBRANCH  12  14
ENDBRANCH  10  11
ENDBRANCH   2  10
TORSDOF 6
ENDMDL
MODEL 6
REMARK VINA RESULT:    -0.424     21.002     22.022
REMARK INTER + INTRA:          -1.469
REMARK INTER:                  -0.894
REMARK INTRA:                  -0.575
REMARK UNBOUND:                -0.896
REMARK SMILES C=CC(C)=CCC=C(C)CCC=C(C)C
REMARK SMILES IDX 8 1 7 2 9 3 10 4 11 5 12 6 14 7 13 8 15 9 6 10 5 11 3 12
REMARK SMILES IDX 4 13 2 14 1 15
REMARK H PARENT
REMARK Flexibility Score: inf
ROOT
ATOM      1  C   UNL     1     139.687 153.809 158.898  1.00  0.00    -0.077 C 
ATOM      2  C   UNL     1     138.636 153.660 158.061  1.00  0.00    -0.024 C 
ATOM      3  C   UNL     1     141.111 153.624 158.426  1.00  0.00     0.039 C 
ENDROOT
BRANCH   1   4
ATOM      4  C   UNL     1     139.432 154.147 160.352  1.00  0.00     0.034 C 
BRANCH   4   5
ATOM      5  C   UNL     1     138.386 153.216 160.975  1.00  0.00     0.032 C 
BRANCH   5   6
ATOM      6  C   UNL     1     137.493 153.967 161.936  1.00  0.00    -0.028 C 
ATOM      7  C   UNL     1     135.915 154.286 163.791  1.00  0.00     0.039 C 
ATOM      8  C   UNL     1     136.699 153.392 162.866  1.00  0.00    -0.080 C 
ATOM      9  C   UNL     1     136.576 151.893 163.002  1.00  0.00     0.039 C 
ENDBRANCH   5   6
ENDBRANCH   4   5
ENDBRANCH   1   4
BRANCH   2  10
ATOM     10  C   UNL     1     138.761 153.306 156.601  1.00  0.00     0.055 C 
BRANCH  10  11
ATOM     11  C   UNL     1     138.199 151.938 156.317  1.00  0.00    -0.020 C 
ATOM     12  C   UNL     1     136.896 151.701 156.068  1.00  0.00    -0.055 C 
ATOM     13  C   UNL     1     135.878 152.821 156.054  1.00  0.00     0.044 C 
BRANCH  12  14
ATOM     14  C   UNL     1     136.467 150.292 155.875  1.00  0.00    -0.005 C 
ATOM     15  C   UNL     1     135.305 149.809 156.314  1.00  0.00     0.009 C 
ENDBRANCH  12  14
ENDBRANCH  10  11
ENDBRANCH   2  10
TORSDOF 6
ENDMDL
MODEL 7
REMARK VINA RESULT:     0.420      1.668      2.912
REMARK INTER + INTRA:          -0.329
REMARK INTER:                   0.520
REMARK INTRA:                  -0.848
REMARK UNBOUND:                -0.896
REMARK SMILES C=CC(C)=CCC=C(C)CCC=C(C)C
REMARK SMILES IDX 8 1 7 2 9 3 10 4 11 5 12 6 14 7 13 8 15 9 6 10 5 11 3 12
REMARK SMILES IDX 4 13 2 14 1 15
REMARK H PARENT
REMARK Flexibility Score: inf
ROOT
ATOM      1  C   UNL     1     153.645 134.963 162.339  1.00  0.00    -0.077 C 
ATOM      2  C   UNL     1     152.294 134.945 162.392  1.00  0.00    -0.024 C 
ATOM      3  C   UNL     1     154.390 134.908 161.026  1.00  0.00     0.039 C 
ENDROOT
BRANCH   1   4
ATOM      4  C   UNL     1     154.434 135.015 163.631  1.00  0.00     0.034 C 
BRANCH   4   5
ATOM      5  C   UNL     1     155.125 136.370 163.819  1.00  0.00     0.032 C 
BRANCH   5   6
ATOM      6  C   UNL     1     154.575 137.399 162.858  1.00  0.00    -0.028 C 
ATOM      7  C   UNL     1     153.480 139.478 162.139  1.00  0.00     0.039 C 
ATOM      8  C   UNL     1     153.911 138.519 163.220  1.00  0.00    -0.080 C 
ATOM      9  C   UNL     1     153.591 138.834 164.661  1.00  0.00     0.039 C 
ENDBRANCH   5   6
ENDBRANCH   4   5
ENDBRANCH   1   4
BRANCH   2  10
ATOM     10  C   UNL     1     151.402 134.876 161.178  1.00  0.00     0.055 C 
BRANCH  10  11
ATOM     11  C   UNL     1     150.652 136.166 160.974  1.00  0.00    -0.020 C 
ATOM     12  C   UNL     1     150.835 136.978 159.914  1.00  0.00    -0.055 C 
ATOM     13  C   UNL     1     151.830 136.643 158.825  1.00  0.00     0.044 C 
BRANCH  12  14
ATOM     14  C   UNL     1     150.079 138.256 159.875  1.00  0.00    -0.005 C 
ATOM     15  C   UNL     1     148.813 138.352 159.471  1.00  0.00     0.009 C 
ENDBRANCH  12  14
ENDBRANCH  10  11
ENDBRANCH   2  10
TORSDOF 6
ENDMDL
MODEL 8
REMARK VINA RESULT:     0.475     21.281     22.223
REMARK INTER + INTRA:          -0.255
REMARK INTER:                   0.455
REMARK INTRA:                  -0.710
REMARK UNBOUND:                -0.896
REMARK SMILES C=CC(C)=CCC=C(C)CCC=C(C)C
REMARK SMILES IDX 8 1 7 2 9 3 10 4 11 5 12 6 14 7 13 8 15 9 6 10 5 11 3 12
REMARK SMILES IDX 4 13 2 14 1 15
REMARK H PARENT
REMARK Flexibility Score: inf
ROOT
ATOM      1  C   UNL     1     138.207 154.688 161.546  1.00  0.00    -0.077 C 
ATOM      2  C   UNL     1     138.357 153.918 160.444  1.00  0.00    -0.024 C 
ATOM      3  C   UNL     1     139.392 155.123 162.378  1.00  0.00     0.039 C 
ENDROOT
BRANCH   1   4
ATOM      4  C   UNL     1     136.816 155.104 161.972  1.00  0.00     0.034 C 
BRANCH   4   5
ATOM      5  C   UNL     1     135.896 153.893 162.169  1.00  0.00     0.032 C 
BRANCH   5   6
ATOM      6  C   UNL     1     136.152 153.228 163.502  1.00  0.00    -0.028 C 
ATOM      7  C   UNL     1     137.026 151.554 165.073  1.00  0.00     0.039 C 
ATOM      8  C   UNL     1     136.797 152.052 163.669  1.00  0.00    -0.080 C 
ATOM      9  C   UNL     1     137.288 151.232 162.501  1.00  0.00     0.039 C 
ENDBRANCH   5   6
ENDBRANCH   4   5
ENDBRANCH   1   4
BRANCH   2  10
ATOM     10  C   UNL     1     139.687 153.426 159.931  1.00  0.00     0.055 C 
BRANCH  10  11
ATOM     11  C   UNL     1     139.972 153.956 158.550  1.00  0.00    -0.020 C 
ATOM     12  C   UNL     1     139.215 153.677 157.470  1.00  0.00    -0.055 C 
ATOM     13  C   UNL     1     137.994 152.789 157.569  1.00  0.00     0.044 C 
BRANCH  12  14
ATOM     14  C   UNL     1     139.653 154.209 156.155  1.00  0.00    -0.005 C 
ATOM     15  C   UNL     1     140.611 155.125 156.012  1.00  0.00     0.009 C 
ENDBRANCH  12  14
ENDBRANCH  10  11
ENDBRANCH   2  10
TORSDOF 6
ENDMDL
