MODEL 1
REMARK VINA RESULT:    41.171      0.000      0.000
REMARK INTER + INTRA:          74.387
REMARK INTER:                  67.646
REMARK INTRA:                   6.741
REMARK UNBOUND:                 6.741
REMARK SMILES C[C@@H]1O[C@H](OC[C@@H]2O[C@H](Oc3c(-c4ccc(O)c(O)c4)oc4cc(O)cc(O)c4c3=O)[C@@H](O)[C@H](O)[C@H]2O)[C@H](O)[C@H](O)[C@H]1O
REMARK SMILES IDX 7 1 36 2 34 3 32 4 9 5 8 6 6 7 5 8 4 9 1 10 2 11 42 12 3 13
REMARK SMILES IDX 40 14 38 15 43 16 41 18 39 20 37 22 35 24 10 26 11 27 12 28
REMARK SMILES IDX 30 29 21 30 29 31 31 32 22 33 27 34 23 35 26 36 24 37 13 38
REMARK SMILES IDX 20 39 14 40 18 41 15 42 16 43 19 44 17 46 28 48 25 50 33 52
REMARK H PARENT 43 17 41 19 39 21 37 23 35 25 19 45 17 47 28 49 25 51 33 53
REMARK Flexibility Score: inf
ROOT
ATOM      1  C   UNL     1       0.572 -11.765  14.860  1.00  0.00     0.180 C 
ATOM      2  C   UNL     1      -0.088 -12.190  16.195  1.00  0.00     0.177 C 
ATOM      3  C   UNL     1       0.191 -13.664  16.543  1.00  0.00     0.180 C 
ATOM      4  C   UNL     1       1.689 -13.982  16.378  1.00  0.00     0.214 C 
ATOM      5  C   UNL     1       2.209 -13.492  15.016  1.00  0.00     0.339 C 
ATOM      6  O   UNL     1       1.947 -12.116  14.781  1.00  0.00    -0.332 OA
ENDROOT
BRANCH   1   7
ATOM      7  C   UNL     1      -0.214 -12.163  13.590  1.00  0.00     0.198 C 
BRANCH   7   8
ATOM      8  O   UNL     1      -1.383 -11.378  13.492  1.00  0.00    -0.347 OA
BRANCH   8   9
ATOM      9  C   UNL     1      -1.096 -10.000  13.682  1.00  0.00     0.281 C 
ATOM     10  C   UNL     1      -3.175 -10.311  11.360  1.00  0.00     0.041 C 
ATOM     11  C   UNL     1      -2.581  -9.071  12.039  1.00  0.00     0.150 C 
ATOM     12  C   UNL     1      -3.502  -8.464  13.126  1.00  0.00     0.174 C 
ATOM     13  O   UNL     1      -1.238  -9.269  12.466  1.00  0.00    -0.344 OA
ATOM     14  C   UNL     1      -3.419  -9.248  14.441  1.00  0.00     0.179 C 
ATOM     15  C   UNL     1      -1.935  -9.422  14.839  1.00  0.00     0.202 C 
BRANCH  12  16
ATOM     16  O   UNL     1      -3.126  -7.135  13.367  1.00  0.00    -0.388 OA
ATOM     17  H   UNL     1      -3.939  -6.577  13.257  1.00  0.00     0.211 HD
ENDBRANCH  12  16
BRANCH  14  18
ATOM     18  O   UNL     1      -4.141 -10.454  14.329  1.00  0.00    -0.387 OA
ATOM     19  H   UNL     1      -5.011 -10.383  14.814  1.00  0.00     0.211 HD
ENDBRANCH  14  18
BRANCH  15  20
ATOM     20  O   UNL     1      -1.783 -10.229  15.983  1.00  0.00    -0.385 OA
ATOM     21  H   UNL     1      -2.697 -10.436  16.330  1.00  0.00     0.211 HD
ENDBRANCH  15  20
ENDBRANCH   8   9
ENDBRANCH   7   8
ENDBRANCH   1   7
BRANCH   2  22
ATOM     22  O   UNL     1       0.409 -11.360  17.221  1.00  0.00    -0.387 OA
ATOM     23  H   UNL     1      -0.358 -11.146  17.815  1.00  0.00     0.211 HD
ENDBRANCH   2  22
BRANCH   3  24
ATOM     24  O   UNL     1      -0.580 -14.506  15.727  1.00  0.00    -0.387 OA
ATOM     25  H   UNL     1      -0.071 -15.352  15.621  1.00  0.00     0.211 HD
ENDBRANCH   3  24
BRANCH   5  26
ATOM     26  O   UNL     1       1.714 -14.301  13.947  1.00  0.00    -0.454 OA
BRANCH  26  27
ATOM     27  C   UNL     1       2.383 -14.422  12.718  1.00  0.00     0.214 A 
ATOM     28  C   UNL     1       3.771 -14.641  12.645  1.00  0.00     0.180 A 
ATOM     29  C   UNL     1       1.645 -14.342  11.530  1.00  0.00     0.239 A 
ATOM     30  O   UNL     1       4.351 -14.812  11.465  1.00  0.00    -0.452 OA
ATOM     31  C   UNL     1       2.285 -14.561  10.286  1.00  0.00     0.111 A 
ATOM     32  O   UNL     1       0.417 -14.071  11.608  1.00  0.00    -0.285 OA
ATOM     33  C   UNL     1       3.689 -14.777  10.315  1.00  0.00     0.146 A 
ATOM     34  C   UNL     1       1.621 -14.581   9.019  1.00  0.00     0.134 A 
ATOM     35  C   UNL     1       4.409 -14.952   9.131  1.00  0.00     0.094 A 
ATOM     36  C   UNL     1       2.376 -14.738   7.850  1.00  0.00     0.093 A 
ATOM     37  C   UNL     1       3.759 -14.923   7.899  1.00  0.00     0.123 A 
BRANCH  28  38
ATOM     38  C   UNL     1       4.625 -14.688  13.847  1.00  0.00     0.025 A 
ATOM     39  C   UNL     1       4.107 -14.394  15.120  1.00  0.00     0.062 A 
ATOM     40  C   UNL     1       5.975 -15.031  13.717  1.00  0.00     0.016 A 
ATOM     41  C   UNL     1       4.924 -14.473  16.253  1.00  0.00     0.158 A 
ATOM     42  C   UNL     1       6.788 -15.123  14.849  1.00  0.00     0.051 A 
ATOM     43  C   UNL     1       6.270 -14.847  16.121  1.00  0.00     0.157 A 
BRANCH  41  44
ATOM     44  O   UNL     1       4.381 -14.171  17.500  1.00  0.00    -0.504 OA
ATOM     45  H   UNL     1       4.169 -13.217  17.771  1.00  0.00     0.293 HD
ENDBRANCH  41  44
BRANCH  43  46
ATOM     46  O   UNL     1       7.094 -14.932  17.244  1.00  0.00    -0.504 OA
ATOM     47  H   UNL     1       7.714 -14.175  17.503  1.00  0.00     0.293 HD
ENDBRANCH  43  46
ENDBRANCH  28  38
BRANCH  34  48
ATOM     48  O   UNL     1       0.236 -14.466   8.851  1.00  0.00    -0.507 OA
ATOM     49  H   UNL     1      -0.240 -13.746   8.333  1.00  0.00     0.293 HD
ENDBRANCH  34  48
BRANCH  37  50
ATOM     50  O   UNL     1       4.497 -15.087   6.728  1.00  0.00    -0.508 OA
ATOM     51  H   UNL     1       5.507 -15.021   6.723  1.00  0.00     0.293 HD
ENDBRANCH  37  50
ENDBRANCH  26  27
ENDBRANCH   5  26
BRANCH   4  52
ATOM     52  O   UNL     1       2.433 -13.365  17.396  1.00  0.00    -0.384 OA
ATOM     53  H   UNL     1       2.209 -12.398  17.368  1.00  0.00     0.211 HD
ENDBRANCH   4  52
TORSDOF 16
ENDMDL
