MODEL 1
REMARK VINA RESULT:    -4.389      0.000      0.000
REMARK INTER + INTRA:          -6.132
REMARK INTER:                  -5.928
REMARK INTRA:                  -0.204
REMARK UNBOUND:                -0.204
REMARK SMILES [NH3+]CCCC[C@H]([NH3+])C(=O)[O-]
REMARK SMILES IDX 4 1 3 2 2 3 1 4 5 8 6 9 7 10 8 14 9 15 10 16
REMARK H PARENT 1 5 1 6 1 7 7 11 7 12 7 13
REMARK Flexibility Score: inf
ROOT
ATOM      1  C   UNL     1     136.261 137.403 131.003  1.00  0.00     0.012 C 
ENDROOT
BRANCH   1   2
ATOM      2  C   UNL     1     137.542 136.729 130.475  1.00  0.00     0.061 C 
BRANCH   2   3
ATOM      3  C   UNL     1     137.575 136.585 128.939  1.00  0.00     0.258 C 
BRANCH   3   4
ATOM      4  N   UNL     1     136.231 136.507 128.365  1.00  0.00    -0.358 N 
ATOM      5  H   UNL     1     135.514 136.773 129.078  1.00  0.00     0.344 HD
ATOM      6  H   UNL     1     136.166 137.174 127.562  1.00  0.00     0.344 HD
ATOM      7  H   UNL     1     136.037 135.544 128.008  1.00  0.00     0.344 HD
ENDBRANCH   3   4
ENDBRANCH   2   3
ENDBRANCH   1   2
BRANCH   1   8
ATOM      8  C   UNL     1     135.673 136.704 132.251  1.00  0.00     0.072 C 
BRANCH   8   9
ATOM      9  C   UNL     1     134.381 135.906 131.956  1.00  0.00     0.227 C 
BRANCH   9  10
ATOM     10  N   UNL     1     133.268 136.330 132.816  1.00  0.00    -0.350 N 
ATOM     11  H   UNL     1     132.992 137.317 132.607  1.00  0.00     0.345 HD
ATOM     12  H   UNL     1     132.446 135.700 132.674  1.00  0.00     0.345 HD
ATOM     13  H   UNL     1     133.549 136.260 133.822  1.00  0.00     0.345 HD
ENDBRANCH   9  10
BRANCH   9  14
ATOM     14  C   UNL     1     134.642 134.433 132.133  1.00  0.00     0.099 C 
ATOM     15  O   UNL     1     135.370 133.811 131.315  1.00  0.00    -0.544 OA
ATOM     16  O   UNL     1     134.061 133.747 133.192  1.00  0.00    -0.544 OA
ENDBRANCH   9  14
ENDBRANCH   8   9
ENDBRANCH   1   8
TORSDOF 7
ENDMDL
MODEL 2
REMARK VINA RESULT:    -4.140      1.730      2.028
REMARK INTER + INTRA:          -5.796
REMARK INTER:                  -5.591
REMARK INTRA:                  -0.204
REMARK UNBOUND:                -0.204
REMARK SMILES [NH3+]CCCC[C@H]([NH3+])C(=O)[O-]
REMARK SMILES IDX 4 1 3 2 2 3 1 4 5 8 6 9 7 10 8 14 9 15 10 16
REMARK H PARENT 1 5 1 6 1 7 7 11 7 12 7 13
REMARK Flexibility Score: inf
ROOT
ATOM      1  C   UNL     1     135.142 135.988 130.869  1.00  0.00     0.012 C 
ENDROOT
BRANCH   1   2
ATOM      2  C   UNL     1     136.243 137.047 130.666  1.00  0.00     0.061 C 
BRANCH   2   3
ATOM      3  C   UNL     1     137.106 136.809 129.410  1.00  0.00     0.258 C 
BRANCH   3   4
ATOM      4  N   UNL     1     136.290 136.499 128.234  1.00  0.00    -0.358 N 
ATOM      5  H   UNL     1     136.638 137.024 127.400  1.00  0.00     0.344 HD
ATOM      6  H   UNL     1     136.360 135.474 128.035  1.00  0.00     0.344 HD
ATOM      7  H   UNL     1     135.287 136.730 128.409  1.00  0.00     0.344 HD
ENDBRANCH   3   4
ENDBRANCH   2   3
ENDBRANCH   1   2
BRANCH   1   8
ATOM      8  C   UNL     1     135.695 134.602 131.275  1.00  0.00     0.072 C 
BRANCH   8   9
ATOM      9  C   UNL     1     135.018 134.016 132.536  1.00  0.00     0.227 C 
BRANCH   9  10
ATOM     10  N   UNL     1     133.608 133.684 132.295  1.00  0.00    -0.350 N 
ATOM     11  H   UNL     1     132.993 134.128 133.016  1.00  0.00     0.345 HD
ATOM     12  H   UNL     1     133.321 134.010 131.344  1.00  0.00     0.345 HD
ATOM     13  H   UNL     1     133.476 132.646 132.326  1.00  0.00     0.345 HD
ENDBRANCH   9  10
BRANCH   9  14
ATOM     14  C   UNL     1     135.134 134.995 133.676  1.00  0.00     0.099 C 
ATOM     15  O   UNL     1     136.258 135.264 134.175  1.00  0.00    -0.544 OA
ATOM     16  O   UNL     1     133.993 135.591 134.198  1.00  0.00    -0.544 OA
ENDBRANCH   9  14
ENDBRANCH   8   9
ENDBRANCH   1   8
TORSDOF 7
ENDMDL
MODEL 3
REMARK VINA RESULT:    -4.023      1.979      2.349
REMARK INTER + INTRA:          -5.638
REMARK INTER:                  -5.487
REMARK INTRA:                  -0.152
REMARK UNBOUND:                -0.204
REMARK SMILES [NH3+]CCCC[C@H]([NH3+])C(=O)[O-]
REMARK SMILES IDX 4 1 3 2 2 3 1 4 5 8 6 9 7 10 8 14 9 15 10 16
REMARK H PARENT 1 5 1 6 1 7 7 11 7 12 7 13
REMARK Flexibility Score: inf
ROOT
ATOM      1  C   UNL     1     137.309 136.849 129.598  1.00  0.00     0.012 C 
ENDROOT
BRANCH   1   2
ATOM      2  C   UNL     1     137.821 136.290 128.257  1.00  0.00     0.061 C 
BRANCH   2   3
ATOM      3  C   UNL     1     136.804 135.381 127.538  1.00  0.00     0.258 C 
BRANCH   3   4
ATOM      4  N   UNL     1     136.687 135.704 126.115  1.00  0.00    -0.358 N 
ATOM      5  H   UNL     1     136.288 136.663 125.990  1.00  0.00     0.344 HD
ATOM      6  H   UNL     1     137.640 135.682 125.683  1.00  0.00     0.344 HD
ATOM      7  H   UNL     1     136.089 135.003 125.624  1.00  0.00     0.344 HD
ENDBRANCH   3   4
ENDBRANCH   2   3
ENDBRANCH   1   2
BRANCH   1   8
ATOM      8  C   UNL     1     135.941 136.265 130.021  1.00  0.00     0.072 C 
BRANCH   8   9
ATOM      9  C   UNL     1     135.933 135.699 131.460  1.00  0.00     0.227 C 
BRANCH   9  10
ATOM     10  N   UNL     1     136.838 134.550 131.601  1.00  0.00    -0.350 N 
ATOM     11  H   UNL     1     137.392 134.621 132.486  1.00  0.00     0.345 HD
ATOM     12  H   UNL     1     136.289 133.661 131.604  1.00  0.00     0.345 HD
ATOM     13  H   UNL     1     137.496 134.513 130.788  1.00  0.00     0.345 HD
ENDBRANCH   9  10
BRANCH   9  14
ATOM     14  C   UNL     1     134.530 135.305 131.843  1.00  0.00     0.099 C 
ATOM     15  O   UNL     1     133.645 136.184 132.015  1.00  0.00    -0.544 OA
ATOM     16  O   UNL     1     134.211 133.965 132.030  1.00  0.00    -0.544 OA
ENDBRANCH   9  14
ENDBRANCH   8   9
ENDBRANCH   1   8
TORSDOF 7
ENDMDL
MODEL 4
REMARK VINA RESULT:    -4.004      2.528      4.331
REMARK INTER + INTRA:          -5.612
REMARK INTER:                  -5.160
REMARK INTRA:                  -0.451
REMARK UNBOUND:                -0.204
REMARK SMILES [NH3+]CCCC[C@H]([NH3+])C(=O)[O-]
REMARK SMILES IDX 4 1 3 2 2 3 1 4 5 8 6 9 7 10 8 14 9 15 10 16
REMARK H PARENT 1 5 1 6 1 7 7 11 7 12 7 13
REMARK Flexibility Score: inf
ROOT
ATOM      1  C   UNL     1     134.133 134.218 132.014  1.00  0.00     0.012 C 
ENDROOT
BRANCH   1   2
ATOM      2  C   UNL     1     134.116 134.052 133.546  1.00  0.00     0.061 C 
BRANCH   2   3
ATOM      3  C   UNL     1     133.891 135.374 134.308  1.00  0.00     0.258 C 
BRANCH   3   4
ATOM      4  N   UNL     1     133.305 136.408 133.453  1.00  0.00    -0.358 N 
ATOM      5  H   UNL     1     132.381 136.716 133.833  1.00  0.00     0.344 HD
ATOM      6  H   UNL     1     133.949 137.233 133.431  1.00  0.00     0.344 HD
ATOM      7  H   UNL     1     133.190 136.057 132.476  1.00  0.00     0.344 HD
ENDBRANCH   3   4
ENDBRANCH   2   3
ENDBRANCH   1   2
BRANCH   1   8
ATOM      8  C   UNL     1     135.449 133.734 131.362  1.00  0.00     0.072 C 
BRANCH   8   9
ATOM      9  C   UNL     1     136.535 134.833 131.281  1.00  0.00     0.227 C 
BRANCH   9  10
ATOM     10  N   UNL     1     137.262 134.978 132.548  1.00  0.00    -0.350 N 
ATOM     11  H   UNL     1     137.534 135.975 132.708  1.00  0.00     0.345 HD
ATOM     12  H   UNL     1     136.667 134.647 133.342  1.00  0.00     0.345 HD
ATOM     13  H   UNL     1     138.125 134.387 132.533  1.00  0.00     0.345 HD
ENDBRANCH   9  10
BRANCH   9  14
ATOM     14  C   UNL     1     135.902 136.144 130.892  1.00  0.00     0.099 C 
ATOM     15  O   UNL     1     135.496 136.332 129.714  1.00  0.00    -0.544 OA
ATOM     16  O   UNL     1     135.784 137.163 131.828  1.00  0.00    -0.544 OA
ENDBRANCH   9  14
ENDBRANCH   8   9
ENDBRANCH   1   8
TORSDOF 7
ENDMDL
MODEL 5
REMARK VINA RESULT:    -3.979      2.690      3.085
REMARK INTER + INTRA:          -5.578
REMARK INTER:                  -5.109
REMARK INTRA:                  -0.469
REMARK UNBOUND:                -0.204
REMARK SMILES [NH3+]CCCC[C@H]([NH3+])C(=O)[O-]
REMARK SMILES IDX 4 1 3 2 2 3 1 4 5 8 6 9 7 10 8 14 9 15 10 16
REMARK H PARENT 1 5 1 6 1 7 7 11 7 12 7 13
REMARK Flexibility Score: inf
ROOT
ATOM      1  C   UNL     1     135.334 135.726 130.948  1.00  0.00     0.012 C 
ENDROOT
BRANCH   1   2
ATOM      2  C   UNL     1     135.946 137.134 131.074  1.00  0.00     0.061 C 
BRANCH   2   3
ATOM      3  C   UNL     1     137.045 137.236 132.152  1.00  0.00     0.258 C 
BRANCH   3   4
ATOM      4  N   UNL     1     136.591 137.975 133.331  1.00  0.00    -0.358 N 
ATOM      5  H   UNL     1     135.574 137.803 133.501  1.00  0.00     0.344 HD
ATOM      6  H   UNL     1     137.129 137.645 134.165  1.00  0.00     0.344 HD
ATOM      7  H   UNL     1     136.763 138.999 133.214  1.00  0.00     0.344 HD
ENDBRANCH   3   4
ENDBRANCH   2   3
ENDBRANCH   1   2
BRANCH   1   8
ATOM      8  C   UNL     1     134.181 135.470 131.945  1.00  0.00     0.072 C 
BRANCH   8   9
ATOM      9  C   UNL     1     134.548 134.466 133.063  1.00  0.00     0.227 C 
BRANCH   9  10
ATOM     10  N   UNL     1     133.566 133.378 133.165  1.00  0.00    -0.350 N 
ATOM     11  H   UNL     1     133.838 132.702 133.916  1.00  0.00     0.345 HD
ATOM     12  H   UNL     1     132.619 133.768 133.374  1.00  0.00     0.345 HD
ATOM     13  H   UNL     1     133.504 132.868 132.253  1.00  0.00     0.345 HD
ENDBRANCH   9  10
BRANCH   9  14
ATOM     14  C   UNL     1     134.658 135.190 134.380  1.00  0.00     0.099 C 
ATOM     15  O   UNL     1     133.631 135.660 134.938  1.00  0.00    -0.544 OA
ATOM     16  O   UNL     1     135.901 135.364 134.975  1.00  0.00    -0.544 OA
ENDBRANCH   9  14
ENDBRANCH   8   9
ENDBRANCH   1   8
TORSDOF 7
ENDMDL
MODEL 6
REMARK VINA RESULT:    -3.901      2.413      4.367
REMARK INTER + INTRA:          -5.474
REMARK INTER:                  -4.998
REMARK INTRA:                  -0.476
REMARK UNBOUND:                -0.204
REMARK SMILES [NH3+]CCCC[C@H]([NH3+])C(=O)[O-]
REMARK SMILES IDX 4 1 3 2 2 3 1 4 5 8 6 9 7 10 8 14 9 15 10 16
REMARK H PARENT 1 5 1 6 1 7 7 11 7 12 7 13
REMARK Flexibility Score: inf
ROOT
ATOM      1  C   UNL     1     135.084 133.844 131.417  1.00  0.00     0.012 C 
ENDROOT
BRANCH   1   2
ATOM      2  C   UNL     1     134.103 134.669 132.272  1.00  0.00     0.061 C 
BRANCH   2   3
ATOM      3  C   UNL     1     134.262 134.441 133.789  1.00  0.00     0.258 C 
BRANCH   3   4
ATOM      4  N   UNL     1     135.561 134.904 134.280  1.00  0.00    -0.358 N 
ATOM      5  H   UNL     1     135.522 135.924 134.509  1.00  0.00     0.344 HD
ATOM      6  H   UNL     1     135.802 134.376 135.151  1.00  0.00     0.344 HD
ATOM      7  H   UNL     1     136.309 134.726 133.573  1.00  0.00     0.344 HD
ENDBRANCH   3   4
ENDBRANCH   2   3
ENDBRANCH   1   2
BRANCH   1   8
ATOM      8  C   UNL     1     136.215 134.694 130.793  1.00  0.00     0.072 C 
BRANCH   8   9
ATOM      9  C   UNL     1     135.838 136.184 130.616  1.00  0.00     0.227 C 
BRANCH   9  10
ATOM     10  N   UNL     1     135.940 136.611 129.215  1.00  0.00    -0.350 N 
ATOM     11  H   UNL     1     135.195 136.161 128.634  1.00  0.00     0.345 HD
ATOM     12  H   UNL     1     135.851 137.651 129.150  1.00  0.00     0.345 HD
ATOM     13  H   UNL     1     136.877 136.350 128.830  1.00  0.00     0.345 HD
ENDBRANCH   9  10
BRANCH   9  14
ATOM     14  C   UNL     1     136.724 137.038 131.485  1.00  0.00     0.099 C 
ATOM     15  O   UNL     1     137.903 137.302 131.130  1.00  0.00    -0.544 OA
ATOM     16  O   UNL     1     136.249 137.523 132.697  1.00  0.00    -0.544 OA
ENDBRANCH   9  14
ENDBRANCH   8   9
ENDBRANCH   1   8
TORSDOF 7
ENDMDL
MODEL 7
REMARK VINA RESULT:    -3.833      1.608      1.829
REMARK INTER + INTRA:          -5.381
REMARK INTER:                  -5.314
REMARK INTRA:                  -0.068
REMARK UNBOUND:                -0.204
REMARK SMILES [NH3+]CCCC[C@H]([NH3+])C(=O)[O-]
REMARK SMILES IDX 4 1 3 2 2 3 1 4 5 8 6 9 7 10 8 14 9 15 10 16
REMARK H PARENT 1 5 1 6 1 7 7 11 7 12 7 13
REMARK Flexibility Score: inf
ROOT
ATOM      1  C   UNL     1     136.084 136.754 130.926  1.00  0.00     0.012 C 
ENDROOT
BRANCH   1   2
ATOM      2  C   UNL     1     137.552 136.897 130.482  1.00  0.00     0.061 C 
BRANCH   2   3
ATOM      3  C   UNL     1     137.768 136.660 128.973  1.00  0.00     0.258 C 
BRANCH   3   4
ATOM      4  N   UNL     1     136.501 136.507 128.255  1.00  0.00    -0.358 N 
ATOM      5  H   UNL     1     136.135 137.440 127.957  1.00  0.00     0.344 HD
ATOM      6  H   UNL     1     136.665 135.925 127.401  1.00  0.00     0.344 HD
ATOM      7  H   UNL     1     135.795 136.022 128.852  1.00  0.00     0.344 HD
ENDBRANCH   3   4
ENDBRANCH   2   3
ENDBRANCH   1   2
BRANCH   1   8
ATOM      8  C   UNL     1     135.925 136.520 132.446  1.00  0.00     0.072 C 
BRANCH   8   9
ATOM      9  C   UNL     1     135.775 135.028 132.825  1.00  0.00     0.227 C 
BRANCH   9  10
ATOM     10  N   UNL     1     135.882 134.151 131.651  1.00  0.00    -0.350 N 
ATOM     11  H   UNL     1     136.778 133.612 131.671  1.00  0.00     0.345 HD
ATOM     12  H   UNL     1     135.076 133.486 131.627  1.00  0.00     0.345 HD
ATOM     13  H   UNL     1     135.846 134.723 130.776  1.00  0.00     0.345 HD
ENDBRANCH   9  10
BRANCH   9  14
ATOM     14  C   UNL     1     134.455 134.810 133.517  1.00  0.00     0.099 C 
ATOM     15  O   UNL     1     133.928 135.735 134.191  1.00  0.00    -0.544 OA
ATOM     16  O   UNL     1     133.821 133.577 133.434  1.00  0.00    -0.544 OA
ENDBRANCH   9  14
ENDBRANCH   8   9
ENDBRANCH   1   8
TORSDOF 7
ENDMDL
MODEL 8
REMARK VINA RESULT:    -3.764      3.355      4.182
REMARK INTER + INTRA:          -5.288
REMARK INTER:                  -4.868
REMARK INTRA:                  -0.419
REMARK UNBOUND:                -0.204
REMARK SMILES [NH3+]CCCC[C@H]([NH3+])C(=O)[O-]
REMARK SMILES IDX 4 1 3 2 2 3 1 4 5 8 6 9 7 10 8 14 9 15 10 16
REMARK H PARENT 1 5 1 6 1 7 7 11 7 12 7 13
REMARK Flexibility Score: inf
ROOT
ATOM      1  C   UNL     1     136.364 135.160 132.438  1.00  0.00     0.012 C 
ENDROOT
BRANCH   1   2
ATOM      2  C   UNL     1     135.544 134.115 131.658  1.00  0.00     0.061 C 
BRANCH   2   3
ATOM      3  C   UNL     1     134.052 134.083 132.048  1.00  0.00     0.258 C 
BRANCH   3   4
ATOM      4  N   UNL     1     133.812 133.256 133.232  1.00  0.00    -0.358 N 
ATOM      5  H   UNL     1     133.470 133.845 134.025  1.00  0.00     0.344 HD
ATOM      6  H   UNL     1     133.078 132.545 133.005  1.00  0.00     0.344 HD
ATOM      7  H   UNL     1     134.682 132.751 133.512  1.00  0.00     0.344 HD
ENDBRANCH   3   4
ENDBRANCH   2   3
ENDBRANCH   1   2
BRANCH   1   8
ATOM      8  C   UNL     1     135.487 136.199 133.175  1.00  0.00     0.072 C 
BRANCH   8   9
ATOM      9  C   UNL     1     135.704 136.212 134.706  1.00  0.00     0.227 C 
BRANCH   9  10
ATOM     10  N   UNL     1     136.418 135.015 135.167  1.00  0.00    -0.350 N 
ATOM     11  H   UNL     1     137.451 135.126 135.041  1.00  0.00     0.345 HD
ATOM     12  H   UNL     1     136.208 134.839 136.176  1.00  0.00     0.345 HD
ATOM     13  H   UNL     1     136.096 134.178 134.628  1.00  0.00     0.345 HD
ENDBRANCH   9  10
BRANCH   9  14
ATOM     14  C   UNL     1     134.376 136.327 135.406  1.00  0.00     0.099 C 
ATOM     15  O   UNL     1     134.255 137.050 136.431  1.00  0.00    -0.544 OA
ATOM     16  O   UNL     1     133.279 135.616 134.936  1.00  0.00    -0.544 OA
ENDBRANCH   9  14
ENDBRANCH   8   9
ENDBRANCH   1   8
TORSDOF 7
ENDMDL
MODEL 9
REMARK VINA RESULT:    -3.712      2.288      3.470
REMARK INTER + INTRA:          -5.217
REMARK INTER:                  -4.744
REMARK INTRA:                  -0.473
REMARK UNBOUND:                -0.204
REMARK SMILES [NH3+]CCCC[C@H]([NH3+])C(=O)[O-]
REMARK SMILES IDX 4 1 3 2 2 3 1 4 5 8 6 9 7 10 8 14 9 15 10 16
REMARK H PARENT 1 5 1 6 1 7 7 11 7 12 7 13
REMARK Flexibility Score: inf
ROOT
ATOM      1  C   UNL     1     136.536 136.213 132.752  1.00  0.00     0.012 C 
ENDROOT
BRANCH   1   2
ATOM      2  C   UNL     1     136.628 137.164 133.960  1.00  0.00     0.061 C 
BRANCH   2   3
ATOM      3  C   UNL     1     136.184 136.519 135.289  1.00  0.00     0.258 C 
BRANCH   3   4
ATOM      4  N   UNL     1     136.263 135.058 135.245  1.00  0.00    -0.358 N 
ATOM      5  H   UNL     1     135.535 134.634 135.864  1.00  0.00     0.344 HD
ATOM      6  H   UNL     1     136.092 134.740 134.263  1.00  0.00     0.344 HD
ATOM      7  H   UNL     1     137.212 134.731 135.534  1.00  0.00     0.344 HD
ENDBRANCH   3   4
ENDBRANCH   2   3
ENDBRANCH   1   2
BRANCH   1   8
ATOM      8  C   UNL     1     135.411 136.590 131.761  1.00  0.00     0.072 C 
BRANCH   8   9
ATOM      9  C   UNL     1     134.101 135.799 131.988  1.00  0.00     0.227 C 
BRANCH   9  10
ATOM     10  N   UNL     1     133.295 136.376 133.072  1.00  0.00    -0.350 N 
ATOM     11  H   UNL     1     133.494 137.398 133.179  1.00  0.00     0.345 HD
ATOM     12  H   UNL     1     132.278 136.239 132.873  1.00  0.00     0.345 HD
ATOM     13  H   UNL     1     133.509 135.890 133.973  1.00  0.00     0.345 HD
ENDBRANCH   9  10
BRANCH   9  14
ATOM     14  C   UNL     1     134.424 134.359 132.292  1.00  0.00     0.099 C 
ATOM     15  O   UNL     1     134.119 133.858 133.406  1.00  0.00    -0.544 OA
ATOM     16  O   UNL     1     135.082 133.581 131.348  1.00  0.00    -0.544 OA
ENDBRANCH   9  14
ENDBRANCH   8   9
ENDBRANCH   1   8
TORSDOF 7
ENDMDL
