MODEL 1
REMARK VINA RESULT:    -1.867      0.000      0.000
REMARK INTER + INTRA:          -1.867
REMARK INTER:                  -1.867
REMARK INTRA:                   0.000
REMARK UNBOUND:                 0.000
REMARK SMILES CC(=O)[O-]
REMARK SMILES IDX 1 1 2 2 3 3 4 4
REMARK H PARENT
REMARK Flexibility Score: inf
ROOT
ATOM      1  C   UNL     1      -5.657   7.763  30.870  1.00  0.00     0.063 C 
ATOM      2  C   UNL     1      -4.657   7.544  31.954  1.00  0.00     0.038 C 
ATOM      3  O   UNL     1      -4.401   8.466  32.773  1.00  0.00    -0.550 OA
ATOM      4  O   UNL     1      -4.046   6.305  32.097  1.00  0.00    -0.550 OA
ENDROOT
TORSDOF 0
ENDMDL
MODEL 2
REMARK VINA RESULT:    -1.836      1.825      2.530
REMARK INTER + INTRA:          -1.836
REMARK INTER:                  -1.836
REMARK INTRA:                   0.000
REMARK UNBOUND:                 0.000
REMARK SMILES CC(=O)[O-]
REMARK SMILES IDX 1 1 2 2 3 3 4 4
REMARK H PARENT
REMARK Flexibility Score: inf
ROOT
ATOM      1  C   UNL     1      -4.289   7.397  32.009  1.00  0.00     0.063 C 
ATOM      2  C   UNL     1      -5.425   8.122  31.370  1.00  0.00     0.038 C 
ATOM      3  O   UNL     1      -5.794   7.816  30.205  1.00  0.00    -0.550 OA
ATOM      4  O   UNL     1      -6.112   9.099  32.077  1.00  0.00    -0.550 OA
ENDROOT
TORSDOF 0
ENDMDL
MODEL 3
REMARK VINA RESULT:    -1.815      1.442      1.764
REMARK INTER + INTRA:          -1.815
REMARK INTER:                  -1.815
REMARK INTRA:                   0.000
REMARK UNBOUND:                 0.000
REMARK SMILES CC(=O)[O-]
REMARK SMILES IDX 1 1 2 2 3 3 4 4
REMARK H PARENT
REMARK Flexibility Score: inf
ROOT
ATOM      1  C   UNL     1      -4.123   6.343  32.322  1.00  0.00     0.063 C 
ATOM      2  C   UNL     1      -4.654   7.705  32.025  1.00  0.00     0.038 C 
ATOM      3  O   UNL     1      -4.538   8.627  32.874  1.00  0.00    -0.550 OA
ATOM      4  O   UNL     1      -5.229   7.972  30.789  1.00  0.00    -0.550 OA
ENDROOT
TORSDOF 0
ENDMDL
MODEL 4
REMARK VINA RESULT:    -1.268     15.868     16.346
REMARK INTER + INTRA:          -1.268
REMARK INTER:                  -1.268
REMARK INTRA:                   0.000
REMARK UNBOUND:                 0.000
REMARK SMILES CC(=O)[O-]
REMARK SMILES IDX 1 1 2 2 3 3 4 4
REMARK H PARENT
REMARK Flexibility Score: inf
ROOT
ATOM      1  C   UNL     1       7.752  16.114  33.118  1.00  0.00     0.063 C 
ATOM      2  C   UNL     1       8.141  17.494  32.709  1.00  0.00     0.038 C 
ATOM      3  O   UNL     1       9.125  17.672  31.944  1.00  0.00    -0.550 OA
ATOM      4  O   UNL     1       7.384  18.582  33.125  1.00  0.00    -0.550 OA
ENDROOT
TORSDOF 0
ENDMDL
MODEL 5
REMARK VINA RESULT:    -1.094     15.888     16.311
REMARK INTER + INTRA:          -1.094
REMARK INTER:                  -1.094
REMARK INTRA:                   0.000
REMARK UNBOUND:                 0.000
REMARK SMILES CC(=O)[O-]
REMARK SMILES IDX 1 1 2 2 3 3 4 4
REMARK H PARENT
REMARK Flexibility Score: inf
ROOT
ATOM      1  C   UNL     1       7.456  18.651  33.102  1.00  0.00     0.063 C 
ATOM      2  C   UNL     1       8.188  17.417  32.697  1.00  0.00     0.038 C 
ATOM      3  O   UNL     1       9.239  17.503  32.009  1.00  0.00    -0.550 OA
ATOM      4  O   UNL     1       7.742  16.173  33.123  1.00  0.00    -0.550 OA
ENDROOT
TORSDOF 0
ENDMDL
MODEL 6
REMARK VINA RESULT:    -0.865     15.871     16.391
REMARK INTER + INTRA:          -0.865
REMARK INTER:                  -0.865
REMARK INTRA:                   0.000
REMARK UNBOUND:                 0.000
REMARK SMILES CC(=O)[O-]
REMARK SMILES IDX 1 1 2 2 3 3 4 4
REMARK H PARENT
REMARK Flexibility Score: inf
ROOT
ATOM      1  C   UNL     1       9.367  17.474  31.949  1.00  0.00     0.063 C 
ATOM      2  C   UNL     1       8.104  17.435  32.740  1.00  0.00     0.038 C 
ATOM      3  O   UNL     1       7.633  16.332  33.124  1.00  0.00    -0.550 OA
ATOM      4  O   UNL     1       7.473  18.619  33.102  1.00  0.00    -0.550 OA
ENDROOT
TORSDOF 0
ENDMDL
MODEL 7
REMARK VINA RESULT:    -0.426      8.607      9.115
REMARK INTER + INTRA:          -0.426
REMARK INTER:                  -0.426
REMARK INTRA:                   0.000
REMARK UNBOUND:                 0.000
REMARK SMILES CC(=O)[O-]
REMARK SMILES IDX 1 1 2 2 3 3 4 4
REMARK H PARENT
REMARK Flexibility Score: inf
ROOT
ATOM      1  C   UNL     1      -5.529   5.897  24.402  1.00  0.00     0.063 C 
ATOM      2  C   UNL     1      -4.765   5.905  23.121  1.00  0.00     0.038 C 
ATOM      3  O   UNL     1      -3.506   5.886  23.137  1.00  0.00    -0.550 OA
ATOM      4  O   UNL     1      -5.440   5.878  21.908  1.00  0.00    -0.550 OA
ENDROOT
TORSDOF 0
ENDMDL
MODEL 8
REMARK VINA RESULT:    -0.345     16.827     17.062
REMARK INTER + INTRA:          -0.345
REMARK INTER:                  -0.345
REMARK INTRA:                   0.000
REMARK UNBOUND:                 0.000
REMARK SMILES CC(=O)[O-]
REMARK SMILES IDX 1 1 2 2 3 3 4 4
REMARK H PARENT
REMARK Flexibility Score: inf
ROOT
ATOM      1  C   UNL     1       7.408  17.347  26.953  1.00  0.00     0.063 C 
ATOM      2  C   UNL     1       8.752  17.139  27.566  1.00  0.00     0.038 C 
ATOM      3  O   UNL     1       9.163  17.919  28.465  1.00  0.00    -0.550 OA
ATOM      4  O   UNL     1       9.530  16.054  27.185  1.00  0.00    -0.550 OA
ENDROOT
TORSDOF 0
ENDMDL
MODEL 9
REMARK VINA RESULT:     0.234     16.416     16.763
REMARK INTER + INTRA:           0.234
REMARK INTER:                   0.234
REMARK INTRA:                   0.000
REMARK UNBOUND:                 0.000
REMARK SMILES CC(=O)[O-]
REMARK SMILES IDX 1 1 2 2 3 3 4 4
REMARK H PARENT
REMARK Flexibility Score: inf
ROOT
ATOM      1  C   UNL     1       9.064  17.711  27.990  1.00  0.00     0.063 C 
ATOM      2  C   UNL     1       8.001  17.081  27.156  1.00  0.00     0.038 C 
ATOM      3  O   UNL     1       8.171  15.926  26.682  1.00  0.00    -0.550 OA
ATOM      4  O   UNL     1       6.799  17.743  26.945  1.00  0.00    -0.550 OA
ENDROOT
TORSDOF 0
ENDMDL
