MODEL 1
REMARK VINA RESULT:    -3.620      0.000      0.000
REMARK INTER + INTRA:          -4.411
REMARK INTER:                  -4.255
REMARK INTRA:                  -0.156
REMARK UNBOUND:                -0.156
REMARK SMILES O=C([O-])CCC(=O)[O-]
REMARK SMILES IDX 4 1 2 2 1 3 3 4 5 5 6 6 7 7 8 8
REMARK H PARENT
REMARK Flexibility Score: inf
ROOT
ATOM      1  C   UNL     1     108.515 104.974 129.919  1.00  0.00     0.059 C 
ENDROOT
BRANCH   1   2
ATOM      2  C   UNL     1     108.469 105.219 131.394  1.00  0.00     0.042 C 
ATOM      3  O   UNL     1     107.366 105.236 131.999  1.00  0.00    -0.550 OA
ATOM      4  O   UNL     1     109.650 105.379 132.109  1.00  0.00    -0.550 OA
ENDBRANCH   1   2
BRANCH   1   5
ATOM      5  C   UNL     1     109.440 103.797 129.601  1.00  0.00     0.059 C 
BRANCH   5   6
ATOM      6  C   UNL     1     108.951 102.552 130.270  1.00  0.00     0.042 C 
ATOM      7  O   UNL     1     107.864 102.027 129.915  1.00  0.00    -0.550 OA
ATOM      8  O   UNL     1     109.673 101.997 131.320  1.00  0.00    -0.550 OA
ENDBRANCH   5   6
ENDBRANCH   1   5
TORSDOF 3
ENDMDL
MODEL 2
REMARK VINA RESULT:    -3.575      1.804      2.756
REMARK INTER + INTRA:          -4.358
REMARK INTER:                  -4.181
REMARK INTRA:                  -0.177
REMARK UNBOUND:                -0.156
REMARK SMILES O=C([O-])CCC(=O)[O-]
REMARK SMILES IDX 4 1 2 2 1 3 3 4 5 5 6 6 7 7 8 8
REMARK H PARENT
REMARK Flexibility Score: inf
ROOT
ATOM      1  C   UNL     1     109.181 104.421 131.565  1.00  0.00     0.059 C 
ENDROOT
BRANCH   1   2
ATOM      2  C   UNL     1     108.440 103.167 131.907  1.00  0.00     0.042 C 
ATOM      3  O   UNL     1     109.060 102.080 132.041  1.00  0.00    -0.550 OA
ATOM      4  O   UNL     1     107.069 103.208 132.125  1.00  0.00    -0.550 OA
ENDBRANCH   1   2
BRANCH   1   5
ATOM      5  C   UNL     1     108.671 105.001 130.244  1.00  0.00     0.059 C 
BRANCH   5   6
ATOM      6  C   UNL     1     108.841 104.009 129.137  1.00  0.00     0.042 C 
ATOM      7  O   UNL     1     109.992 103.631 128.796  1.00  0.00    -0.550 OA
ATOM      8  O   UNL     1     107.729 103.539 128.449  1.00  0.00    -0.550 OA
ENDBRANCH   5   6
ENDBRANCH   1   5
TORSDOF 3
ENDMDL
MODEL 3
REMARK VINA RESULT:    -3.541      2.214      2.937
REMARK INTER + INTRA:          -4.317
REMARK INTER:                  -4.290
REMARK INTRA:                  -0.027
REMARK UNBOUND:                -0.156
REMARK SMILES O=C([O-])CCC(=O)[O-]
REMARK SMILES IDX 4 1 2 2 1 3 3 4 5 5 6 6 7 7 8 8
REMARK H PARENT
REMARK Flexibility Score: inf
ROOT
ATOM      1  C   UNL     1     107.875 102.876 129.833  1.00  0.00     0.059 C 
ENDROOT
BRANCH   1   2
ATOM      2  C   UNL     1     108.719 104.083 129.574  1.00  0.00     0.042 C 
ATOM      3  O   UNL     1     109.655 104.034 128.733  1.00  0.00    -0.550 OA
ATOM      4  O   UNL     1     108.442 105.278 130.225  1.00  0.00    -0.550 OA
ENDBRANCH   1   2
BRANCH   1   5
ATOM      5  C   UNL     1     107.786 102.598 131.335  1.00  0.00     0.059 C 
BRANCH   5   6
ATOM      6  C   UNL     1     107.039 101.326 131.588  1.00  0.00     0.042 C 
ATOM      7  O   UNL     1     107.657 100.233 131.668  1.00  0.00    -0.550 OA
ATOM      8  O   UNL     1     105.653 101.342 131.687  1.00  0.00    -0.550 OA
ENDBRANCH   5   6
ENDBRANCH   1   5
TORSDOF 3
ENDMDL
MODEL 4
REMARK VINA RESULT:    -3.330      1.329      1.862
REMARK INTER + INTRA:          -4.070
REMARK INTER:                  -3.890
REMARK INTRA:                  -0.179
REMARK UNBOUND:                -0.156
REMARK SMILES O=C([O-])CCC(=O)[O-]
REMARK SMILES IDX 4 1 2 2 1 3 3 4 5 5 6 6 7 7 8 8
REMARK H PARENT
REMARK Flexibility Score: inf
ROOT
ATOM      1  C   UNL     1     109.442 103.458 130.072  1.00  0.00     0.059 C 
ENDROOT
BRANCH   1   2
ATOM      2  C   UNL     1     109.261 104.552 131.077  1.00  0.00     0.042 C 
ATOM      3  O   UNL     1     110.078 104.682 132.026  1.00  0.00    -0.550 OA
ATOM      4  O   UNL     1     108.218 105.458 130.938  1.00  0.00    -0.550 OA
ENDBRANCH   1   2
BRANCH   1   5
ATOM      5  C   UNL     1     108.140 102.673 129.896  1.00  0.00     0.059 C 
BRANCH   5   6
ATOM      6  C   UNL     1     107.758 102.000 131.177  1.00  0.00     0.042 C 
ATOM      7  O   UNL     1     106.635 102.222 131.699  1.00  0.00    -0.550 OA
ATOM      8  O   UNL     1     108.663 101.165 131.820  1.00  0.00    -0.550 OA
ENDBRANCH   5   6
ENDBRANCH   1   5
TORSDOF 3
ENDMDL
MODEL 5
REMARK VINA RESULT:    -3.204     12.121     12.624
REMARK INTER + INTRA:          -3.922
REMARK INTER:                  -3.830
REMARK INTRA:                  -0.092
REMARK UNBOUND:                -0.156
REMARK SMILES O=C([O-])CCC(=O)[O-]
REMARK SMILES IDX 4 1 2 2 1 3 3 4 5 5 6 6 7 7 8 8
REMARK H PARENT
REMARK Flexibility Score: inf
ROOT
ATOM      1  C   UNL     1     111.792 111.574 122.442  1.00  0.00     0.059 C 
ENDROOT
BRANCH   1   2
ATOM      2  C   UNL     1     111.551 112.827 121.662  1.00  0.00     0.042 C 
ATOM      3  O   UNL     1     110.691 112.846 120.743  1.00  0.00    -0.550 OA
ATOM      4  O   UNL     1     112.243 113.989 121.981  1.00  0.00    -0.550 OA
ENDBRANCH   1   2
BRANCH   1   5
ATOM      5  C   UNL     1     112.263 110.450 121.517  1.00  0.00     0.059 C 
BRANCH   5   6
ATOM      6  C   UNL     1     113.725 110.193 121.708  1.00  0.00     0.042 C 
ATOM      7  O   UNL     1     114.245 109.134 121.269  1.00  0.00    -0.550 OA
ATOM      8  O   UNL     1     114.503 111.101 122.415  1.00  0.00    -0.550 OA
ENDBRANCH   5   6
ENDBRANCH   1   5
TORSDOF 3
ENDMDL
MODEL 6
REMARK VINA RESULT:    -3.181     12.114     12.652
REMARK INTER + INTRA:          -3.895
REMARK INTER:                  -3.798
REMARK INTRA:                  -0.097
REMARK UNBOUND:                -0.156
REMARK SMILES O=C([O-])CCC(=O)[O-]
REMARK SMILES IDX 4 1 2 2 1 3 3 4 5 5 6 6 7 7 8 8
REMARK H PARENT
REMARK Flexibility Score: inf
ROOT
ATOM      1  C   UNL     1     111.805 111.529 122.459  1.00  0.00     0.059 C 
ENDROOT
BRANCH   1   2
ATOM      2  C   UNL     1     111.581 112.786 121.681  1.00  0.00     0.042 C 
ATOM      3  O   UNL     1     112.234 113.827 121.955  1.00  0.00    -0.550 OA
ATOM      4  O   UNL     1     110.685 112.796 120.619  1.00  0.00    -0.550 OA
ENDBRANCH   1   2
BRANCH   1   5
ATOM      5  C   UNL     1     112.268 110.402 121.533  1.00  0.00     0.059 C 
BRANCH   5   6
ATOM      6  C   UNL     1     113.737 110.166 121.690  1.00  0.00     0.042 C 
ATOM      7  O   UNL     1     114.270 109.139 121.196  1.00  0.00    -0.550 OA
ATOM      8  O   UNL     1     114.509 111.058 122.424  1.00  0.00    -0.550 OA
ENDBRANCH   5   6
ENDBRANCH   1   5
TORSDOF 3
ENDMDL
MODEL 7
REMARK VINA RESULT:    -3.177     12.150     12.961
REMARK INTER + INTRA:          -3.890
REMARK INTER:                  -3.796
REMARK INTRA:                  -0.094
REMARK UNBOUND:                -0.156
REMARK SMILES O=C([O-])CCC(=O)[O-]
REMARK SMILES IDX 4 1 2 2 1 3 3 4 5 5 6 6 7 7 8 8
REMARK H PARENT
REMARK Flexibility Score: inf
ROOT
ATOM      1  C   UNL     1     112.263 110.455 121.490  1.00  0.00     0.059 C 
ENDROOT
BRANCH   1   2
ATOM      2  C   UNL     1     113.721 110.179 121.681  1.00  0.00     0.042 C 
ATOM      3  O   UNL     1     114.265 109.208 121.094  1.00  0.00    -0.550 OA
ATOM      4  O   UNL     1     114.490 111.024 122.471  1.00  0.00    -0.550 OA
ENDBRANCH   1   2
BRANCH   1   5
ATOM      5  C   UNL     1     111.801 111.566 122.434  1.00  0.00     0.059 C 
BRANCH   5   6
ATOM      6  C   UNL     1     111.582 112.838 121.677  1.00  0.00     0.042 C 
ATOM      7  O   UNL     1     110.838 112.851 120.662  1.00  0.00    -0.550 OA
ATOM      8  O   UNL     1     112.238 113.999 122.065  1.00  0.00    -0.550 OA
ENDBRANCH   5   6
ENDBRANCH   1   5
TORSDOF 3
ENDMDL
MODEL 8
REMARK VINA RESULT:    -3.004     12.206     12.712
REMARK INTER + INTRA:          -3.687
REMARK INTER:                  -3.593
REMARK INTRA:                  -0.093
REMARK UNBOUND:                -0.156
REMARK SMILES O=C([O-])CCC(=O)[O-]
REMARK SMILES IDX 4 1 2 2 1 3 3 4 5 5 6 6 7 7 8 8
REMARK H PARENT
REMARK Flexibility Score: inf
ROOT
ATOM      1  C   UNL     1     113.736 111.896 121.347  1.00  0.00     0.059 C 
ENDROOT
BRANCH   1   2
ATOM      2  C   UNL     1     112.499 112.401 122.021  1.00  0.00     0.042 C 
ATOM      3  O   UNL     1     111.738 111.603 122.628  1.00  0.00    -0.550 OA
ATOM      4  O   UNL     1     112.212 113.760 122.020  1.00  0.00    -0.550 OA
ENDBRANCH   1   2
BRANCH   1   5
ATOM      5  C   UNL     1     114.796 111.521 122.386  1.00  0.00     0.059 C 
BRANCH   5   6
ATOM      6  C   UNL     1     115.269 110.119 122.167  1.00  0.00     0.042 C 
ATOM      7  O   UNL     1     116.386 109.750 122.613  1.00  0.00    -0.550 OA
ATOM      8  O   UNL     1     114.496 109.232 121.427  1.00  0.00    -0.550 OA
ENDBRANCH   5   6
ENDBRANCH   1   5
TORSDOF 3
ENDMDL
MODEL 9
REMARK VINA RESULT:    -2.912     12.142     13.134
REMARK INTER + INTRA:          -3.578
REMARK INTER:                  -3.547
REMARK INTRA:                  -0.031
REMARK UNBOUND:                -0.156
REMARK SMILES O=C([O-])CCC(=O)[O-]
REMARK SMILES IDX 4 1 2 2 1 3 3 4 5 5 6 6 7 7 8 8
REMARK H PARENT
REMARK Flexibility Score: inf
ROOT
ATOM      1  C   UNL     1     119.325 112.495 129.943  1.00  0.00     0.059 C 
ENDROOT
BRANCH   1   2
ATOM      2  C   UNL     1     119.211 113.785 129.194  1.00  0.00     0.042 C 
ATOM      3  O   UNL     1     119.385 113.811 127.948  1.00  0.00    -0.550 OA
ATOM      4  O   UNL     1     118.864 114.950 129.865  1.00  0.00    -0.550 OA
ENDBRANCH   1   2
BRANCH   1   5
ATOM      5  C   UNL     1     117.943 112.012 130.390  1.00  0.00     0.059 C 
BRANCH   5   6
ATOM      6  C   UNL     1     118.034 110.638 130.976  1.00  0.00     0.042 C 
ATOM      7  O   UNL     1     117.196 110.260 131.836  1.00  0.00    -0.550 OA
ATOM      8  O   UNL     1     119.073 109.793 130.609  1.00  0.00    -0.550 OA
ENDBRANCH   5   6
ENDBRANCH   1   5
TORSDOF 3
ENDMDL
