MODEL 1
REMARK VINA RESULT:    -3.459      0.000      0.000
REMARK INTER + INTRA:          -4.173
REMARK INTER:                  -4.066
REMARK INTRA:                  -0.107
REMARK UNBOUND:                -0.107
REMARK SMILES CCCCC(=O)[O-]
REMARK SMILES IDX 4 1 5 2 6 3 7 4 3 5 2 6 1 7
REMARK H PARENT
REMARK Flexibility Score: inf
ROOT
ATOM      1  C   UNL     1      22.374  -7.580 -37.549  1.00  0.00     0.053 C 
ENDROOT
BRANCH   1   2
ATOM      2  C   UNL     1      22.557  -7.931 -38.992  1.00  0.00     0.041 C 
ATOM      3  O   UNL     1      21.741  -7.515 -39.855  1.00  0.00    -0.550 OA
ATOM      4  O   UNL     1      23.604  -8.760 -39.378  1.00  0.00    -0.550 OA
ENDBRANCH   1   2
BRANCH   1   5
ATOM      5  C   UNL     1      22.574  -6.074 -37.336  1.00  0.00     0.006 C 
BRANCH   5   6
ATOM      6  C   UNL     1      21.250  -5.330 -37.111  1.00  0.00    -0.003 C 
ATOM      7  C   UNL     1      20.876  -4.421 -38.281  1.00  0.00     0.004 C 
ENDBRANCH   5   6
ENDBRANCH   1   5
TORSDOF 3
ENDMDL
MODEL 2
REMARK VINA RESULT:    -3.450      0.134      1.229
REMARK INTER + INTRA:          -4.161
REMARK INTER:                  -4.051
REMARK INTRA:                  -0.110
REMARK UNBOUND:                -0.107
REMARK SMILES CCCCC(=O)[O-]
REMARK SMILES IDX 4 1 5 2 6 3 7 4 3 5 2 6 1 7
REMARK H PARENT
REMARK Flexibility Score: inf
ROOT
ATOM      1  C   UNL     1      22.383  -7.536 -37.457  1.00  0.00     0.053 C 
ENDROOT
BRANCH   1   2
ATOM      2  C   UNL     1      22.592  -7.887 -38.897  1.00  0.00     0.041 C 
ATOM      3  O   UNL     1      23.609  -8.540 -39.250  1.00  0.00    -0.550 OA
ATOM      4  O   UNL     1      21.688  -7.449 -39.857  1.00  0.00    -0.550 OA
ENDBRANCH   1   2
BRANCH   1   5
ATOM      5  C   UNL     1      22.598  -6.034 -37.236  1.00  0.00     0.006 C 
BRANCH   5   6
ATOM      6  C   UNL     1      21.279  -5.275 -37.024  1.00  0.00    -0.003 C 
ATOM      7  C   UNL     1      20.912  -4.383 -38.209  1.00  0.00     0.004 C 
ENDBRANCH   5   6
ENDBRANCH   1   5
TORSDOF 3
ENDMDL
MODEL 3
REMARK VINA RESULT:    -3.344      1.432      2.684
REMARK INTER + INTRA:          -4.037
REMARK INTER:                  -3.952
REMARK INTRA:                  -0.085
REMARK UNBOUND:                -0.107
REMARK SMILES CCCCC(=O)[O-]
REMARK SMILES IDX 4 1 5 2 6 3 7 4 3 5 2 6 1 7
REMARK H PARENT
REMARK Flexibility Score: inf
ROOT
ATOM      1  C   UNL     1      22.507  -7.873 -37.629  1.00  0.00     0.053 C 
ENDROOT
BRANCH   1   2
ATOM      2  C   UNL     1      22.596  -8.094 -39.106  1.00  0.00     0.041 C 
ATOM      3  O   UNL     1      23.508  -8.817 -39.586  1.00  0.00    -0.550 OA
ATOM      4  O   UNL     1      21.699  -7.462 -39.958  1.00  0.00    -0.550 OA
ENDBRANCH   1   2
BRANCH   1   5
ATOM      5  C   UNL     1      22.973  -6.457 -37.271  1.00  0.00     0.006 C 
BRANCH   5   6
ATOM      6  C   UNL     1      24.211  -6.455 -36.362  1.00  0.00    -0.003 C 
ATOM      7  C   UNL     1      25.474  -6.923 -37.083  1.00  0.00     0.004 C 
ENDBRANCH   5   6
ENDBRANCH   1   5
TORSDOF 3
ENDMDL
MODEL 4
REMARK VINA RESULT:    -3.323      9.429     11.340
REMARK INTER + INTRA:          -4.013
REMARK INTER:                  -3.996
REMARK INTRA:                  -0.017
REMARK UNBOUND:                -0.107
REMARK SMILES CCCCC(=O)[O-]
REMARK SMILES IDX 4 1 5 2 6 3 7 4 3 5 2 6 1 7
REMARK H PARENT
REMARK Flexibility Score: inf
ROOT
ATOM      1  C   UNL     1      24.257 -16.363 -41.753  1.00  0.00     0.053 C 
ENDROOT
BRANCH   1   2
ATOM      2  C   UNL     1      23.343 -15.751 -40.738  1.00  0.00     0.041 C 
ATOM      3  O   UNL     1      22.098 -15.753 -40.924  1.00  0.00    -0.550 OA
ATOM      4  O   UNL     1      23.870 -15.137 -39.609  1.00  0.00    -0.550 OA
ENDBRANCH   1   2
BRANCH   1   5
ATOM      5  C   UNL     1      25.005 -17.557 -41.147  1.00  0.00     0.006 C 
BRANCH   5   6
ATOM      6  C   UNL     1      25.194 -18.704 -42.151  1.00  0.00    -0.003 C 
ATOM      7  C   UNL     1      26.525 -18.625 -42.897  1.00  0.00     0.004 C 
ENDBRANCH   5   6
ENDBRANCH   1   5
TORSDOF 3
ENDMDL
MODEL 5
REMARK VINA RESULT:    -3.294      2.065      3.817
REMARK INTER + INTRA:          -3.979
REMARK INTER:                  -3.930
REMARK INTRA:                  -0.049
REMARK UNBOUND:                -0.107
REMARK SMILES CCCCC(=O)[O-]
REMARK SMILES IDX 4 1 5 2 6 3 7 4 3 5 2 6 1 7
REMARK H PARENT
REMARK Flexibility Score: inf
ROOT
ATOM      1  C   UNL     1      22.705  -7.173 -37.264  1.00  0.00     0.053 C 
ENDROOT
BRANCH   1   2
ATOM      2  C   UNL     1      21.878  -6.197 -38.042  1.00  0.00     0.041 C 
ATOM      3  O   UNL     1      21.963  -6.153 -39.297  1.00  0.00    -0.550 OA
ATOM      4  O   UNL     1      21.050  -5.303 -37.375  1.00  0.00    -0.550 OA
ENDBRANCH   1   2
BRANCH   1   5
ATOM      5  C   UNL     1      23.104  -8.360 -38.148  1.00  0.00     0.006 C 
BRANCH   5   6
ATOM      6  C   UNL     1      24.626  -8.497 -38.301  1.00  0.00    -0.003 C 
ATOM      7  C   UNL     1      25.025  -9.413 -39.457  1.00  0.00     0.004 C 
ENDBRANCH   5   6
ENDBRANCH   1   5
TORSDOF 3
ENDMDL
MODEL 6
REMARK VINA RESULT:    -3.258      2.462      3.633
REMARK INTER + INTRA:          -3.936
REMARK INTER:                  -3.828
REMARK INTRA:                  -0.108
REMARK UNBOUND:                -0.107
REMARK SMILES CCCCC(=O)[O-]
REMARK SMILES IDX 4 1 5 2 6 3 7 4 3 5 2 6 1 7
REMARK H PARENT
REMARK Flexibility Score: inf
ROOT
ATOM      1  C   UNL     1      23.037  -6.157 -36.914  1.00  0.00     0.053 C 
ENDROOT
BRANCH   1   2
ATOM      2  C   UNL     1      22.009  -5.076 -36.788  1.00  0.00     0.041 C 
ATOM      3  O   UNL     1      20.921  -5.160 -37.415  1.00  0.00    -0.550 OA
ATOM      4  O   UNL     1      22.273  -3.952 -36.016  1.00  0.00    -0.550 OA
ENDBRANCH   1   2
BRANCH   1   5
ATOM      5  C   UNL     1      22.364  -7.504 -37.202  1.00  0.00     0.006 C 
BRANCH   5   6
ATOM      6  C   UNL     1      22.814  -8.115 -38.537  1.00  0.00    -0.003 C 
ATOM      7  C   UNL     1      21.991  -7.613 -39.724  1.00  0.00     0.004 C 
ENDBRANCH   5   6
ENDBRANCH   1   5
TORSDOF 3
ENDMDL
MODEL 7
REMARK VINA RESULT:    -3.252      1.874      2.246
REMARK INTER + INTRA:          -3.929
REMARK INTER:                  -3.872
REMARK INTRA:                  -0.057
REMARK UNBOUND:                -0.107
REMARK SMILES CCCCC(=O)[O-]
REMARK SMILES IDX 4 1 5 2 6 3 7 4 3 5 2 6 1 7
REMARK H PARENT
REMARK Flexibility Score: inf
ROOT
ATOM      1  C   UNL     1      22.902  -8.301 -38.310  1.00  0.00     0.053 C 
ENDROOT
BRANCH   1   2
ATOM      2  C   UNL     1      24.384  -8.482 -38.208  1.00  0.00     0.041 C 
ATOM      3  O   UNL     1      24.932  -9.506 -38.691  1.00  0.00    -0.550 OA
ATOM      4  O   UNL     1      25.154  -7.541 -37.536  1.00  0.00    -0.550 OA
ENDBRANCH   1   2
BRANCH   1   5
ATOM      5  C   UNL     1      22.400  -7.369 -37.200  1.00  0.00     0.006 C 
BRANCH   5   6
ATOM      6  C   UNL     1      21.880  -6.030 -37.744  1.00  0.00    -0.003 C 
ATOM      7  C   UNL     1      21.986  -4.896 -36.726  1.00  0.00     0.004 C 
ENDBRANCH   5   6
ENDBRANCH   1   5
TORSDOF 3
ENDMDL
MODEL 8
REMARK VINA RESULT:    -3.194      9.883     11.267
REMARK INTER + INTRA:          -3.861
REMARK INTER:                  -3.816
REMARK INTRA:                  -0.045
REMARK UNBOUND:                -0.107
REMARK SMILES CCCCC(=O)[O-]
REMARK SMILES IDX 4 1 5 2 6 3 7 4 3 5 2 6 1 7
REMARK H PARENT
REMARK Flexibility Score: inf
ROOT
ATOM      1  C   UNL     1      24.986 -17.519 -41.445  1.00  0.00     0.053 C 
ENDROOT
BRANCH   1   2
ATOM      2  C   UNL     1      25.805 -18.042 -42.584  1.00  0.00     0.041 C 
ATOM      3  O   UNL     1      26.181 -19.243 -42.596  1.00  0.00    -0.550 OA
ATOM      4  O   UNL     1      26.195 -17.188 -43.608  1.00  0.00    -0.550 OA
ENDBRANCH   1   2
BRANCH   1   5
ATOM      5  C   UNL     1      23.994 -16.460 -41.942  1.00  0.00     0.006 C 
BRANCH   5   6
ATOM      6  C   UNL     1      24.065 -15.159 -41.130  1.00  0.00    -0.003 C 
ATOM      7  C   UNL     1      23.747 -15.368 -39.650  1.00  0.00     0.004 C 
ENDBRANCH   5   6
ENDBRANCH   1   5
TORSDOF 3
ENDMDL
MODEL 9
REMARK VINA RESULT:    -3.124      2.145      3.683
REMARK INTER + INTRA:          -3.779
REMARK INTER:                  -3.708
REMARK INTRA:                  -0.071
REMARK UNBOUND:                -0.107
REMARK SMILES CCCCC(=O)[O-]
REMARK SMILES IDX 4 1 5 2 6 3 7 4 3 5 2 6 1 7
REMARK H PARENT
REMARK Flexibility Score: inf
ROOT
ATOM      1  C   UNL     1      21.248  -5.209 -37.449  1.00  0.00     0.053 C 
ENDROOT
BRANCH   1   2
ATOM      2  C   UNL     1      21.379  -4.302 -38.633  1.00  0.00     0.041 C 
ATOM      3  O   UNL     1      21.675  -4.772 -39.762  1.00  0.00    -0.550 OA
ATOM      4  O   UNL     1      21.221  -2.930 -38.477  1.00  0.00    -0.550 OA
ENDBRANCH   1   2
BRANCH   1   5
ATOM      5  C   UNL     1      22.549  -5.991 -37.228  1.00  0.00     0.006 C 
BRANCH   5   6
ATOM      6  C   UNL     1      22.325  -7.510 -37.197  1.00  0.00    -0.003 C 
ATOM      7  C   UNL     1      23.065  -8.240 -38.317  1.00  0.00     0.004 C 
ENDBRANCH   5   6
ENDBRANCH   1   5
TORSDOF 3
ENDMDL
