MODEL 1
REMARK VINA RESULT:    -4.995      0.000      0.000
REMARK INTER + INTRA:         -17.995
REMARK INTER:                 -12.586
REMARK INTRA:                  -5.408
REMARK UNBOUND:                -5.408
REMARK SMILES CCCCCCCCCCCCCCCCCCCCCCCCCCCC(=O)[O-]
REMARK SMILES IDX 15 1 16 2 17 3 18 4 19 5 20 6 21 7 22 8 23 9 24 10 25 11
REMARK SMILES IDX 26 12 27 13 28 14 29 15 30 16 14 17 13 18 12 19 11 20 10 21
REMARK SMILES IDX 9 22 8 23 7 24 6 25 5 26 4 27 3 28 2 29 1 30
REMARK H PARENT
REMARK Flexibility Score: inf
ROOT
ATOM      1  C   UNL     1      80.076  12.838  17.423  1.00  0.00     0.000 C 
ENDROOT
BRANCH   1   2
ATOM      2  C   UNL     1      79.964  11.851  18.602  1.00  0.00     0.000 C 
BRANCH   2   3
ATOM      3  C   UNL     1      78.545  11.325  18.892  1.00  0.00     0.000 C 
BRANCH   3   4
ATOM      4  C   UNL     1      77.732  12.259  19.801  1.00  0.00     0.000 C 
BRANCH   4   5
ATOM      5  C   UNL     1      76.514  11.537  20.396  1.00  0.00     0.000 C 
BRANCH   5   6
ATOM      6  C   UNL     1      75.391  11.319  19.365  1.00  0.00     0.000 C 
BRANCH   6   7
ATOM      7  C   UNL     1      74.172  12.248  19.524  1.00  0.00     0.000 C 
BRANCH   7   8
ATOM      8  C   UNL     1      74.016  13.321  18.429  1.00  0.00     0.000 C 
BRANCH   8   9
ATOM      9  C   UNL     1      74.739  12.975  17.110  1.00  0.00     0.000 C 
BRANCH   9  10
ATOM     10  C   UNL     1      76.039  13.772  16.913  1.00  0.00     0.000 C 
BRANCH  10  11
ATOM     11  C   UNL     1      76.825  13.238  15.708  1.00  0.00     0.000 C 
BRANCH  11  12
ATOM     12  C   UNL     1      76.516  11.755  15.457  1.00  0.00     0.006 C 
BRANCH  12  13
ATOM     13  C   UNL     1      77.789  10.927  15.236  1.00  0.00     0.053 C 
BRANCH  13  14
ATOM     14  C   UNL     1      78.417  11.224  13.910  1.00  0.00     0.041 C 
ATOM     15  O   UNL     1      78.010  10.642  12.868  1.00  0.00    -0.550 OA
ATOM     16  O   UNL     1      79.498  12.093  13.830  1.00  0.00    -0.550 OA
ENDBRANCH  13  14
ENDBRANCH  12  13
ENDBRANCH  11  12
ENDBRANCH  10  11
ENDBRANCH   9  10
ENDBRANCH   8   9
ENDBRANCH   7   8
ENDBRANCH   6   7
ENDBRANCH   5   6
ENDBRANCH   4   5
ENDBRANCH   3   4
ENDBRANCH   2   3
ENDBRANCH   1   2
BRANCH   1  17
ATOM     17  C   UNL     1      81.418  13.591  17.390  1.00  0.00     0.000 C 
BRANCH  17  18
ATOM     18  C   UNL     1      82.298  13.301  18.620  1.00  0.00     0.000 C 
BRANCH  18  19
ATOM     19  C   UNL     1      82.442  14.470  19.612  1.00  0.00     0.000 C 
BRANCH  19  20
ATOM     20  C   UNL     1      81.727  14.213  20.950  1.00  0.00     0.000 C 
BRANCH  20  21
ATOM     21  C   UNL     1      80.244  14.640  20.906  1.00  0.00     0.000 C 
BRANCH  21  22
ATOM     22  C   UNL     1      80.009  15.997  20.219  1.00  0.00    -0.000 C 
BRANCH  22  23
ATOM     23  C   UNL     1      78.969  15.923  19.088  1.00  0.00    -0.000 C 
BRANCH  23  24
ATOM     24  C   UNL     1      79.396  16.716  17.833  1.00  0.00    -0.000 C 
BRANCH  24  25
ATOM     25  C   UNL     1      78.703  16.256  16.536  1.00  0.00    -0.000 C 
BRANCH  25  26
ATOM     26  C   UNL     1      78.582  17.333  15.445  1.00  0.00    -0.000 C 
BRANCH  26  27
ATOM     27  C   UNL     1      77.175  17.946  15.364  1.00  0.00    -0.000 C 
BRANCH  27  28
ATOM     28  C   UNL     1      76.311  17.506  16.552  1.00  0.00    -0.000 C 
BRANCH  28  29
ATOM     29  C   UNL     1      74.829  17.458  16.165  1.00  0.00    -0.003 C 
ATOM     30  C   UNL     1      74.585  16.456  15.040  1.00  0.00     0.004 C 
ENDBRANCH  28  29
ENDBRANCH  27  28
ENDBRANCH  26  27
ENDBRANCH  25  26
ENDBRANCH  24  25
ENDBRANCH  23  24
ENDBRANCH  22  23
ENDBRANCH  21  22
ENDBRANCH  20  21
ENDBRANCH  19  20
ENDBRANCH  18  19
ENDBRANCH  17  18
ENDBRANCH   1  17
TORSDOF 26
ENDMDL
MODEL 2
REMARK VINA RESULT:    -4.936      1.630      6.190
REMARK INTER + INTRA:         -17.846
REMARK INTER:                 -13.046
REMARK INTRA:                  -4.800
REMARK UNBOUND:                -5.408
REMARK SMILES CCCCCCCCCCCCCCCCCCCCCCCCCCCC(=O)[O-]
REMARK SMILES IDX 15 1 16 2 17 3 18 4 19 5 20 6 21 7 22 8 23 9 24 10 25 11
REMARK SMILES IDX 26 12 27 13 28 14 29 15 30 16 14 17 13 18 12 19 11 20 10 21
REMARK SMILES IDX 9 22 8 23 7 24 6 25 5 26 4 27 3 28 2 29 1 30
REMARK H PARENT
REMARK Flexibility Score: inf
ROOT
ATOM      1  C   UNL     1      75.114  13.714  16.125  1.00  0.00     0.000 C 
ENDROOT
BRANCH   1   2
ATOM      2  C   UNL     1      75.708  14.911  15.358  1.00  0.00     0.000 C 
BRANCH   2   3
ATOM      3  C   UNL     1      74.782  16.136  15.226  1.00  0.00     0.000 C 
BRANCH   3   4
ATOM      4  C   UNL     1      75.545  17.469  15.234  1.00  0.00     0.000 C 
BRANCH   4   5
ATOM      5  C   UNL     1      76.732  17.426  16.208  1.00  0.00     0.000 C 
BRANCH   5   6
ATOM      6  C   UNL     1      77.389  18.806  16.404  1.00  0.00     0.000 C 
BRANCH   6   7
ATOM      7  C   UNL     1      78.838  18.915  15.889  1.00  0.00     0.000 C 
BRANCH   7   8
ATOM      8  C   UNL     1      78.991  18.915  14.355  1.00  0.00     0.000 C 
BRANCH   8   9
ATOM      9  C   UNL     1      79.257  17.518  13.756  1.00  0.00     0.000 C 
BRANCH   9  10
ATOM     10  C   UNL     1      79.968  16.571  14.738  1.00  0.00     0.000 C 
BRANCH  10  11
ATOM     11  C   UNL     1      79.332  15.174  14.700  1.00  0.00     0.000 C 
BRANCH  11  12
ATOM     12  C   UNL     1      79.133  14.695  13.255  1.00  0.00     0.006 C 
BRANCH  12  13
ATOM     13  C   UNL     1      78.615  13.251  13.190  1.00  0.00     0.053 C 
BRANCH  13  14
ATOM     14  C   UNL     1      78.629  12.722  11.789  1.00  0.00     0.041 C 
ATOM     15  O   UNL     1      78.772  13.507  10.814  1.00  0.00    -0.550 OA
ATOM     16  O   UNL     1      78.415  11.370  11.554  1.00  0.00    -0.550 OA
ENDBRANCH  13  14
ENDBRANCH  12  13
ENDBRANCH  11  12
ENDBRANCH  10  11
ENDBRANCH   9  10
ENDBRANCH   8   9
ENDBRANCH   7   8
ENDBRANCH   6   7
ENDBRANCH   5   6
ENDBRANCH   4   5
ENDBRANCH   3   4
ENDBRANCH   2   3
ENDBRANCH   1   2
BRANCH   1  17
ATOM     17  C   UNL     1      74.655  14.074  17.549  1.00  0.00     0.000 C 
BRANCH  17  18
ATOM     18  C   UNL     1      73.620  13.083  18.115  1.00  0.00     0.000 C 
BRANCH  18  19
ATOM     19  C   UNL     1      74.063  12.324  19.378  1.00  0.00     0.000 C 
BRANCH  19  20
ATOM     20  C   UNL     1      75.402  11.587  19.197  1.00  0.00     0.000 C 
BRANCH  20  21
ATOM     21  C   UNL     1      76.363  11.829  20.381  1.00  0.00     0.000 C 
BRANCH  21  22
ATOM     22  C   UNL     1      77.759  12.319  19.956  1.00  0.00    -0.000 C 
BRANCH  22  23
ATOM     23  C   UNL     1      77.941  12.357  18.429  1.00  0.00    -0.000 C 
BRANCH  23  24
ATOM     24  C   UNL     1      78.447  13.726  17.924  1.00  0.00    -0.000 C 
BRANCH  24  25
ATOM     25  C   UNL     1      77.848  14.931  18.675  1.00  0.00    -0.000 C 
BRANCH  25  26
ATOM     26  C   UNL     1      78.858  16.024  19.062  1.00  0.00    -0.000 C 
BRANCH  26  27
ATOM     27  C   UNL     1      80.246  15.801  18.443  1.00  0.00    -0.000 C 
BRANCH  27  28
ATOM     28  C   UNL     1      81.331  15.741  19.526  1.00  0.00    -0.000 C 
BRANCH  28  29
ATOM     29  C   UNL     1      80.913  14.811  20.671  1.00  0.00    -0.003 C 
ATOM     30  C   UNL     1      82.085  13.953  21.140  1.00  0.00     0.004 C 
ENDBRANCH  28  29
ENDBRANCH  27  28
ENDBRANCH  26  27
ENDBRANCH  25  26
ENDBRANCH  24  25
ENDBRANCH  23  24
ENDBRANCH  22  23
ENDBRANCH  21  22
ENDBRANCH  20  21
ENDBRANCH  19  20
ENDBRANCH  18  19
ENDBRANCH  17  18
ENDBRANCH   1  17
TORSDOF 26
ENDMDL
MODEL 3
REMARK VINA RESULT:    -4.855      1.610      5.098
REMARK INTER + INTRA:         -17.642
REMARK INTER:                 -12.632
REMARK INTRA:                  -5.010
REMARK UNBOUND:                -5.408
REMARK SMILES CCCCCCCCCCCCCCCCCCCCCCCCCCCC(=O)[O-]
REMARK SMILES IDX 15 1 16 2 17 3 18 4 19 5 20 6 21 7 22 8 23 9 24 10 25 11
REMARK SMILES IDX 26 12 27 13 28 14 29 15 30 16 14 17 13 18 12 19 11 20 10 21
REMARK SMILES IDX 9 22 8 23 7 24 6 25 5 26 4 27 3 28 2 29 1 30
REMARK H PARENT
REMARK Flexibility Score: inf
ROOT
ATOM      1  C   UNL     1      75.872  14.643  17.243  1.00  0.00     0.000 C 
ENDROOT
BRANCH   1   2
ATOM      2  C   UNL     1      75.179  14.269  18.568  1.00  0.00     0.000 C 
BRANCH   2   3
ATOM      3  C   UNL     1      74.031  13.247  18.449  1.00  0.00     0.000 C 
BRANCH   3   4
ATOM      4  C   UNL     1      74.375  11.883  19.065  1.00  0.00     0.000 C 
BRANCH   4   5
ATOM      5  C   UNL     1      75.551  11.996  20.047  1.00  0.00     0.000 C 
BRANCH   5   6
ATOM      6  C   UNL     1      76.652  10.953  19.776  1.00  0.00     0.000 C 
BRANCH   6   7
ATOM      7  C   UNL     1      76.392  10.030  18.570  1.00  0.00     0.000 C 
BRANCH   7   8
ATOM      8  C   UNL     1      77.355  10.215  17.381  1.00  0.00     0.000 C 
BRANCH   8   9
ATOM      9  C   UNL     1      76.927  11.324  16.398  1.00  0.00     0.000 C 
BRANCH   9  10
ATOM     10  C   UNL     1      77.982  11.603  15.315  1.00  0.00     0.000 C 
BRANCH  10  11
ATOM     11  C   UNL     1      77.674  12.918  14.585  1.00  0.00     0.000 C 
BRANCH  11  12
ATOM     12  C   UNL     1      78.795  13.282  13.601  1.00  0.00     0.006 C 
BRANCH  12  13
ATOM     13  C   UNL     1      78.720  12.457  12.308  1.00  0.00     0.053 C 
BRANCH  13  14
ATOM     14  C   UNL     1      78.916  13.314  11.095  1.00  0.00     0.041 C 
ATOM     15  O   UNL     1      78.497  12.929   9.971  1.00  0.00    -0.550 OA
ATOM     16  O   UNL     1      79.621  14.506  11.191  1.00  0.00    -0.550 OA
ENDBRANCH  13  14
ENDBRANCH  12  13
ENDBRANCH  11  12
ENDBRANCH  10  11
ENDBRANCH   9  10
ENDBRANCH   8   9
ENDBRANCH   7   8
ENDBRANCH   6   7
ENDBRANCH   5   6
ENDBRANCH   4   5
ENDBRANCH   3   4
ENDBRANCH   2   3
ENDBRANCH   1   2
BRANCH   1  17
ATOM     17  C   UNL     1      74.909  14.670  16.043  1.00  0.00     0.000 C 
BRANCH  17  18
ATOM     18  C   UNL     1      74.452  16.094  15.673  1.00  0.00     0.000 C 
BRANCH  18  19
ATOM     19  C   UNL     1      75.338  17.228  16.219  1.00  0.00     0.000 C 
BRANCH  19  20
ATOM     20  C   UNL     1      76.089  17.989  15.112  1.00  0.00     0.000 C 
BRANCH  20  21
ATOM     21  C   UNL     1      77.593  18.139  15.429  1.00  0.00     0.000 C 
BRANCH  21  22
ATOM     22  C   UNL     1      78.446  16.944  14.969  1.00  0.00    -0.000 C 
BRANCH  22  23
ATOM     23  C   UNL     1      78.935  16.072  16.138  1.00  0.00    -0.000 C 
BRANCH  23  24
ATOM     24  C   UNL     1      79.364  16.906  17.365  1.00  0.00    -0.000 C 
BRANCH  24  25
ATOM     25  C   UNL     1      78.835  16.364  18.707  1.00  0.00    -0.000 C 
BRANCH  25  26
ATOM     26  C   UNL     1      79.900  16.177  19.799  1.00  0.00    -0.000 C 
BRANCH  26  27
ATOM     27  C   UNL     1      79.950  14.743  20.347  1.00  0.00    -0.000 C 
BRANCH  27  28
ATOM     28  C   UNL     1      78.916  13.849  19.650  1.00  0.00    -0.000 C 
BRANCH  28  29
ATOM     29  C   UNL     1      79.522  13.161  18.422  1.00  0.00    -0.003 C 
ATOM     30  C   UNL     1      80.291  11.904  18.819  1.00  0.00     0.004 C 
ENDBRANCH  28  29
ENDBRANCH  27  28
ENDBRANCH  26  27
ENDBRANCH  25  26
ENDBRANCH  24  25
ENDBRANCH  23  24
ENDBRANCH  22  23
ENDBRANCH  21  22
ENDBRANCH  20  21
ENDBRANCH  19  20
ENDBRANCH  18  19
ENDBRANCH  17  18
ENDBRANCH   1  17
TORSDOF 26
ENDMDL
MODEL 4
REMARK VINA RESULT:    -4.850      1.529      6.041
REMARK INTER + INTRA:         -17.631
REMARK INTER:                 -12.438
REMARK INTRA:                  -5.194
REMARK UNBOUND:                -5.408
REMARK SMILES CCCCCCCCCCCCCCCCCCCCCCCCCCCC(=O)[O-]
REMARK SMILES IDX 15 1 16 2 17 3 18 4 19 5 20 6 21 7 22 8 23 9 24 10 25 11
REMARK SMILES IDX 26 12 27 13 28 14 29 15 30 16 14 17 13 18 12 19 11 20 10 21
REMARK SMILES IDX 9 22 8 23 7 24 6 25 5 26 4 27 3 28 2 29 1 30
REMARK H PARENT
REMARK Flexibility Score: inf
ROOT
ATOM      1  C   UNL     1      75.531  14.100  15.783  1.00  0.00     0.000 C 
ENDROOT
BRANCH   1   2
ATOM      2  C   UNL     1      75.418  15.346  14.884  1.00  0.00     0.000 C 
BRANCH   2   3
ATOM      3  C   UNL     1      74.454  16.439  15.386  1.00  0.00     0.000 C 
BRANCH   3   4
ATOM      4  C   UNL     1      75.177  17.609  16.069  1.00  0.00     0.000 C 
BRANCH   4   5
ATOM      5  C   UNL     1      76.483  17.960  15.341  1.00  0.00     0.000 C 
BRANCH   5   6
ATOM      6  C   UNL     1      77.700  17.988  16.284  1.00  0.00     0.000 C 
BRANCH   6   7
ATOM      7  C   UNL     1      78.855  17.050  15.884  1.00  0.00     0.000 C 
BRANCH   7   8
ATOM      8  C   UNL     1      78.820  16.549  14.427  1.00  0.00     0.000 C 
BRANCH   8   9
ATOM      9  C   UNL     1      79.711  15.316  14.169  1.00  0.00     0.000 C 
BRANCH   9  10
ATOM     10  C   UNL     1      79.569  14.239  15.257  1.00  0.00     0.000 C 
BRANCH  10  11
ATOM     11  C   UNL     1      79.653  12.834  14.643  1.00  0.00     0.000 C 
BRANCH  11  12
ATOM     12  C   UNL     1      78.359  12.477  13.897  1.00  0.00     0.006 C 
BRANCH  12  13
ATOM     13  C   UNL     1      78.586  11.399  12.828  1.00  0.00     0.053 C 
BRANCH  13  14
ATOM     14  C   UNL     1      78.655  11.990  11.454  1.00  0.00     0.041 C 
ATOM     15  O   UNL     1      78.852  11.252  10.453  1.00  0.00    -0.550 OA
ATOM     16  O   UNL     1      78.572  13.367  11.284  1.00  0.00    -0.550 OA
ENDBRANCH  13  14
ENDBRANCH  12  13
ENDBRANCH  11  12
ENDBRANCH  10  11
ENDBRANCH   9  10
ENDBRANCH   8   9
ENDBRANCH   7   8
ENDBRANCH   6   7
ENDBRANCH   5   6
ENDBRANCH   4   5
ENDBRANCH   3   4
ENDBRANCH   2   3
ENDBRANCH   1   2
BRANCH   1  17
ATOM     17  C   UNL     1      76.431  14.321  17.012  1.00  0.00     0.000 C 
BRANCH  17  18
ATOM     18  C   UNL     1      75.642  14.358  18.335  1.00  0.00     0.000 C 
BRANCH  18  19
ATOM     19  C   UNL     1      74.288  13.627  18.310  1.00  0.00     0.000 C 
BRANCH  19  20
ATOM     20  C   UNL     1      74.398  12.146  18.715  1.00  0.00     0.000 C 
BRANCH  20  21
ATOM     21  C   UNL     1      75.073  11.970  20.093  1.00  0.00     0.000 C 
BRANCH  21  22
ATOM     22  C   UNL     1      76.419  11.226  20.033  1.00  0.00    -0.000 C 
BRANCH  22  23
ATOM     23  C   UNL     1      76.641  10.496  18.697  1.00  0.00    -0.000 C 
BRANCH  23  24
ATOM     24  C   UNL     1      77.821  11.079  17.889  1.00  0.00    -0.000 C 
BRANCH  24  25
ATOM     25  C   UNL     1      79.069  11.388  18.739  1.00  0.00    -0.000 C 
BRANCH  25  26
ATOM     26  C   UNL     1      79.521  12.858  18.721  1.00  0.00    -0.000 C 
BRANCH  26  27
ATOM     27  C   UNL     1      79.063  13.639  19.962  1.00  0.00    -0.000 C 
BRANCH  27  28
ATOM     28  C   UNL     1      80.247  14.336  20.644  1.00  0.00    -0.000 C 
BRANCH  28  29
ATOM     29  C   UNL     1      80.748  15.516  19.804  1.00  0.00    -0.003 C 
ATOM     30  C   UNL     1      79.624  16.509  19.522  1.00  0.00     0.004 C 
ENDBRANCH  28  29
ENDBRANCH  27  28
ENDBRANCH  26  27
ENDBRANCH  25  26
ENDBRANCH  24  25
ENDBRANCH  23  24
ENDBRANCH  22  23
ENDBRANCH  21  22
ENDBRANCH  20  21
ENDBRANCH  19  20
ENDBRANCH  18  19
ENDBRANCH  17  18
ENDBRANCH   1  17
TORSDOF 26
ENDMDL
MODEL 5
REMARK VINA RESULT:    -4.847      1.299      5.148
REMARK INTER + INTRA:         -17.622
REMARK INTER:                 -12.711
REMARK INTRA:                  -4.911
REMARK UNBOUND:                -5.408
REMARK SMILES CCCCCCCCCCCCCCCCCCCCCCCCCCCC(=O)[O-]
REMARK SMILES IDX 15 1 16 2 17 3 18 4 19 5 20 6 21 7 22 8 23 9 24 10 25 11
REMARK SMILES IDX 26 12 27 13 28 14 29 15 30 16 14 17 13 18 12 19 11 20 10 21
REMARK SMILES IDX 9 22 8 23 7 24 6 25 5 26 4 27 3 28 2 29 1 30
REMARK H PARENT
REMARK Flexibility Score: inf
ROOT
ATOM      1  C   UNL     1      75.472  15.292  14.884  1.00  0.00     0.000 C 
ENDROOT
BRANCH   1   2
ATOM      2  C   UNL     1      75.276  13.901  15.516  1.00  0.00     0.000 C 
BRANCH   2   3
ATOM      3  C   UNL     1      75.124  13.886  17.050  1.00  0.00     0.000 C 
BRANCH   3   4
ATOM      4  C   UNL     1      74.128  12.827  17.545  1.00  0.00     0.000 C 
BRANCH   4   5
ATOM      5  C   UNL     1      73.977  12.874  19.072  1.00  0.00     0.000 C 
BRANCH   5   6
ATOM      6  C   UNL     1      74.721  11.724  19.778  1.00  0.00     0.000 C 
BRANCH   6   7
ATOM      7  C   UNL     1      76.132  12.076  20.285  1.00  0.00     0.000 C 
BRANCH   7   8
ATOM      8  C   UNL     1      77.278  11.255  19.660  1.00  0.00     0.000 C 
BRANCH   8   9
ATOM      9  C   UNL     1      76.849   9.853  19.180  1.00  0.00     0.000 C 
BRANCH   9  10
ATOM     10  C   UNL     1      77.118   9.625  17.683  1.00  0.00     0.000 C 
BRANCH  10  11
ATOM     11  C   UNL     1      77.449  10.951  16.985  1.00  0.00     0.000 C 
BRANCH  11  12
ATOM     12  C   UNL     1      78.275  10.716  15.712  1.00  0.00     0.006 C 
BRANCH  12  13
ATOM     13  C   UNL     1      77.676  11.431  14.493  1.00  0.00     0.053 C 
BRANCH  13  14
ATOM     14  C   UNL     1      78.738  12.053  13.640  1.00  0.00     0.041 C 
ATOM     15  O   UNL     1      79.851  12.368  14.139  1.00  0.00    -0.550 OA
ATOM     16  O   UNL     1      78.476  12.350  12.308  1.00  0.00    -0.550 OA
ENDBRANCH  13  14
ENDBRANCH  12  13
ENDBRANCH  11  12
ENDBRANCH  10  11
ENDBRANCH   9  10
ENDBRANCH   8   9
ENDBRANCH   7   8
ENDBRANCH   6   7
ENDBRANCH   5   6
ENDBRANCH   4   5
ENDBRANCH   3   4
ENDBRANCH   2   3
ENDBRANCH   1   2
BRANCH   1  17
ATOM     17  C   UNL     1      74.692  16.402  15.612  1.00  0.00     0.000 C 
BRANCH  17  18
ATOM     18  C   UNL     1      75.572  17.612  15.979  1.00  0.00     0.000 C 
BRANCH  18  19
ATOM     19  C   UNL     1      76.676  17.952  14.961  1.00  0.00     0.000 C 
BRANCH  19  20
ATOM     20  C   UNL     1      77.768  18.866  15.543  1.00  0.00     0.000 C 
BRANCH  20  21
ATOM     21  C   UNL     1      79.022  18.072  15.970  1.00  0.00     0.000 C 
BRANCH  21  22
ATOM     22  C   UNL     1      79.208  16.749  15.206  1.00  0.00    -0.000 C 
BRANCH  22  23
ATOM     23  C   UNL     1      79.766  15.620  16.090  1.00  0.00    -0.000 C 
BRANCH  23  24
ATOM     24  C   UNL     1      78.674  14.633  16.557  1.00  0.00    -0.000 C 
BRANCH  24  25
ATOM     25  C   UNL     1      78.750  14.278  18.054  1.00  0.00    -0.000 C 
BRANCH  25  26
ATOM     26  C   UNL     1      78.464  15.444  19.015  1.00  0.00    -0.000 C 
BRANCH  26  27
ATOM     27  C   UNL     1      79.655  15.772  19.928  1.00  0.00    -0.000 C 
BRANCH  27  28
ATOM     28  C   UNL     1      80.016  14.576  20.817  1.00  0.00    -0.000 C 
BRANCH  28  29
ATOM     29  C   UNL     1      81.523  14.295  20.776  1.00  0.00    -0.003 C 
ATOM     30  C   UNL     1      82.178  14.981  19.580  1.00  0.00     0.004 C 
ENDBRANCH  28  29
ENDBRANCH  27  28
ENDBRANCH  26  27
ENDBRANCH  25  26
ENDBRANCH  24  25
ENDBRANCH  23  24
ENDBRANCH  22  23
ENDBRANCH  21  22
ENDBRANCH  20  21
ENDBRANCH  19  20
ENDBRANCH  18  19
ENDBRANCH  17  18
ENDBRANCH   1  17
TORSDOF 26
ENDMDL
MODEL 6
REMARK VINA RESULT:    -4.838      1.596      5.819
REMARK INTER + INTRA:         -17.600
REMARK INTER:                 -12.609
REMARK INTRA:                  -4.990
REMARK UNBOUND:                -5.408
REMARK SMILES CCCCCCCCCCCCCCCCCCCCCCCCCCCC(=O)[O-]
REMARK SMILES IDX 15 1 16 2 17 3 18 4 19 5 20 6 21 7 22 8 23 9 24 10 25 11
REMARK SMILES IDX 26 12 27 13 28 14 29 15 30 16 14 17 13 18 12 19 11 20 10 21
REMARK SMILES IDX 9 22 8 23 7 24 6 25 5 26 4 27 3 28 2 29 1 30
REMARK H PARENT
REMARK Flexibility Score: inf
ROOT
ATOM      1  C   UNL     1      74.362  13.817  18.756  1.00  0.00     0.000 C 
ENDROOT
BRANCH   1   2
ATOM      2  C   UNL     1      75.019  14.694  17.673  1.00  0.00     0.000 C 
BRANCH   2   3
ATOM      3  C   UNL     1      75.201  14.021  16.298  1.00  0.00     0.000 C 
BRANCH   3   4
ATOM      4  C   UNL     1      75.427  15.030  15.161  1.00  0.00     0.000 C 
BRANCH   4   5
ATOM      5  C   UNL     1      74.617  16.315  15.388  1.00  0.00     0.000 C 
BRANCH   5   6
ATOM      6  C   UNL     1      75.465  17.589  15.215  1.00  0.00     0.000 C 
BRANCH   6   7
ATOM      7  C   UNL     1      76.466  17.864  16.354  1.00  0.00     0.000 C 
BRANCH   7   8
ATOM      8  C   UNL     1      77.777  18.552  15.925  1.00  0.00     0.000 C 
BRANCH   8   9
ATOM      9  C   UNL     1      77.982  18.603  14.396  1.00  0.00     0.000 C 
BRANCH   9  10
ATOM     10  C   UNL     1      79.294  17.939  13.946  1.00  0.00     0.000 C 
BRANCH  10  11
ATOM     11  C   UNL     1      79.830  17.003  15.039  1.00  0.00     0.000 C 
BRANCH  11  12
ATOM     12  C   UNL     1      80.080  15.593  14.487  1.00  0.00     0.006 C 
BRANCH  12  13
ATOM     13  C   UNL     1      78.772  14.850  14.181  1.00  0.00     0.053 C 
BRANCH  13  14
ATOM     14  C   UNL     1      78.972  13.779  13.154  1.00  0.00     0.041 C 
ATOM     15  O   UNL     1      79.642  14.014  12.113  1.00  0.00    -0.550 OA
ATOM     16  O   UNL     1      78.361  12.541  13.310  1.00  0.00    -0.550 OA
ENDBRANCH  13  14
ENDBRANCH  12  13
ENDBRANCH  11  12
ENDBRANCH  10  11
ENDBRANCH   9  10
ENDBRANCH   8   9
ENDBRANCH   7   8
ENDBRANCH   6   7
ENDBRANCH   5   6
ENDBRANCH   4   5
ENDBRANCH   3   4
ENDBRANCH   2   3
ENDBRANCH   1   2
BRANCH   1  17
ATOM     17  C   UNL     1      74.101  12.374  18.290  1.00  0.00     0.000 C 
BRANCH  17  18
ATOM     18  C   UNL     1      75.056  11.353  18.937  1.00  0.00     0.000 C 
BRANCH  18  19
ATOM     19  C   UNL     1      75.861  11.879  20.138  1.00  0.00     0.000 C 
BRANCH  19  20
ATOM     20  C   UNL     1      77.379  11.687  19.974  1.00  0.00     0.000 C 
BRANCH  20  21
ATOM     21  C   UNL     1      78.120  13.032  19.816  1.00  0.00     0.000 C 
BRANCH  21  22
ATOM     22  C   UNL     1      78.784  13.216  18.440  1.00  0.00    -0.000 C 
BRANCH  22  23
ATOM     23  C   UNL     1      78.587  14.629  17.863  1.00  0.00    -0.000 C 
BRANCH  23  24
ATOM     24  C   UNL     1      78.356  15.692  18.959  1.00  0.00    -0.000 C 
BRANCH  24  25
ATOM     25  C   UNL     1      79.655  16.275  19.550  1.00  0.00    -0.000 C 
BRANCH  25  26
ATOM     26  C   UNL     1      80.555  17.010  18.544  1.00  0.00    -0.000 C 
BRANCH  26  27
ATOM     27  C   UNL     1      81.996  16.477  18.531  1.00  0.00    -0.000 C 
BRANCH  27  28
ATOM     28  C   UNL     1      82.025  14.956  18.731  1.00  0.00    -0.000 C 
BRANCH  28  29
ATOM     29  C   UNL     1      82.900  14.576  19.930  1.00  0.00    -0.003 C 
ATOM     30  C   UNL     1      82.076  13.894  21.019  1.00  0.00     0.004 C 
ENDBRANCH  28  29
ENDBRANCH  27  28
ENDBRANCH  26  27
ENDBRANCH  25  26
ENDBRANCH  24  25
ENDBRANCH  23  24
ENDBRANCH  22  23
ENDBRANCH  21  22
ENDBRANCH  20  21
ENDBRANCH  19  20
ENDBRANCH  18  19
ENDBRANCH  17  18
ENDBRANCH   1  17
TORSDOF 26
ENDMDL
MODEL 7
REMARK VINA RESULT:    -4.807      1.137      5.088
REMARK INTER + INTRA:         -17.522
REMARK INTER:                 -12.201
REMARK INTRA:                  -5.321
REMARK UNBOUND:                -5.408
REMARK SMILES CCCCCCCCCCCCCCCCCCCCCCCCCCCC(=O)[O-]
REMARK SMILES IDX 15 1 16 2 17 3 18 4 19 5 20 6 21 7 22 8 23 9 24 10 25 11
REMARK SMILES IDX 26 12 27 13 28 14 29 15 30 16 14 17 13 18 12 19 11 20 10 21
REMARK SMILES IDX 9 22 8 23 7 24 6 25 5 26 4 27 3 28 2 29 1 30
REMARK H PARENT
REMARK Flexibility Score: inf
ROOT
ATOM      1  C   UNL     1      74.651  16.481  15.639  1.00  0.00     0.000 C 
ENDROOT
BRANCH   1   2
ATOM      2  C   UNL     1      75.279  15.262  14.938  1.00  0.00     0.000 C 
BRANCH   2   3
ATOM      3  C   UNL     1      75.516  14.031  15.836  1.00  0.00     0.000 C 
BRANCH   3   4
ATOM      4  C   UNL     1      74.352  13.759  16.800  1.00  0.00     0.000 C 
BRANCH   4   5
ATOM      5  C   UNL     1      74.824  13.772  18.262  1.00  0.00     0.000 C 
BRANCH   5   6
ATOM      6  C   UNL     1      74.198  12.639  19.097  1.00  0.00     0.000 C 
BRANCH   6   7
ATOM      7  C   UNL     1      75.152  11.972  20.107  1.00  0.00     0.000 C 
BRANCH   7   8
ATOM      8  C   UNL     1      76.651  12.074  19.761  1.00  0.00     0.000 C 
BRANCH   8   9
ATOM      9  C   UNL     1      77.361  10.708  19.657  1.00  0.00     0.000 C 
BRANCH   9  10
ATOM     10  C   UNL     1      77.016   9.951  18.364  1.00  0.00     0.000 C 
BRANCH  10  11
ATOM     11  C   UNL     1      76.934  10.920  17.175  1.00  0.00     0.000 C 
BRANCH  11  12
ATOM     12  C   UNL     1      77.718  10.384  15.969  1.00  0.00     0.006 C 
BRANCH  12  13
ATOM     13  C   UNL     1      78.235  11.514  15.067  1.00  0.00     0.053 C 
BRANCH  13  14
ATOM     14  C   UNL     1      79.320  11.037  14.152  1.00  0.00     0.041 C 
ATOM     15  O   UNL     1      79.350  11.413  12.950  1.00  0.00    -0.550 OA
ATOM     16  O   UNL     1      80.261  10.121  14.605  1.00  0.00    -0.550 OA
ENDBRANCH  13  14
ENDBRANCH  12  13
ENDBRANCH  11  12
ENDBRANCH  10  11
ENDBRANCH   9  10
ENDBRANCH   8   9
ENDBRANCH   7   8
ENDBRANCH   6   7
ENDBRANCH   5   6
ENDBRANCH   4   5
ENDBRANCH   3   4
ENDBRANCH   2   3
ENDBRANCH   1   2
BRANCH   1  17
ATOM     17  C   UNL     1      75.689  17.528  16.079  1.00  0.00     0.000 C 
BRANCH  17  18
ATOM     18  C   UNL     1      76.748  17.814  14.997  1.00  0.00     0.000 C 
BRANCH  18  19
ATOM     19  C   UNL     1      78.209  17.677  15.459  1.00  0.00     0.000 C 
BRANCH  19  20
ATOM     20  C   UNL     1      78.825  16.312  15.105  1.00  0.00     0.000 C 
BRANCH  20  21
ATOM     21  C   UNL     1      79.418  15.603  16.342  1.00  0.00     0.000 C 
BRANCH  21  22
ATOM     22  C   UNL     1      78.394  14.763  17.125  1.00  0.00    -0.000 C 
BRANCH  22  23
ATOM     23  C   UNL     1      78.231  15.224  18.584  1.00  0.00    -0.000 C 
BRANCH  23  24
ATOM     24  C   UNL     1      79.091  16.463  18.916  1.00  0.00    -0.000 C 
BRANCH  24  25
ATOM     25  C   UNL     1      80.336  16.151  19.768  1.00  0.00    -0.000 C 
BRANCH  25  26
ATOM     26  C   UNL     1      80.248  14.864  20.604  1.00  0.00    -0.000 C 
BRANCH  26  27
ATOM     27  C   UNL     1      81.617  14.205  20.833  1.00  0.00    -0.000 C 
BRANCH  27  28
ATOM     28  C   UNL     1      81.849  13.055  19.845  1.00  0.00    -0.000 C 
BRANCH  28  29
ATOM     29  C   UNL     1      80.521  12.537  19.282  1.00  0.00    -0.003 C 
ATOM     30  C   UNL     1      80.711  11.920  17.899  1.00  0.00     0.004 C 
ENDBRANCH  28  29
ENDBRANCH  27  28
ENDBRANCH  26  27
ENDBRANCH  25  26
ENDBRANCH  24  25
ENDBRANCH  23  24
ENDBRANCH  22  23
ENDBRANCH  21  22
ENDBRANCH  20  21
ENDBRANCH  19  20
ENDBRANCH  18  19
ENDBRANCH  17  18
ENDBRANCH   1  17
TORSDOF 26
ENDMDL
MODEL 8
REMARK VINA RESULT:    -4.800      1.042      4.581
REMARK INTER + INTRA:         -17.504
REMARK INTER:                 -11.555
REMARK INTRA:                  -5.949
REMARK UNBOUND:                -5.408
REMARK SMILES CCCCCCCCCCCCCCCCCCCCCCCCCCCC(=O)[O-]
REMARK SMILES IDX 15 1 16 2 17 3 18 4 19 5 20 6 21 7 22 8 23 9 24 10 25 11
REMARK SMILES IDX 26 12 27 13 28 14 29 15 30 16 14 17 13 18 12 19 11 20 10 21
REMARK SMILES IDX 9 22 8 23 7 24 6 25 5 26 4 27 3 28 2 29 1 30
REMARK H PARENT
REMARK Flexibility Score: inf
ROOT
ATOM      1  C   UNL     1      79.259  16.519  16.494  1.00  0.00     0.000 C 
ENDROOT
BRANCH   1   2
ATOM      2  C   UNL     1      78.351  17.222  15.466  1.00  0.00     0.000 C 
BRANCH   2   3
ATOM      3  C   UNL     1      76.989  17.700  16.004  1.00  0.00     0.000 C 
BRANCH   3   4
ATOM      4  C   UNL     1      75.806  17.242  15.137  1.00  0.00     0.000 C 
BRANCH   4   5
ATOM      5  C   UNL     1      74.864  16.318  15.923  1.00  0.00     0.000 C 
BRANCH   5   6
ATOM      6  C   UNL     1      75.289  16.150  17.395  1.00  0.00     0.000 C 
BRANCH   6   7
ATOM      7  C   UNL     1      75.558  14.697  17.832  1.00  0.00     0.000 C 
BRANCH   7   8
ATOM      8  C   UNL     1      74.766  13.622  17.062  1.00  0.00     0.000 C 
BRANCH   8   9
ATOM      9  C   UNL     1      75.631  12.780  16.100  1.00  0.00     0.000 C 
BRANCH   9  10
ATOM     10  C   UNL     1      77.041  13.361  15.900  1.00  0.00     0.000 C 
BRANCH  10  11
ATOM     11  C   UNL     1      77.236  13.821  14.449  1.00  0.00     0.000 C 
BRANCH  11  12
ATOM     12  C   UNL     1      78.712  13.733  14.033  1.00  0.00     0.006 C 
BRANCH  12  13
ATOM     13  C   UNL     1      78.882  13.145  12.626  1.00  0.00     0.053 C 
BRANCH  13  14
ATOM     14  C   UNL     1      78.737  11.654  12.629  1.00  0.00     0.041 C 
ATOM     15  O   UNL     1      79.069  10.985  13.644  1.00  0.00    -0.550 OA
ATOM     16  O   UNL     1      78.298  10.995  11.488  1.00  0.00    -0.550 OA
ENDBRANCH  13  14
ENDBRANCH  12  13
ENDBRANCH  11  12
ENDBRANCH  10  11
ENDBRANCH   9  10
ENDBRANCH   8   9
ENDBRANCH   7   8
ENDBRANCH   6   7
ENDBRANCH   5   6
ENDBRANCH   4   5
ENDBRANCH   3   4
ENDBRANCH   2   3
ENDBRANCH   1   2
BRANCH   1  17
ATOM     17  C   UNL     1      79.095  17.070  17.922  1.00  0.00     0.000 C 
BRANCH  17  18
ATOM     18  C   UNL     1      79.004  15.959  18.985  1.00  0.00     0.000 C 
BRANCH  18  19
ATOM     19  C   UNL     1      80.047  16.046  20.114  1.00  0.00     0.000 C 
BRANCH  19  20
ATOM     20  C   UNL     1      80.207  14.725  20.886  1.00  0.00     0.000 C 
BRANCH  20  21
ATOM     21  C   UNL     1      81.688  14.311  21.028  1.00  0.00     0.000 C 
BRANCH  21  22
ATOM     22  C   UNL     1      82.522  14.545  19.755  1.00  0.00    -0.000 C 
BRANCH  22  23
ATOM     23  C   UNL     1      82.428  13.379  18.756  1.00  0.00    -0.000 C 
BRANCH  23  24
ATOM     24  C   UNL     1      81.525  13.704  17.545  1.00  0.00    -0.000 C 
BRANCH  24  25
ATOM     25  C   UNL     1      80.274  12.810  17.439  1.00  0.00    -0.000 C 
BRANCH  25  26
ATOM     26  C   UNL     1      80.049  11.863  18.630  1.00  0.00    -0.000 C 
BRANCH  26  27
ATOM     27  C   UNL     1      78.577  11.458  18.800  1.00  0.00    -0.000 C 
BRANCH  27  28
ATOM     28  C   UNL     1      77.855  12.396  19.775  1.00  0.00    -0.000 C 
BRANCH  28  29
ATOM     29  C   UNL     1      76.462  11.859  20.125  1.00  0.00    -0.003 C 
ATOM     30  C   UNL     1      76.044  10.746  19.168  1.00  0.00     0.004 C 
ENDBRANCH  28  29
ENDBRANCH  27  28
ENDBRANCH  26  27
ENDBRANCH  25  26
ENDBRANCH  24  25
ENDBRANCH  23  24
ENDBRANCH  22  23
ENDBRANCH  21  22
ENDBRANCH  20  21
ENDBRANCH  19  20
ENDBRANCH  18  19
ENDBRANCH  17  18
ENDBRANCH   1  17
TORSDOF 26
ENDMDL
MODEL 9
REMARK VINA RESULT:    -4.788      1.959      5.284
REMARK INTER + INTRA:         -17.475
REMARK INTER:                 -12.629
REMARK INTRA:                  -4.846
REMARK UNBOUND:                -5.408
REMARK SMILES CCCCCCCCCCCCCCCCCCCCCCCCCCCC(=O)[O-]
REMARK SMILES IDX 15 1 16 2 17 3 18 4 19 5 20 6 21 7 22 8 23 9 24 10 25 11
REMARK SMILES IDX 26 12 27 13 28 14 29 15 30 16 14 17 13 18 12 19 11 20 10 21
REMARK SMILES IDX 9 22 8 23 7 24 6 25 5 26 4 27 3 28 2 29 1 30
REMARK H PARENT
REMARK Flexibility Score: inf
ROOT
ATOM      1  C   UNL     1      77.235  10.271  17.419  1.00  0.00     0.000 C 
ENDROOT
BRANCH   1   2
ATOM      2  C   UNL     1      76.365  10.009  18.663  1.00  0.00     0.000 C 
BRANCH   2   3
ATOM      3  C   UNL     1      76.689  10.879  19.894  1.00  0.00     0.000 C 
BRANCH   3   4
ATOM      4  C   UNL     1      75.648  11.980  20.142  1.00  0.00     0.000 C 
BRANCH   4   5
ATOM      5  C   UNL     1      74.392  11.763  19.284  1.00  0.00     0.000 C 
BRANCH   5   6
ATOM      6  C   UNL     1      73.765  13.086  18.803  1.00  0.00     0.000 C 
BRANCH   6   7
ATOM      7  C   UNL     1      74.741  14.051  18.103  1.00  0.00     0.000 C 
BRANCH   7   8
ATOM      8  C   UNL     1      75.110  13.674  16.655  1.00  0.00     0.000 C 
BRANCH   8   9
ATOM      9  C   UNL     1      75.657  14.854  15.824  1.00  0.00     0.000 C 
BRANCH   9  10
ATOM     10  C   UNL     1      74.572  15.882  15.460  1.00  0.00     0.000 C 
BRANCH  10  11
ATOM     11  C   UNL     1      75.145  17.306  15.486  1.00  0.00     0.000 C 
BRANCH  11  12
ATOM     12  C   UNL     1      76.458  17.361  16.281  1.00  0.00     0.006 C 
BRANCH  12  13
ATOM     13  C   UNL     1      77.447  18.379  15.696  1.00  0.00     0.053 C 
BRANCH  13  14
ATOM     14  C   UNL     1      78.309  17.766  14.637  1.00  0.00     0.041 C 
ATOM     15  O   UNL     1      78.560  16.531  14.657  1.00  0.00    -0.550 OA
ATOM     16  O   UNL     1      78.893  18.567  13.664  1.00  0.00    -0.550 OA
ENDBRANCH  13  14
ENDBRANCH  12  13
ENDBRANCH  11  12
ENDBRANCH  10  11
ENDBRANCH   9  10
ENDBRANCH   8   9
ENDBRANCH   7   8
ENDBRANCH   6   7
ENDBRANCH   5   6
ENDBRANCH   4   5
ENDBRANCH   3   4
ENDBRANCH   2   3
ENDBRANCH   1   2
BRANCH   1  17
ATOM     17  C   UNL     1      78.420  11.213  17.698  1.00  0.00     0.000 C 
BRANCH  17  18
ATOM     18  C   UNL     1      78.501  12.385  16.702  1.00  0.00     0.000 C 
BRANCH  18  19
ATOM     19  C   UNL     1      79.052  13.700  17.282  1.00  0.00     0.000 C 
BRANCH  19  20
ATOM     20  C   UNL     1      78.400  14.086  18.621  1.00  0.00     0.000 C 
BRANCH  20  21
ATOM     21  C   UNL     1      78.569  15.588  18.938  1.00  0.00     0.000 C 
BRANCH  21  22
ATOM     22  C   UNL     1      79.620  15.878  20.024  1.00  0.00    -0.000 C 
BRANCH  22  23
ATOM     23  C   UNL     1      79.976  14.635  20.859  1.00  0.00    -0.000 C 
BRANCH  23  24
ATOM     24  C   UNL     1      81.499  14.392  20.945  1.00  0.00    -0.000 C 
BRANCH  24  25
ATOM     25  C   UNL     1      82.269  14.786  19.670  1.00  0.00    -0.000 C 
BRANCH  25  26
ATOM     26  C   UNL     1      83.042  13.640  18.996  1.00  0.00    -0.000 C 
BRANCH  26  27
ATOM     27  C   UNL     1      82.853  12.292  19.708  1.00  0.00    -0.000 C 
BRANCH  27  28
ATOM     28  C   UNL     1      81.988  11.341  18.871  1.00  0.00    -0.000 C 
BRANCH  28  29
ATOM     29  C   UNL     1      82.154  11.623  17.373  1.00  0.00    -0.003 C 
ATOM     30  C   UNL     1      83.161  10.665  16.741  1.00  0.00     0.004 C 
ENDBRANCH  28  29
ENDBRANCH  27  28
ENDBRANCH  26  27
ENDBRANCH  25  26
ENDBRANCH  24  25
ENDBRANCH  23  24
ENDBRANCH  22  23
ENDBRANCH  21  22
ENDBRANCH  20  21
ENDBRANCH  19  20
ENDBRANCH  18  19
ENDBRANCH  17  18
ENDBRANCH   1  17
TORSDOF 26
ENDMDL
