MODEL 1
REMARK VINA RESULT:    -6.568      0.000      0.000
REMARK INTER + INTRA:          -7.840
REMARK INTER:                  -7.528
REMARK INTRA:                  -0.312
REMARK UNBOUND:                -0.312
REMARK SMILES O=C1C[C@@H](c2ccc(O)cc2)Oc2cc(O)cc(O)c21
REMARK SMILES IDX 3 1 4 2 12 3 13 4 14 5 15 6 17 7 18 8 20 9 2 10 1 11 5 12
REMARK SMILES IDX 6 13 11 14 7 15 10 16 8 17 9 18 19 20 16 22
REMARK H PARENT 9 19 19 21 16 23
REMARK Flexibility Score: inf
ROOT
ATOM      1  C   UNL     1     174.125 175.987 176.100  1.00  0.00     0.131 C 
ATOM      2  C   UNL     1     173.251 174.746 176.327  1.00  0.00     0.211 C 
ATOM      3  O   UNL     1     171.868 175.065 176.149  1.00  0.00    -0.484 OA
ATOM      4  C   UNL     1     171.415 175.930 175.143  1.00  0.00     0.138 A 
ATOM      5  C   UNL     1     170.050 175.976 174.852  1.00  0.00     0.093 A 
ATOM      6  C   UNL     1     169.570 176.816 173.847  1.00  0.00     0.123 A 
ATOM      7  C   UNL     1     170.459 177.638 173.146  1.00  0.00     0.093 A 
ATOM      8  C   UNL     1     171.827 177.638 173.447  1.00  0.00     0.133 A 
ATOM      9  C   UNL     1     172.324 176.749 174.436  1.00  0.00     0.102 A 
ATOM     10  C   UNL     1     173.759 176.613 174.788  1.00  0.00     0.174 C 
ATOM     11  O   UNL     1     174.672 176.959 173.992  1.00  0.00    -0.294 OA
ENDROOT
BRANCH   2  12
ATOM     12  C   UNL     1     173.477 174.178 177.707  1.00  0.00    -0.007 A 
ATOM     13  C   UNL     1     172.510 174.343 178.715  1.00  0.00     0.011 A 
ATOM     14  C   UNL     1     174.683 173.527 178.015  1.00  0.00     0.011 A 
ATOM     15  C   UNL     1     172.736 173.842 180.000  1.00  0.00     0.046 A 
ATOM     16  C   UNL     1     174.907 173.027 179.303  1.00  0.00     0.046 A 
ATOM     17  C   UNL     1     173.934 173.183 180.297  1.00  0.00     0.115 A 
BRANCH  17  18
ATOM     18  O   UNL     1     174.145 172.689 181.583  1.00  0.00    -0.508 OA
ATOM     19  H   UNL     1     174.445 173.293 182.339  1.00  0.00     0.293 HD
ENDBRANCH  17  18
ENDBRANCH   2  12
BRANCH   8  20
ATOM     20  O   UNL     1     172.634 178.553 172.768  1.00  0.00    -0.507 OA
ATOM     21  H   UNL     1     172.735 179.522 173.033  1.00  0.00     0.293 HD
ENDBRANCH   8  20
BRANCH   6  22
ATOM     22  O   UNL     1     168.207 176.832 173.558  1.00  0.00    -0.508 OA
ATOM     23  H   UNL     1     167.512 176.894 174.292  1.00  0.00     0.293 HD
ENDBRANCH   6  22
TORSDOF 4
ENDMDL
MODEL 2
REMARK VINA RESULT:    -6.253      4.820      6.886
REMARK INTER + INTRA:          -7.479
REMARK INTER:                  -7.169
REMARK INTRA:                  -0.310
REMARK UNBOUND:                -0.312
REMARK SMILES O=C1C[C@@H](c2ccc(O)cc2)Oc2cc(O)cc(O)c21
REMARK SMILES IDX 3 1 4 2 12 3 13 4 14 5 15 6 17 7 18 8 20 9 2 10 1 11 5 12
REMARK SMILES IDX 6 13 11 14 7 15 10 16 8 17 9 18 19 20 16 22
REMARK H PARENT 9 19 19 21 16 23
REMARK Flexibility Score: inf
ROOT
ATOM      1  C   UNL     1     172.448 170.327 176.123  1.00  0.00     0.131 C 
ATOM      2  C   UNL     1     173.203 171.646 176.334  1.00  0.00     0.211 C 
ATOM      3  O   UNL     1     174.608 171.458 176.142  1.00  0.00    -0.484 OA
ATOM      4  C   UNL     1     175.129 170.634 175.135  1.00  0.00     0.138 A 
ATOM      5  C   UNL     1     176.490 170.715 174.830  1.00  0.00     0.093 A 
ATOM      6  C   UNL     1     177.036 169.918 173.824  1.00  0.00     0.123 A 
ATOM      7  C   UNL     1     176.222 169.012 173.136  1.00  0.00     0.093 A 
ATOM      8  C   UNL     1     174.863 168.885 173.452  1.00  0.00     0.133 A 
ATOM      9  C   UNL     1     174.295 169.728 174.443  1.00  0.00     0.102 A 
ATOM     10  C   UNL     1     172.857 169.730 174.809  1.00  0.00     0.174 C 
ATOM     11  O   UNL     1     171.972 169.296 174.025  1.00  0.00    -0.294 OA
ENDROOT
BRANCH   2  12
ATOM     12  C   UNL     1     172.939 172.198 177.714  1.00  0.00    -0.007 A 
ATOM     13  C   UNL     1     173.894 172.054 178.736  1.00  0.00     0.011 A 
ATOM     14  C   UNL     1     171.711 172.812 178.007  1.00  0.00     0.011 A 
ATOM     15  C   UNL     1     173.633 172.539 180.021  1.00  0.00     0.046 A 
ATOM     16  C   UNL     1     171.452 173.297 179.293  1.00  0.00     0.046 A 
ATOM     17  C   UNL     1     172.413 173.163 180.303  1.00  0.00     0.115 A 
BRANCH  17  18
ATOM     18  O   UNL     1     172.167 173.642 181.588  1.00  0.00    -0.508 OA
ATOM     19  H   UNL     1     172.924 173.904 182.208  1.00  0.00     0.293 HD
ENDBRANCH  17  18
ENDBRANCH   2  12
BRANCH   8  20
ATOM     20  O   UNL     1     174.139 167.894 172.786  1.00  0.00    -0.507 OA
ATOM     21  H   UNL     1     173.874 167.946 171.814  1.00  0.00     0.293 HD
ENDBRANCH   8  20
BRANCH   6  22
ATOM     22  O   UNL     1     178.392 170.029 173.520  1.00  0.00    -0.508 OA
ATOM     23  H   UNL     1     179.039 170.484 174.151  1.00  0.00     0.293 HD
ENDBRANCH   6  22
TORSDOF 4
ENDMDL
MODEL 3
REMARK VINA RESULT:    -6.247      4.694      6.398
REMARK INTER + INTRA:          -7.472
REMARK INTER:                  -7.179
REMARK INTRA:                  -0.292
REMARK UNBOUND:                -0.312
REMARK SMILES O=C1C[C@@H](c2ccc(O)cc2)Oc2cc(O)cc(O)c21
REMARK SMILES IDX 3 1 4 2 12 3 13 4 14 5 15 6 17 7 18 8 20 9 2 10 1 11 5 12
REMARK SMILES IDX 6 13 11 14 7 15 10 16 8 17 9 18 19 20 16 22
REMARK H PARENT 9 19 19 21 16 23
REMARK Flexibility Score: inf
ROOT
ATOM      1  C   UNL     1     173.749 170.087 176.666  1.00  0.00     0.131 C 
ATOM      2  C   UNL     1     173.496 171.596 176.543  1.00  0.00     0.211 C 
ATOM      3  O   UNL     1     174.640 172.255 175.991  1.00  0.00    -0.484 OA
ATOM      4  C   UNL     1     175.406 171.698 174.958  1.00  0.00     0.138 A 
ATOM      5  C   UNL     1     176.325 172.507 174.285  1.00  0.00     0.093 A 
ATOM      6  C   UNL     1     177.093 171.986 173.243  1.00  0.00     0.123 A 
ATOM      7  C   UNL     1     176.961 170.640 172.888  1.00  0.00     0.093 A 
ATOM      8  C   UNL     1     176.075 169.800 173.575  1.00  0.00     0.133 A 
ATOM      9  C   UNL     1     175.258 170.339 174.604  1.00  0.00     0.102 A 
ATOM     10  C   UNL     1     174.237 169.561 175.349  1.00  0.00     0.174 C 
ATOM     11  O   UNL     1     173.734 168.507 174.880  1.00  0.00    -0.294 OA
ENDROOT
BRANCH   2  12
ATOM     12  C   UNL     1     173.156 172.192 177.888  1.00  0.00    -0.007 A 
ATOM     13  C   UNL     1     171.894 172.767 178.116  1.00  0.00     0.011 A 
ATOM     14  C   UNL     1     174.120 172.227 178.910  1.00  0.00     0.011 A 
ATOM     15  C   UNL     1     171.593 173.345 179.353  1.00  0.00     0.046 A 
ATOM     16  C   UNL     1     173.816 172.806 180.147  1.00  0.00     0.046 A 
ATOM     17  C   UNL     1     172.552 173.365 180.371  1.00  0.00     0.115 A 
BRANCH  17  18
ATOM     18  O   UNL     1     172.239 173.944 181.600  1.00  0.00    -0.508 OA
ATOM     19  H   UNL     1     172.651 173.610 182.462  1.00  0.00     0.293 HD
ENDBRANCH  17  18
ENDBRANCH   2  12
BRANCH   8  20
ATOM     20  O   UNL     1     176.069 168.448 173.224  1.00  0.00    -0.507 OA
ATOM     21  H   UNL     1     176.851 167.973 172.799  1.00  0.00     0.293 HD
ENDBRANCH   8  20
BRANCH   6  22
ATOM     22  O   UNL     1     177.989 172.815 172.570  1.00  0.00    -0.508 OA
ATOM     23  H   UNL     1     177.856 173.057 171.595  1.00  0.00     0.293 HD
ENDBRANCH   6  22
TORSDOF 4
ENDMDL
MODEL 4
REMARK VINA RESULT:    -6.239      4.805      6.654
REMARK INTER + INTRA:          -7.462
REMARK INTER:                  -7.152
REMARK INTRA:                  -0.310
REMARK UNBOUND:                -0.312
REMARK SMILES O=C1C[C@@H](c2ccc(O)cc2)Oc2cc(O)cc(O)c21
REMARK SMILES IDX 3 1 4 2 12 3 13 4 14 5 15 6 17 7 18 8 20 9 2 10 1 11 5 12
REMARK SMILES IDX 6 13 11 14 7 15 10 16 8 17 9 18 19 20 16 22
REMARK H PARENT 9 19 19 21 16 23
REMARK Flexibility Score: inf
ROOT
ATOM      1  C   UNL     1     172.359 170.525 176.236  1.00  0.00     0.131 C 
ATOM      2  C   UNL     1     173.205 171.785 176.464  1.00  0.00     0.211 C 
ATOM      3  O   UNL     1     174.587 171.518 176.204  1.00  0.00    -0.484 OA
ATOM      4  C   UNL     1     175.012 170.704 175.145  1.00  0.00     0.138 A 
ATOM      5  C   UNL     1     176.362 170.713 174.784  1.00  0.00     0.093 A 
ATOM      6  C   UNL     1     176.814 169.925 173.726  1.00  0.00     0.123 A 
ATOM      7  C   UNL     1     175.916 169.100 173.040  1.00  0.00     0.093 A 
ATOM      8  C   UNL     1     174.566 169.045 173.410  1.00  0.00     0.133 A 
ATOM      9  C   UNL     1     174.094 169.882 174.456  1.00  0.00     0.102 A 
ATOM     10  C   UNL     1     172.675 169.958 174.884  1.00  0.00     0.174 C 
ATOM     11  O   UNL     1     171.734 169.612 174.123  1.00  0.00    -0.294 OA
ENDROOT
BRANCH   2  12
ATOM     12  C   UNL     1     173.034 172.296 177.874  1.00  0.00    -0.007 A 
ATOM     13  C   UNL     1     171.820 172.877 178.281  1.00  0.00     0.011 A 
ATOM     14  C   UNL     1     174.107 172.246 178.779  1.00  0.00     0.011 A 
ATOM     15  C   UNL     1     171.676 173.376 179.579  1.00  0.00     0.046 A 
ATOM     16  C   UNL     1     173.960 172.747 180.077  1.00  0.00     0.046 A 
ATOM     17  C   UNL     1     172.744 173.311 180.480  1.00  0.00     0.115 A 
BRANCH  17  18
ATOM     18  O   UNL     1     172.585 173.813 181.771  1.00  0.00    -0.508 OA
ATOM     19  H   UNL     1     171.673 174.070 182.129  1.00  0.00     0.293 HD
ENDBRANCH  17  18
ENDBRANCH   2  12
BRANCH   8  20
ATOM     20  O   UNL     1     173.754 168.129 172.739  1.00  0.00    -0.507 OA
ATOM     21  H   UNL     1     172.826 168.339 172.401  1.00  0.00     0.293 HD
ENDBRANCH   8  20
BRANCH   6  22
ATOM     22  O   UNL     1     178.160 169.964 173.367  1.00  0.00    -0.508 OA
ATOM     23  H   UNL     1     178.628 170.839 173.163  1.00  0.00     0.293 HD
ENDBRANCH   6  22
TORSDOF 4
ENDMDL
MODEL 5
REMARK VINA RESULT:    -6.071      1.811      3.123
REMARK INTER + INTRA:          -7.270
REMARK INTER:                  -6.963
REMARK INTRA:                  -0.307
REMARK UNBOUND:                -0.312
REMARK SMILES O=C1C[C@@H](c2ccc(O)cc2)Oc2cc(O)cc(O)c21
REMARK SMILES IDX 3 1 4 2 12 3 13 4 14 5 15 6 17 7 18 8 20 9 2 10 1 11 5 12
REMARK SMILES IDX 6 13 11 14 7 15 10 16 8 17 9 18 19 20 16 22
REMARK H PARENT 9 19 19 21 16 23
REMARK Flexibility Score: inf
ROOT
ATOM      1  C   UNL     1     171.681 173.748 176.075  1.00  0.00     0.131 C 
ATOM      2  C   UNL     1     172.397 174.706 177.038  1.00  0.00     0.211 C 
ATOM      3  O   UNL     1     173.542 175.289 176.409  1.00  0.00    -0.484 OA
ATOM      4  C   UNL     1     173.543 175.691 175.066  1.00  0.00     0.138 A 
ATOM      5  C   UNL     1     174.584 176.498 174.601  1.00  0.00     0.093 A 
ATOM      6  C   UNL     1     174.606 176.926 173.274  1.00  0.00     0.123 A 
ATOM      7  C   UNL     1     173.595 176.522 172.397  1.00  0.00     0.093 A 
ATOM      8  C   UNL     1     172.561 175.681 172.830  1.00  0.00     0.133 A 
ATOM      9  C   UNL     1     172.510 175.283 174.192  1.00  0.00     0.102 A 
ATOM     10  C   UNL     1     171.428 174.454 174.777  1.00  0.00     0.174 C 
ATOM     11  O   UNL     1     170.291 174.373 174.241  1.00  0.00    -0.294 OA
ENDROOT
BRANCH   2  12
ATOM     12  C   UNL     1     172.811 173.986 178.298  1.00  0.00    -0.007 A 
ATOM     13  C   UNL     1     171.880 173.750 179.325  1.00  0.00     0.011 A 
ATOM     14  C   UNL     1     174.147 173.592 178.482  1.00  0.00     0.011 A 
ATOM     15  C   UNL     1     172.274 173.110 180.504  1.00  0.00     0.046 A 
ATOM     16  C   UNL     1     174.539 172.952 179.662  1.00  0.00     0.046 A 
ATOM     17  C   UNL     1     173.603 172.708 180.675  1.00  0.00     0.115 A 
BRANCH  17  18
ATOM     18  O   UNL     1     173.982 172.071 181.855  1.00  0.00    -0.508 OA
ATOM     19  H   UNL     1     173.294 171.708 182.504  1.00  0.00     0.293 HD
ENDBRANCH  17  18
ENDBRANCH   2  12
BRANCH   8  20
ATOM     20  O   UNL     1     171.642 175.248 171.872  1.00  0.00    -0.507 OA
ATOM     21  H   UNL     1     170.641 175.311 171.983  1.00  0.00     0.293 HD
ENDBRANCH   8  20
BRANCH   6  22
ATOM     22  O   UNL     1     175.643 177.747 172.835  1.00  0.00    -0.508 OA
ATOM     23  H   UNL     1     176.549 177.369 172.588  1.00  0.00     0.293 HD
ENDBRANCH   6  22
TORSDOF 4
ENDMDL
MODEL 6
REMARK VINA RESULT:    -6.066      4.739      7.065
REMARK INTER + INTRA:          -7.264
REMARK INTER:                  -6.967
REMARK INTRA:                  -0.297
REMARK UNBOUND:                -0.312
REMARK SMILES O=C1C[C@@H](c2ccc(O)cc2)Oc2cc(O)cc(O)c21
REMARK SMILES IDX 3 1 4 2 12 3 13 4 14 5 15 6 17 7 18 8 20 9 2 10 1 11 5 12
REMARK SMILES IDX 6 13 11 14 7 15 10 16 8 17 9 18 19 20 16 22
REMARK H PARENT 9 19 19 21 16 23
REMARK Flexibility Score: inf
ROOT
ATOM      1  C   UNL     1     172.669 170.925 175.549  1.00  0.00     0.131 C 
ATOM      2  C   UNL     1     173.857 170.296 176.290  1.00  0.00     0.211 C 
ATOM      3  O   UNL     1     174.359 171.191 177.287  1.00  0.00    -0.484 OA
ATOM      4  C   UNL     1     173.520 171.984 178.082  1.00  0.00     0.138 A 
ATOM      5  C   UNL     1     174.052 172.614 179.209  1.00  0.00     0.093 A 
ATOM      6  C   UNL     1     173.239 173.399 180.029  1.00  0.00     0.123 A 
ATOM      7  C   UNL     1     171.891 173.577 179.704  1.00  0.00     0.093 A 
ATOM      8  C   UNL     1     171.344 172.986 178.557  1.00  0.00     0.133 A 
ATOM      9  C   UNL     1     172.157 172.149 177.747  1.00  0.00     0.102 A 
ATOM     10  C   UNL     1     171.669 171.418 176.552  1.00  0.00     0.174 C 
ATOM     11  O   UNL     1     170.448 171.156 176.388  1.00  0.00    -0.294 OA
ENDROOT
BRANCH   2  12
ATOM     12  C   UNL     1     174.956 169.931 175.323  1.00  0.00    -0.007 A 
ATOM     13  C   UNL     1     175.186 168.588 174.976  1.00  0.00     0.011 A 
ATOM     14  C   UNL     1     175.799 170.927 174.801  1.00  0.00     0.011 A 
ATOM     15  C   UNL     1     176.225 168.251 174.104  1.00  0.00     0.046 A 
ATOM     16  C   UNL     1     176.838 170.587 173.928  1.00  0.00     0.046 A 
ATOM     17  C   UNL     1     177.053 169.248 173.577  1.00  0.00     0.115 A 
BRANCH  17  18
ATOM     18  O   UNL     1     178.084 168.898 172.708  1.00  0.00    -0.508 OA
ATOM     19  H   UNL     1     179.014 169.288 172.807  1.00  0.00     0.293 HD
ENDBRANCH  17  18
ENDBRANCH   2  12
BRANCH   8  20
ATOM     20  O   UNL     1     170.015 173.288 178.250  1.00  0.00    -0.507 OA
ATOM     21  H   UNL     1     169.224 172.778 178.613  1.00  0.00     0.293 HD
ENDBRANCH   8  20
BRANCH   6  22
ATOM     22  O   UNL     1     173.784 174.002 181.160  1.00  0.00    -0.508 OA
ATOM     23  H   UNL     1     174.548 174.664 181.090  1.00  0.00     0.293 HD
ENDBRANCH   6  22
TORSDOF 4
ENDMDL
MODEL 7
REMARK VINA RESULT:    -6.062      1.820      2.579
REMARK INTER + INTRA:          -7.259
REMARK INTER:                  -6.958
REMARK INTRA:                  -0.302
REMARK UNBOUND:                -0.312
REMARK SMILES O=C1C[C@@H](c2ccc(O)cc2)Oc2cc(O)cc(O)c21
REMARK SMILES IDX 3 1 4 2 12 3 13 4 14 5 15 6 17 7 18 8 20 9 2 10 1 11 5 12
REMARK SMILES IDX 6 13 11 14 7 15 10 16 8 17 9 18 19 20 16 22
REMARK H PARENT 9 19 19 21 16 23
REMARK Flexibility Score: inf
ROOT
ATOM      1  C   UNL     1     174.987 173.576 176.111  1.00  0.00     0.131 C 
ATOM      2  C   UNL     1     173.546 173.781 176.598  1.00  0.00     0.211 C 
ATOM      3  O   UNL     1     173.095 175.104 176.294  1.00  0.00    -0.484 OA
ATOM      4  C   UNL     1     173.409 175.752 175.091  1.00  0.00     0.138 A 
ATOM      5  C   UNL     1     172.715 176.913 174.746  1.00  0.00     0.093 A 
ATOM      6  C   UNL     1     172.995 177.573 173.549  1.00  0.00     0.123 A 
ATOM      7  C   UNL     1     173.997 177.085 172.704  1.00  0.00     0.093 A 
ATOM      8  C   UNL     1     174.734 175.944 173.049  1.00  0.00     0.133 A 
ATOM      9  C   UNL     1     174.418 175.244 174.243  1.00  0.00     0.102 A 
ATOM     10  C   UNL     1     175.083 173.989 174.673  1.00  0.00     0.174 C 
ATOM     11  O   UNL     1     175.676 173.239 173.853  1.00  0.00    -0.294 OA
ENDROOT
BRANCH   2  12
ATOM     12  C   UNL     1     173.443 173.528 178.082  1.00  0.00    -0.007 A 
ATOM     13  C   UNL     1     172.236 173.763 178.765  1.00  0.00     0.011 A 
ATOM     14  C   UNL     1     174.569 173.106 178.808  1.00  0.00     0.011 A 
ATOM     15  C   UNL     1     172.154 173.557 180.146  1.00  0.00     0.046 A 
ATOM     16  C   UNL     1     174.484 172.900 180.189  1.00  0.00     0.046 A 
ATOM     17  C   UNL     1     173.276 173.124 180.860  1.00  0.00     0.115 A 
BRANCH  17  18
ATOM     18  O   UNL     1     173.179 172.922 182.236  1.00  0.00    -0.508 OA
ATOM     19  H   UNL     1     173.563 173.587 182.896  1.00  0.00     0.293 HD
ENDBRANCH  17  18
ENDBRANCH   2  12
BRANCH   8  20
ATOM     20  O   UNL     1     175.779 175.574 172.200  1.00  0.00    -0.507 OA
ATOM     21  H   UNL     1     175.699 175.527 171.195  1.00  0.00     0.293 HD
ENDBRANCH   8  20
BRANCH   6  22
ATOM     22  O   UNL     1     172.276 178.718 173.212  1.00  0.00    -0.508 OA
ATOM     23  H   UNL     1     172.740 179.600 173.033  1.00  0.00     0.293 HD
ENDBRANCH   6  22
TORSDOF 4
ENDMDL
MODEL 8
REMARK VINA RESULT:    -6.051      4.956      5.493
REMARK INTER + INTRA:          -7.247
REMARK INTER:                  -6.936
REMARK INTRA:                  -0.311
REMARK UNBOUND:                -0.312
REMARK SMILES O=C1C[C@@H](c2ccc(O)cc2)Oc2cc(O)cc(O)c21
REMARK SMILES IDX 3 1 4 2 12 3 13 4 14 5 15 6 17 7 18 8 20 9 2 10 1 11 5 12
REMARK SMILES IDX 6 13 11 14 7 15 10 16 8 17 9 18 19 20 16 22
REMARK H PARENT 9 19 19 21 16 23
REMARK Flexibility Score: inf
ROOT
ATOM      1  C   UNL     1     174.885 171.972 176.223  1.00  0.00     0.131 C 
ATOM      2  C   UNL     1     173.833 171.310 177.123  1.00  0.00     0.211 C 
ATOM      3  O   UNL     1     172.654 170.999 176.375  1.00  0.00    -0.484 OA
ATOM      4  C   UNL     1     172.701 170.509 175.062  1.00  0.00     0.138 A 
ATOM      5  C   UNL     1     171.542 169.968 174.500  1.00  0.00     0.093 A 
ATOM      6  C   UNL     1     171.559 169.461 173.200  1.00  0.00     0.123 A 
ATOM      7  C   UNL     1     172.736 169.519 172.447  1.00  0.00     0.093 A 
ATOM      8  C   UNL     1     173.899 170.093 172.976  1.00  0.00     0.133 A 
ATOM      9  C   UNL     1     173.898 170.567 174.314  1.00  0.00     0.102 A 
ATOM     10  C   UNL     1     175.088 171.129 175.000  1.00  0.00     0.174 C 
ATOM     11  O   UNL     1     176.258 170.869 174.615  1.00  0.00    -0.294 OA
ENDROOT
BRANCH   2  12
ATOM     12  C   UNL     1     173.485 172.207 178.286  1.00  0.00    -0.007 A 
ATOM     13  C   UNL     1     174.465 172.572 179.226  1.00  0.00     0.011 A 
ATOM     14  C   UNL     1     172.162 172.641 178.473  1.00  0.00     0.011 A 
ATOM     15  C   UNL     1     174.132 173.378 180.318  1.00  0.00     0.046 A 
ATOM     16  C   UNL     1     171.831 173.448 179.567  1.00  0.00     0.046 A 
ATOM     17  C   UNL     1     172.815 173.819 180.492  1.00  0.00     0.115 A 
BRANCH  17  18
ATOM     18  O   UNL     1     172.497 174.622 181.585  1.00  0.00    -0.508 OA
ATOM     19  H   UNL     1     171.628 175.139 181.625  1.00  0.00     0.293 HD
ENDBRANCH  17  18
ENDBRANCH   2  12
BRANCH   8  20
ATOM     20  O   UNL     1     175.005 170.199 172.130  1.00  0.00    -0.507 OA
ATOM     21  H   UNL     1     175.455 171.071 171.896  1.00  0.00     0.293 HD
ENDBRANCH   8  20
BRANCH   6  22
ATOM     22  O   UNL     1     170.398 168.906 172.665  1.00  0.00    -0.508 OA
ATOM     23  H   UNL     1     170.030 169.211 171.772  1.00  0.00     0.293 HD
ENDBRANCH   6  22
TORSDOF 4
ENDMDL
MODEL 9
REMARK VINA RESULT:    -5.897      4.158      5.667
REMARK INTER + INTRA:          -7.071
REMARK INTER:                  -6.770
REMARK INTRA:                  -0.300
REMARK UNBOUND:                -0.312
REMARK SMILES O=C1C[C@@H](c2ccc(O)cc2)Oc2cc(O)cc(O)c21
REMARK SMILES IDX 3 1 4 2 12 3 13 4 14 5 15 6 17 7 18 8 20 9 2 10 1 11 5 12
REMARK SMILES IDX 6 13 11 14 7 15 10 16 8 17 9 18 19 20 16 22
REMARK H PARENT 9 19 19 21 16 23
REMARK Flexibility Score: inf
ROOT
ATOM      1  C   UNL     1     171.484 172.700 176.175  1.00  0.00     0.131 C 
ATOM      2  C   UNL     1     172.946 172.583 176.628  1.00  0.00     0.211 C 
ATOM      3  O   UNL     1     173.471 171.292 176.306  1.00  0.00    -0.484 OA
ATOM      4  C   UNL     1     173.170 170.632 175.106  1.00  0.00     0.138 A 
ATOM      5  C   UNL     1     173.927 169.518 174.737  1.00  0.00     0.093 A 
ATOM      6  C   UNL     1     173.661 168.848 173.543  1.00  0.00     0.123 A 
ATOM      7  C   UNL     1     172.611 169.278 172.725  1.00  0.00     0.093 A 
ATOM      8  C   UNL     1     171.813 170.368 173.094  1.00  0.00     0.133 A 
ATOM      9  C   UNL     1     172.112 171.081 174.284  1.00  0.00     0.102 A 
ATOM     10  C   UNL     1     171.380 172.290 174.737  1.00  0.00     0.174 C 
ATOM     11  O   UNL     1     170.723 173.006 173.936  1.00  0.00    -0.294 OA
ENDROOT
BRANCH   2  12
ATOM     12  C   UNL     1     173.068 172.835 178.111  1.00  0.00    -0.007 A 
ATOM     13  C   UNL     1     174.310 172.708 178.758  1.00  0.00     0.011 A 
ATOM     14  C   UNL     1     171.928 173.144 178.872  1.00  0.00     0.011 A 
ATOM     15  C   UNL     1     174.413 172.912 180.137  1.00  0.00     0.046 A 
ATOM     16  C   UNL     1     172.034 173.348 180.252  1.00  0.00     0.046 A 
ATOM     17  C   UNL     1     173.276 173.233 180.887  1.00  0.00     0.115 A 
BRANCH  17  18
ATOM     18  O   UNL     1     173.393 173.434 182.261  1.00  0.00    -0.508 OA
ATOM     19  H   UNL     1     172.642 173.847 182.801  1.00  0.00     0.293 HD
ENDBRANCH  17  18
ENDBRANCH   2  12
BRANCH   8  20
ATOM     20  O   UNL     1     170.728 170.677 172.271  1.00  0.00    -0.507 OA
ATOM     21  H   UNL     1     169.974 171.292 172.538  1.00  0.00     0.293 HD
ENDBRANCH   8  20
BRANCH   6  22
ATOM     22  O   UNL     1     174.441 167.752 173.182  1.00  0.00    -0.508 OA
ATOM     23  H   UNL     1     174.706 167.046 173.859  1.00  0.00     0.293 HD
ENDBRANCH   6  22
TORSDOF 4
ENDMDL
