MODEL 1
REMARK VINA RESULT:    -4.593      0.000      0.000
REMARK INTER + INTRA:          -4.728
REMARK INTER:                  -4.728
REMARK INTRA:                   0.000
REMARK UNBOUND:                 0.000
REMARK SMILES O=c1ccc2ccc(O)cc2o1
REMARK SMILES IDX 6 1 7 2 8 3 10 4 11 5 5 6 4 7 3 8 2 9 1 10 12 11 9 12
REMARK H PARENT 9 13
REMARK Flexibility Score: inf
ROOT
ATOM      1  C   UNL     1      74.489  38.382  19.637  1.00  0.00     0.016 A 
ATOM      2  C   UNL     1      74.732  38.941  20.896  1.00  0.00     0.047 A 
ATOM      3  C   UNL     1      73.732  38.940  21.876  1.00  0.00     0.119 A 
ATOM      4  C   UNL     1      72.479  38.374  21.596  1.00  0.00     0.094 A 
ATOM      5  C   UNL     1      72.228  37.813  20.340  1.00  0.00     0.142 A 
ATOM      6  C   UNL     1      73.239  37.817  19.353  1.00  0.00     0.018 A 
ATOM      7  C   UNL     1      72.958  37.248  18.107  1.00  0.00     0.019 A 
ATOM      8  C   UNL     1      71.698  36.698  17.875  1.00  0.00     0.094 A 
ATOM      9  C   UNL     1      70.744  36.730  18.899  1.00  0.00     0.336 A 
ATOM     10  O   UNL     1      69.601  36.239  18.709  1.00  0.00    -0.246 OA
ATOM     11  O   UNL     1      71.037  37.277  20.076  1.00  0.00    -0.423 OA
ENDROOT
BRANCH   3  12
ATOM     12  O   UNL     1      73.993  39.502  23.124  1.00  0.00    -0.508 OA
ATOM     13  H   UNL     1      74.320  38.939  23.900  1.00  0.00     0.293 HD
ENDBRANCH   3  12
TORSDOF 1
ENDMDL
MODEL 2
REMARK VINA RESULT:    -4.430      2.677      5.278
REMARK INTER + INTRA:          -4.560
REMARK INTER:                  -4.560
REMARK INTRA:                   0.000
REMARK UNBOUND:                 0.000
REMARK SMILES O=c1ccc2ccc(O)cc2o1
REMARK SMILES IDX 6 1 7 2 8 3 10 4 11 5 5 6 4 7 3 8 2 9 1 10 12 11 9 12
REMARK H PARENT 9 13
REMARK Flexibility Score: inf
ROOT
ATOM      1  C   UNL     1      68.073  36.125  18.285  1.00  0.00     0.016 A 
ATOM      2  C   UNL     1      66.860  36.714  18.654  1.00  0.00     0.047 A 
ATOM      3  C   UNL     1      66.821  37.682  19.664  1.00  0.00     0.119 A 
ATOM      4  C   UNL     1      68.005  38.066  20.311  1.00  0.00     0.094 A 
ATOM      5  C   UNL     1      69.224  37.482  19.949  1.00  0.00     0.142 A 
ATOM      6  C   UNL     1      69.258  36.504  18.930  1.00  0.00     0.018 A 
ATOM      7  C   UNL     1      70.492  35.939  18.589  1.00  0.00     0.019 A 
ATOM      8  C   UNL     1      71.642  36.352  19.260  1.00  0.00     0.094 A 
ATOM      9  C   UNL     1      71.532  37.325  20.260  1.00  0.00     0.336 A 
ATOM     10  O   UNL     1      72.559  37.711  20.878  1.00  0.00    -0.246 OA
ATOM     11  O   UNL     1      70.346  37.847  20.565  1.00  0.00    -0.423 OA
ENDROOT
BRANCH   3  12
ATOM     12  O   UNL     1      65.602  38.257  20.017  1.00  0.00    -0.508 OA
ATOM     13  H   UNL     1      65.548  39.005  20.698  1.00  0.00     0.293 HD
ENDBRANCH   3  12
TORSDOF 1
ENDMDL
MODEL 3
REMARK VINA RESULT:    -4.427      1.608      2.285
REMARK INTER + INTRA:          -4.557
REMARK INTER:                  -4.557
REMARK INTRA:                   0.000
REMARK UNBOUND:                 0.000
REMARK SMILES O=c1ccc2ccc(O)cc2o1
REMARK SMILES IDX 6 1 7 2 8 3 10 4 11 5 5 6 4 7 3 8 2 9 1 10 12 11 9 12
REMARK H PARENT 9 13
REMARK Flexibility Score: inf
ROOT
ATOM      1  C   UNL     1      70.634  39.378  21.102  1.00  0.00     0.016 A 
ATOM      2  C   UNL     1      71.650  39.781  21.976  1.00  0.00     0.047 A 
ATOM      3  C   UNL     1      72.813  39.013  22.109  1.00  0.00     0.119 A 
ATOM      4  C   UNL     1      72.964  37.835  21.363  1.00  0.00     0.094 A 
ATOM      5  C   UNL     1      71.954  37.426  20.486  1.00  0.00     0.142 A 
ATOM      6  C   UNL     1      70.781  38.202  20.355  1.00  0.00     0.018 A 
ATOM      7  C   UNL     1      69.788  37.767  19.471  1.00  0.00     0.019 A 
ATOM      8  C   UNL     1      69.983  36.589  18.750  1.00  0.00     0.094 A 
ATOM      9  C   UNL     1      71.170  35.871  18.931  1.00  0.00     0.336 A 
ATOM     10  O   UNL     1      71.364  34.805  18.290  1.00  0.00    -0.246 OA
ATOM     11  O   UNL     1      72.099  36.306  19.779  1.00  0.00    -0.423 OA
ENDROOT
BRANCH   3  12
ATOM     12  O   UNL     1      73.814  39.430  22.985  1.00  0.00    -0.508 OA
ATOM     13  H   UNL     1      74.199  38.806  23.683  1.00  0.00     0.293 HD
ENDBRANCH   3  12
TORSDOF 1
ENDMDL
MODEL 4
REMARK VINA RESULT:    -4.388      2.887      4.812
REMARK INTER + INTRA:          -4.516
REMARK INTER:                  -4.516
REMARK INTRA:                   0.000
REMARK UNBOUND:                 0.000
REMARK SMILES O=c1ccc2ccc(O)cc2o1
REMARK SMILES IDX 6 1 7 2 8 3 10 4 11 5 5 6 4 7 3 8 2 9 1 10 12 11 9 12
REMARK H PARENT 9 13
REMARK Flexibility Score: inf
ROOT
ATOM      1  C   UNL     1      69.250  38.948  20.827  1.00  0.00     0.016 A 
ATOM      2  C   UNL     1      67.855  39.032  20.761  1.00  0.00     0.047 A 
ATOM      3  C   UNL     1      67.123  38.084  20.035  1.00  0.00     0.119 A 
ATOM      4  C   UNL     1      67.790  37.045  19.370  1.00  0.00     0.094 A 
ATOM      5  C   UNL     1      69.184  36.953  19.431  1.00  0.00     0.142 A 
ATOM      6  C   UNL     1      69.919  37.911  20.164  1.00  0.00     0.018 A 
ATOM      7  C   UNL     1      71.312  37.793  20.207  1.00  0.00     0.019 A 
ATOM      8  C   UNL     1      71.931  36.742  19.531  1.00  0.00     0.094 A 
ATOM      9  C   UNL     1      71.139  35.830  18.824  1.00  0.00     0.336 A 
ATOM     10  O   UNL     1      71.678  34.875  18.206  1.00  0.00    -0.246 OA
ATOM     11  O   UNL     1      69.815  35.965  18.799  1.00  0.00    -0.423 OA
ENDROOT
BRANCH   3  12
ATOM     12  O   UNL     1      65.734  38.185  19.981  1.00  0.00    -0.508 OA
ATOM     13  H   UNL     1      65.136  37.470  20.377  1.00  0.00     0.293 HD
ENDBRANCH   3  12
TORSDOF 1
ENDMDL
MODEL 5
REMARK VINA RESULT:    -4.280      1.512      2.043
REMARK INTER + INTRA:          -4.405
REMARK INTER:                  -4.405
REMARK INTRA:                   0.000
REMARK UNBOUND:                 0.000
REMARK SMILES O=c1ccc2ccc(O)cc2o1
REMARK SMILES IDX 6 1 7 2 8 3 10 4 11 5 5 6 4 7 3 8 2 9 1 10 12 11 9 12
REMARK H PARENT 9 13
REMARK Flexibility Score: inf
ROOT
ATOM      1  C   UNL     1      75.128  40.406  19.865  1.00  0.00     0.016 A 
ATOM      2  C   UNL     1      75.425  41.049  21.071  1.00  0.00     0.047 A 
ATOM      3  C   UNL     1      74.829  40.624  22.265  1.00  0.00     0.119 A 
ATOM      4  C   UNL     1      73.930  39.547  22.253  1.00  0.00     0.094 A 
ATOM      5  C   UNL     1      73.627  38.898  21.052  1.00  0.00     0.142 A 
ATOM      6  C   UNL     1      74.230  39.331  19.849  1.00  0.00     0.018 A 
ATOM      7  C   UNL     1      73.908  38.662  18.664  1.00  0.00     0.019 A 
ATOM      8  C   UNL     1      73.009  37.597  18.702  1.00  0.00     0.094 A 
ATOM      9  C   UNL     1      72.450  37.224  19.930  1.00  0.00     0.336 A 
ATOM     10  O   UNL     1      71.636  36.266  19.985  1.00  0.00    -0.246 OA
ATOM     11  O   UNL     1      72.773  37.877  21.044  1.00  0.00    -0.423 OA
ENDROOT
BRANCH   3  12
ATOM     12  O   UNL     1      75.137  41.277  23.456  1.00  0.00    -0.508 OA
ATOM     13  H   UNL     1      74.420  41.722  24.017  1.00  0.00     0.293 HD
ENDBRANCH   3  12
TORSDOF 1
ENDMDL
MODEL 6
REMARK VINA RESULT:    -4.266      2.095      2.577
REMARK INTER + INTRA:          -4.390
REMARK INTER:                  -4.390
REMARK INTRA:                   0.000
REMARK UNBOUND:                 0.000
REMARK SMILES O=c1ccc2ccc(O)cc2o1
REMARK SMILES IDX 6 1 7 2 8 3 10 4 11 5 5 6 4 7 3 8 2 9 1 10 12 11 9 12
REMARK H PARENT 9 13
REMARK Flexibility Score: inf
ROOT
ATOM      1  C   UNL     1      72.351  37.310  20.318  1.00  0.00     0.016 A 
ATOM      2  C   UNL     1      73.254  37.815  21.259  1.00  0.00     0.047 A 
ATOM      3  C   UNL     1      72.901  38.907  22.063  1.00  0.00     0.119 A 
ATOM      4  C   UNL     1      71.635  39.496  21.925  1.00  0.00     0.094 A 
ATOM      5  C   UNL     1      70.726  38.997  20.988  1.00  0.00     0.142 A 
ATOM      6  C   UNL     1      71.086  37.897  20.178  1.00  0.00     0.018 A 
ATOM      7  C   UNL     1      70.156  37.419  19.249  1.00  0.00     0.019 A 
ATOM      8  C   UNL     1      68.910  38.038  19.149  1.00  0.00     0.094 A 
ATOM      9  C   UNL     1      68.623  39.124  19.983  1.00  0.00     0.336 A 
ATOM     10  O   UNL     1      67.504  39.697  19.907  1.00  0.00    -0.246 OA
ATOM     11  O   UNL     1      69.526  39.559  20.858  1.00  0.00    -0.423 OA
ENDROOT
BRANCH   3  12
ATOM     12  O   UNL     1      73.814  39.396  22.994  1.00  0.00    -0.508 OA
ATOM     13  H   UNL     1      74.771  39.606  22.737  1.00  0.00     0.293 HD
ENDBRANCH   3  12
TORSDOF 1
ENDMDL
MODEL 7
REMARK VINA RESULT:    -4.199      2.946      5.949
REMARK INTER + INTRA:          -4.322
REMARK INTER:                  -4.322
REMARK INTRA:                   0.000
REMARK UNBOUND:                 0.000
REMARK SMILES O=c1ccc2ccc(O)cc2o1
REMARK SMILES IDX 6 1 7 2 8 3 10 4 11 5 5 6 4 7 3 8 2 9 1 10 12 11 9 12
REMARK H PARENT 9 13
REMARK Flexibility Score: inf
ROOT
ATOM      1  C   UNL     1      66.889  38.082  19.969  1.00  0.00     0.016 A 
ATOM      2  C   UNL     1      66.543  36.992  19.164  1.00  0.00     0.047 A 
ATOM      3  C   UNL     1      67.533  36.130  18.677  1.00  0.00     0.119 A 
ATOM      4  C   UNL     1      68.879  36.358  18.999  1.00  0.00     0.094 A 
ATOM      5  C   UNL     1      69.234  37.444  19.805  1.00  0.00     0.142 A 
ATOM      6  C   UNL     1      68.233  38.313  20.293  1.00  0.00     0.018 A 
ATOM      7  C   UNL     1      68.618  39.391  21.096  1.00  0.00     0.019 A 
ATOM      8  C   UNL     1      69.969  39.577  21.390  1.00  0.00     0.094 A 
ATOM      9  C   UNL     1      70.906  38.676  20.870  1.00  0.00     0.336 A 
ATOM     10  O   UNL     1      72.130  38.827  21.123  1.00  0.00    -0.246 OA
ATOM     11  O   UNL     1      70.513  37.658  20.108  1.00  0.00    -0.423 OA
ENDROOT
BRANCH   3  12
ATOM     12  O   UNL     1      67.168  35.050  17.875  1.00  0.00    -0.508 OA
ATOM     13  H   UNL     1      67.388  34.097  18.139  1.00  0.00     0.293 HD
ENDBRANCH   3  12
TORSDOF 1
ENDMDL
MODEL 8
REMARK VINA RESULT:    -4.173      2.259      4.521
REMARK INTER + INTRA:          -4.295
REMARK INTER:                  -4.295
REMARK INTRA:                   0.000
REMARK UNBOUND:                 0.000
REMARK SMILES O=c1ccc2ccc(O)cc2o1
REMARK SMILES IDX 6 1 7 2 8 3 10 4 11 5 5 6 4 7 3 8 2 9 1 10 12 11 9 12
REMARK H PARENT 9 13
REMARK Flexibility Score: inf
ROOT
ATOM      1  C   UNL     1      70.370  37.739  20.055  1.00  0.00     0.016 A 
ATOM      2  C   UNL     1      69.118  38.282  20.361  1.00  0.00     0.047 A 
ATOM      3  C   UNL     1      69.008  39.329  21.285  1.00  0.00     0.119 A 
ATOM      4  C   UNL     1      70.159  39.837  21.906  1.00  0.00     0.094 A 
ATOM      5  C   UNL     1      71.414  39.300  21.606  1.00  0.00     0.142 A 
ATOM      6  C   UNL     1      71.521  38.243  20.674  1.00  0.00     0.018 A 
ATOM      7  C   UNL     1      72.790  37.727  20.394  1.00  0.00     0.019 A 
ATOM      8  C   UNL     1      73.905  38.265  21.036  1.00  0.00     0.094 A 
ATOM      9  C   UNL     1      73.724  39.310  21.949  1.00  0.00     0.336 A 
ATOM     10  O   UNL     1      74.717  39.809  22.540  1.00  0.00    -0.246 OA
ATOM     11  O   UNL     1      72.505  39.784  22.198  1.00  0.00    -0.423 OA
ENDROOT
BRANCH   3  12
ATOM     12  O   UNL     1      67.752  39.857  21.577  1.00  0.00    -0.508 OA
ATOM     13  H   UNL     1      67.315  39.713  22.479  1.00  0.00     0.293 HD
ENDBRANCH   3  12
TORSDOF 1
ENDMDL
MODEL 9
REMARK VINA RESULT:    -4.120      1.409      4.370
REMARK INTER + INTRA:          -4.240
REMARK INTER:                  -4.240
REMARK INTRA:                   0.000
REMARK UNBOUND:                 0.000
REMARK SMILES O=c1ccc2ccc(O)cc2o1
REMARK SMILES IDX 6 1 7 2 8 3 10 4 11 5 5 6 4 7 3 8 2 9 1 10 12 11 9 12
REMARK H PARENT 9 13
REMARK Flexibility Score: inf
ROOT
ATOM      1  C   UNL     1      73.496  38.005  18.280  1.00  0.00     0.016 A 
ATOM      2  C   UNL     1      72.577  36.993  18.574  1.00  0.00     0.047 A 
ATOM      3  C   UNL     1      72.118  36.812  19.885  1.00  0.00     0.119 A 
ATOM      4  C   UNL     1      72.581  37.651  20.910  1.00  0.00     0.094 A 
ATOM      5  C   UNL     1      73.499  38.666  20.625  1.00  0.00     0.142 A 
ATOM      6  C   UNL     1      73.961  38.845  19.302  1.00  0.00     0.018 A 
ATOM      7  C   UNL     1      74.879  39.869  19.048  1.00  0.00     0.019 A 
ATOM      8  C   UNL     1      75.309  40.678  20.099  1.00  0.00     0.094 A 
ATOM      9  C   UNL     1      74.810  40.442  21.385  1.00  0.00     0.336 A 
ATOM     10  O   UNL     1      75.187  41.161  22.347  1.00  0.00    -0.246 OA
ATOM     11  O   UNL     1      73.937  39.461  21.600  1.00  0.00    -0.423 OA
ENDROOT
BRANCH   3  12
ATOM     12  O   UNL     1      71.203  35.797  20.158  1.00  0.00    -0.508 OA
ATOM     13  H   UNL     1      71.139  34.972  19.574  1.00  0.00     0.293 HD
ENDBRANCH   3  12
TORSDOF 1
ENDMDL
