MODEL 1
REMARK VINA RESULT:    -5.881      0.000      0.000
REMARK INTER + INTRA:         -12.870
REMARK INTER:                 -11.381
REMARK INTRA:                  -1.489
REMARK UNBOUND:                -1.489
REMARK SMILES CCCCCCCCCCCCCCCCCC(=O)[O-]
REMARK SMILES IDX 10 1 11 2 12 3 13 4 14 5 15 6 16 7 17 8 18 9 19 10 20 11
REMARK SMILES IDX 9 12 8 13 7 14 6 15 5 16 4 17 3 18 2 19 1 20
REMARK H PARENT
REMARK Flexibility Score: inf
ROOT
ATOM      1  C   UNL     1     101.879 306.800 197.077  1.00  0.00     0.000 C 
ENDROOT
BRANCH   1   2
ATOM      2  C   UNL     1     101.854 305.498 197.897  1.00  0.00     0.000 C 
BRANCH   2   3
ATOM      3  C   UNL     1     101.456 305.722 199.368  1.00  0.00     0.000 C 
BRANCH   3   4
ATOM      4  C   UNL     1     102.121 306.931 200.051  1.00  0.00     0.000 C 
BRANCH   4   5
ATOM      5  C   UNL     1     102.717 306.592 201.425  1.00  0.00     0.000 C 
BRANCH   5   6
ATOM      6  C   UNL     1     101.673 305.914 202.324  1.00  0.00     0.000 C 
BRANCH   6   7
ATOM      7  C   UNL     1     102.301 304.961 203.357  1.00  0.00     0.006 C 
BRANCH   7   8
ATOM      8  C   UNL     1     102.009 305.328 204.821  1.00  0.00     0.053 C 
BRANCH   8   9
ATOM      9  C   UNL     1     103.179 305.990 205.481  1.00  0.00     0.041 C 
ATOM     10  O   UNL     1     103.328 305.916 206.729  1.00  0.00    -0.550 OA
ATOM     11  O   UNL     1     104.124 306.658 204.713  1.00  0.00    -0.550 OA
ENDBRANCH   8   9
ENDBRANCH   7   8
ENDBRANCH   6   7
ENDBRANCH   5   6
ENDBRANCH   4   5
ENDBRANCH   3   4
ENDBRANCH   2   3
ENDBRANCH   1   2
BRANCH   1  12
ATOM     12  C   UNL     1     102.507 306.609 195.687  1.00  0.00     0.000 C 
BRANCH  12  13
ATOM     13  C   UNL     1     101.484 306.127 194.642  1.00  0.00    -0.000 C 
BRANCH  13  14
ATOM     14  C   UNL     1     102.128 305.837 193.276  1.00  0.00    -0.000 C 
BRANCH  14  15
ATOM     15  C   UNL     1     103.612 306.231 193.222  1.00  0.00    -0.000 C 
BRANCH  15  16
ATOM     16  C   UNL     1     103.828 307.427 192.284  1.00  0.00    -0.000 C 
BRANCH  16  17
ATOM     17  C   UNL     1     102.550 307.831 191.534  1.00  0.00    -0.000 C 
BRANCH  17  18
ATOM     18  C   UNL     1     102.168 309.303 191.765  1.00  0.00    -0.000 C 
BRANCH  18  19
ATOM     19  C   UNL     1     102.740 309.861 193.078  1.00  0.00    -0.003 C 
ATOM     20  C   UNL     1     101.710 309.880 194.208  1.00  0.00     0.004 C 
ENDBRANCH  18  19
ENDBRANCH  17  18
ENDBRANCH  16  17
ENDBRANCH  15  16
ENDBRANCH  14  15
ENDBRANCH  13  14
ENDBRANCH  12  13
ENDBRANCH   1  12
TORSDOF 16
ENDMDL
MODEL 2
REMARK VINA RESULT:    -5.826     19.658     20.603
REMARK INTER + INTRA:         -12.764
REMARK INTER:                 -11.738
REMARK INTRA:                  -1.026
REMARK UNBOUND:                -1.489
REMARK SMILES CCCCCCCCCCCCCCCCCC(=O)[O-]
REMARK SMILES IDX 10 1 11 2 12 3 13 4 14 5 15 6 16 7 17 8 18 9 19 10 20 11
REMARK SMILES IDX 9 12 8 13 7 14 6 15 5 16 4 17 3 18 2 19 1 20
REMARK H PARENT
REMARK Flexibility Score: inf
ROOT
ATOM      1  C   UNL     1      86.984 319.267 197.633  1.00  0.00     0.000 C 
ENDROOT
BRANCH   1   2
ATOM      2  C   UNL     1      86.852 320.704 198.166  1.00  0.00     0.000 C 
BRANCH   2   3
ATOM      3  C   UNL     1      87.644 320.937 199.467  1.00  0.00     0.000 C 
BRANCH   3   4
ATOM      4  C   UNL     1      87.391 319.906 200.581  1.00  0.00     0.000 C 
BRANCH   4   5
ATOM      5  C   UNL     1      87.441 320.518 201.989  1.00  0.00     0.000 C 
BRANCH   5   6
ATOM      6  C   UNL     1      88.892 320.714 202.450  1.00  0.00     0.000 C 
BRANCH   6   7
ATOM      7  C   UNL     1      88.999 321.507 203.766  1.00  0.00     0.006 C 
BRANCH   7   8
ATOM      8  C   UNL     1      87.666 321.687 204.509  1.00  0.00     0.053 C 
BRANCH   8   9
ATOM      9  C   UNL     1      87.536 320.748 205.669  1.00  0.00     0.041 C 
ATOM     10  O   UNL     1      86.760 319.759 205.598  1.00  0.00    -0.550 OA
ATOM     11  O   UNL     1      88.297 320.946 206.813  1.00  0.00    -0.550 OA
ENDBRANCH   8   9
ENDBRANCH   7   8
ENDBRANCH   6   7
ENDBRANCH   5   6
ENDBRANCH   4   5
ENDBRANCH   3   4
ENDBRANCH   2   3
ENDBRANCH   1   2
BRANCH   1  12
ATOM     12  C   UNL     1      87.146 319.218 196.105  1.00  0.00     0.000 C 
BRANCH  12  13
ATOM     13  C   UNL     1      87.344 320.615 195.489  1.00  0.00    -0.000 C 
BRANCH  13  14
ATOM     14  C   UNL     1      86.340 320.913 194.365  1.00  0.00    -0.000 C 
BRANCH  14  15
ATOM     15  C   UNL     1      85.004 320.177 194.550  1.00  0.00    -0.000 C 
BRANCH  15  16
ATOM     16  C   UNL     1      84.650 319.361 193.298  1.00  0.00    -0.000 C 
BRANCH  16  17
ATOM     17  C   UNL     1      85.888 318.780 192.599  1.00  0.00    -0.000 C 
BRANCH  17  18
ATOM     18  C   UNL     1      85.525 317.825 191.448  1.00  0.00    -0.000 C 
BRANCH  18  19
ATOM     19  C   UNL     1      86.724 317.514 190.540  1.00  0.00    -0.003 C 
ATOM     20  C   UNL     1      86.312 317.233 189.095  1.00  0.00     0.004 C 
ENDBRANCH  18  19
ENDBRANCH  17  18
ENDBRANCH  16  17
ENDBRANCH  15  16
ENDBRANCH  14  15
ENDBRANCH  13  14
ENDBRANCH  12  13
ENDBRANCH   1  12
TORSDOF 16
ENDMDL
MODEL 3
REMARK VINA RESULT:    -5.785      1.788      2.984
REMARK INTER + INTRA:         -12.685
REMARK INTER:                 -11.835
REMARK INTRA:                  -0.850
REMARK UNBOUND:                -1.489
REMARK SMILES CCCCCCCCCCCCCCCCCC(=O)[O-]
REMARK SMILES IDX 10 1 11 2 12 3 13 4 14 5 15 6 16 7 17 8 18 9 19 10 20 11
REMARK SMILES IDX 9 12 8 13 7 14 6 15 5 16 4 17 3 18 2 19 1 20
REMARK H PARENT
REMARK Flexibility Score: inf
ROOT
ATOM      1  C   UNL     1     101.491 306.023 195.045  1.00  0.00     0.000 C 
ENDROOT
BRANCH   1   2
ATOM      2  C   UNL     1     102.339 307.088 195.761  1.00  0.00     0.000 C 
BRANCH   2   3
ATOM      3  C   UNL     1     102.065 307.156 197.275  1.00  0.00     0.000 C 
BRANCH   3   4
ATOM      4  C   UNL     1     101.838 305.797 197.962  1.00  0.00     0.000 C 
BRANCH   4   5
ATOM      5  C   UNL     1     101.229 305.927 199.365  1.00  0.00     0.000 C 
BRANCH   5   6
ATOM      6  C   UNL     1     102.327 306.055 200.431  1.00  0.00     0.000 C 
BRANCH   6   7
ATOM      7  C   UNL     1     101.763 306.244 201.851  1.00  0.00     0.006 C 
BRANCH   7   8
ATOM      8  C   UNL     1     102.150 305.132 202.840  1.00  0.00     0.053 C 
BRANCH   8   9
ATOM      9  C   UNL     1     101.982 305.562 204.265  1.00  0.00     0.041 C 
ATOM     10  O   UNL     1     102.500 306.637 204.667  1.00  0.00    -0.550 OA
ATOM     11  O   UNL     1     101.224 304.793 205.139  1.00  0.00    -0.550 OA
ENDBRANCH   8   9
ENDBRANCH   7   8
ENDBRANCH   6   7
ENDBRANCH   5   6
ENDBRANCH   4   5
ENDBRANCH   3   4
ENDBRANCH   2   3
ENDBRANCH   1   2
BRANCH   1  12
ATOM     12  C   UNL     1     101.857 305.880 193.559  1.00  0.00     0.000 C 
BRANCH  12  13
ATOM     13  C   UNL     1     103.353 306.131 193.295  1.00  0.00    -0.000 C 
BRANCH  13  14
ATOM     14  C   UNL     1     103.597 307.353 192.396  1.00  0.00    -0.000 C 
BRANCH  14  15
ATOM     15  C   UNL     1     102.316 308.156 192.122  1.00  0.00    -0.000 C 
BRANCH  15  16
ATOM     16  C   UNL     1     102.037 308.247 190.615  1.00  0.00    -0.000 C 
BRANCH  16  17
ATOM     17  C   UNL     1     102.655 309.498 189.972  1.00  0.00    -0.000 C 
BRANCH  17  18
ATOM     18  C   UNL     1     102.015 309.843 188.616  1.00  0.00    -0.000 C 
BRANCH  18  19
ATOM     19  C   UNL     1     100.738 309.034 188.344  1.00  0.00    -0.003 C 
ATOM     20  C   UNL     1      99.511 309.922 188.133  1.00  0.00     0.004 C 
ENDBRANCH  18  19
ENDBRANCH  17  18
ENDBRANCH  16  17
ENDBRANCH  15  16
ENDBRANCH  14  15
ENDBRANCH  13  14
ENDBRANCH  12  13
ENDBRANCH   1  12
TORSDOF 16
ENDMDL
MODEL 4
REMARK VINA RESULT:    -5.764      1.278      1.965
REMARK INTER + INTRA:         -12.644
REMARK INTER:                 -11.657
REMARK INTRA:                  -0.987
REMARK UNBOUND:                -1.489
REMARK SMILES CCCCCCCCCCCCCCCCCC(=O)[O-]
REMARK SMILES IDX 10 1 11 2 12 3 13 4 14 5 15 6 16 7 17 8 18 9 19 10 20 11
REMARK SMILES IDX 9 12 8 13 7 14 6 15 5 16 4 17 3 18 2 19 1 20
REMARK H PARENT
REMARK Flexibility Score: inf
ROOT
ATOM      1  C   UNL     1     102.062 307.705 196.385  1.00  0.00     0.000 C 
ENDROOT
BRANCH   1   2
ATOM      2  C   UNL     1     101.800 307.560 197.894  1.00  0.00     0.000 C 
BRANCH   2   3
ATOM      3  C   UNL     1     101.722 306.092 198.352  1.00  0.00     0.000 C 
BRANCH   3   4
ATOM      4  C   UNL     1     101.641 305.884 199.875  1.00  0.00     0.000 C 
BRANCH   4   5
ATOM      5  C   UNL     1     102.053 307.128 200.674  1.00  0.00     0.000 C 
BRANCH   5   6
ATOM      6  C   UNL     1     102.491 306.748 202.096  1.00  0.00     0.000 C 
BRANCH   6   7
ATOM      7  C   UNL     1     101.737 305.524 202.646  1.00  0.00     0.006 C 
BRANCH   7   8
ATOM      8  C   UNL     1     102.441 304.817 203.816  1.00  0.00     0.053 C 
BRANCH   8   9
ATOM      9  C   UNL     1     102.171 305.491 205.127  1.00  0.00     0.041 C 
ATOM     10  O   UNL     1     101.010 305.889 205.406  1.00  0.00    -0.550 OA
ATOM     11  O   UNL     1     103.195 305.647 206.052  1.00  0.00    -0.550 OA
ENDBRANCH   8   9
ENDBRANCH   7   8
ENDBRANCH   6   7
ENDBRANCH   5   6
ENDBRANCH   4   5
ENDBRANCH   3   4
ENDBRANCH   2   3
ENDBRANCH   1   2
BRANCH   1  12
ATOM     12  C   UNL     1     102.432 306.369 195.720  1.00  0.00     0.000 C 
BRANCH  12  13
ATOM     13  C   UNL     1     101.423 305.954 194.633  1.00  0.00    -0.000 C 
BRANCH  13  14
ATOM     14  C   UNL     1     102.077 305.793 193.252  1.00  0.00    -0.000 C 
BRANCH  14  15
ATOM     15  C   UNL     1     103.558 306.203 193.243  1.00  0.00    -0.000 C 
BRANCH  15  16
ATOM     16  C   UNL     1     103.800 307.361 192.264  1.00  0.00    -0.000 C 
BRANCH  16  17
ATOM     17  C   UNL     1     102.501 307.893 191.642  1.00  0.00    -0.000 C 
BRANCH  17  18
ATOM     18  C   UNL     1     102.757 308.872 190.483  1.00  0.00    -0.000 C 
BRANCH  18  19
ATOM     19  C   UNL     1     101.515 309.081 189.602  1.00  0.00    -0.003 C 
ATOM     20  C   UNL     1     101.837 309.799 188.291  1.00  0.00     0.004 C 
ENDBRANCH  18  19
ENDBRANCH  17  18
ENDBRANCH  16  17
ENDBRANCH  15  16
ENDBRANCH  14  15
ENDBRANCH  13  14
ENDBRANCH  12  13
ENDBRANCH   1  12
TORSDOF 16
ENDMDL
MODEL 5
REMARK VINA RESULT:    -5.685      4.773     10.689
REMARK INTER + INTRA:         -12.492
REMARK INTER:                 -11.678
REMARK INTRA:                  -0.814
REMARK UNBOUND:                -1.489
REMARK SMILES CCCCCCCCCCCCCCCCCC(=O)[O-]
REMARK SMILES IDX 10 1 11 2 12 3 13 4 14 5 15 6 16 7 17 8 18 9 19 10 20 11
REMARK SMILES IDX 9 12 8 13 7 14 6 15 5 16 4 17 3 18 2 19 1 20
REMARK H PARENT
REMARK Flexibility Score: inf
ROOT
ATOM      1  C   UNL     1     101.860 306.676 197.191  1.00  0.00     0.000 C 
ENDROOT
BRANCH   1   2
ATOM      2  C   UNL     1     102.526 306.292 195.858  1.00  0.00     0.000 C 
BRANCH   2   3
ATOM      3  C   UNL     1     101.511 306.072 194.721  1.00  0.00     0.000 C 
BRANCH   3   4
ATOM      4  C   UNL     1     102.128 305.783 193.340  1.00  0.00     0.000 C 
BRANCH   4   5
ATOM      5  C   UNL     1     103.565 306.304 193.202  1.00  0.00     0.000 C 
BRANCH   5   6
ATOM      6  C   UNL     1     103.631 307.480 192.218  1.00  0.00     0.000 C 
BRANCH   6   7
ATOM      7  C   UNL     1     102.254 307.855 191.641  1.00  0.00     0.006 C 
BRANCH   7   8
ATOM      8  C   UNL     1     102.309 308.788 190.420  1.00  0.00     0.053 C 
BRANCH   8   9
ATOM      9  C   UNL     1     101.869 310.180 190.755  1.00  0.00     0.041 C 
ATOM     10  O   UNL     1     102.331 310.764 191.771  1.00  0.00    -0.550 OA
ATOM     11  O   UNL     1     100.974 310.845 189.926  1.00  0.00    -0.550 OA
ENDBRANCH   8   9
ENDBRANCH   7   8
ENDBRANCH   6   7
ENDBRANCH   5   6
ENDBRANCH   4   5
ENDBRANCH   3   4
ENDBRANCH   2   3
ENDBRANCH   1   2
BRANCH   1  12
ATOM     12  C   UNL     1     101.814 305.504 198.185  1.00  0.00     0.000 C 
BRANCH  12  13
ATOM     13  C   UNL     1     101.321 305.935 199.579  1.00  0.00    -0.000 C 
BRANCH  13  14
ATOM     14  C   UNL     1     102.187 307.045 200.194  1.00  0.00    -0.000 C 
BRANCH  14  15
ATOM     15  C   UNL     1     102.640 306.722 201.626  1.00  0.00    -0.000 C 
BRANCH  15  16
ATOM     16  C   UNL     1     101.621 305.816 202.333  1.00  0.00    -0.000 C 
BRANCH  16  17
ATOM     17  C   UNL     1     102.271 304.887 203.368  1.00  0.00    -0.000 C 
BRANCH  17  18
ATOM     18  C   UNL     1     102.093 305.392 204.811  1.00  0.00    -0.000 C 
BRANCH  18  19
ATOM     19  C   UNL     1     103.412 305.880 205.430  1.00  0.00    -0.003 C 
ATOM     20  C   UNL     1     103.235 306.404 206.855  1.00  0.00     0.004 C 
ENDBRANCH  18  19
ENDBRANCH  17  18
ENDBRANCH  16  17
ENDBRANCH  15  16
ENDBRANCH  14  15
ENDBRANCH  13  14
ENDBRANCH  12  13
ENDBRANCH   1  12
TORSDOF 16
ENDMDL
MODEL 6
REMARK VINA RESULT:    -5.680     19.939     22.739
REMARK INTER + INTRA:         -12.482
REMARK INTER:                 -11.425
REMARK INTRA:                  -1.058
REMARK UNBOUND:                -1.489
REMARK SMILES CCCCCCCCCCCCCCCCCC(=O)[O-]
REMARK SMILES IDX 10 1 11 2 12 3 13 4 14 5 15 6 16 7 17 8 18 9 19 10 20 11
REMARK SMILES IDX 9 12 8 13 7 14 6 15 5 16 4 17 3 18 2 19 1 20
REMARK H PARENT
REMARK Flexibility Score: inf
ROOT
ATOM      1  C   UNL     1      87.291 320.723 198.835  1.00  0.00     0.000 C 
ENDROOT
BRANCH   1   2
ATOM      2  C   UNL     1      87.263 319.340 198.164  1.00  0.00     0.000 C 
BRANCH   2   3
ATOM      3  C   UNL     1      86.922 319.407 196.663  1.00  0.00     0.000 C 
BRANCH   3   4
ATOM      4  C   UNL     1      87.365 320.696 195.947  1.00  0.00     0.000 C 
BRANCH   4   5
ATOM      5  C   UNL     1      86.720 320.868 194.565  1.00  0.00     0.000 C 
BRANCH   5   6
ATOM      6  C   UNL     1      85.213 320.577 194.622  1.00  0.00     0.000 C 
BRANCH   6   7
ATOM      7  C   UNL     1      84.768 319.522 193.593  1.00  0.00     0.006 C 
BRANCH   7   8
ATOM      8  C   UNL     1      85.919 318.889 192.794  1.00  0.00     0.053 C 
BRANCH   8   9
ATOM      9  C   UNL     1      86.057 317.423 193.069  1.00  0.00     0.041 C 
ATOM     10  O   UNL     1      85.367 316.590 192.424  1.00  0.00    -0.550 OA
ATOM     11  O   UNL     1      86.972 316.976 194.013  1.00  0.00    -0.550 OA
ENDBRANCH   8   9
ENDBRANCH   7   8
ENDBRANCH   6   7
ENDBRANCH   5   6
ENDBRANCH   4   5
ENDBRANCH   3   4
ENDBRANCH   2   3
ENDBRANCH   1   2
BRANCH   1  12
ATOM     12  C   UNL     1      87.352 320.632 200.369  1.00  0.00     0.000 C 
BRANCH  12  13
ATOM     13  C   UNL     1      88.780 320.379 200.886  1.00  0.00    -0.000 C 
BRANCH  13  14
ATOM     14  C   UNL     1      88.977 320.859 202.333  1.00  0.00    -0.000 C 
BRANCH  14  15
ATOM     15  C   UNL     1      87.735 320.635 203.210  1.00  0.00    -0.000 C 
BRANCH  15  16
ATOM     16  C   UNL     1      87.802 321.488 204.484  1.00  0.00    -0.000 C 
BRANCH  16  17
ATOM     17  C   UNL     1      87.952 320.642 205.757  1.00  0.00    -0.000 C 
BRANCH  17  18
ATOM     18  C   UNL     1      86.702 320.695 206.653  1.00  0.00    -0.000 C 
BRANCH  18  19
ATOM     19  C   UNL     1      86.135 319.299 206.957  1.00  0.00    -0.003 C 
ATOM     20  C   UNL     1      85.226 318.778 205.843  1.00  0.00     0.004 C 
ENDBRANCH  18  19
ENDBRANCH  17  18
ENDBRANCH  16  17
ENDBRANCH  15  16
ENDBRANCH  14  15
ENDBRANCH  13  14
ENDBRANCH  12  13
ENDBRANCH   1  12
TORSDOF 16
ENDMDL
MODEL 7
REMARK VINA RESULT:    -5.680      0.997      2.247
REMARK INTER + INTRA:         -12.482
REMARK INTER:                 -10.812
REMARK INTRA:                  -1.670
REMARK UNBOUND:                -1.489
REMARK SMILES CCCCCCCCCCCCCCCCCC(=O)[O-]
REMARK SMILES IDX 10 1 11 2 12 3 13 4 14 5 15 6 16 7 17 8 18 9 19 10 20 11
REMARK SMILES IDX 9 12 8 13 7 14 6 15 5 16 4 17 3 18 2 19 1 20
REMARK H PARENT
REMARK Flexibility Score: inf
ROOT
ATOM      1  C   UNL     1     101.450 306.238 194.977  1.00  0.00     0.000 C 
ENDROOT
BRANCH   1   2
ATOM      2  C   UNL     1     102.500 306.072 196.089  1.00  0.00     0.000 C 
BRANCH   2   3
ATOM      3  C   UNL     1     102.031 306.633 197.446  1.00  0.00     0.000 C 
BRANCH   3   4
ATOM      4  C   UNL     1     101.638 305.574 198.492  1.00  0.00     0.000 C 
BRANCH   4   5
ATOM      5  C   UNL     1     101.228 306.185 199.840  1.00  0.00     0.000 C 
BRANCH   5   6
ATOM      6  C   UNL     1     102.346 306.023 200.879  1.00  0.00     0.000 C 
BRANCH   6   7
ATOM      7  C   UNL     1     101.830 306.080 202.328  1.00  0.00     0.006 C 
BRANCH   7   8
ATOM      8  C   UNL     1     102.317 304.927 203.221  1.00  0.00     0.053 C 
BRANCH   8   9
ATOM      9  C   UNL     1     102.291 305.290 204.674  1.00  0.00     0.041 C 
ATOM     10  O   UNL     1     103.223 305.975 205.172  1.00  0.00    -0.550 OA
ATOM     11  O   UNL     1     101.220 304.902 205.469  1.00  0.00    -0.550 OA
ENDBRANCH   8   9
ENDBRANCH   7   8
ENDBRANCH   6   7
ENDBRANCH   5   6
ENDBRANCH   4   5
ENDBRANCH   3   4
ENDBRANCH   2   3
ENDBRANCH   1   2
BRANCH   1  12
ATOM     12  C   UNL     1     101.996 305.859 193.591  1.00  0.00     0.000 C 
BRANCH  12  13
ATOM     13  C   UNL     1     103.509 306.114 193.465  1.00  0.00    -0.000 C 
BRANCH  13  14
ATOM     14  C   UNL     1     103.834 307.294 192.534  1.00  0.00    -0.000 C 
BRANCH  14  15
ATOM     15  C   UNL     1     102.642 307.705 191.657  1.00  0.00    -0.000 C 
BRANCH  15  16
ATOM     16  C   UNL     1     102.368 309.212 191.775  1.00  0.00    -0.000 C 
BRANCH  16  17
ATOM     17  C   UNL     1     102.708 309.769 193.165  1.00  0.00    -0.000 C 
BRANCH  17  18
ATOM     18  C   UNL     1     101.481 309.839 194.090  1.00  0.00    -0.000 C 
BRANCH  18  19
ATOM     19  C   UNL     1     101.866 309.941 195.574  1.00  0.00    -0.003 C 
ATOM     20  C   UNL     1     100.655 309.863 196.504  1.00  0.00     0.004 C 
ENDBRANCH  18  19
ENDBRANCH  17  18
ENDBRANCH  16  17
ENDBRANCH  15  16
ENDBRANCH  14  15
ENDBRANCH  13  14
ENDBRANCH  12  13
ENDBRANCH   1  12
TORSDOF 16
ENDMDL
MODEL 8
REMARK VINA RESULT:    -5.676     18.937     20.466
REMARK INTER + INTRA:         -12.473
REMARK INTER:                 -10.874
REMARK INTRA:                  -1.599
REMARK UNBOUND:                -1.489
REMARK SMILES CCCCCCCCCCCCCCCCCC(=O)[O-]
REMARK SMILES IDX 10 1 11 2 12 3 13 4 14 5 15 6 16 7 17 8 18 9 19 10 20 11
REMARK SMILES IDX 9 12 8 13 7 14 6 15 5 16 4 17 3 18 2 19 1 20
REMARK H PARENT
REMARK Flexibility Score: inf
ROOT
ATOM      1  C   UNL     1      86.512 320.232 197.044  1.00  0.00     0.000 C 
ENDROOT
BRANCH   1   2
ATOM      2  C   UNL     1      87.111 320.771 198.354  1.00  0.00     0.000 C 
BRANCH   2   3
ATOM      3  C   UNL     1      87.400 319.661 199.383  1.00  0.00     0.000 C 
BRANCH   3   4
ATOM      4  C   UNL     1      87.454 320.126 200.849  1.00  0.00     0.000 C 
BRANCH   4   5
ATOM      5  C   UNL     1      88.755 320.863 201.199  1.00  0.00     0.000 C 
BRANCH   5   6
ATOM      6  C   UNL     1      88.965 320.915 202.719  1.00  0.00     0.000 C 
BRANCH   6   7
ATOM      7  C   UNL     1      87.643 320.893 203.507  1.00  0.00     0.006 C 
BRANCH   7   8
ATOM      8  C   UNL     1      87.685 321.659 204.839  1.00  0.00     0.053 C 
BRANCH   8   9
ATOM      9  C   UNL     1      87.722 320.737 206.019  1.00  0.00     0.041 C 
ATOM     10  O   UNL     1      86.876 319.810 206.125  1.00  0.00    -0.550 OA
ATOM     11  O   UNL     1      88.712 320.880 206.983  1.00  0.00    -0.550 OA
ENDBRANCH   8   9
ENDBRANCH   7   8
ENDBRANCH   6   7
ENDBRANCH   5   6
ENDBRANCH   4   5
ENDBRANCH   3   4
ENDBRANCH   2   3
ENDBRANCH   1   2
BRANCH   1  12
ATOM     12  C   UNL     1      87.392 320.541 195.822  1.00  0.00     0.000 C 
BRANCH  12  13
ATOM     13  C   UNL     1      86.566 320.959 194.592  1.00  0.00    -0.000 C 
BRANCH  13  14
ATOM     14  C   UNL     1      85.065 320.680 194.766  1.00  0.00    -0.000 C 
BRANCH  14  15
ATOM     15  C   UNL     1      84.509 319.727 193.697  1.00  0.00    -0.000 C 
BRANCH  15  16
ATOM     16  C   UNL     1      85.648 319.036 192.933  1.00  0.00    -0.000 C 
BRANCH  16  17
ATOM     17  C   UNL     1      85.668 317.515 193.148  1.00  0.00    -0.000 C 
BRANCH  17  18
ATOM     18  C   UNL     1      86.883 317.050 193.970  1.00  0.00    -0.000 C 
BRANCH  18  19
ATOM     19  C   UNL     1      86.540 316.824 195.451  1.00  0.00    -0.003 C 
ATOM     20  C   UNL     1      87.772 316.877 196.355  1.00  0.00     0.004 C 
ENDBRANCH  18  19
ENDBRANCH  17  18
ENDBRANCH  16  17
ENDBRANCH  15  16
ENDBRANCH  14  15
ENDBRANCH  13  14
ENDBRANCH  12  13
ENDBRANCH   1  12
TORSDOF 16
ENDMDL
MODEL 9
REMARK VINA RESULT:    -5.665     19.353     20.648
REMARK INTER + INTRA:         -12.453
REMARK INTER:                 -11.348
REMARK INTRA:                  -1.105
REMARK UNBOUND:                -1.489
REMARK SMILES CCCCCCCCCCCCCCCCCC(=O)[O-]
REMARK SMILES IDX 10 1 11 2 12 3 13 4 14 5 15 6 16 7 17 8 18 9 19 10 20 11
REMARK SMILES IDX 9 12 8 13 7 14 6 15 5 16 4 17 3 18 2 19 1 20
REMARK H PARENT
REMARK Flexibility Score: inf
ROOT
ATOM      1  C   UNL     1      87.488 319.939 199.331  1.00  0.00     0.000 C 
ENDROOT
BRANCH   1   2
ATOM      2  C   UNL     1      87.967 320.634 200.616  1.00  0.00     0.000 C 
BRANCH   2   3
ATOM      3  C   UNL     1      87.027 320.398 201.813  1.00  0.00     0.000 C 
BRANCH   3   4
ATOM      4  C   UNL     1      87.729 320.104 203.151  1.00  0.00     0.000 C 
BRANCH   4   5
ATOM      5  C   UNL     1      88.249 321.370 203.848  1.00  0.00     0.000 C 
BRANCH   5   6
ATOM      6  C   UNL     1      87.493 321.625 205.159  1.00  0.00     0.000 C 
BRANCH   6   7
ATOM      7  C   UNL     1      87.519 320.414 206.110  1.00  0.00     0.006 C 
BRANCH   7   8
ATOM      8  C   UNL     1      86.143 320.015 206.669  1.00  0.00     0.053 C 
BRANCH   8   9
ATOM      9  C   UNL     1      85.710 318.664 206.189  1.00  0.00     0.041 C 
ATOM     10  O   UNL     1      86.328 317.632 206.561  1.00  0.00    -0.550 OA
ATOM     11  O   UNL     1      84.604 318.542 205.358  1.00  0.00    -0.550 OA
ENDBRANCH   8   9
ENDBRANCH   7   8
ENDBRANCH   6   7
ENDBRANCH   5   6
ENDBRANCH   4   5
ENDBRANCH   3   4
ENDBRANCH   2   3
ENDBRANCH   1   2
BRANCH   1  12
ATOM     12  C   UNL     1      87.142 320.938 198.215  1.00  0.00     0.000 C 
BRANCH  12  13
ATOM     13  C   UNL     1      86.548 320.250 196.972  1.00  0.00    -0.000 C 
BRANCH  13  14
ATOM     14  C   UNL     1      87.348 320.546 195.694  1.00  0.00    -0.000 C 
BRANCH  14  15
ATOM     15  C   UNL     1      86.471 321.090 194.555  1.00  0.00    -0.000 C 
BRANCH  15  16
ATOM     16  C   UNL     1      85.589 319.980 193.964  1.00  0.00    -0.000 C 
BRANCH  16  17
ATOM     17  C   UNL     1      86.302 319.179 192.865  1.00  0.00    -0.000 C 
BRANCH  17  18
ATOM     18  C   UNL     1      86.137 317.659 193.038  1.00  0.00    -0.000 C 
BRANCH  18  19
ATOM     19  C   UNL     1      85.876 317.258 194.499  1.00  0.00    -0.003 C 
ATOM     20  C   UNL     1      87.156 316.881 195.244  1.00  0.00     0.004 C 
ENDBRANCH  18  19
ENDBRANCH  17  18
ENDBRANCH  16  17
ENDBRANCH  15  16
ENDBRANCH  14  15
ENDBRANCH  13  14
ENDBRANCH  12  13
ENDBRANCH   1  12
TORSDOF 16
ENDMDL
