MODEL 1
REMARK VINA RESULT:    -7.108      0.000      0.000
REMARK INTER + INTRA:         -10.866
REMARK INTER:                  -9.809
REMARK INTRA:                  -1.057
REMARK UNBOUND:                -1.057
REMARK SMILES O=C([O-])[C@@H]1O[C@@H](Oc2cc3oc(-c4ccccc4)cc(=O)c3c(O)c2O)[C@H](O)[C@@H](O)[C@H]1O
REMARK SMILES IDX 7 1 6 2 4 3 31 4 5 5 29 6 27 7 2 8 1 9 3 10 32 11 30 13
REMARK SMILES IDX 28 15 8 17 25 18 9 19 23 20 10 21 22 22 11 23 20 24 12 25
REMARK SMILES IDX 19 26 21 27 26 28 24 30 13 32 14 33 18 34 15 35 17 36 16 37
REMARK H PARENT 32 12 30 14 28 16 26 29 24 31
REMARK Flexibility Score: inf
ROOT
ATOM      1  O   UNL     1     103.200 121.207 124.959  1.00  0.00    -0.458 OA
ENDROOT
BRANCH   1   2
ATOM      2  C   UNL     1     103.386 120.063 125.802  1.00  0.00     0.339 C 
ATOM      3  C   UNL     1     101.259 120.309 126.772  1.00  0.00     0.199 C 
ATOM      4  C   UNL     1     101.839 120.669 128.160  1.00  0.00     0.180 C 
ATOM      5  O   UNL     1     102.138 119.442 126.072  1.00  0.00    -0.328 OA
ATOM      6  C   UNL     1     103.234 121.312 128.011  1.00  0.00     0.181 C 
ATOM      7  C   UNL     1     104.121 120.429 127.113  1.00  0.00     0.214 C 
BRANCH   3   8
ATOM      8  C   UNL     1      99.941 119.611 126.938  1.00  0.00     0.073 C 
ATOM      9  O   UNL     1      98.893 120.277 127.152  1.00  0.00    -0.547 OA
ATOM     10  O   UNL     1      99.876 118.224 126.896  1.00  0.00    -0.547 OA
ENDBRANCH   3   8
BRANCH   4  11
ATOM     11  O   UNL     1     100.975 121.507 128.890  1.00  0.00    -0.387 OA
ATOM     12  H   UNL     1     101.090 121.304 129.855  1.00  0.00     0.211 HD
ENDBRANCH   4  11
BRANCH   6  13
ATOM     13  O   UNL     1     103.133 122.595 127.443  1.00  0.00    -0.387 OA
ATOM     14  H   UNL     1     104.046 122.859 127.153  1.00  0.00     0.211 HD
ENDBRANCH   6  13
BRANCH   7  15
ATOM     15  O   UNL     1     104.461 119.245 127.788  1.00  0.00    -0.384 OA
ATOM     16  H   UNL     1     105.333 118.943 127.421  1.00  0.00     0.211 HD
ENDBRANCH   7  15
ENDBRANCH   1   2
BRANCH   1  17
ATOM     17  C   UNL     1     103.809 121.429 123.711  1.00  0.00     0.172 A 
ATOM     18  C   UNL     1     103.054 122.070 122.717  1.00  0.00     0.201 A 
ATOM     19  C   UNL     1     105.125 121.027 123.435  1.00  0.00     0.098 A 
ATOM     20  C   UNL     1     103.617 122.319 121.440  1.00  0.00     0.176 A 
ATOM     21  C   UNL     1     105.693 121.266 122.185  1.00  0.00     0.146 A 
ATOM     22  C   UNL     1     104.950 121.915 121.175  1.00  0.00     0.111 A 
ATOM     23  O   UNL     1     106.944 120.874 121.962  1.00  0.00    -0.456 OA
ATOM     24  C   UNL     1     105.591 122.132 119.935  1.00  0.00     0.197 A 
ATOM     25  C   UNL     1     107.572 121.054 120.804  1.00  0.00     0.138 A 
ATOM     26  C   UNL     1     106.905 121.701 119.752  1.00  0.00     0.100 A 
ATOM     27  O   UNL     1     105.004 122.713 118.982  1.00  0.00    -0.289 OA
BRANCH  18  28
ATOM     28  O   UNL     1     101.747 122.444 123.046  1.00  0.00    -0.502 OA
ATOM     29  H   UNL     1     101.036 122.694 122.376  1.00  0.00     0.293 HD
ENDBRANCH  18  28
BRANCH  20  30
ATOM     30  O   UNL     1     102.886 122.956 120.432  1.00  0.00    -0.504 OA
ATOM     31  H   UNL     1     103.257 123.217 119.530  1.00  0.00     0.293 HD
ENDBRANCH  20  30
BRANCH  25  32
ATOM     32  C   UNL     1     108.971 120.575 120.668  1.00  0.00     0.017 A 
ATOM     33  C   UNL     1     109.324 119.773 119.567  1.00  0.00     0.012 A 
ATOM     34  C   UNL     1     109.969 120.927 121.600  1.00  0.00     0.012 A 
ATOM     35  C   UNL     1     110.637 119.316 119.414  1.00  0.00     0.001 A 
ATOM     36  C   UNL     1     111.281 120.468 121.439  1.00  0.00     0.001 A 
ATOM     37  C   UNL     1     111.614 119.661 120.349  1.00  0.00     0.000 A 
ENDBRANCH  25  32
ENDBRANCH   1  17
TORSDOF 9
ENDMDL
MODEL 2
REMARK VINA RESULT:    -6.986      2.279      2.951
REMARK INTER + INTRA:         -10.697
REMARK INTER:                  -9.581
REMARK INTRA:                  -1.116
REMARK UNBOUND:                -1.057
REMARK SMILES O=C([O-])[C@@H]1O[C@@H](Oc2cc3oc(-c4ccccc4)cc(=O)c3c(O)c2O)[C@H](O)[C@@H](O)[C@H]1O
REMARK SMILES IDX 7 1 6 2 4 3 31 4 5 5 29 6 27 7 2 8 1 9 3 10 32 11 30 13
REMARK SMILES IDX 28 15 8 17 25 18 9 19 23 20 10 21 22 22 11 23 20 24 12 25
REMARK SMILES IDX 19 26 21 27 26 28 24 30 13 32 14 33 18 34 15 35 17 36 16 37
REMARK H PARENT 32 12 30 14 28 16 26 29 24 31
REMARK Flexibility Score: inf
ROOT
ATOM      1  O   UNL     1     103.251 119.173 126.380  1.00  0.00    -0.458 OA
ENDROOT
BRANCH   1   2
ATOM      2  C   UNL     1     103.911 119.894 127.429  1.00  0.00     0.339 C 
ATOM      3  C   UNL     1     102.185 119.440 128.959  1.00  0.00     0.199 C 
ATOM      4  C   UNL     1     101.751 120.923 129.039  1.00  0.00     0.180 C 
ATOM      5  O   UNL     1     103.576 119.340 128.692  1.00  0.00    -0.328 OA
ATOM      6  C   UNL     1     102.110 121.661 127.734  1.00  0.00     0.181 C 
ATOM      7  C   UNL     1     103.586 121.405 127.380  1.00  0.00     0.214 C 
BRANCH   3   8
ATOM      8  C   UNL     1     101.905 118.757 130.265  1.00  0.00     0.073 C 
ATOM      9  O   UNL     1     100.722 118.659 130.688  1.00  0.00    -0.547 OA
ATOM     10  O   UNL     1     102.951 118.264 131.034  1.00  0.00    -0.547 OA
ENDBRANCH   3   8
BRANCH   4  11
ATOM     11  O   UNL     1     100.380 121.053 129.330  1.00  0.00    -0.387 OA
ATOM     12  H   UNL     1      99.927 120.209 129.070  1.00  0.00     0.211 HD
ENDBRANCH   4  11
BRANCH   6  13
ATOM     13  O   UNL     1     101.297 121.221 126.673  1.00  0.00    -0.387 OA
ATOM     14  H   UNL     1     100.741 120.474 127.021  1.00  0.00     0.211 HD
ENDBRANCH   6  13
BRANCH   7  15
ATOM     15  O   UNL     1     104.423 122.078 128.286  1.00  0.00    -0.384 OA
ATOM     16  H   UNL     1     104.842 122.829 127.790  1.00  0.00     0.211 HD
ENDBRANCH   7  15
ENDBRANCH   1   2
BRANCH   1  17
ATOM     17  C   UNL     1     103.631 119.141 125.027  1.00  0.00     0.172 A 
ATOM     18  C   UNL     1     102.711 118.631 124.099  1.00  0.00     0.201 A 
ATOM     19  C   UNL     1     104.887 119.590 124.587  1.00  0.00     0.098 A 
ATOM     20  C   UNL     1     103.041 118.575 122.721  1.00  0.00     0.176 A 
ATOM     21  C   UNL     1     105.225 119.542 123.236  1.00  0.00     0.146 A 
ATOM     22  C   UNL     1     104.308 119.037 122.288  1.00  0.00     0.111 A 
ATOM     23  O   UNL     1     106.422 119.979 122.858  1.00  0.00    -0.456 OA
ATOM     24  C   UNL     1     104.714 119.026 120.935  1.00  0.00     0.197 A 
ATOM     25  C   UNL     1     106.839 119.972 121.594  1.00  0.00     0.138 A 
ATOM     26  C   UNL     1     105.982 119.497 120.590  1.00  0.00     0.100 A 
ATOM     27  O   UNL     1     103.955 118.602 120.022  1.00  0.00    -0.289 OA
BRANCH  18  28
ATOM     28  O   UNL     1     101.478 118.194 124.593  1.00  0.00    -0.502 OA
ATOM     29  H   UNL     1     100.767 117.739 124.041  1.00  0.00     0.293 HD
ENDBRANCH  18  28
BRANCH  20  30
ATOM     30  O   UNL     1     102.141 118.071 121.775  1.00  0.00    -0.504 OA
ATOM     31  H   UNL     1     101.312 118.552 121.457  1.00  0.00     0.293 HD
ENDBRANCH  20  30
BRANCH  25  32
ATOM     32  C   UNL     1     108.197 120.487 121.288  1.00  0.00     0.017 A 
ATOM     33  C   UNL     1     109.192 120.448 122.282  1.00  0.00     0.012 A 
ATOM     34  C   UNL     1     108.531 120.987 120.012  1.00  0.00     0.012 A 
ATOM     35  C   UNL     1     110.481 120.920 122.016  1.00  0.00     0.001 A 
ATOM     36  C   UNL     1     109.823 121.455 119.752  1.00  0.00     0.001 A 
ATOM     37  C   UNL     1     110.796 121.424 120.753  1.00  0.00     0.000 A 
ENDBRANCH  25  32
ENDBRANCH   1  17
TORSDOF 9
ENDMDL
MODEL 3
REMARK VINA RESULT:    -6.681      1.554      2.553
REMARK INTER + INTRA:         -10.276
REMARK INTER:                  -8.947
REMARK INTRA:                  -1.329
REMARK UNBOUND:                -1.057
REMARK SMILES O=C([O-])[C@@H]1O[C@@H](Oc2cc3oc(-c4ccccc4)cc(=O)c3c(O)c2O)[C@H](O)[C@@H](O)[C@H]1O
REMARK SMILES IDX 7 1 6 2 4 3 31 4 5 5 29 6 27 7 2 8 1 9 3 10 32 11 30 13
REMARK SMILES IDX 28 15 8 17 25 18 9 19 23 20 10 21 22 22 11 23 20 24 12 25
REMARK SMILES IDX 19 26 21 27 26 28 24 30 13 32 14 33 18 34 15 35 17 36 16 37
REMARK H PARENT 32 12 30 14 28 16 26 29 24 31
REMARK Flexibility Score: inf
ROOT
ATOM      1  O   UNL     1     103.262 120.211 125.270  1.00  0.00    -0.458 OA
ENDROOT
BRANCH   1   2
ATOM      2  C   UNL     1     103.302 121.285 126.220  1.00  0.00     0.339 C 
ATOM      3  C   UNL     1     102.804 119.848 128.012  1.00  0.00     0.199 C 
ATOM      4  C   UNL     1     101.418 120.492 128.255  1.00  0.00     0.180 C 
ATOM      5  O   UNL     1     103.715 120.803 127.489  1.00  0.00    -0.328 OA
ATOM      6  C   UNL     1     100.874 121.107 126.949  1.00  0.00     0.181 C 
ATOM      7  C   UNL     1     101.943 122.017 126.317  1.00  0.00     0.214 C 
BRANCH   3   8
ATOM      8  C   UNL     1     103.356 119.328 129.306  1.00  0.00     0.073 C 
ATOM      9  O   UNL     1     103.238 118.109 129.602  1.00  0.00    -0.547 OA
ATOM     10  O   UNL     1     103.966 120.195 130.204  1.00  0.00    -0.547 OA
ENDBRANCH   3   8
BRANCH   4  11
ATOM     11  O   UNL     1     100.500 119.574 128.799  1.00  0.00    -0.387 OA
ATOM     12  H   UNL     1     100.972 119.041 129.492  1.00  0.00     0.211 HD
ENDBRANCH   4  11
BRANCH   6  13
ATOM     13  O   UNL     1     100.522 120.100 126.033  1.00  0.00    -0.387 OA
ATOM     14  H   UNL     1     100.790 120.419 125.130  1.00  0.00     0.211 HD
ENDBRANCH   6  13
BRANCH   7  15
ATOM     15  O   UNL     1     102.108 123.177 127.091  1.00  0.00    -0.384 OA
ATOM     16  H   UNL     1     102.492 122.892 127.961  1.00  0.00     0.211 HD
ENDBRANCH   7  15
ENDBRANCH   1   2
BRANCH   1  17
ATOM     17  C   UNL     1     103.780 120.237 123.963  1.00  0.00     0.172 A 
ATOM     18  C   UNL     1     102.869 120.284 122.897  1.00  0.00     0.201 A 
ATOM     19  C   UNL     1     105.158 120.209 123.700  1.00  0.00     0.098 A 
ATOM     20  C   UNL     1     103.335 120.312 121.558  1.00  0.00     0.176 A 
ATOM     21  C   UNL     1     105.632 120.237 122.390  1.00  0.00     0.146 A 
ATOM     22  C   UNL     1     104.729 120.291 121.305  1.00  0.00     0.111 A 
ATOM     23  O   UNL     1     106.945 120.213 122.180  1.00  0.00    -0.456 OA
ATOM     24  C   UNL     1     105.278 120.324 120.004  1.00  0.00     0.197 A 
ATOM     25  C   UNL     1     107.493 120.233 120.968  1.00  0.00     0.138 A 
ATOM     26  C   UNL     1     106.664 120.298 119.838  1.00  0.00     0.100 A 
ATOM     27  O   UNL     1     104.546 120.383 118.980  1.00  0.00    -0.289 OA
BRANCH  18  28
ATOM     28  O   UNL     1     101.508 120.305 123.218  1.00  0.00    -0.502 OA
ATOM     29  H   UNL     1     101.138 120.479 124.140  1.00  0.00     0.293 HD
ENDBRANCH  18  28
BRANCH  20  30
ATOM     30  O   UNL     1     102.447 120.360 120.477  1.00  0.00    -0.504 OA
ATOM     31  H   UNL     1     101.444 120.433 120.560  1.00  0.00     0.293 HD
ENDBRANCH  20  30
BRANCH  25  32
ATOM     32  C   UNL     1     108.973 120.203 120.854  1.00  0.00     0.017 A 
ATOM     33  C   UNL     1     109.755 120.856 121.826  1.00  0.00     0.012 A 
ATOM     34  C   UNL     1     109.624 119.511 119.812  1.00  0.00     0.012 A 
ATOM     35  C   UNL     1     111.151 120.835 121.745  1.00  0.00     0.001 A 
ATOM     36  C   UNL     1     111.020 119.493 119.738  1.00  0.00     0.001 A 
ATOM     37  C   UNL     1     111.783 120.157 120.701  1.00  0.00     0.000 A 
ENDBRANCH  25  32
ENDBRANCH   1  17
TORSDOF 9
ENDMDL
MODEL 4
REMARK VINA RESULT:    -6.625      6.070      9.634
REMARK INTER + INTRA:         -10.199
REMARK INTER:                  -9.132
REMARK INTRA:                  -1.066
REMARK UNBOUND:                -1.057
REMARK SMILES O=C([O-])[C@@H]1O[C@@H](Oc2cc3oc(-c4ccccc4)cc(=O)c3c(O)c2O)[C@H](O)[C@@H](O)[C@H]1O
REMARK SMILES IDX 7 1 6 2 4 3 31 4 5 5 29 6 27 7 2 8 1 9 3 10 32 11 30 13
REMARK SMILES IDX 28 15 8 17 25 18 9 19 23 20 10 21 22 22 11 23 20 24 12 25
REMARK SMILES IDX 19 26 21 27 26 28 24 30 13 32 14 33 18 34 15 35 17 36 16 37
REMARK H PARENT 32 12 30 14 28 16 26 29 24 31
REMARK Flexibility Score: inf
ROOT
ATOM      1  O   UNL     1     101.767 120.051 115.392  1.00  0.00    -0.458 OA
ENDROOT
BRANCH   1   2
ATOM      2  C   UNL     1     101.865 118.626 115.515  1.00  0.00     0.339 C 
ATOM      3  C   UNL     1     102.493 118.375 113.264  1.00  0.00     0.199 C 
ATOM      4  C   UNL     1     101.182 117.645 112.890  1.00  0.00     0.180 C 
ATOM      5  O   UNL     1     102.841 118.120 114.616  1.00  0.00    -0.328 OA
ATOM      6  C   UNL     1     100.040 118.070 113.836  1.00  0.00     0.181 C 
ATOM      7  C   UNL     1     100.498 117.935 115.300  1.00  0.00     0.214 C 
BRANCH   3   8
ATOM      8  C   UNL     1     103.612 117.890 112.389  1.00  0.00     0.073 C 
ATOM      9  O   UNL     1     103.647 116.688 112.013  1.00  0.00    -0.547 OA
ATOM     10  O   UNL     1     104.636 118.754 112.023  1.00  0.00    -0.547 OA
ENDBRANCH   3   8
BRANCH   4  11
ATOM     11  O   UNL     1     100.826 117.858 111.545  1.00  0.00    -0.387 OA
ATOM     12  H   UNL     1     101.553 117.497 110.973  1.00  0.00     0.211 HD
ENDBRANCH   4  11
BRANCH   6  13
ATOM     13  O   UNL     1      99.660 119.402 113.591  1.00  0.00    -0.387 OA
ATOM     14  H   UNL     1      98.760 119.377 113.171  1.00  0.00     0.211 HD
ENDBRANCH   6  13
BRANCH   7  15
ATOM     15  O   UNL     1     100.617 116.578 115.644  1.00  0.00    -0.384 OA
ATOM     16  H   UNL     1      99.909 116.386 116.313  1.00  0.00     0.211 HD
ENDBRANCH   7  15
ENDBRANCH   1   2
BRANCH   1  17
ATOM     17  C   UNL     1     102.549 121.000 116.072  1.00  0.00     0.172 A 
ATOM     18  C   UNL     1     102.252 122.357 115.874  1.00  0.00     0.201 A 
ATOM     19  C   UNL     1     103.606 120.635 116.921  1.00  0.00     0.098 A 
ATOM     20  C   UNL     1     103.009 123.359 116.535  1.00  0.00     0.176 A 
ATOM     21  C   UNL     1     104.357 121.607 117.578  1.00  0.00     0.146 A 
ATOM     22  C   UNL     1     104.069 122.978 117.395  1.00  0.00     0.111 A 
ATOM     23  O   UNL     1     105.348 121.223 118.378  1.00  0.00    -0.456 OA
ATOM     24  C   UNL     1     104.865 123.909 118.098  1.00  0.00     0.197 A 
ATOM     25  C   UNL     1     106.123 122.074 119.045  1.00  0.00     0.138 A 
ATOM     26  C   UNL     1     105.893 123.453 118.926  1.00  0.00     0.100 A 
ATOM     27  O   UNL     1     104.670 125.150 118.002  1.00  0.00    -0.289 OA
BRANCH  18  28
ATOM     28  O   UNL     1     101.193 122.663 115.014  1.00  0.00    -0.502 OA
ATOM     29  H   UNL     1     100.779 122.016 114.361  1.00  0.00     0.293 HD
ENDBRANCH  18  28
BRANCH  20  30
ATOM     30  O   UNL     1     102.733 124.719 116.356  1.00  0.00    -0.504 OA
ATOM     31  H   UNL     1     103.411 125.410 116.071  1.00  0.00     0.293 HD
ENDBRANCH  20  30
BRANCH  25  32
ATOM     32  C   UNL     1     107.199 121.530 119.910  1.00  0.00     0.017 A 
ATOM     33  C   UNL     1     108.545 121.724 119.545  1.00  0.00     0.012 A 
ATOM     34  C   UNL     1     106.913 120.847 121.111  1.00  0.00     0.012 A 
ATOM     35  C   UNL     1     109.577 121.228 120.347  1.00  0.00     0.001 A 
ATOM     36  C   UNL     1     107.951 120.355 121.909  1.00  0.00     0.001 A 
ATOM     37  C   UNL     1     109.281 120.543 121.527  1.00  0.00     0.000 A 
ENDBRANCH  25  32
ENDBRANCH   1  17
TORSDOF 9
ENDMDL
MODEL 5
REMARK VINA RESULT:    -6.609      6.482      8.514
REMARK INTER + INTRA:         -10.177
REMARK INTER:                  -8.953
REMARK INTRA:                  -1.224
REMARK UNBOUND:                -1.057
REMARK SMILES O=C([O-])[C@@H]1O[C@@H](Oc2cc3oc(-c4ccccc4)cc(=O)c3c(O)c2O)[C@H](O)[C@@H](O)[C@H]1O
REMARK SMILES IDX 7 1 6 2 4 3 31 4 5 5 29 6 27 7 2 8 1 9 3 10 32 11 30 13
REMARK SMILES IDX 28 15 8 17 25 18 9 19 23 20 10 21 22 22 11 23 20 24 12 25
REMARK SMILES IDX 19 26 21 27 26 28 24 30 13 32 14 33 18 34 15 35 17 36 16 37
REMARK H PARENT 32 12 30 14 28 16 26 29 24 31
REMARK Flexibility Score: inf
ROOT
ATOM      1  O   UNL     1     101.979 120.308 117.449  1.00  0.00    -0.458 OA
ENDROOT
BRANCH   1   2
ATOM      2  C   UNL     1     101.946 119.098 116.680  1.00  0.00     0.339 C 
ATOM      3  C   UNL     1     102.230 120.261 114.657  1.00  0.00     0.199 C 
ATOM      4  C   UNL     1     100.811 119.903 114.153  1.00  0.00     0.180 C 
ATOM      5  O   UNL     1     102.732 119.240 115.506  1.00  0.00    -0.328 OA
ATOM      6  C   UNL     1      99.860 119.669 115.345  1.00  0.00     0.181 C 
ATOM      7  C   UNL     1     100.499 118.677 116.334  1.00  0.00     0.214 C 
BRANCH   3   8
ATOM      8  C   UNL     1     103.162 120.404 113.490  1.00  0.00     0.073 C 
ATOM      9  O   UNL     1     103.966 119.477 113.202  1.00  0.00    -0.547 OA
ATOM     10  O   UNL     1     103.172 121.576 112.744  1.00  0.00    -0.547 OA
ENDBRANCH   3   8
BRANCH   4  11
ATOM     11  O   UNL     1     100.299 120.886 113.286  1.00  0.00    -0.387 OA
ATOM     12  H   UNL     1     100.480 121.776 113.687  1.00  0.00     0.211 HD
ENDBRANCH   4  11
BRANCH   6  13
ATOM     13  O   UNL     1      99.590 120.878 116.011  1.00  0.00    -0.387 OA
ATOM     14  H   UNL     1      98.937 120.674 116.732  1.00  0.00     0.211 HD
ENDBRANCH   6  13
BRANCH   7  15
ATOM     15  O   UNL     1     100.524 117.388 115.775  1.00  0.00    -0.384 OA
ATOM     16  H   UNL     1     100.779 117.491 114.821  1.00  0.00     0.211 HD
ENDBRANCH   7  15
ENDBRANCH   1   2
BRANCH   1  17
ATOM     17  C   UNL     1     103.104 121.121 117.672  1.00  0.00     0.172 A 
ATOM     18  C   UNL     1     102.989 122.491 117.389  1.00  0.00     0.201 A 
ATOM     19  C   UNL     1     104.319 120.609 118.154  1.00  0.00     0.098 A 
ATOM     20  C   UNL     1     104.092 123.358 117.595  1.00  0.00     0.176 A 
ATOM     21  C   UNL     1     105.411 121.449 118.362  1.00  0.00     0.146 A 
ATOM     22  C   UNL     1     105.312 122.831 118.088  1.00  0.00     0.111 A 
ATOM     23  O   UNL     1     106.544 120.928 118.823  1.00  0.00    -0.456 OA
ATOM     24  C   UNL     1     106.455 123.625 118.330  1.00  0.00     0.197 A 
ATOM     25  C   UNL     1     107.641 121.645 119.051  1.00  0.00     0.138 A 
ATOM     26  C   UNL     1     107.620 123.028 118.815  1.00  0.00     0.100 A 
ATOM     27  O   UNL     1     106.450 124.868 118.123  1.00  0.00    -0.289 OA
BRANCH  18  28
ATOM     28  O   UNL     1     101.758 122.945 116.907  1.00  0.00    -0.502 OA
ATOM     29  H   UNL     1     101.039 122.353 116.521  1.00  0.00     0.293 HD
ENDBRANCH  18  28
BRANCH  20  30
ATOM     30  O   UNL     1     104.004 124.728 117.321  1.00  0.00    -0.504 OA
ATOM     31  H   UNL     1     103.398 125.373 117.806  1.00  0.00     0.293 HD
ENDBRANCH  20  30
BRANCH  25  32
ATOM     32  C   UNL     1     108.850 120.956 119.567  1.00  0.00     0.017 A 
ATOM     33  C   UNL     1     109.239 119.726 119.003  1.00  0.00     0.012 A 
ATOM     34  C   UNL     1     109.643 121.515 120.590  1.00  0.00     0.012 A 
ATOM     35  C   UNL     1     110.378 119.061 119.467  1.00  0.00     0.001 A 
ATOM     36  C   UNL     1     110.783 120.845 121.048  1.00  0.00     0.001 A 
ATOM     37  C   UNL     1     111.149 119.619 120.489  1.00  0.00     0.000 A 
ENDBRANCH  25  32
ENDBRANCH   1  17
TORSDOF 9
ENDMDL
MODEL 6
REMARK VINA RESULT:    -6.532      4.806      8.919
REMARK INTER + INTRA:         -10.071
REMARK INTER:                  -8.949
REMARK INTRA:                  -1.121
REMARK UNBOUND:                -1.057
REMARK SMILES O=C([O-])[C@@H]1O[C@@H](Oc2cc3oc(-c4ccccc4)cc(=O)c3c(O)c2O)[C@H](O)[C@@H](O)[C@H]1O
REMARK SMILES IDX 7 1 6 2 4 3 31 4 5 5 29 6 27 7 2 8 1 9 3 10 32 11 30 13
REMARK SMILES IDX 28 15 8 17 25 18 9 19 23 20 10 21 22 22 11 23 20 24 12 25
REMARK SMILES IDX 19 26 21 27 26 28 24 30 13 32 14 33 18 34 15 35 17 36 16 37
REMARK H PARENT 32 12 30 14 28 16 26 29 24 31
REMARK Flexibility Score: inf
ROOT
ATOM      1  O   UNL     1     102.420 120.867 116.308  1.00  0.00    -0.458 OA
ENDROOT
BRANCH   1   2
ATOM      2  C   UNL     1     102.543 121.585 115.073  1.00  0.00     0.339 C 
ATOM      3  C   UNL     1     101.068 120.128 113.965  1.00  0.00     0.199 C 
ATOM      4  C   UNL     1     102.178 119.564 113.047  1.00  0.00     0.180 C 
ATOM      5  O   UNL     1     101.346 121.475 114.318  1.00  0.00    -0.328 OA
ATOM      6  C   UNL     1     103.554 119.674 113.736  1.00  0.00     0.181 C 
ATOM      7  C   UNL     1     103.765 121.109 114.252  1.00  0.00     0.214 C 
BRANCH   3   8
ATOM      8  C   UNL     1      99.750 120.090 113.250  1.00  0.00     0.073 C 
ATOM      9  O   UNL     1      98.673 120.122 113.904  1.00  0.00    -0.547 OA
ATOM     10  O   UNL     1      99.709 119.980 111.866  1.00  0.00    -0.547 OA
ENDBRANCH   3   8
BRANCH   4  11
ATOM     11  O   UNL     1     101.915 118.237 112.659  1.00  0.00    -0.387 OA
ATOM     12  H   UNL     1     102.699 117.904 112.149  1.00  0.00     0.211 HD
ENDBRANCH   4  11
BRANCH   6  13
ATOM     13  O   UNL     1     103.644 118.776 114.815  1.00  0.00    -0.387 OA
ATOM     14  H   UNL     1     104.535 118.340 114.759  1.00  0.00     0.211 HD
ENDBRANCH   6  13
BRANCH   7  15
ATOM     15  O   UNL     1     103.954 121.987 113.172  1.00  0.00    -0.384 OA
ATOM     16  H   UNL     1     104.639 122.649 113.453  1.00  0.00     0.211 HD
ENDBRANCH   7  15
ENDBRANCH   1   2
BRANCH   1  17
ATOM     17  C   UNL     1     103.127 121.127 117.495  1.00  0.00     0.172 A 
ATOM     18  C   UNL     1     102.448 121.781 118.534  1.00  0.00     0.201 A 
ATOM     19  C   UNL     1     104.473 120.763 117.664  1.00  0.00     0.098 A 
ATOM     20  C   UNL     1     103.112 122.069 119.753  1.00  0.00     0.176 A 
ATOM     21  C   UNL     1     105.138 121.038 118.857  1.00  0.00     0.146 A 
ATOM     22  C   UNL     1     104.468 121.691 119.915  1.00  0.00     0.111 A 
ATOM     23  O   UNL     1     106.412 120.675 118.980  1.00  0.00    -0.456 OA
ATOM     24  C   UNL     1     105.202 121.930 121.098  1.00  0.00     0.197 A 
ATOM     25  C   UNL     1     107.133 120.895 120.077  1.00  0.00     0.138 A 
ATOM     26  C   UNL     1     106.536 121.529 121.177  1.00  0.00     0.100 A 
ATOM     27  O   UNL     1     104.678 122.497 122.095  1.00  0.00    -0.289 OA
BRANCH  18  28
ATOM     28  O   UNL     1     101.111 122.124 118.309  1.00  0.00    -0.502 OA
ATOM     29  H   UNL     1     100.368 121.462 118.147  1.00  0.00     0.293 HD
ENDBRANCH  18  28
BRANCH  20  30
ATOM     30  O   UNL     1     102.457 122.720 120.805  1.00  0.00    -0.504 OA
ATOM     31  H   UNL     1     102.812 122.790 121.747  1.00  0.00     0.293 HD
ENDBRANCH  20  30
BRANCH  25  32
ATOM     32  C   UNL     1     108.547 120.445 120.103  1.00  0.00     0.017 A 
ATOM     33  C   UNL     1     109.374 120.823 121.177  1.00  0.00     0.012 A 
ATOM     34  C   UNL     1     109.082 119.619 119.093  1.00  0.00     0.012 A 
ATOM     35  C   UNL     1     110.708 120.406 121.228  1.00  0.00     0.001 A 
ATOM     36  C   UNL     1     110.416 119.203 119.151  1.00  0.00     0.001 A 
ATOM     37  C   UNL     1     111.228 119.598 120.216  1.00  0.00     0.000 A 
ENDBRANCH  25  32
ENDBRANCH   1  17
TORSDOF 9
ENDMDL
MODEL 7
REMARK VINA RESULT:    -6.515      5.941      9.696
REMARK INTER + INTRA:         -10.048
REMARK INTER:                  -8.969
REMARK INTRA:                  -1.079
REMARK UNBOUND:                -1.057
REMARK SMILES O=C([O-])[C@@H]1O[C@@H](Oc2cc3oc(-c4ccccc4)cc(=O)c3c(O)c2O)[C@H](O)[C@@H](O)[C@H]1O
REMARK SMILES IDX 7 1 6 2 4 3 31 4 5 5 29 6 27 7 2 8 1 9 3 10 32 11 30 13
REMARK SMILES IDX 28 15 8 17 25 18 9 19 23 20 10 21 22 22 11 23 20 24 12 25
REMARK SMILES IDX 19 26 21 27 26 28 24 30 13 32 14 33 18 34 15 35 17 36 16 37
REMARK H PARENT 32 12 30 14 28 16 26 29 24 31
REMARK Flexibility Score: inf
ROOT
ATOM      1  O   UNL     1     102.277 120.165 114.914  1.00  0.00    -0.458 OA
ENDROOT
BRANCH   1   2
ATOM      2  C   UNL     1     102.720 119.806 113.599  1.00  0.00     0.339 C 
ATOM      3  C   UNL     1     100.768 118.567 113.173  1.00  0.00     0.199 C 
ATOM      4  C   UNL     1     101.528 117.220 113.139  1.00  0.00     0.180 C 
ATOM      5  O   UNL     1     101.607 119.626 112.737  1.00  0.00    -0.328 OA
ATOM      6  C   UNL     1     102.803 117.298 114.004  1.00  0.00     0.181 C 
ATOM      7  C   UNL     1     103.618 118.546 113.619  1.00  0.00     0.214 C 
BRANCH   3   8
ATOM      8  C   UNL     1      99.578 118.502 112.263  1.00  0.00     0.073 C 
ATOM      9  O   UNL     1      99.567 119.155 111.185  1.00  0.00    -0.547 OA
ATOM     10  O   UNL     1      98.464 117.755 112.623  1.00  0.00    -0.547 OA
ENDBRANCH   3   8
BRANCH   4  11
ATOM     11  O   UNL     1     100.712 116.146 113.541  1.00  0.00    -0.387 OA
ATOM     12  H   UNL     1     100.070 116.484 114.220  1.00  0.00     0.211 HD
ENDBRANCH   4  11
BRANCH   6  13
ATOM     13  O   UNL     1     102.474 117.363 115.370  1.00  0.00    -0.387 OA
ATOM     14  H   UNL     1     102.586 116.448 115.742  1.00  0.00     0.211 HD
ENDBRANCH   6  13
BRANCH   7  15
ATOM     15  O   UNL     1     104.188 118.376 112.347  1.00  0.00    -0.384 OA
ATOM     16  H   UNL     1     104.909 119.053 112.260  1.00  0.00     0.211 HD
ENDBRANCH   7  15
ENDBRANCH   1   2
BRANCH   1  17
ATOM     17  C   UNL     1     102.915 121.060 115.791  1.00  0.00     0.172 A 
ATOM     18  C   UNL     1     102.579 122.420 115.700  1.00  0.00     0.201 A 
ATOM     19  C   UNL     1     103.868 120.640 116.732  1.00  0.00     0.098 A 
ATOM     20  C   UNL     1     103.192 123.367 116.559  1.00  0.00     0.176 A 
ATOM     21  C   UNL     1     104.478 121.559 117.584  1.00  0.00     0.146 A 
ATOM     22  C   UNL     1     104.147 122.930 117.510  1.00  0.00     0.111 A 
ATOM     23  O   UNL     1     105.373 121.123 118.465  1.00  0.00    -0.456 OA
ATOM     24  C   UNL     1     104.798 123.805 118.409  1.00  0.00     0.197 A 
ATOM     25  C   UNL     1     106.011 121.921 119.318  1.00  0.00     0.138 A 
ATOM     26  C   UNL     1     105.729 123.296 119.315  1.00  0.00     0.100 A 
ATOM     27  O   UNL     1     104.555 125.042 118.419  1.00  0.00    -0.289 OA
BRANCH  18  28
ATOM     28  O   UNL     1     101.628 122.782 114.741  1.00  0.00    -0.502 OA
ATOM     29  H   UNL     1     100.693 123.095 114.950  1.00  0.00     0.293 HD
ENDBRANCH  18  28
BRANCH  20  30
ATOM     30  O   UNL     1     102.874 124.728 116.489  1.00  0.00    -0.504 OA
ATOM     31  H   UNL     1     103.413 125.419 115.988  1.00  0.00     0.293 HD
ENDBRANCH  20  30
BRANCH  25  32
ATOM     32  C   UNL     1     106.990 121.323 120.259  1.00  0.00     0.017 A 
ATOM     33  C   UNL     1     108.359 121.330 119.930  1.00  0.00     0.012 A 
ATOM     34  C   UNL     1     106.592 120.772 121.494  1.00  0.00     0.012 A 
ATOM     35  C   UNL     1     109.302 120.779 120.803  1.00  0.00     0.001 A 
ATOM     36  C   UNL     1     107.541 120.224 122.364  1.00  0.00     0.001 A 
ATOM     37  C   UNL     1     108.894 120.226 122.018  1.00  0.00     0.000 A 
ENDBRANCH  25  32
ENDBRANCH   1  17
TORSDOF 9
ENDMDL
MODEL 8
REMARK VINA RESULT:    -6.449      4.502      8.913
REMARK INTER + INTRA:          -9.957
REMARK INTER:                  -8.619
REMARK INTRA:                  -1.338
REMARK UNBOUND:                -1.057
REMARK SMILES O=C([O-])[C@@H]1O[C@@H](Oc2cc3oc(-c4ccccc4)cc(=O)c3c(O)c2O)[C@H](O)[C@@H](O)[C@H]1O
REMARK SMILES IDX 7 1 6 2 4 3 31 4 5 5 29 6 27 7 2 8 1 9 3 10 32 11 30 13
REMARK SMILES IDX 28 15 8 17 25 18 9 19 23 20 10 21 22 22 11 23 20 24 12 25
REMARK SMILES IDX 19 26 21 27 26 28 24 30 13 32 14 33 18 34 15 35 17 36 16 37
REMARK H PARENT 32 12 30 14 28 16 26 29 24 31
REMARK Flexibility Score: inf
ROOT
ATOM      1  O   UNL     1     103.202 121.773 116.251  1.00  0.00    -0.458 OA
ENDROOT
BRANCH   1   2
ATOM      2  C   UNL     1     103.589 120.757 115.316  1.00  0.00     0.339 C 
ATOM      3  C   UNL     1     102.326 121.728 113.588  1.00  0.00     0.199 C 
ATOM      4  C   UNL     1     101.330 120.546 113.535  1.00  0.00     0.180 C 
ATOM      5  O   UNL     1     103.610 121.283 113.998  1.00  0.00    -0.328 OA
ATOM      6  C   UNL     1     101.252 119.846 114.907  1.00  0.00     0.181 C 
ATOM      7  C   UNL     1     102.670 119.515 115.405  1.00  0.00     0.214 C 
BRANCH   3   8
ATOM      8  C   UNL     1     102.454 122.347 112.227  1.00  0.00     0.073 C 
ATOM      9  O   UNL     1     103.584 122.442 111.677  1.00  0.00    -0.547 OA
ATOM     10  O   UNL     1     101.333 122.854 111.583  1.00  0.00    -0.547 OA
ENDBRANCH   3   8
BRANCH   4  11
ATOM     11  O   UNL     1     100.054 120.953 113.104  1.00  0.00    -0.387 OA
ATOM     12  H   UNL     1     100.116 121.899 112.807  1.00  0.00     0.211 HD
ENDBRANCH   4  11
BRANCH   6  13
ATOM     13  O   UNL     1     100.610 120.669 115.850  1.00  0.00    -0.387 OA
ATOM     14  H   UNL     1      99.878 121.143 115.374  1.00  0.00     0.211 HD
ENDBRANCH   6  13
BRANCH   7  15
ATOM     15  O   UNL     1     103.226 118.484 114.629  1.00  0.00    -0.384 OA
ATOM     16  H   UNL     1     103.109 117.642 115.141  1.00  0.00     0.211 HD
ENDBRANCH   7  15
ENDBRANCH   1   2
BRANCH   1  17
ATOM     17  C   UNL     1     103.597 121.857 117.598  1.00  0.00     0.172 A 
ATOM     18  C   UNL     1     102.649 122.300 118.533  1.00  0.00     0.201 A 
ATOM     19  C   UNL     1     104.892 121.525 118.024  1.00  0.00     0.098 A 
ATOM     20  C   UNL     1     102.992 122.405 119.905  1.00  0.00     0.176 A 
ATOM     21  C   UNL     1     105.244 121.622 119.369  1.00  0.00     0.146 A 
ATOM     22  C   UNL     1     104.301 122.060 120.324  1.00  0.00     0.111 A 
ATOM     23  O   UNL     1     106.480 121.296 119.735  1.00  0.00    -0.456 OA
ATOM     24  C   UNL     1     104.723 122.127 121.671  1.00  0.00     0.197 A 
ATOM     25  C   UNL     1     106.912 121.357 120.992  1.00  0.00     0.138 A 
ATOM     26  C   UNL     1     106.031 121.772 122.003  1.00  0.00     0.100 A 
ATOM     27  O   UNL     1     103.943 122.497 122.589  1.00  0.00    -0.289 OA
BRANCH  18  28
ATOM     28  O   UNL     1     101.376 122.621 118.051  1.00  0.00    -0.502 OA
ATOM     29  H   UNL     1     101.193 123.064 117.164  1.00  0.00     0.293 HD
ENDBRANCH  18  28
BRANCH  20  30
ATOM     30  O   UNL     1     102.065 122.842 120.857  1.00  0.00    -0.504 OA
ATOM     31  H   UNL     1     101.073 122.930 120.695  1.00  0.00     0.293 HD
ENDBRANCH  20  30
BRANCH  25  32
ATOM     32  C   UNL     1     108.314 120.967 121.285  1.00  0.00     0.017 A 
ATOM     33  C   UNL     1     109.342 121.378 120.416  1.00  0.00     0.012 A 
ATOM     34  C   UNL     1     108.652 120.219 122.431  1.00  0.00     0.012 A 
ATOM     35  C   UNL     1     110.672 121.029 120.674  1.00  0.00     0.001 A 
ATOM     36  C   UNL     1     109.984 119.875 122.684  1.00  0.00     0.001 A 
ATOM     37  C   UNL     1     110.992 120.277 121.806  1.00  0.00     0.000 A 
ENDBRANCH  25  32
ENDBRANCH   1  17
TORSDOF 9
ENDMDL
