MODEL 1
REMARK VINA RESULT:    -6.407      0.000      0.000
REMARK INTER + INTRA:          -7.820
REMARK INTER:                  -7.531
REMARK INTRA:                  -0.289
REMARK UNBOUND:                -0.289
REMARK SMILES O=c1c(O)c(-c2ccc(O)cc2)oc2cc(O)cc(O)c12
REMARK SMILES IDX 5 1 3 2 2 3 1 4 21 5 19 6 18 7 16 8 15 9 14 10 13 11 6 12
REMARK SMILES IDX 7 13 8 14 9 15 12 16 11 17 10 18 4 20 20 22 17 24
REMARK H PARENT 10 19 4 21 20 23 17 25
REMARK Flexibility Score: inf
ROOT
ATOM      1  C   UNL     1      68.132  48.174   9.062  1.00  0.00     0.180 A 
ATOM      2  C   UNL     1      67.165  49.022   9.631  1.00  0.00     0.208 A 
ATOM      3  C   UNL     1      65.825  48.604   9.658  1.00  0.00     0.238 A 
ATOM      4  O   UNL     1      64.956  49.390  10.120  1.00  0.00    -0.285 OA
ATOM      5  C   UNL     1      65.470  47.339   9.133  1.00  0.00     0.111 A 
ATOM      6  C   UNL     1      64.150  46.798   9.145  1.00  0.00     0.134 A 
ATOM      7  C   UNL     1      63.891  45.593   8.479  1.00  0.00     0.093 A 
ATOM      8  C   UNL     1      64.915  44.878   7.860  1.00  0.00     0.123 A 
ATOM      9  C   UNL     1      66.221  45.368   7.893  1.00  0.00     0.094 A 
ATOM     10  C   UNL     1      66.504  46.586   8.518  1.00  0.00     0.146 A 
ATOM     11  O   UNL     1      67.757  47.022   8.518  1.00  0.00    -0.452 OA
ENDROOT
BRANCH   1  12
ATOM     12  C   UNL     1      69.567  48.534   9.019  1.00  0.00     0.021 A 
ATOM     13  C   UNL     1      70.113  49.243   7.934  1.00  0.00     0.016 A 
ATOM     14  C   UNL     1      71.467  49.594   7.928  1.00  0.00     0.047 A 
ATOM     15  C   UNL     1      72.287  49.253   9.007  1.00  0.00     0.115 A 
ATOM     16  C   UNL     1      70.393  48.214  10.110  1.00  0.00     0.016 A 
ATOM     17  C   UNL     1      71.747  48.565  10.100  1.00  0.00     0.047 A 
BRANCH  15  18
ATOM     18  O   UNL     1      73.634  49.608   8.986  1.00  0.00    -0.508 OA
ATOM     19  H   UNL     1      73.931  50.568   9.122  1.00  0.00     0.293 HD
ENDBRANCH  15  18
ENDBRANCH   1  12
BRANCH   2  20
ATOM     20  O   UNL     1      67.533  50.276  10.125  1.00  0.00    -0.502 OA
ATOM     21  H   UNL     1      66.859  50.932  10.502  1.00  0.00     0.293 HD
ENDBRANCH   2  20
BRANCH   6  22
ATOM     22  O   UNL     1      63.071  47.385   9.813  1.00  0.00    -0.507 OA
ATOM     23  H   UNL     1      62.248  46.890  10.121  1.00  0.00     0.293 HD
ENDBRANCH   6  22
BRANCH   8  24
ATOM     24  O   UNL     1      64.624  43.675   7.220  1.00  0.00    -0.508 OA
ATOM     25  H   UNL     1      63.704  43.487   6.838  1.00  0.00     0.293 HD
ENDBRANCH   8  24
TORSDOF 5
ENDMDL
MODEL 2
REMARK VINA RESULT:    -6.106     15.655     17.254
REMARK INTER + INTRA:          -7.465
REMARK INTER:                  -7.845
REMARK INTRA:                   0.380
REMARK UNBOUND:                -0.289
REMARK SMILES O=c1c(O)c(-c2ccc(O)cc2)oc2cc(O)cc(O)c12
REMARK SMILES IDX 5 1 3 2 2 3 1 4 21 5 19 6 18 7 16 8 15 9 14 10 13 11 6 12
REMARK SMILES IDX 7 13 8 14 9 15 12 16 11 17 10 18 4 20 20 22 17 24
REMARK H PARENT 10 19 4 21 20 23 17 25
REMARK Flexibility Score: inf
ROOT
ATOM      1  C   UNL     1      73.137  41.604  -4.771  1.00  0.00     0.180 A 
ATOM      2  C   UNL     1      72.158  40.625  -4.524  1.00  0.00     0.208 A 
ATOM      3  C   UNL     1      71.982  39.590  -5.457  1.00  0.00     0.238 A 
ATOM      4  O   UNL     1      71.068  38.747  -5.258  1.00  0.00    -0.285 OA
ATOM      5  C   UNL     1      72.797  39.536  -6.612  1.00  0.00     0.111 A 
ATOM      6  C   UNL     1      72.733  38.509  -7.602  1.00  0.00     0.134 A 
ATOM      7  C   UNL     1      73.496  38.627  -8.770  1.00  0.00     0.093 A 
ATOM      8  C   UNL     1      74.368  39.699  -8.955  1.00  0.00     0.123 A 
ATOM      9  C   UNL     1      74.484  40.678  -7.967  1.00  0.00     0.094 A 
ATOM     10  C   UNL     1      73.708  40.606  -6.807  1.00  0.00     0.146 A 
ATOM     11  O   UNL     1      73.840  41.563  -5.896  1.00  0.00    -0.452 OA
ENDROOT
BRANCH   1  12
ATOM     12  C   UNL     1      73.398  42.712  -3.824  1.00  0.00     0.021 A 
ATOM     13  C   UNL     1      73.014  42.627  -2.473  1.00  0.00     0.016 A 
ATOM     14  C   UNL     1      73.293  43.677  -1.591  1.00  0.00     0.047 A 
ATOM     15  C   UNL     1      73.969  44.814  -2.042  1.00  0.00     0.115 A 
ATOM     16  C   UNL     1      74.096  43.849  -4.265  1.00  0.00     0.016 A 
ATOM     17  C   UNL     1      74.372  44.897  -3.381  1.00  0.00     0.047 A 
BRANCH  15  18
ATOM     18  O   UNL     1      74.240  45.852  -1.153  1.00  0.00    -0.508 OA
ATOM     19  H   UNL     1      73.496  46.341  -0.668  1.00  0.00     0.293 HD
ENDBRANCH  15  18
ENDBRANCH   1  12
BRANCH   2  20
ATOM     20  O   UNL     1      71.349  40.709  -3.388  1.00  0.00    -0.502 OA
ATOM     21  H   UNL     1      70.501  41.263  -3.364  1.00  0.00     0.293 HD
ENDBRANCH   2  20
BRANCH   6  22
ATOM     22  O   UNL     1      71.963  37.350  -7.475  1.00  0.00    -0.507 OA
ATOM     23  H   UNL     1      70.959  37.313  -7.573  1.00  0.00     0.293 HD
ENDBRANCH   6  22
BRANCH   8  24
ATOM     24  O   UNL     1      75.125  39.777 -10.123  1.00  0.00    -0.508 OA
ATOM     25  H   UNL     1      74.854  40.381 -10.890  1.00  0.00     0.293 HD
ENDBRANCH   8  24
TORSDOF 5
ENDMDL
MODEL 3
REMARK VINA RESULT:    -5.848      2.353      7.152
REMARK INTER + INTRA:          -7.162
REMARK INTER:                  -7.070
REMARK INTRA:                  -0.093
REMARK UNBOUND:                -0.289
REMARK SMILES O=c1c(O)c(-c2ccc(O)cc2)oc2cc(O)cc(O)c12
REMARK SMILES IDX 5 1 3 2 2 3 1 4 21 5 19 6 18 7 16 8 15 9 14 10 13 11 6 12
REMARK SMILES IDX 7 13 8 14 9 15 12 16 11 17 10 18 4 20 20 22 17 24
REMARK H PARENT 10 19 4 21 20 23 17 25
REMARK Flexibility Score: inf
ROOT
ATOM      1  C   UNL     1      69.491  48.289   8.091  1.00  0.00     0.180 A 
ATOM      2  C   UNL     1      69.771  48.488   6.727  1.00  0.00     0.208 A 
ATOM      3  C   UNL     1      71.087  48.314   6.270  1.00  0.00     0.238 A 
ATOM      4  O   UNL     1      71.342  48.547   5.059  1.00  0.00    -0.285 OA
ATOM      5  C   UNL     1      72.103  47.928   7.176  1.00  0.00     0.111 A 
ATOM      6  C   UNL     1      73.462  47.685   6.815  1.00  0.00     0.134 A 
ATOM      7  C   UNL     1      74.409  47.436   7.816  1.00  0.00     0.093 A 
ATOM      8  C   UNL     1      74.035  47.356   9.157  1.00  0.00     0.123 A 
ATOM      9  C   UNL     1      72.699  47.533   9.516  1.00  0.00     0.094 A 
ATOM     10  C   UNL     1      71.737  47.819   8.543  1.00  0.00     0.146 A 
ATOM     11  O   UNL     1      70.478  47.992   8.927  1.00  0.00    -0.452 OA
ENDROOT
BRANCH   1  12
ATOM     12  C   UNL     1      68.125  48.429   8.643  1.00  0.00     0.021 A 
ATOM     13  C   UNL     1      67.817  49.415   9.597  1.00  0.00     0.016 A 
ATOM     14  C   UNL     1      66.512  49.544  10.085  1.00  0.00     0.047 A 
ATOM     15  C   UNL     1      65.499  48.702   9.618  1.00  0.00     0.115 A 
ATOM     16  C   UNL     1      67.097  47.600   8.162  1.00  0.00     0.016 A 
ATOM     17  C   UNL     1      65.794  47.730   8.653  1.00  0.00     0.047 A 
BRANCH  15  18
ATOM     18  O   UNL     1      64.205  48.841  10.114  1.00  0.00    -0.508 OA
ATOM     19  H   UNL     1      64.025  48.927  11.108  1.00  0.00     0.293 HD
ENDBRANCH  15  18
ENDBRANCH   1  12
BRANCH   2  20
ATOM     20  O   UNL     1      68.758  48.891   5.853  1.00  0.00    -0.502 OA
ATOM     21  H   UNL     1      68.945  49.194   4.905  1.00  0.00     0.293 HD
ENDBRANCH   2  20
BRANCH   6  22
ATOM     22  O   UNL     1      73.925  47.650   5.496  1.00  0.00    -0.507 OA
ATOM     23  H   UNL     1      73.437  47.215   4.728  1.00  0.00     0.293 HD
ENDBRANCH   6  22
BRANCH   8  24
ATOM     24  O   UNL     1      75.002  47.090  10.125  1.00  0.00    -0.508 OA
ATOM     25  H   UNL     1      75.381  47.825  10.710  1.00  0.00     0.293 HD
ENDBRANCH   8  24
TORSDOF 5
ENDMDL
MODEL 4
REMARK VINA RESULT:    -5.645      2.797      3.855
REMARK INTER + INTRA:          -6.924
REMARK INTER:                  -6.649
REMARK INTRA:                  -0.275
REMARK UNBOUND:                -0.289
REMARK SMILES O=c1c(O)c(-c2ccc(O)cc2)oc2cc(O)cc(O)c12
REMARK SMILES IDX 5 1 3 2 2 3 1 4 21 5 19 6 18 7 16 8 15 9 14 10 13 11 6 12
REMARK SMILES IDX 7 13 8 14 9 15 12 16 11 17 10 18 4 20 20 22 17 24
REMARK H PARENT 10 19 4 21 20 23 17 25
REMARK Flexibility Score: inf
ROOT
ATOM      1  C   UNL     1      70.267  47.826   7.194  1.00  0.00     0.180 A 
ATOM      2  C   UNL     1      70.317  48.880   8.124  1.00  0.00     0.208 A 
ATOM      3  C   UNL     1      69.128  49.293   8.747  1.00  0.00     0.238 A 
ATOM      4  O   UNL     1      69.169  50.272   9.538  1.00  0.00    -0.285 OA
ATOM      5  C   UNL     1      67.910  48.638   8.446  1.00  0.00     0.111 A 
ATOM      6  C   UNL     1      66.653  48.948   9.048  1.00  0.00     0.134 A 
ATOM      7  C   UNL     1      65.490  48.324   8.579  1.00  0.00     0.093 A 
ATOM      8  C   UNL     1      65.546  47.357   7.577  1.00  0.00     0.123 A 
ATOM      9  C   UNL     1      66.777  47.003   7.022  1.00  0.00     0.094 A 
ATOM     10  C   UNL     1      67.951  47.634   7.445  1.00  0.00     0.146 A 
ATOM     11  O   UNL     1      69.100  47.276   6.884  1.00  0.00    -0.452 OA
ENDROOT
BRANCH   1  12
ATOM     12  C   UNL     1      71.481  47.318   6.516  1.00  0.00     0.021 A 
ATOM     13  C   UNL     1      72.155  46.172   6.977  1.00  0.00     0.016 A 
ATOM     14  C   UNL     1      73.285  45.698   6.304  1.00  0.00     0.047 A 
ATOM     15  C   UNL     1      73.748  46.350   5.158  1.00  0.00     0.115 A 
ATOM     16  C   UNL     1      71.940  47.956   5.350  1.00  0.00     0.016 A 
ATOM     17  C   UNL     1      73.071  47.480   4.680  1.00  0.00     0.047 A 
BRANCH  15  18
ATOM     18  O   UNL     1      74.876  45.866   4.499  1.00  0.00    -0.508 OA
ATOM     19  H   UNL     1      75.656  46.471   4.271  1.00  0.00     0.293 HD
ENDBRANCH  15  18
ENDBRANCH   1  12
BRANCH   2  20
ATOM     20  O   UNL     1      71.526  49.527   8.390  1.00  0.00    -0.502 OA
ATOM     21  H   UNL     1      71.570  50.441   8.825  1.00  0.00     0.293 HD
ENDBRANCH   2  20
BRANCH   6  22
ATOM     22  O   UNL     1      66.498  49.833  10.119  1.00  0.00    -0.507 OA
ATOM     23  H   UNL     1      65.700  50.435  10.255  1.00  0.00     0.293 HD
ENDBRANCH   6  22
BRANCH   8  24
ATOM     24  O   UNL     1      64.371  46.745   7.145  1.00  0.00    -0.508 OA
ATOM     25  H   UNL     1      63.520  47.276   7.003  1.00  0.00     0.293 HD
ENDBRANCH   8  24
TORSDOF 5
ENDMDL
MODEL 5
REMARK VINA RESULT:    -5.643      1.799      3.280
REMARK INTER + INTRA:          -6.921
REMARK INTER:                  -6.635
REMARK INTRA:                  -0.286
REMARK UNBOUND:                -0.289
REMARK SMILES O=c1c(O)c(-c2ccc(O)cc2)oc2cc(O)cc(O)c12
REMARK SMILES IDX 5 1 3 2 2 3 1 4 21 5 19 6 18 7 16 8 15 9 14 10 13 11 6 12
REMARK SMILES IDX 7 13 8 14 9 15 12 16 11 17 10 18 4 20 20 22 17 24
REMARK H PARENT 10 19 4 21 20 23 17 25
REMARK Flexibility Score: inf
ROOT
ATOM      1  C   UNL     1      68.353  46.874   8.165  1.00  0.00     0.180 A 
ATOM      2  C   UNL     1      68.644  45.504   8.290  1.00  0.00     0.208 A 
ATOM      3  C   UNL     1      67.592  44.576   8.217  1.00  0.00     0.238 A 
ATOM      4  O   UNL     1      67.851  43.355   8.384  1.00  0.00    -0.285 OA
ATOM      5  C   UNL     1      66.268  45.027   8.003  1.00  0.00     0.111 A 
ATOM      6  C   UNL     1      65.132  44.173   7.871  1.00  0.00     0.134 A 
ATOM      7  C   UNL     1      63.851  44.734   7.793  1.00  0.00     0.093 A 
ATOM      8  C   UNL     1      63.671  46.116   7.775  1.00  0.00     0.123 A 
ATOM      9  C   UNL     1      64.779  46.961   7.843  1.00  0.00     0.094 A 
ATOM     10  C   UNL     1      66.067  46.431   7.959  1.00  0.00     0.146 A 
ATOM     11  O   UNL     1      67.093  47.269   8.032  1.00  0.00    -0.452 OA
ENDROOT
BRANCH   1  12
ATOM     12  C   UNL     1      69.411  47.909   8.208  1.00  0.00     0.021 A 
ATOM     13  C   UNL     1      69.850  48.460   9.425  1.00  0.00     0.016 A 
ATOM     14  C   UNL     1      70.868  49.419   9.442  1.00  0.00     0.047 A 
ATOM     15  C   UNL     1      71.468  49.829   8.248  1.00  0.00     0.115 A 
ATOM     16  C   UNL     1      70.034  48.310   7.013  1.00  0.00     0.016 A 
ATOM     17  C   UNL     1      71.050  49.271   7.033  1.00  0.00     0.047 A 
BRANCH  15  18
ATOM     18  O   UNL     1      72.480  50.785   8.279  1.00  0.00    -0.508 OA
ATOM     19  H   UNL     1      73.436  50.537   8.507  1.00  0.00     0.293 HD
ENDBRANCH  15  18
ENDBRANCH   1  12
BRANCH   2  20
ATOM     20  O   UNL     1      69.955  45.081   8.523  1.00  0.00    -0.502 OA
ATOM     21  H   UNL     1      70.171  44.205   8.984  1.00  0.00     0.293 HD
ENDBRANCH   2  20
BRANCH   6  22
ATOM     22  O   UNL     1      65.209  42.780   7.786  1.00  0.00    -0.507 OA
ATOM     23  H   UNL     1      66.019  42.267   7.471  1.00  0.00     0.293 HD
ENDBRANCH   6  22
BRANCH   8  24
ATOM     24  O   UNL     1      62.383  46.640   7.680  1.00  0.00    -0.508 OA
ATOM     25  H   UNL     1      61.800  46.765   8.500  1.00  0.00     0.293 HD
ENDBRANCH   8  24
TORSDOF 5
ENDMDL
MODEL 6
REMARK VINA RESULT:    -5.556      5.647      8.923
REMARK INTER + INTRA:          -6.819
REMARK INTER:                  -6.519
REMARK INTRA:                  -0.301
REMARK UNBOUND:                -0.289
REMARK SMILES O=c1c(O)c(-c2ccc(O)cc2)oc2cc(O)cc(O)c12
REMARK SMILES IDX 5 1 3 2 2 3 1 4 21 5 19 6 18 7 16 8 15 9 14 10 13 11 6 12
REMARK SMILES IDX 7 13 8 14 9 15 12 16 11 17 10 18 4 20 20 22 17 24
REMARK H PARENT 10 19 4 21 20 23 17 25
REMARK Flexibility Score: inf
ROOT
ATOM      1  C   UNL     1      71.561  43.953   6.166  1.00  0.00     0.180 A 
ATOM      2  C   UNL     1      71.892  44.444   4.891  1.00  0.00     0.208 A 
ATOM      3  C   UNL     1      72.600  45.652   4.790  1.00  0.00     0.238 A 
ATOM      4  O   UNL     1      72.846  46.115   3.645  1.00  0.00    -0.285 OA
ATOM      5  C   UNL     1      72.982  46.345   5.963  1.00  0.00     0.111 A 
ATOM      6  C   UNL     1      73.736  47.557   5.979  1.00  0.00     0.134 A 
ATOM      7  C   UNL     1      73.945  48.225   7.192  1.00  0.00     0.093 A 
ATOM      8  C   UNL     1      73.484  47.693   8.395  1.00  0.00     0.123 A 
ATOM      9  C   UNL     1      72.797  46.478   8.399  1.00  0.00     0.094 A 
ATOM     10  C   UNL     1      72.542  45.807   7.200  1.00  0.00     0.146 A 
ATOM     11  O   UNL     1      71.875  44.660   7.245  1.00  0.00    -0.452 OA
ENDROOT
BRANCH   1  12
ATOM     12  C   UNL     1      70.838  42.675   6.354  1.00  0.00     0.021 A 
ATOM     13  C   UNL     1      71.526  41.453   6.470  1.00  0.00     0.016 A 
ATOM     14  C   UNL     1      70.822  40.261   6.672  1.00  0.00     0.047 A 
ATOM     15  C   UNL     1      69.429  40.275   6.774  1.00  0.00     0.115 A 
ATOM     16  C   UNL     1      69.438  42.684   6.480  1.00  0.00     0.016 A 
ATOM     17  C   UNL     1      68.737  41.490   6.680  1.00  0.00     0.047 A 
BRANCH  15  18
ATOM     18  O   UNL     1      68.741  39.081   6.975  1.00  0.00    -0.508 OA
ATOM     19  H   UNL     1      68.259  38.886   7.845  1.00  0.00     0.293 HD
ENDBRANCH  15  18
ENDBRANCH   1  12
BRANCH   2  20
ATOM     20  O   UNL     1      71.486  43.755   3.745  1.00  0.00    -0.502 OA
ATOM     21  H   UNL     1      71.207  44.230   2.895  1.00  0.00     0.293 HD
ENDBRANCH   2  20
BRANCH   6  22
ATOM     22  O   UNL     1      74.320  48.128   4.845  1.00  0.00    -0.507 OA
ATOM     23  H   UNL     1      73.869  48.210   3.946  1.00  0.00     0.293 HD
ENDBRANCH   6  22
BRANCH   8  24
ATOM     24  O   UNL     1      73.723  48.376   9.586  1.00  0.00    -0.508 OA
ATOM     25  H   UNL     1      73.181  49.192   9.846  1.00  0.00     0.293 HD
ENDBRANCH   8  24
TORSDOF 5
ENDMDL
MODEL 7
REMARK VINA RESULT:    -5.553      2.104      7.361
REMARK INTER + INTRA:          -6.816
REMARK INTER:                  -6.515
REMARK INTRA:                  -0.301
REMARK UNBOUND:                -0.289
REMARK SMILES O=c1c(O)c(-c2ccc(O)cc2)oc2cc(O)cc(O)c12
REMARK SMILES IDX 5 1 3 2 2 3 1 4 21 5 19 6 18 7 16 8 15 9 14 10 13 11 6 12
REMARK SMILES IDX 7 13 8 14 9 15 12 16 11 17 10 18 4 20 20 22 17 24
REMARK H PARENT 10 19 4 21 20 23 17 25
REMARK Flexibility Score: inf
ROOT
ATOM      1  C   UNL     1      66.085  45.231   8.666  1.00  0.00     0.180 A 
ATOM      2  C   UNL     1      67.295  44.814   8.084  1.00  0.00     0.208 A 
ATOM      3  C   UNL     1      68.382  45.704   8.063  1.00  0.00     0.238 A 
ATOM      4  O   UNL     1      69.445  45.345   7.492  1.00  0.00    -0.285 OA
ATOM      5  C   UNL     1      68.251  46.990   8.638  1.00  0.00     0.111 A 
ATOM      6  C   UNL     1      69.298  47.957   8.708  1.00  0.00     0.134 A 
ATOM      7  C   UNL     1      69.019  49.245   9.181  1.00  0.00     0.093 A 
ATOM      8  C   UNL     1      67.749  49.581   9.646  1.00  0.00     0.123 A 
ATOM      9  C   UNL     1      66.731  48.626   9.638  1.00  0.00     0.094 A 
ATOM     10  C   UNL     1      66.971  47.343   9.138  1.00  0.00     0.146 A 
ATOM     11  O   UNL     1      65.973  46.467   9.137  1.00  0.00    -0.452 OA
ENDROOT
BRANCH   1  12
ATOM     12  C   UNL     1      64.904  44.342   8.748  1.00  0.00     0.021 A 
ATOM     13  C   UNL     1      64.706  43.485   9.846  1.00  0.00     0.016 A 
ATOM     14  C   UNL     1      63.570  42.672   9.913  1.00  0.00     0.047 A 
ATOM     15  C   UNL     1      62.613  42.715   8.895  1.00  0.00     0.115 A 
ATOM     16  C   UNL     1      63.927  44.396   7.740  1.00  0.00     0.016 A 
ATOM     17  C   UNL     1      62.792  43.581   7.809  1.00  0.00     0.047 A 
BRANCH  15  18
ATOM     18  O   UNL     1      61.486  41.900   8.975  1.00  0.00    -0.508 OA
ATOM     19  H   UNL     1      60.550  42.288   8.968  1.00  0.00     0.293 HD
ENDBRANCH  15  18
ENDBRANCH   1  12
BRANCH   2  20
ATOM     20  O   UNL     1      67.396  43.548   7.503  1.00  0.00    -0.502 OA
ATOM     21  H   UNL     1      66.924  43.306   6.640  1.00  0.00     0.293 HD
ENDBRANCH   2  20
BRANCH   6  22
ATOM     22  O   UNL     1      70.626  47.696   8.354  1.00  0.00    -0.507 OA
ATOM     23  H   UNL     1      71.401  47.693   8.999  1.00  0.00     0.293 HD
ENDBRANCH   6  22
BRANCH   8  24
ATOM     24  O   UNL     1      67.510  50.868  10.124  1.00  0.00    -0.508 OA
ATOM     25  H   UNL     1      66.599  51.303  10.043  1.00  0.00     0.293 HD
ENDBRANCH   8  24
TORSDOF 5
ENDMDL
MODEL 8
REMARK VINA RESULT:    -5.486      1.761      2.578
REMARK INTER + INTRA:          -6.736
REMARK INTER:                  -6.436
REMARK INTRA:                  -0.301
REMARK UNBOUND:                -0.289
REMARK SMILES O=c1c(O)c(-c2ccc(O)cc2)oc2cc(O)cc(O)c12
REMARK SMILES IDX 5 1 3 2 2 3 1 4 21 5 19 6 18 7 16 8 15 9 14 10 13 11 6 12
REMARK SMILES IDX 7 13 8 14 9 15 12 16 11 17 10 18 4 20 20 22 17 24
REMARK H PARENT 10 19 4 21 20 23 17 25
REMARK Flexibility Score: inf
ROOT
ATOM      1  C   UNL     1      67.860  47.126   8.158  1.00  0.00     0.180 A 
ATOM      2  C   UNL     1      66.510  47.514   8.218  1.00  0.00     0.208 A 
ATOM      3  C   UNL     1      65.518  46.520   8.247  1.00  0.00     0.238 A 
ATOM      4  O   UNL     1      64.309  46.873   8.245  1.00  0.00    -0.285 OA
ATOM      5  C   UNL     1      65.888  45.155   8.233  1.00  0.00     0.111 A 
ATOM      6  C   UNL     1      64.968  44.065   8.300  1.00  0.00     0.134 A 
ATOM      7  C   UNL     1      65.437  42.754   8.148  1.00  0.00     0.093 A 
ATOM      8  C   UNL     1      66.798  42.490   7.996  1.00  0.00     0.123 A 
ATOM      9  C   UNL     1      67.713  43.543   7.988  1.00  0.00     0.094 A 
ATOM     10  C   UNL     1      67.271  44.864   8.103  1.00  0.00     0.146 A 
ATOM     11  O   UNL     1      68.172  45.839   8.080  1.00  0.00    -0.452 OA
ENDROOT
BRANCH   1  12
ATOM     12  C   UNL     1      68.963  48.115   8.150  1.00  0.00     0.021 A 
ATOM     13  C   UNL     1      69.535  48.586   9.346  1.00  0.00     0.016 A 
ATOM     14  C   UNL     1      70.592  49.500   9.311  1.00  0.00     0.047 A 
ATOM     15  C   UNL     1      71.099  49.945   8.087  1.00  0.00     0.115 A 
ATOM     16  C   UNL     1      69.492  48.549   6.922  1.00  0.00     0.016 A 
ATOM     17  C   UNL     1      70.549  49.465   6.891  1.00  0.00     0.047 A 
BRANCH  15  18
ATOM     18  O   UNL     1      72.152  50.857   8.068  1.00  0.00    -0.508 OA
ATOM     19  H   UNL     1      72.140  51.667   7.459  1.00  0.00     0.293 HD
ENDBRANCH  15  18
ENDBRANCH   1  12
BRANCH   2  20
ATOM     20  O   UNL     1      66.166  48.868   8.208  1.00  0.00    -0.502 OA
ATOM     21  H   UNL     1      66.511  49.522   8.900  1.00  0.00     0.293 HD
ENDBRANCH   2  20
BRANCH   6  22
ATOM     22  O   UNL     1      63.599  44.213   8.541  1.00  0.00    -0.507 OA
ATOM     23  H   UNL     1      62.876  44.065   7.853  1.00  0.00     0.293 HD
ENDBRANCH   6  22
BRANCH   8  24
ATOM     24  O   UNL     1      67.231  41.172   7.862  1.00  0.00    -0.508 OA
ATOM     25  H   UNL     1      67.922  40.776   8.488  1.00  0.00     0.293 HD
ENDBRANCH   8  24
TORSDOF 5
ENDMDL
MODEL 9
REMARK VINA RESULT:    -5.435      2.201      6.955
REMARK INTER + INTRA:          -6.676
REMARK INTER:                  -6.463
REMARK INTRA:                  -0.214
REMARK UNBOUND:                -0.289
REMARK SMILES O=c1c(O)c(-c2ccc(O)cc2)oc2cc(O)cc(O)c12
REMARK SMILES IDX 5 1 3 2 2 3 1 4 21 5 19 6 18 7 16 8 15 9 14 10 13 11 6 12
REMARK SMILES IDX 7 13 8 14 9 15 12 16 11 17 10 18 4 20 20 22 17 24
REMARK H PARENT 10 19 4 21 20 23 17 25
REMARK Flexibility Score: inf
ROOT
ATOM      1  C   UNL     1      69.033  47.358   8.037  1.00  0.00     0.180 A 
ATOM      2  C   UNL     1      69.465  48.180   9.093  1.00  0.00     0.208 A 
ATOM      3  C   UNL     1      70.798  48.619   9.111  1.00  0.00     0.238 A 
ATOM      4  O   UNL     1      71.194  49.310  10.087  1.00  0.00    -0.285 OA
ATOM      5  C   UNL     1      71.678  48.246   8.068  1.00  0.00     0.111 A 
ATOM      6  C   UNL     1      73.038  48.666   7.964  1.00  0.00     0.134 A 
ATOM      7  C   UNL     1      73.853  48.130   6.960  1.00  0.00     0.093 A 
ATOM      8  C   UNL     1      73.341  47.239   6.017  1.00  0.00     0.123 A 
ATOM      9  C   UNL     1      71.997  46.867   6.072  1.00  0.00     0.094 A 
ATOM     10  C   UNL     1      71.168  47.358   7.085  1.00  0.00     0.146 A 
ATOM     11  O   UNL     1      69.899  46.971   7.109  1.00  0.00    -0.452 OA
ENDROOT
BRANCH   1  12
ATOM     12  C   UNL     1      67.637  46.876   7.936  1.00  0.00     0.021 A 
ATOM     13  C   UNL     1      67.295  45.547   8.247  1.00  0.00     0.016 A 
ATOM     14  C   UNL     1      65.965  45.121   8.168  1.00  0.00     0.047 A 
ATOM     15  C   UNL     1      64.961  46.017   7.791  1.00  0.00     0.115 A 
ATOM     16  C   UNL     1      66.619  47.776   7.579  1.00  0.00     0.016 A 
ATOM     17  C   UNL     1      65.290  47.347   7.499  1.00  0.00     0.047 A 
BRANCH  15  18
ATOM     18  O   UNL     1      63.641  45.579   7.716  1.00  0.00    -0.508 OA
ATOM     19  H   UNL     1      62.943  46.090   7.188  1.00  0.00     0.293 HD
ENDBRANCH  15  18
ENDBRANCH   1  12
BRANCH   2  20
ATOM     20  O   UNL     1      68.586  48.519  10.125  1.00  0.00    -0.502 OA
ATOM     21  H   UNL     1      68.593  48.048  11.022  1.00  0.00     0.293 HD
ENDBRANCH   2  20
BRANCH   6  22
ATOM     22  O   UNL     1      73.625  49.621   8.799  1.00  0.00    -0.507 OA
ATOM     23  H   UNL     1      73.118  50.333   9.304  1.00  0.00     0.293 HD
ENDBRANCH   6  22
BRANCH   8  24
ATOM     24  O   UNL     1      74.176  46.737   5.021  1.00  0.00    -0.508 OA
ATOM     25  H   UNL     1      75.039  47.204   4.768  1.00  0.00     0.293 HD
ENDBRANCH   8  24
TORSDOF 5
ENDMDL
