MODEL 1
REMARK VINA RESULT:    -3.828      0.000      0.000
REMARK INTER + INTRA:          -6.740
REMARK INTER:                  -5.843
REMARK INTRA:                  -0.897
REMARK UNBOUND:                -0.897
REMARK SMILES O=C([O-])CCCCCCCCC(=O)[O-]
REMARK SMILES IDX 7 1 6 2 5 3 4 4 2 5 1 6 3 7 8 8 9 9 10 10 11 11 12 12 13 13
REMARK SMILES IDX 14 14
REMARK H PARENT
REMARK Flexibility Score: inf
ROOT
ATOM      1  C   UNL     1     -22.278 120.883  -1.501  1.00  0.00     0.000 C 
ENDROOT
BRANCH   1   2
ATOM      2  C   UNL     1     -23.154 120.263  -0.402  1.00  0.00     0.000 C 
BRANCH   2   3
ATOM      3  C   UNL     1     -23.509 118.810  -0.738  1.00  0.00     0.006 C 
BRANCH   3   4
ATOM      4  C   UNL     1     -23.613 117.961   0.533  1.00  0.00     0.053 C 
BRANCH   4   5
ATOM      5  C   UNL     1     -22.258 117.505   0.970  1.00  0.00     0.041 C 
ATOM      6  O   UNL     1     -21.750 116.463   0.476  1.00  0.00    -0.550 OA
ATOM      7  O   UNL     1     -21.575 118.200   1.960  1.00  0.00    -0.550 OA
ENDBRANCH   4   5
ENDBRANCH   3   4
ENDBRANCH   2   3
ENDBRANCH   1   2
BRANCH   1   8
ATOM      8  C   UNL     1     -20.824 121.109  -1.050  1.00  0.00     0.000 C 
BRANCH   8   9
ATOM      9  C   UNL     1     -19.773 120.245  -1.778  1.00  0.00     0.000 C 
BRANCH   9  10
ATOM     10  C   UNL     1     -19.836 118.736  -1.469  1.00  0.00     0.006 C 
BRANCH  10  11
ATOM     11  C   UNL     1     -20.401 117.879  -2.613  1.00  0.00     0.053 C 
BRANCH  11  12
ATOM     12  C   UNL     1     -19.598 116.634  -2.829  1.00  0.00     0.041 C 
ATOM     13  O   UNL     1     -19.394 116.206  -3.996  1.00  0.00    -0.550 OA
ATOM     14  O   UNL     1     -19.101 115.927  -1.741  1.00  0.00    -0.550 OA
ENDBRANCH  11  12
ENDBRANCH  10  11
ENDBRANCH   9  10
ENDBRANCH   8   9
ENDBRANCH   1   8
TORSDOF 9
ENDMDL
MODEL 2
REMARK VINA RESULT:    -3.739      2.479      4.172
REMARK INTER + INTRA:          -6.603
REMARK INTER:                  -5.784
REMARK INTRA:                  -0.819
REMARK UNBOUND:                -0.897
REMARK SMILES O=C([O-])CCCCCCCCC(=O)[O-]
REMARK SMILES IDX 7 1 6 2 5 3 4 4 2 5 1 6 3 7 8 8 9 9 10 10 11 11 12 12 13 13
REMARK SMILES IDX 14 14
REMARK H PARENT
REMARK Flexibility Score: inf
ROOT
ATOM      1  C   UNL     1     -21.493 117.011  -2.101  1.00  0.00     0.000 C 
ENDROOT
BRANCH   1   2
ATOM      2  C   UNL     1     -20.386 117.939  -2.623  1.00  0.00     0.000 C 
BRANCH   2   3
ATOM      3  C   UNL     1     -19.727 118.708  -1.472  1.00  0.00     0.006 C 
BRANCH   3   4
ATOM      4  C   UNL     1     -20.101 120.192  -1.518  1.00  0.00     0.053 C 
BRANCH   4   5
ATOM      5  C   UNL     1     -21.268 120.466  -0.625  1.00  0.00     0.041 C 
ATOM      6  O   UNL     1     -22.092 121.374  -0.918  1.00  0.00    -0.550 OA
ATOM      7  O   UNL     1     -21.422 119.754   0.558  1.00  0.00    -0.550 OA
ENDBRANCH   4   5
ENDBRANCH   3   4
ENDBRANCH   2   3
ENDBRANCH   1   2
BRANCH   1   8
ATOM      8  C   UNL     1     -21.174 116.419  -0.717  1.00  0.00     0.000 C 
BRANCH   8   9
ATOM      9  C   UNL     1     -21.091 114.879  -0.668  1.00  0.00     0.000 C 
BRANCH   9  10
ATOM     10  C   UNL     1     -19.759 114.278  -1.160  1.00  0.00     0.006 C 
BRANCH  10  11
ATOM     11  C   UNL     1     -18.551 114.595  -0.264  1.00  0.00     0.053 C 
BRANCH  11  12
ATOM     12  C   UNL     1     -17.359 115.025  -1.060  1.00  0.00     0.041 C 
ATOM     13  O   UNL     1     -16.202 114.673  -0.709  1.00  0.00    -0.550 OA
ATOM     14  O   UNL     1     -17.522 115.842  -2.172  1.00  0.00    -0.550 OA
ENDBRANCH  11  12
ENDBRANCH  10  11
ENDBRANCH   9  10
ENDBRANCH   8   9
ENDBRANCH   1   8
TORSDOF 9
ENDMDL
MODEL 3
REMARK VINA RESULT:    -3.727      2.386      4.360
REMARK INTER + INTRA:          -6.585
REMARK INTER:                  -5.840
REMARK INTRA:                  -0.745
REMARK UNBOUND:                -0.897
REMARK SMILES O=C([O-])CCCCCCCCC(=O)[O-]
REMARK SMILES IDX 7 1 6 2 5 3 4 4 2 5 1 6 3 7 8 8 9 9 10 10 11 11 12 12 13 13
REMARK SMILES IDX 14 14
REMARK H PARENT
REMARK Flexibility Score: inf
ROOT
ATOM      1  C   UNL     1     -20.442 118.773  -2.031  1.00  0.00     0.000 C 
ENDROOT
BRANCH   1   2
ATOM      2  C   UNL     1     -19.813 120.015  -1.382  1.00  0.00     0.000 C 
BRANCH   2   3
ATOM      3  C   UNL     1     -20.837 121.150  -1.262  1.00  0.00     0.006 C 
BRANCH   3   4
ATOM      4  C   UNL     1     -22.099 120.677  -0.535  1.00  0.00     0.053 C 
BRANCH   4   5
ATOM      5  C   UNL     1     -23.309 120.903  -1.383  1.00  0.00     0.041 C 
ATOM      6  O   UNL     1     -24.443 121.032  -0.850  1.00  0.00    -0.550 OA
ATOM      7  O   UNL     1     -23.194 120.922  -2.768  1.00  0.00    -0.550 OA
ENDBRANCH   4   5
ENDBRANCH   3   4
ENDBRANCH   2   3
ENDBRANCH   1   2
BRANCH   1   8
ATOM      8  C   UNL     1     -19.631 117.490  -1.779  1.00  0.00     0.000 C 
BRANCH   8   9
ATOM      9  C   UNL     1     -20.463 116.193  -1.717  1.00  0.00     0.000 C 
BRANCH   9  10
ATOM     10  C   UNL     1     -20.796 115.694  -0.296  1.00  0.00     0.006 C 
BRANCH  10  11
ATOM     11  C   UNL     1     -22.276 115.833   0.093  1.00  0.00     0.053 C 
BRANCH  11  12
ATOM     12  C   UNL     1     -22.565 117.154   0.736  1.00  0.00     0.041 C 
ATOM     13  O   UNL     1     -23.665 117.731   0.529  1.00  0.00    -0.550 OA
ATOM     14  O   UNL     1     -21.608 117.764   1.537  1.00  0.00    -0.550 OA
ENDBRANCH  11  12
ENDBRANCH  10  11
ENDBRANCH   9  10
ENDBRANCH   8   9
ENDBRANCH   1   8
TORSDOF 9
ENDMDL
MODEL 4
REMARK VINA RESULT:    -3.718      0.800      4.184
REMARK INTER + INTRA:          -6.571
REMARK INTER:                  -5.578
REMARK INTRA:                  -0.993
REMARK UNBOUND:                -0.897
REMARK SMILES O=C([O-])CCCCCCCCC(=O)[O-]
REMARK SMILES IDX 7 1 6 2 5 3 4 4 2 5 1 6 3 7 8 8 9 9 10 10 11 11 12 12 13 13
REMARK SMILES IDX 14 14
REMARK H PARENT
REMARK Flexibility Score: inf
ROOT
ATOM      1  C   UNL     1     -21.200 121.181  -0.714  1.00  0.00     0.000 C 
ENDROOT
BRANCH   1   2
ATOM      2  C   UNL     1     -19.996 120.446  -1.324  1.00  0.00     0.000 C 
BRANCH   2   3
ATOM      3  C   UNL     1     -20.452 119.230  -2.139  1.00  0.00     0.006 C 
BRANCH   3   4
ATOM      4  C   UNL     1     -19.687 117.971  -1.721  1.00  0.00     0.053 C 
BRANCH   4   5
ATOM      5  C   UNL     1     -20.026 116.828  -2.624  1.00  0.00     0.041 C 
ATOM      6  O   UNL     1     -21.223 116.455  -2.752  1.00  0.00    -0.550 OA
ATOM      7  O   UNL     1     -19.017 116.142  -3.288  1.00  0.00    -0.550 OA
ENDBRANCH   4   5
ENDBRANCH   3   4
ENDBRANCH   2   3
ENDBRANCH   1   2
BRANCH   1   8
ATOM      8  C   UNL     1     -22.508 120.927  -1.483  1.00  0.00     0.000 C 
BRANCH   8   9
ATOM      9  C   UNL     1     -23.651 120.317  -0.646  1.00  0.00     0.000 C 
BRANCH   9  10
ATOM     10  C   UNL     1     -23.797 118.786  -0.752  1.00  0.00     0.006 C 
BRANCH  10  11
ATOM     11  C   UNL     1     -23.723 118.048   0.595  1.00  0.00     0.053 C 
BRANCH  11  12
ATOM     12  C   UNL     1     -22.321 117.650   0.939  1.00  0.00     0.041 C 
ATOM     13  O   UNL     1     -21.555 118.466   1.515  1.00  0.00    -0.550 OA
ATOM     14  O   UNL     1     -21.850 116.389   0.595  1.00  0.00    -0.550 OA
ENDBRANCH  11  12
ENDBRANCH  10  11
ENDBRANCH   9  10
ENDBRANCH   8   9
ENDBRANCH   1   8
TORSDOF 9
ENDMDL
MODEL 5
REMARK VINA RESULT:    -3.708      2.157      4.843
REMARK INTER + INTRA:          -6.556
REMARK INTER:                  -5.756
REMARK INTRA:                  -0.800
REMARK UNBOUND:                -0.897
REMARK SMILES O=C([O-])CCCCCCCCC(=O)[O-]
REMARK SMILES IDX 7 1 6 2 5 3 4 4 2 5 1 6 3 7 8 8 9 9 10 10 11 11 12 12 13 13
REMARK SMILES IDX 14 14
REMARK H PARENT
REMARK Flexibility Score: inf
ROOT
ATOM      1  C   UNL     1     -21.587 116.595  -1.832  1.00  0.00     0.000 C 
ENDROOT
BRANCH   1   2
ATOM      2  C   UNL     1     -20.898 115.972  -0.609  1.00  0.00     0.000 C 
BRANCH   2   3
ATOM      3  C   UNL     1     -20.120 114.711  -1.001  1.00  0.00     0.006 C 
BRANCH   3   4
ATOM      4  C   UNL     1     -18.795 114.622  -0.237  1.00  0.00     0.053 C 
BRANCH   4   5
ATOM      5  C   UNL     1     -17.646 114.935  -1.141  1.00  0.00     0.041 C 
ATOM      6  O   UNL     1     -16.464 114.734  -0.756  1.00  0.00    -0.550 OA
ATOM      7  O   UNL     1     -17.877 115.495  -2.391  1.00  0.00    -0.550 OA
ENDBRANCH   4   5
ENDBRANCH   3   4
ENDBRANCH   2   3
ENDBRANCH   1   2
BRANCH   1   8
ATOM      8  C   UNL     1     -20.700 117.622  -2.559  1.00  0.00     0.000 C 
BRANCH   8   9
ATOM      9  C   UNL     1     -19.796 118.470  -1.642  1.00  0.00     0.000 C 
BRANCH   9  10
ATOM     10  C   UNL     1     -19.973 119.996  -1.775  1.00  0.00     0.006 C 
BRANCH  10  11
ATOM     11  C   UNL     1     -20.539 120.680  -0.520  1.00  0.00     0.053 C 
BRANCH  11  12
ATOM     12  C   UNL     1     -21.649 119.888   0.098  1.00  0.00     0.041 C 
ATOM     13  O   UNL     1     -22.807 119.930  -0.395  1.00  0.00    -0.550 OA
ATOM     14  O   UNL     1     -21.413 119.128   1.237  1.00  0.00    -0.550 OA
ENDBRANCH  11  12
ENDBRANCH  10  11
ENDBRANCH   9  10
ENDBRANCH   8   9
ENDBRANCH   1   8
TORSDOF 9
ENDMDL
MODEL 6
REMARK VINA RESULT:    -3.684      2.758      5.107
REMARK INTER + INTRA:          -6.520
REMARK INTER:                  -5.817
REMARK INTRA:                  -0.703
REMARK UNBOUND:                -0.897
REMARK SMILES O=C([O-])CCCCCCCCC(=O)[O-]
REMARK SMILES IDX 7 1 6 2 5 3 4 4 2 5 1 6 3 7 8 8 9 9 10 10 11 11 12 12 13 13
REMARK SMILES IDX 14 14
REMARK H PARENT
REMARK Flexibility Score: inf
ROOT
ATOM      1  C   UNL     1     -22.022 115.514  -1.305  1.00  0.00     0.000 C 
ENDROOT
BRANCH   1   2
ATOM      2  C   UNL     1     -20.787 114.603  -1.373  1.00  0.00     0.000 C 
BRANCH   2   3
ATOM      3  C   UNL     1     -19.673 115.120  -0.455  1.00  0.00     0.006 C 
BRANCH   3   4
ATOM      4  C   UNL     1     -18.466 114.177  -0.471  1.00  0.00     0.053 C 
BRANCH   4   5
ATOM      5  C   UNL     1     -17.235 114.909  -0.898  1.00  0.00     0.041 C 
ATOM      6  O   UNL     1     -17.329 115.959  -1.588  1.00  0.00    -0.550 OA
ATOM      7  O   UNL     1     -15.980 114.408  -0.576  1.00  0.00    -0.550 OA
ENDBRANCH   4   5
ENDBRANCH   3   4
ENDBRANCH   2   3
ENDBRANCH   1   2
BRANCH   1   8
ATOM      8  C   UNL     1     -22.528 115.730   0.132  1.00  0.00     0.000 C 
BRANCH   8   9
ATOM      9  C   UNL     1     -22.507 117.193   0.619  1.00  0.00     0.000 C 
BRANCH   9  10
ATOM     10  C   UNL     1     -22.325 118.251  -0.488  1.00  0.00     0.006 C 
BRANCH  10  11
ATOM     11  C   UNL     1     -21.267 119.321  -0.175  1.00  0.00     0.053 C 
BRANCH  11  12
ATOM     12  C   UNL     1     -20.252 119.442  -1.268  1.00  0.00     0.041 C 
ATOM     13  O   UNL     1     -19.754 118.408  -1.788  1.00  0.00    -0.550 OA
ATOM     14  O   UNL     1     -19.831 120.696  -1.692  1.00  0.00    -0.550 OA
ENDBRANCH  11  12
ENDBRANCH  10  11
ENDBRANCH   9  10
ENDBRANCH   8   9
ENDBRANCH   1   8
TORSDOF 9
ENDMDL
MODEL 7
REMARK VINA RESULT:    -3.667      2.357      3.943
REMARK INTER + INTRA:          -6.494
REMARK INTER:                  -5.738
REMARK INTRA:                  -0.757
REMARK UNBOUND:                -0.897
REMARK SMILES O=C([O-])CCCCCCCCC(=O)[O-]
REMARK SMILES IDX 7 1 6 2 5 3 4 4 2 5 1 6 3 7 8 8 9 9 10 10 11 11 12 12 13 13
REMARK SMILES IDX 14 14
REMARK H PARENT
REMARK Flexibility Score: inf
ROOT
ATOM      1  C   UNL     1     -19.559 116.783  -1.946  1.00  0.00     0.000 C 
ENDROOT
BRANCH   1   2
ATOM      2  C   UNL     1     -20.313 115.753  -1.091  1.00  0.00     0.000 C 
BRANCH   2   3
ATOM      3  C   UNL     1     -21.813 116.069  -1.049  1.00  0.00     0.006 C 
BRANCH   3   4
ATOM      4  C   UNL     1     -22.334 116.067   0.391  1.00  0.00     0.053 C 
BRANCH   4   5
ATOM      5  C   UNL     1     -22.463 117.466   0.903  1.00  0.00     0.041 C 
ATOM      6  O   UNL     1     -23.292 118.258   0.382  1.00  0.00    -0.550 OA
ATOM      7  O   UNL     1     -21.633 117.912   1.924  1.00  0.00    -0.550 OA
ENDBRANCH   4   5
ENDBRANCH   3   4
ENDBRANCH   2   3
ENDBRANCH   1   2
BRANCH   1   8
ATOM      8  C   UNL     1     -20.344 118.094  -2.134  1.00  0.00     0.000 C 
BRANCH   8   9
ATOM      9  C   UNL     1     -19.759 119.317  -1.399  1.00  0.00     0.000 C 
BRANCH   9  10
ATOM     10  C   UNL     1     -20.348 120.678  -1.820  1.00  0.00     0.006 C 
BRANCH  10  11
ATOM     11  C   UNL     1     -21.612 121.088  -1.048  1.00  0.00     0.053 C 
BRANCH  11  12
ATOM     12  C   UNL     1     -22.853 120.900  -1.864  1.00  0.00     0.041 C 
ATOM     13  O   UNL     1     -22.769 120.615  -3.088  1.00  0.00    -0.550 OA
ATOM     14  O   UNL     1     -24.102 121.071  -1.282  1.00  0.00    -0.550 OA
ENDBRANCH  11  12
ENDBRANCH  10  11
ENDBRANCH   9  10
ENDBRANCH   8   9
ENDBRANCH   1   8
TORSDOF 9
ENDMDL
MODEL 8
REMARK VINA RESULT:    -3.654      2.279      4.821
REMARK INTER + INTRA:          -6.474
REMARK INTER:                  -5.431
REMARK INTRA:                  -1.043
REMARK UNBOUND:                -0.897
REMARK SMILES O=C([O-])CCCCCCCCC(=O)[O-]
REMARK SMILES IDX 7 1 6 2 5 3 4 4 2 5 1 6 3 7 8 8 9 9 10 10 11 11 12 12 13 13
REMARK SMILES IDX 14 14
REMARK H PARENT
REMARK Flexibility Score: inf
ROOT
ATOM      1  C   UNL     1     -19.273 116.423  -2.801  1.00  0.00     0.000 C 
ENDROOT
BRANCH   1   2
ATOM      2  C   UNL     1     -20.536 116.998  -3.459  1.00  0.00     0.000 C 
BRANCH   2   3
ATOM      3  C   UNL     1     -20.898 118.360  -2.854  1.00  0.00     0.006 C 
BRANCH   3   4
ATOM      4  C   UNL     1     -19.976 118.701  -1.679  1.00  0.00     0.053 C 
BRANCH   4   5
ATOM      5  C   UNL     1     -20.039 120.163  -1.372  1.00  0.00     0.041 C 
ATOM      6  O   UNL     1     -19.671 121.008  -2.232  1.00  0.00    -0.550 OA
ATOM      7  O   UNL     1     -20.457 120.594  -0.120  1.00  0.00    -0.550 OA
ENDBRANCH   4   5
ENDBRANCH   3   4
ENDBRANCH   2   3
ENDBRANCH   1   2
BRANCH   1   8
ATOM      8  C   UNL     1     -19.533 115.093  -2.070  1.00  0.00     0.000 C 
BRANCH   8   9
ATOM      9  C   UNL     1     -21.001 114.843  -1.670  1.00  0.00     0.000 C 
BRANCH   9  10
ATOM     10  C   UNL     1     -21.395 115.354  -0.270  1.00  0.00     0.006 C 
BRANCH  10  11
ATOM     11  C   UNL     1     -22.727 116.121  -0.227  1.00  0.00     0.053 C 
BRANCH  11  12
ATOM     12  C   UNL     1     -22.594 117.434   0.481  1.00  0.00     0.041 C 
ATOM     13  O   UNL     1     -23.257 118.432   0.094  1.00  0.00    -0.550 OA
ATOM     14  O   UNL     1     -21.715 117.564   1.549  1.00  0.00    -0.550 OA
ENDBRANCH  11  12
ENDBRANCH  10  11
ENDBRANCH   9  10
ENDBRANCH   8   9
ENDBRANCH   1   8
TORSDOF 9
ENDMDL
MODEL 9
REMARK VINA RESULT:    -3.654      2.210      3.759
REMARK INTER + INTRA:          -6.473
REMARK INTER:                  -5.438
REMARK INTRA:                  -1.035
REMARK UNBOUND:                -0.897
REMARK SMILES O=C([O-])CCCCCCCCC(=O)[O-]
REMARK SMILES IDX 7 1 6 2 5 3 4 4 2 5 1 6 3 7 8 8 9 9 10 10 11 11 12 12 13 13
REMARK SMILES IDX 14 14
REMARK H PARENT
REMARK Flexibility Score: inf
ROOT
ATOM      1  C   UNL     1     -21.906 117.803   1.263  1.00  0.00     0.000 C 
ENDROOT
BRANCH   1   2
ATOM      2  C   UNL     1     -21.513 119.128   0.591  1.00  0.00     0.000 C 
BRANCH   2   3
ATOM      3  C   UNL     1     -22.420 119.423  -0.610  1.00  0.00     0.006 C 
BRANCH   3   4
ATOM      4  C   UNL     1     -22.008 120.726  -1.302  1.00  0.00     0.053 C 
BRANCH   4   5
ATOM      5  C   UNL     1     -20.923 120.469  -2.298  1.00  0.00     0.041 C 
ATOM      6  O   UNL     1     -19.731 120.777  -2.031  1.00  0.00    -0.550 OA
ATOM      7  O   UNL     1     -21.233 119.935  -3.543  1.00  0.00    -0.550 OA
ENDBRANCH   4   5
ENDBRANCH   3   4
ENDBRANCH   2   3
ENDBRANCH   1   2
BRANCH   1   8
ATOM      8  C   UNL     1     -23.007 117.048   0.498  1.00  0.00     0.000 C 
BRANCH   8   9
ATOM      9  C   UNL     1     -22.635 115.616   0.062  1.00  0.00     0.000 C 
BRANCH   9  10
ATOM     10  C   UNL     1     -21.344 115.499  -0.773  1.00  0.00     0.006 C 
BRANCH  10  11
ATOM     11  C   UNL     1     -21.403 116.210  -2.134  1.00  0.00     0.053 C 
BRANCH  11  12
ATOM     12  C   UNL     1     -20.068 116.748  -2.544  1.00  0.00     0.041 C 
ATOM     13  O   UNL     1     -19.648 116.573  -3.719  1.00  0.00    -0.550 OA
ATOM     14  O   UNL     1     -19.271 117.414  -1.622  1.00  0.00    -0.550 OA
ENDBRANCH  11  12
ENDBRANCH  10  11
ENDBRANCH   9  10
ENDBRANCH   8   9
ENDBRANCH   1   8
TORSDOF 9
ENDMDL
