MODEL 1
REMARK VINA RESULT:    -2.508      0.000      0.000
REMARK INTER + INTRA:          -6.370
REMARK INTER:                  -4.560
REMARK INTRA:                  -1.809
REMARK UNBOUND:                -1.809
REMARK SMILES CCCCCCCCCCCCCCCC(=O)[O-]
REMARK SMILES IDX 9 1 10 2 11 3 12 4 13 5 14 6 15 7 16 8 17 9 18 10 8 11 7 12
REMARK SMILES IDX 6 13 5 14 4 15 3 16 2 17 1 18
REMARK H PARENT
REMARK Flexibility Score: inf
ROOT
ATOM      1  C   UNL     1     -23.092   1.924 -34.932  1.00  0.00     0.000 C 
ENDROOT
BRANCH   1   2
ATOM      2  C   UNL     1     -22.765   3.173 -34.098  1.00  0.00     0.000 C 
BRANCH   2   3
ATOM      3  C   UNL     1     -23.123   4.487 -34.816  1.00  0.00     0.000 C 
BRANCH   3   4
ATOM      4  C   UNL     1     -24.469   5.113 -34.405  1.00  0.00     0.000 C 
BRANCH   4   5
ATOM      5  C   UNL     1     -24.995   4.575 -33.065  1.00  0.00     0.000 C 
BRANCH   5   6
ATOM      6  C   UNL     1     -26.459   4.101 -33.147  1.00  0.00     0.006 C 
BRANCH   6   7
ATOM      7  C   UNL     1     -27.003   3.966 -34.580  1.00  0.00     0.053 C 
BRANCH   7   8
ATOM      8  C   UNL     1     -28.396   4.503 -34.706  1.00  0.00     0.041 C 
ATOM      9  O   UNL     1     -28.951   5.061 -33.723  1.00  0.00    -0.550 OA
ATOM     10  O   UNL     1     -29.068   4.417 -35.918  1.00  0.00    -0.550 OA
ENDBRANCH   7   8
ENDBRANCH   6   7
ENDBRANCH   5   6
ENDBRANCH   4   5
ENDBRANCH   3   4
ENDBRANCH   2   3
ENDBRANCH   1   2
BRANCH   1  11
ATOM     11  C   UNL     1     -23.708   2.312 -36.282  1.00  0.00     0.000 C 
BRANCH  11  12
ATOM     12  C   UNL     1     -22.849   1.797 -37.447  1.00  0.00    -0.000 C 
BRANCH  12  13
ATOM     13  C   UNL     1     -23.093   2.574 -38.749  1.00  0.00    -0.000 C 
BRANCH  13  14
ATOM     14  C   UNL     1     -22.218   3.835 -38.858  1.00  0.00    -0.000 C 
BRANCH  14  15
ATOM     15  C   UNL     1     -22.990   5.123 -38.530  1.00  0.00    -0.000 C 
BRANCH  15  16
ATOM     16  C   UNL     1     -24.412   5.125 -39.118  1.00  0.00    -0.000 C 
BRANCH  16  17
ATOM     17  C   UNL     1     -25.484   4.812 -38.063  1.00  0.00    -0.003 C 
ATOM     18  C   UNL     1     -26.904   5.084 -38.561  1.00  0.00     0.004 C 
ENDBRANCH  16  17
ENDBRANCH  15  16
ENDBRANCH  14  15
ENDBRANCH  13  14
ENDBRANCH  12  13
ENDBRANCH  11  12
ENDBRANCH   1  11
TORSDOF 14
ENDMDL
MODEL 2
REMARK VINA RESULT:    -2.293     13.932     16.075
REMARK INTER + INTRA:          -5.979
REMARK INTER:                  -4.299
REMARK INTRA:                  -1.680
REMARK UNBOUND:                -1.809
REMARK SMILES CCCCCCCCCCCCCCCC(=O)[O-]
REMARK SMILES IDX 9 1 10 2 11 3 12 4 13 5 14 6 15 7 16 8 17 9 18 10 8 11 7 12
REMARK SMILES IDX 6 13 5 14 4 15 3 16 2 17 1 18
REMARK H PARENT
REMARK Flexibility Score: inf
ROOT
ATOM      1  C   UNL     1     -10.302   1.364 -35.173  1.00  0.00     0.000 C 
ENDROOT
BRANCH   1   2
ATOM      2  C   UNL     1     -10.370   0.423 -36.386  1.00  0.00     0.000 C 
BRANCH   2   3
ATOM      3  C   UNL     1      -9.008   0.238 -37.080  1.00  0.00     0.000 C 
BRANCH   3   4
ATOM      4  C   UNL     1      -9.065   0.133 -38.616  1.00  0.00     0.000 C 
BRANCH   4   5
ATOM      5  C   UNL     1      -8.876  -1.306 -39.125  1.00  0.00     0.000 C 
BRANCH   5   6
ATOM      6  C   UNL     1      -8.969  -2.353 -37.998  1.00  0.00     0.006 C 
BRANCH   6   7
ATOM      7  C   UNL     1      -9.645  -3.671 -38.410  1.00  0.00     0.053 C 
BRANCH   7   8
ATOM      8  C   UNL     1     -10.711  -4.084 -37.443  1.00  0.00     0.041 C 
ATOM      9  O   UNL     1     -11.280  -5.200 -37.566  1.00  0.00    -0.550 OA
ATOM     10  O   UNL     1     -11.051  -3.251 -36.385  1.00  0.00    -0.550 OA
ENDBRANCH   7   8
ENDBRANCH   6   7
ENDBRANCH   5   6
ENDBRANCH   4   5
ENDBRANCH   3   4
ENDBRANCH   2   3
ENDBRANCH   1   2
BRANCH   1  11
ATOM     11  C   UNL     1      -8.960   2.104 -35.127  1.00  0.00     0.000 C 
BRANCH  11  12
ATOM     12  C   UNL     1      -9.149   3.561 -34.677  1.00  0.00    -0.000 C 
BRANCH  12  13
ATOM     13  C   UNL     1      -9.755   4.445 -35.777  1.00  0.00    -0.000 C 
BRANCH  13  14
ATOM     14  C   UNL     1      -8.962   4.378 -37.094  1.00  0.00    -0.000 C 
BRANCH  14  15
ATOM     15  C   UNL     1      -9.842   4.007 -38.298  1.00  0.00    -0.000 C 
BRANCH  15  16
ATOM     16  C   UNL     1     -10.970   5.025 -38.541  1.00  0.00    -0.000 C 
BRANCH  16  17
ATOM     17  C   UNL     1     -12.366   4.396 -38.418  1.00  0.00    -0.003 C 
ATOM     18  C   UNL     1     -12.321   2.927 -37.996  1.00  0.00     0.004 C 
ENDBRANCH  16  17
ENDBRANCH  15  16
ENDBRANCH  14  15
ENDBRANCH  13  14
ENDBRANCH  12  13
ENDBRANCH  11  12
ENDBRANCH   1  11
TORSDOF 14
ENDMDL
MODEL 3
REMARK VINA RESULT:    -2.291      2.831      5.195
REMARK INTER + INTRA:          -5.976
REMARK INTER:                  -4.852
REMARK INTRA:                  -1.124
REMARK UNBOUND:                -1.809
REMARK SMILES CCCCCCCCCCCCCCCC(=O)[O-]
REMARK SMILES IDX 9 1 10 2 11 3 12 4 13 5 14 6 15 7 16 8 17 9 18 10 8 11 7 12
REMARK SMILES IDX 6 13 5 14 4 15 3 16 2 17 1 18
REMARK H PARENT
REMARK Flexibility Score: inf
ROOT
ATOM      1  C   UNL     1     -23.370   1.954 -33.586  1.00  0.00     0.000 C 
ENDROOT
BRANCH   1   2
ATOM      2  C   UNL     1     -23.124   2.641 -34.938  1.00  0.00     0.000 C 
BRANCH   2   3
ATOM      3  C   UNL     1     -22.733   4.123 -34.798  1.00  0.00     0.000 C 
BRANCH   3   4
ATOM      4  C   UNL     1     -23.468   5.088 -35.747  1.00  0.00     0.000 C 
BRANCH   4   5
ATOM      5  C   UNL     1     -24.587   4.403 -36.549  1.00  0.00     0.000 C 
BRANCH   5   6
ATOM      6  C   UNL     1     -24.690   4.928 -37.995  1.00  0.00     0.006 C 
BRANCH   6   7
ATOM      7  C   UNL     1     -23.339   5.070 -38.716  1.00  0.00     0.053 C 
BRANCH   7   8
ATOM      8  C   UNL     1     -22.645   3.752 -38.876  1.00  0.00     0.041 C 
ATOM      9  O   UNL     1     -23.302   2.679 -38.816  1.00  0.00    -0.550 OA
ATOM     10  O   UNL     1     -21.280   3.709 -39.125  1.00  0.00    -0.550 OA
ENDBRANCH   7   8
ENDBRANCH   6   7
ENDBRANCH   5   6
ENDBRANCH   4   5
ENDBRANCH   3   4
ENDBRANCH   2   3
ENDBRANCH   1   2
BRANCH   1  11
ATOM     11  C   UNL     1     -24.400   2.729 -32.756  1.00  0.00     0.000 C 
BRANCH  11  12
ATOM     12  C   UNL     1     -25.817   2.536 -33.317  1.00  0.00    -0.000 C 
BRANCH  12  13
ATOM     13  C   UNL     1     -26.368   3.807 -33.980  1.00  0.00    -0.000 C 
BRANCH  13  14
ATOM     14  C   UNL     1     -27.856   4.041 -33.665  1.00  0.00    -0.000 C 
BRANCH  14  15
ATOM     15  C   UNL     1     -28.750   3.928 -34.910  1.00  0.00    -0.000 C 
BRANCH  15  16
ATOM     16  C   UNL     1     -28.405   4.976 -35.981  1.00  0.00    -0.000 C 
BRANCH  16  17
ATOM     17  C   UNL     1     -29.125   4.715 -37.314  1.00  0.00    -0.003 C 
ATOM     18  C   UNL     1     -28.213   4.900 -38.527  1.00  0.00     0.004 C 
ENDBRANCH  16  17
ENDBRANCH  15  16
ENDBRANCH  14  15
ENDBRANCH  13  14
ENDBRANCH  12  13
ENDBRANCH  11  12
ENDBRANCH   1  11
TORSDOF 14
ENDMDL
MODEL 4
REMARK VINA RESULT:    -2.154      1.585      3.198
REMARK INTER + INTRA:          -5.727
REMARK INTER:                  -5.189
REMARK INTRA:                  -0.538
REMARK UNBOUND:                -1.809
REMARK SMILES CCCCCCCCCCCCCCCC(=O)[O-]
REMARK SMILES IDX 9 1 10 2 11 3 12 4 13 5 14 6 15 7 16 8 17 9 18 10 8 11 7 12
REMARK SMILES IDX 6 13 5 14 4 15 3 16 2 17 1 18
REMARK H PARENT
REMARK Flexibility Score: inf
ROOT
ATOM      1  C   UNL     1     -23.791   2.746 -34.411  1.00  0.00     0.000 C 
ENDROOT
BRANCH   1   2
ATOM      2  C   UNL     1     -24.651   2.627 -33.143  1.00  0.00     0.000 C 
BRANCH   2   3
ATOM      3  C   UNL     1     -24.922   3.985 -32.470  1.00  0.00     0.000 C 
BRANCH   3   4
ATOM      4  C   UNL     1     -26.271   4.637 -32.828  1.00  0.00     0.000 C 
BRANCH   4   5
ATOM      5  C   UNL     1     -27.219   3.682 -33.572  1.00  0.00     0.000 C 
BRANCH   5   6
ATOM      6  C   UNL     1     -28.568   4.338 -33.926  1.00  0.00     0.006 C 
BRANCH   6   7
ATOM      7  C   UNL     1     -29.102   3.978 -35.322  1.00  0.00     0.053 C 
BRANCH   7   8
ATOM      8  C   UNL     1     -28.392   4.726 -36.407  1.00  0.00     0.041 C 
ATOM      9  O   UNL     1     -29.025   5.125 -37.420  1.00  0.00    -0.550 OA
ATOM     10  O   UNL     1     -27.039   5.014 -36.284  1.00  0.00    -0.550 OA
ENDBRANCH   7   8
ENDBRANCH   6   7
ENDBRANCH   5   6
ENDBRANCH   4   5
ENDBRANCH   3   4
ENDBRANCH   2   3
ENDBRANCH   1   2
BRANCH   1  11
ATOM     11  C   UNL     1     -23.924   4.140 -35.034  1.00  0.00     0.000 C 
BRANCH  11  12
ATOM     12  C   UNL     1     -22.720   4.457 -35.935  1.00  0.00    -0.000 C 
BRANCH  12  13
ATOM     13  C   UNL     1     -23.137   4.894 -37.347  1.00  0.00    -0.000 C 
BRANCH  13  14
ATOM     14  C   UNL     1     -22.375   4.138 -38.450  1.00  0.00    -0.000 C 
BRANCH  14  15
ATOM     15  C   UNL     1     -23.153   2.924 -38.982  1.00  0.00    -0.000 C 
BRANCH  15  16
ATOM     16  C   UNL     1     -22.753   1.613 -38.285  1.00  0.00    -0.000 C 
BRANCH  16  17
ATOM     17  C   UNL     1     -23.094   0.372 -39.124  1.00  0.00    -0.003 C 
ATOM     18  C   UNL     1     -22.363  -0.885 -38.650  1.00  0.00     0.004 C 
ENDBRANCH  16  17
ENDBRANCH  15  16
ENDBRANCH  14  15
ENDBRANCH  13  14
ENDBRANCH  12  13
ENDBRANCH  11  12
ENDBRANCH   1  11
TORSDOF 14
ENDMDL
MODEL 5
REMARK VINA RESULT:    -1.835      2.989      4.497
REMARK INTER + INTRA:          -5.146
REMARK INTER:                  -4.091
REMARK INTRA:                  -1.054
REMARK UNBOUND:                -1.809
REMARK SMILES CCCCCCCCCCCCCCCC(=O)[O-]
REMARK SMILES IDX 9 1 10 2 11 3 12 4 13 5 14 6 15 7 16 8 17 9 18 10 8 11 7 12
REMARK SMILES IDX 6 13 5 14 4 15 3 16 2 17 1 18
REMARK H PARENT
REMARK Flexibility Score: inf
ROOT
ATOM      1  C   UNL     1     -23.509   5.053 -35.977  1.00  0.00     0.000 C 
ENDROOT
BRANCH   1   2
ATOM      2  C   UNL     1     -24.733   4.268 -36.472  1.00  0.00     0.000 C 
BRANCH   2   3
ATOM      3  C   UNL     1     -26.066   4.855 -35.974  1.00  0.00     0.000 C 
BRANCH   3   4
ATOM      4  C   UNL     1     -26.176   5.028 -34.447  1.00  0.00     0.000 C 
BRANCH   4   5
ATOM      5  C   UNL     1     -26.694   3.766 -33.737  1.00  0.00     0.000 C 
BRANCH   5   6
ATOM      6  C   UNL     1     -25.713   2.581 -33.838  1.00  0.00     0.006 C 
BRANCH   6   7
ATOM      7  C   UNL     1     -24.485   2.694 -32.920  1.00  0.00     0.053 C 
BRANCH   7   8
ATOM      8  C   UNL     1     -23.310   1.933 -33.454  1.00  0.00     0.041 C 
ATOM      9  O   UNL     1     -22.649   2.389 -34.423  1.00  0.00    -0.550 OA
ATOM     10  O   UNL     1     -22.926   0.739 -32.859  1.00  0.00    -0.550 OA
ENDBRANCH   7   8
ENDBRANCH   6   7
ENDBRANCH   5   6
ENDBRANCH   4   5
ENDBRANCH   3   4
ENDBRANCH   2   3
ENDBRANCH   1   2
BRANCH   1  11
ATOM     11  C   UNL     1     -22.318   4.871 -36.925  1.00  0.00     0.000 C 
BRANCH  11  12
ATOM     12  C   UNL     1     -22.785   4.795 -38.387  1.00  0.00    -0.000 C 
BRANCH  12  13
ATOM     13  C   UNL     1     -22.220   3.572 -39.125  1.00  0.00    -0.000 C 
BRANCH  13  14
ATOM     14  C   UNL     1     -23.180   2.370 -39.100  1.00  0.00    -0.000 C 
BRANCH  14  15
ATOM     15  C   UNL     1     -22.921   1.428 -37.913  1.00  0.00    -0.000 C 
BRANCH  15  16
ATOM     16  C   UNL     1     -22.524   0.011 -38.359  1.00  0.00    -0.000 C 
BRANCH  16  17
ATOM     17  C   UNL     1     -23.682  -0.737 -39.039  1.00  0.00    -0.003 C 
ATOM     18  C   UNL     1     -23.446  -2.246 -39.122  1.00  0.00     0.004 C 
ENDBRANCH  16  17
ENDBRANCH  15  16
ENDBRANCH  14  15
ENDBRANCH  13  14
ENDBRANCH  12  13
ENDBRANCH  11  12
ENDBRANCH   1  11
TORSDOF 14
ENDMDL
MODEL 6
REMARK VINA RESULT:    -1.692     14.011     16.014
REMARK INTER + INTRA:          -4.886
REMARK INTER:                  -3.798
REMARK INTRA:                  -1.088
REMARK UNBOUND:                -1.809
REMARK SMILES CCCCCCCCCCCCCCCC(=O)[O-]
REMARK SMILES IDX 9 1 10 2 11 3 12 4 13 5 14 6 15 7 16 8 17 9 18 10 8 11 7 12
REMARK SMILES IDX 6 13 5 14 4 15 3 16 2 17 1 18
REMARK H PARENT
REMARK Flexibility Score: inf
ROOT
ATOM      1  C   UNL     1     -10.718   0.003 -36.403  1.00  0.00     0.000 C 
ENDROOT
BRANCH   1   2
ATOM      2  C   UNL     1     -10.401   1.270 -37.212  1.00  0.00     0.000 C 
BRANCH   2   3
ATOM      3  C   UNL     1     -11.663   2.045 -37.635  1.00  0.00     0.000 C 
BRANCH   3   4
ATOM      4  C   UNL     1     -11.647   3.551 -37.312  1.00  0.00     0.000 C 
BRANCH   4   5
ATOM      5  C   UNL     1     -10.251   4.066 -36.926  1.00  0.00     0.000 C 
BRANCH   5   6
ATOM      6  C   UNL     1     -10.292   5.095 -35.779  1.00  0.00     0.006 C 
BRANCH   6   7
ATOM      7  C   UNL     1      -9.131   4.976 -34.778  1.00  0.00     0.053 C 
BRANCH   7   8
ATOM      8  C   UNL     1      -9.431   4.002 -33.681  1.00  0.00     0.041 C 
ATOM      9  O   UNL     1     -10.052   4.379 -32.653  1.00  0.00    -0.550 OA
ATOM     10  O   UNL     1      -9.056   2.672 -33.809  1.00  0.00    -0.550 OA
ENDBRANCH   7   8
ENDBRANCH   6   7
ENDBRANCH   5   6
ENDBRANCH   4   5
ENDBRANCH   3   4
ENDBRANCH   2   3
ENDBRANCH   1   2
BRANCH   1  11
ATOM     11  C   UNL     1      -9.569  -1.008 -36.494  1.00  0.00     0.000 C 
BRANCH  11  12
ATOM     12  C   UNL     1      -8.912  -0.971 -37.882  1.00  0.00    -0.000 C 
BRANCH  12  13
ATOM     13  C   UNL     1      -9.621  -1.880 -38.896  1.00  0.00    -0.000 C 
BRANCH  13  14
ATOM     14  C   UNL     1      -8.875  -3.207 -39.125  1.00  0.00    -0.000 C 
BRANCH  14  15
ATOM     15  C   UNL     1      -9.631  -4.418 -38.556  1.00  0.00    -0.000 C 
BRANCH  15  16
ATOM     16  C   UNL     1      -9.892  -4.295 -37.045  1.00  0.00    -0.000 C 
BRANCH  16  17
ATOM     17  C   UNL     1     -11.390  -4.323 -36.703  1.00  0.00    -0.003 C 
ATOM     18  C   UNL     1     -11.689  -3.783 -35.304  1.00  0.00     0.004 C 
ENDBRANCH  16  17
ENDBRANCH  15  16
ENDBRANCH  14  15
ENDBRANCH  13  14
ENDBRANCH  12  13
ENDBRANCH  11  12
ENDBRANCH   1  11
TORSDOF 14
ENDMDL
MODEL 7
REMARK VINA RESULT:    -1.630      3.388      5.819
REMARK INTER + INTRA:          -4.773
REMARK INTER:                  -4.039
REMARK INTRA:                  -0.734
REMARK UNBOUND:                -1.809
REMARK SMILES CCCCCCCCCCCCCCCC(=O)[O-]
REMARK SMILES IDX 9 1 10 2 11 3 12 4 13 5 14 6 15 7 16 8 17 9 18 10 8 11 7 12
REMARK SMILES IDX 6 13 5 14 4 15 3 16 2 17 1 18
REMARK H PARENT
REMARK Flexibility Score: inf
ROOT
ATOM      1  C   UNL     1     -23.502   2.434 -33.382  1.00  0.00     0.000 C 
ENDROOT
BRANCH   1   2
ATOM      2  C   UNL     1     -23.379   2.328 -34.910  1.00  0.00     0.000 C 
BRANCH   2   3
ATOM      3  C   UNL     1     -22.770   3.587 -35.553  1.00  0.00     0.000 C 
BRANCH   3   4
ATOM      4  C   UNL     1     -23.317   3.940 -36.949  1.00  0.00     0.000 C 
BRANCH   4   5
ATOM      5  C   UNL     1     -22.694   3.090 -38.069  1.00  0.00     0.000 C 
BRANCH   5   6
ATOM      6  C   UNL     1     -22.697   1.583 -37.744  1.00  0.00     0.006 C 
BRANCH   6   7
ATOM      7  C   UNL     1     -23.460   0.717 -38.760  1.00  0.00     0.053 C 
BRANCH   7   8
ATOM      8  C   UNL     1     -22.847  -0.641 -38.914  1.00  0.00     0.041 C 
ATOM      9  O   UNL     1     -21.600  -0.786 -38.823  1.00  0.00    -0.550 OA
ATOM     10  O   UNL     1     -23.656  -1.750 -39.125  1.00  0.00    -0.550 OA
ENDBRANCH   7   8
ENDBRANCH   6   7
ENDBRANCH   5   6
ENDBRANCH   4   5
ENDBRANCH   3   4
ENDBRANCH   2   3
ENDBRANCH   1   2
BRANCH   1  11
ATOM     11  C   UNL     1     -24.007   3.820 -32.967  1.00  0.00     0.000 C 
BRANCH  11  12
ATOM     12  C   UNL     1     -25.449   3.746 -32.442  1.00  0.00    -0.000 C 
BRANCH  12  13
ATOM     13  C   UNL     1     -26.390   4.727 -33.158  1.00  0.00    -0.000 C 
BRANCH  13  14
ATOM     14  C   UNL     1     -27.350   4.021 -34.131  1.00  0.00    -0.000 C 
BRANCH  14  15
ATOM     15  C   UNL     1     -28.333   4.993 -34.804  1.00  0.00    -0.000 C 
BRANCH  15  16
ATOM     16  C   UNL     1     -28.240   4.958 -36.339  1.00  0.00    -0.000 C 
BRANCH  16  17
ATOM     17  C   UNL     1     -26.796   5.100 -36.845  1.00  0.00    -0.003 C 
ATOM     18  C   UNL     1     -26.683   4.965 -38.363  1.00  0.00     0.004 C 
ENDBRANCH  16  17
ENDBRANCH  15  16
ENDBRANCH  14  15
ENDBRANCH  13  14
ENDBRANCH  12  13
ENDBRANCH  11  12
ENDBRANCH   1  11
TORSDOF 14
ENDMDL
