MODEL 1
REMARK VINA RESULT:    -3.290      0.000      0.000
REMARK INTER + INTRA:          -5.369
REMARK INTER:                  -5.021
REMARK INTRA:                  -0.349
REMARK UNBOUND:                -0.349
REMARK SMILES CC1=CCC[C@@H](C)C(=O)C[C@@H](C(C)C)C(=O)C1
REMARK SMILES IDX 8 1 9 2 6 3 7 4 5 5 4 6 3 7 2 8 1 9 10 11 11 12 15 13 16 14
REMARK SMILES IDX 17 15 12 17 13 18 14 19
REMARK H PARENT
REMARK Flexibility Score: 70.00
ROOT
ATOM      1  C   UNL     1       5.760  25.244  66.213  1.00  0.00     0.136 C 
ATOM      2  O   UNL     1       6.199  26.188  65.575  1.00  0.00    -0.299 OA
ENDROOT
BRANCH   1   3
ATOM      3  C   UNL     1       6.463  23.886  66.079  1.00  0.00     0.053 C 
ATOM      4  C   UNL     1       5.788  23.031  65.005  1.00  0.00     0.016 C 
BRANCH   3   5
ATOM      5  C   UNL     1       6.403  23.234  67.444  1.00  0.00     0.015 C 
BRANCH   5   6
ATOM      6  C   UNL     1       7.377  23.455  68.572  1.00  0.00     0.028 C 
BRANCH   6   7
ATOM      7  C   UNL     1       6.712  23.024  69.880  1.00  0.00    -0.028 C 
ATOM      8  C   UNL     1       5.933  23.763  70.745  1.00  0.00    -0.070 CG0
ATOM      9  C   UNL     1       5.315  23.006  71.896  1.00  0.00     0.039 C 
ATOM     10  G   UNL     1       5.652  25.282  70.676  1.00  0.00     0.000 G0
ENDBRANCH   6   7
ENDBRANCH   5   6
ENDBRANCH   3   5
ENDBRANCH   1   3
BRANCH   1  11
ATOM     11  C   UNL     1       4.532  25.473  67.117  1.00  0.00     0.087 C 
BRANCH  11  12
ATOM     12  C   UNL     1       4.770  26.394  68.382  1.00  0.00     0.066 C 
BRANCH  12  13
ATOM     13  C   UNL     1       4.512  25.671  69.725  1.00  0.00     0.140 C 
ATOM     14  O   UNL     1       3.364  25.404  70.049  1.00  0.00    -0.299 OA
BRANCH  13  15
ATOM     15  C   UNL     1       5.647  25.276  70.677  1.00  0.00     0.106 CG0
ATOM     16  G   UNL     1       5.935  23.758  70.739  1.00  0.00     0.000 G0
ENDBRANCH  13  15
ENDBRANCH  12  13
BRANCH  12  17
ATOM     17  C   UNL     1       3.958  27.723  68.284  1.00  0.00    -0.006 C 
ATOM     18  C   UNL     1       3.894  28.240  66.838  1.00  0.00     0.008 C 
ATOM     19  C   UNL     1       4.471  28.834  69.219  1.00  0.00     0.008 C 
ENDBRANCH  12  17
ENDBRANCH  11  12
ENDBRANCH   1  11
TORSDOF 1
ENDMDL
MODEL 2
REMARK VINA RESULT:    -3.162      8.026     11.270
REMARK INTER + INTRA:          -5.175
REMARK INTER:                  -4.647
REMARK INTRA:                  -0.527
REMARK UNBOUND:                -0.349
REMARK SMILES CC1=CCC[C@@H](C)C(=O)C[C@@H](C(C)C)C(=O)C1
REMARK SMILES IDX 8 1 9 2 6 3 7 4 5 5 4 6 3 7 2 8 1 9 10 11 11 12 15 13 16 14
REMARK SMILES IDX 17 15 12 17 13 18 14 19
REMARK H PARENT
REMARK Flexibility Score: 70.00
ROOT
ATOM      1  C   UNL     1       7.734  35.486  67.171  1.00  0.00     0.136 C 
ATOM      2  O   UNL     1       8.105  35.498  66.008  1.00  0.00    -0.299 OA
ENDROOT
BRANCH   1   3
ATOM      3  C   UNL     1       8.147  36.653  68.079  1.00  0.00     0.053 C 
ATOM      4  C   UNL     1       8.247  36.195  69.535  1.00  0.00     0.016 C 
BRANCH   3   5
ATOM      5  C   UNL     1       7.102  37.732  67.895  1.00  0.00     0.015 C 
BRANCH   5   6
ATOM      6  C   UNL     1       6.022  38.092  68.881  1.00  0.00     0.028 C 
BRANCH   6   7
ATOM      7  C   UNL     1       4.664  37.934  68.195  1.00  0.00    -0.028 C 
ATOM      8  C   UNL     1       3.847  36.826  68.130  1.00  0.00    -0.070 CG0
ATOM      9  C   UNL     1       2.500  37.030  67.479  1.00  0.00     0.039 C 
ATOM     10  G   UNL     1       4.173  35.398  68.625  1.00  0.00     0.000 G0
ENDBRANCH   6   7
ENDBRANCH   5   6
ENDBRANCH   3   5
ENDBRANCH   1   3
BRANCH   1  11
ATOM     11  C   UNL     1       6.868  34.305  67.655  1.00  0.00     0.087 C 
BRANCH  11  12
ATOM     12  C   UNL     1       5.575  34.002  66.797  1.00  0.00     0.066 C 
BRANCH  12  13
ATOM     13  C   UNL     1       4.256  34.320  67.541  1.00  0.00     0.140 C 
ATOM     14  O   UNL     1       3.240  33.705  67.247  1.00  0.00    -0.299 OA
BRANCH  13  15
ATOM     15  C   UNL     1       4.167  35.388  68.637  1.00  0.00     0.106 CG0
ATOM     16  G   UNL     1       3.845  36.811  68.124  1.00  0.00     0.000 G0
ENDBRANCH  13  15
ENDBRANCH  12  13
BRANCH  12  17
ATOM     17  C   UNL     1       5.581  32.541  66.247  1.00  0.00    -0.006 C 
ATOM     18  C   UNL     1       6.180  31.558  67.264  1.00  0.00     0.008 C 
ATOM     19  C   UNL     1       6.290  32.392  64.888  1.00  0.00     0.008 C 
ENDBRANCH  12  17
ENDBRANCH  11  12
ENDBRANCH   1  11
TORSDOF 1
ENDMDL
MODEL 3
REMARK VINA RESULT:    -3.127      7.258      8.506
REMARK INTER + INTRA:          -5.121
REMARK INTER:                  -4.904
REMARK INTRA:                  -0.217
REMARK UNBOUND:                -0.349
REMARK SMILES CC1=CCC[C@@H](C)C(=O)C[C@@H](C(C)C)C(=O)C1
REMARK SMILES IDX 8 1 9 2 6 3 7 4 5 5 4 6 3 7 2 8 1 9 10 11 11 12 15 13 16 14
REMARK SMILES IDX 17 15 12 17 13 18 14 19
REMARK H PARENT
REMARK Flexibility Score: 70.00
ROOT
ATOM      1  C   UNL     1      12.412  28.459  73.039  1.00  0.00     0.136 C 
ATOM      2  O   UNL     1      12.030  27.934  72.004  1.00  0.00    -0.299 OA
ENDROOT
BRANCH   1   3
ATOM      3  C   UNL     1      13.319  27.647  73.974  1.00  0.00     0.053 C 
ATOM      4  C   UNL     1      14.576  27.181  73.236  1.00  0.00     0.016 C 
BRANCH   3   5
ATOM      5  C   UNL     1      12.491  26.482  74.474  1.00  0.00     0.015 C 
BRANCH   5   6
ATOM      6  C   UNL     1      11.131  26.577  75.114  1.00  0.00     0.028 C 
BRANCH   6   7
ATOM      7  C   UNL     1      10.084  26.098  74.107  1.00  0.00    -0.028 C 
ATOM      8  C   UNL     1       9.033  26.794  73.548  1.00  0.00    -0.070 CG0
ATOM      9  C   UNL     1       8.249  26.070  72.480  1.00  0.00     0.039 C 
ATOM     10  G   UNL     1       8.558  28.218  73.918  1.00  0.00     0.000 G0
ENDBRANCH   6   7
ENDBRANCH   5   6
ENDBRANCH   3   5
ENDBRANCH   1   3
BRANCH   1  11
ATOM     11  C   UNL     1      11.966  29.904  73.340  1.00  0.00     0.087 C 
BRANCH  11  12
ATOM     12  C   UNL     1      10.551  30.059  74.030  1.00  0.00     0.066 C 
BRANCH  12  13
ATOM     13  C   UNL     1       9.414  29.335  73.269  1.00  0.00     0.140 C 
ATOM     14  O   UNL     1       9.166  29.660  72.116  1.00  0.00    -0.299 OA
BRANCH  13  15
ATOM     15  C   UNL     1       8.576  28.221  73.907  1.00  0.00     0.106 CG0
ATOM     16  G   UNL     1       9.029  26.788  73.544  1.00  0.00     0.000 G0
ENDBRANCH  13  15
ENDBRANCH  12  13
BRANCH  12  17
ATOM     17  C   UNL     1      10.200  31.557  74.289  1.00  0.00    -0.006 C 
ATOM     18  C   UNL     1      10.517  32.431  73.066  1.00  0.00     0.008 C 
ATOM     19  C   UNL     1      10.871  32.144  75.545  1.00  0.00     0.008 C 
ENDBRANCH  12  17
ENDBRANCH  11  12
ENDBRANCH   1  11
TORSDOF 1
ENDMDL
MODEL 4
REMARK VINA RESULT:    -3.108      1.941      4.685
REMARK INTER + INTRA:          -5.092
REMARK INTER:                  -4.962
REMARK INTRA:                  -0.130
REMARK UNBOUND:                -0.349
REMARK SMILES CC1=CCC[C@@H](C)C(=O)C[C@@H](C(C)C)C(=O)C1
REMARK SMILES IDX 8 1 9 2 6 3 7 4 5 5 4 6 3 7 2 8 1 9 10 11 11 12 15 13 16 14
REMARK SMILES IDX 17 15 12 17 13 18 14 19
REMARK H PARENT
REMARK Flexibility Score: 70.00
ROOT
ATOM      1  C   UNL     1       6.517  23.436  70.154  1.00  0.00     0.136 C 
ATOM      2  O   UNL     1       6.327  22.325  70.623  1.00  0.00    -0.299 OA
ENDROOT
BRANCH   1   3
ATOM      3  C   UNL     1       6.275  24.657  71.053  1.00  0.00     0.053 C 
ATOM      4  C   UNL     1       7.372  24.773  72.113  1.00  0.00     0.016 C 
BRANCH   3   5
ATOM      5  C   UNL     1       4.906  24.472  71.672  1.00  0.00     0.015 C 
BRANCH   5   6
ATOM      6  C   UNL     1       3.604  24.965  71.096  1.00  0.00     0.028 C 
BRANCH   6   7
ATOM      7  C   UNL     1       3.884  26.214  70.259  1.00  0.00    -0.028 C 
ATOM      8  C   UNL     1       3.811  26.379  68.893  1.00  0.00    -0.070 CG0
ATOM      9  C   UNL     1       4.028  27.782  68.379  1.00  0.00     0.039 C 
ATOM     10  G   UNL     1       3.560  25.280  67.835  1.00  0.00     0.000 G0
ENDBRANCH   6   7
ENDBRANCH   5   6
ENDBRANCH   3   5
ENDBRANCH   1   3
BRANCH   1  11
ATOM     11  C   UNL     1       6.995  23.546  68.691  1.00  0.00     0.087 C 
BRANCH  11  12
ATOM     12  C   UNL     1       6.129  24.480  67.753  1.00  0.00     0.066 C 
BRANCH  12  13
ATOM     13  C   UNL     1       4.612  24.179  67.816  1.00  0.00     0.140 C 
ATOM     14  O   UNL     1       4.236  23.016  67.854  1.00  0.00    -0.299 OA
BRANCH  13  15
ATOM     15  C   UNL     1       3.553  25.287  67.829  1.00  0.00     0.106 CG0
ATOM     16  G   UNL     1       3.805  26.405  68.867  1.00  0.00     0.000 G0
ENDBRANCH  13  15
ENDBRANCH  12  13
BRANCH  12  17
ATOM     17  C   UNL     1       6.653  24.460  66.283  1.00  0.00    -0.006 C 
ATOM     18  C   UNL     1       5.967  25.533  65.424  1.00  0.00     0.008 C 
ATOM     19  C   UNL     1       6.538  23.085  65.601  1.00  0.00     0.008 C 
ENDBRANCH  12  17
ENDBRANCH  11  12
ENDBRANCH   1  11
TORSDOF 1
ENDMDL
MODEL 5
REMARK VINA RESULT:    -3.079      2.119      4.117
REMARK INTER + INTRA:          -5.048
REMARK INTER:                  -4.576
REMARK INTRA:                  -0.473
REMARK UNBOUND:                -0.349
REMARK SMILES CC1=CCC[C@@H](C)C(=O)C[C@@H](C(C)C)C(=O)C1
REMARK SMILES IDX 8 1 9 2 6 3 7 4 5 5 4 6 3 7 2 8 1 9 10 11 11 12 15 13 16 14
REMARK SMILES IDX 17 15 12 17 13 18 14 19
REMARK H PARENT
REMARK Flexibility Score: 70.00
ROOT
ATOM      1  C   UNL     1       5.635  24.916  70.664  1.00  0.00     0.136 C 
ATOM      2  O   UNL     1       6.465  25.263  71.490  1.00  0.00    -0.299 OA
ENDROOT
BRANCH   1   3
ATOM      3  C   UNL     1       5.385  23.414  70.471  1.00  0.00     0.053 C 
ATOM      4  C   UNL     1       5.643  22.651  71.773  1.00  0.00     0.016 C 
BRANCH   3   5
ATOM      5  C   UNL     1       6.308  22.963  69.358  1.00  0.00     0.015 C 
BRANCH   5   6
ATOM      6  C   UNL     1       7.107  23.866  68.455  1.00  0.00     0.028 C 
BRANCH   6   7
ATOM      7  C   UNL     1       6.556  23.743  67.033  1.00  0.00    -0.028 C 
ATOM      8  C   UNL     1       5.781  24.633  66.321  1.00  0.00    -0.070 CG0
ATOM      9  C   UNL     1       5.504  24.270  64.882  1.00  0.00     0.039 C 
ATOM     10  G   UNL     1       5.145  25.941  66.847  1.00  0.00     0.000 G0
ENDBRANCH   6   7
ENDBRANCH   5   6
ENDBRANCH   3   5
ENDBRANCH   1   3
BRANCH   1  11
ATOM     11  C   UNL     1       4.885  26.006  69.871  1.00  0.00     0.087 C 
BRANCH  11  12
ATOM     12  C   UNL     1       3.640  25.510  69.030  1.00  0.00     0.066 C 
BRANCH  12  13
ATOM     13  C   UNL     1       3.775  25.784  67.513  1.00  0.00     0.140 C 
ATOM     14  O   UNL     1       2.766  25.863  66.828  1.00  0.00    -0.299 OA
BRANCH  13  15
ATOM     15  C   UNL     1       5.135  25.959  66.827  1.00  0.00     0.106 CG0
ATOM     16  G   UNL     1       5.779  24.643  66.333  1.00  0.00     0.000 G0
ENDBRANCH  13  15
ENDBRANCH  12  13
BRANCH  12  17
ATOM     17  C   UNL     1       2.302  26.082  69.596  1.00  0.00    -0.006 C 
ATOM     18  C   UNL     1       2.290  27.618  69.574  1.00  0.00     0.008 C 
ATOM     19  C   UNL     1       1.956  25.572  71.007  1.00  0.00     0.008 C 
ENDBRANCH  12  17
ENDBRANCH  11  12
ENDBRANCH   1  11
TORSDOF 1
ENDMDL
MODEL 6
REMARK VINA RESULT:    -3.073      7.890     10.685
REMARK INTER + INTRA:          -5.038
REMARK INTER:                  -4.750
REMARK INTRA:                  -0.288
REMARK UNBOUND:                -0.349
REMARK SMILES CC1=CCC[C@@H](C)C(=O)C[C@@H](C(C)C)C(=O)C1
REMARK SMILES IDX 8 1 9 2 6 3 7 4 5 5 4 6 3 7 2 8 1 9 10 11 11 12 15 13 16 14
REMARK SMILES IDX 17 15 12 17 13 18 14 19
REMARK H PARENT
REMARK Flexibility Score: 70.00
ROOT
ATOM      1  C   UNL     1       6.227  36.811  69.057  1.00  0.00     0.136 C 
ATOM      2  O   UNL     1       6.158  37.496  70.066  1.00  0.00    -0.299 OA
ENDROOT
BRANCH   1   3
ATOM      3  C   UNL     1       7.575  36.166  68.707  1.00  0.00     0.053 C 
ATOM      4  C   UNL     1       8.288  36.964  67.612  1.00  0.00     0.016 C 
BRANCH   3   5
ATOM      5  C   UNL     1       7.274  34.748  68.270  1.00  0.00     0.015 C 
BRANCH   5   6
ATOM      6  C   UNL     1       6.976  34.303  66.861  1.00  0.00     0.028 C 
BRANCH   6   7
ATOM      7  C   UNL     1       6.069  33.074  66.922  1.00  0.00    -0.028 C 
ATOM      8  C   UNL     1       4.693  33.005  66.872  1.00  0.00    -0.070 CG0
ATOM      9  C   UNL     1       4.097  31.619  66.827  1.00  0.00     0.039 C 
ATOM     10  G   UNL     1       3.701  34.191  66.885  1.00  0.00     0.000 G0
ENDBRANCH   6   7
ENDBRANCH   5   6
ENDBRANCH   3   5
ENDBRANCH   1   3
BRANCH   1  11
ATOM     11  C   UNL     1       4.957  36.629  68.202  1.00  0.00     0.087 C 
BRANCH  11  12
ATOM     12  C   UNL     1       3.719  35.974  68.938  1.00  0.00     0.066 C 
BRANCH  12  13
ATOM     13  C   UNL     1       3.259  34.642  68.299  1.00  0.00     0.140 C 
ATOM     14  O   UNL     1       2.521  33.899  68.931  1.00  0.00    -0.299 OA
BRANCH  13  15
ATOM     15  C   UNL     1       3.698  34.208  66.896  1.00  0.00     0.106 CG0
ATOM     16  G   UNL     1       4.675  33.009  66.870  1.00  0.00     0.000 G0
ENDBRANCH  13  15
ENDBRANCH  12  13
BRANCH  12  17
ATOM     17  C   UNL     1       2.534  36.981  69.073  1.00  0.00    -0.006 C 
ATOM     18  C   UNL     1       2.286  37.740  67.760  1.00  0.00     0.008 C 
ATOM     19  C   UNL     1       2.694  37.976  70.236  1.00  0.00     0.008 C 
ENDBRANCH  12  17
ENDBRANCH  11  12
ENDBRANCH   1  11
TORSDOF 1
ENDMDL
MODEL 7
REMARK VINA RESULT:    -3.061      7.364      9.877
REMARK INTER + INTRA:          -5.020
REMARK INTER:                  -4.346
REMARK INTRA:                  -0.674
REMARK UNBOUND:                -0.349
REMARK SMILES CC1=CCC[C@@H](C)C(=O)C[C@@H](C(C)C)C(=O)C1
REMARK SMILES IDX 8 1 9 2 6 3 7 4 5 5 4 6 3 7 2 8 1 9 10 11 11 12 15 13 16 14
REMARK SMILES IDX 17 15 12 17 13 18 14 19
REMARK H PARENT
REMARK Flexibility Score: 70.00
ROOT
ATOM      1  C   UNL     1       4.563  35.255  68.386  1.00  0.00     0.136 C 
ATOM      2  O   UNL     1       4.390  35.654  69.527  1.00  0.00    -0.299 OA
ENDROOT
BRANCH   1   3
ATOM      3  C   UNL     1       3.366  35.260  67.424  1.00  0.00     0.053 C 
ATOM      4  C   UNL     1       2.653  36.613  67.455  1.00  0.00     0.016 C 
BRANCH   3   5
ATOM      5  C   UNL     1       2.458  34.130  67.862  1.00  0.00     0.015 C 
BRANCH   5   6
ATOM      6  C   UNL     1       2.901  32.752  68.278  1.00  0.00     0.028 C 
BRANCH   6   7
ATOM      7  C   UNL     1       3.123  31.912  67.019  1.00  0.00    -0.028 C 
ATOM      8  C   UNL     1       4.307  31.541  66.418  1.00  0.00    -0.070 CG0
ATOM      9  C   UNL     1       4.191  30.594  65.247  1.00  0.00     0.039 C 
ATOM     10  G   UNL     1       5.730  32.012  66.797  1.00  0.00     0.000 G0
ENDBRANCH   6   7
ENDBRANCH   5   6
ENDBRANCH   3   5
ENDBRANCH   1   3
BRANCH   1  11
ATOM     11  C   UNL     1       5.972  34.778  67.978  1.00  0.00     0.087 C 
BRANCH  11  12
ATOM     12  C   UNL     1       6.222  34.620  66.424  1.00  0.00     0.066 C 
BRANCH  12  13
ATOM     13  C   UNL     1       6.303  33.145  65.962  1.00  0.00     0.140 C 
ATOM     14  O   UNL     1       6.827  32.884  64.888  1.00  0.00    -0.299 OA
BRANCH  13  15
ATOM     15  C   UNL     1       5.746  31.989  66.800  1.00  0.00     0.106 CG0
ATOM     16  G   UNL     1       4.319  31.541  66.408  1.00  0.00     0.000 G0
ENDBRANCH  13  15
ENDBRANCH  12  13
BRANCH  12  17
ATOM     17  C   UNL     1       7.470  35.433  65.959  1.00  0.00    -0.006 C 
ATOM     18  C   UNL     1       8.478  35.623  67.103  1.00  0.00     0.008 C 
ATOM     19  C   UNL     1       7.125  36.795  65.329  1.00  0.00     0.008 C 
ENDBRANCH  12  17
ENDBRANCH  11  12
ENDBRANCH   1  11
TORSDOF 1
ENDMDL
MODEL 8
REMARK VINA RESULT:    -2.962      2.065      4.047
REMARK INTER + INTRA:          -4.868
REMARK INTER:                  -4.302
REMARK INTRA:                  -0.566
REMARK UNBOUND:                -0.349
REMARK SMILES CC1=CCC[C@@H](C)C(=O)C[C@@H](C(C)C)C(=O)C1
REMARK SMILES IDX 8 1 9 2 6 3 7 4 5 5 4 6 3 7 2 8 1 9 10 11 11 12 15 13 16 14
REMARK SMILES IDX 17 15 12 17 13 18 14 19
REMARK H PARENT
REMARK Flexibility Score: 70.00
ROOT
ATOM      1  C   UNL     1       6.376  23.849  67.727  1.00  0.00     0.136 C 
ATOM      2  O   UNL     1       6.287  24.874  67.069  1.00  0.00    -0.299 OA
ENDROOT
BRANCH   1   3
ATOM      3  C   UNL     1       6.169  22.506  67.012  1.00  0.00     0.053 C 
ATOM      4  C   UNL     1       7.133  22.369  65.831  1.00  0.00     0.016 C 
BRANCH   3   5
ATOM      5  C   UNL     1       4.722  22.472  66.568  1.00  0.00     0.015 C 
BRANCH   5   6
ATOM      6  C   UNL     1       3.520  22.546  67.473  1.00  0.00     0.028 C 
BRANCH   6   7
ATOM      7  C   UNL     1       2.822  23.887  67.246  1.00  0.00    -0.028 C 
ATOM      8  C   UNL     1       2.648  24.937  68.122  1.00  0.00    -0.070 CG0
ATOM      9  C   UNL     1       2.020  26.185  67.549  1.00  0.00     0.039 C 
ATOM     10  G   UNL     1       3.000  24.960  69.628  1.00  0.00     0.000 G0
ENDBRANCH   6   7
ENDBRANCH   5   6
ENDBRANCH   3   5
ENDBRANCH   1   3
BRANCH   1  11
ATOM     11  C   UNL     1       6.696  23.964  69.231  1.00  0.00     0.087 C 
BRANCH  11  12
ATOM     12  C   UNL     1       5.448  23.977  70.202  1.00  0.00     0.066 C 
BRANCH  12  13
ATOM     13  C   UNL     1       4.487  25.164  69.951  1.00  0.00     0.140 C 
ATOM     14  O   UNL     1       4.920  26.306  70.010  1.00  0.00    -0.299 OA
BRANCH  13  15
ATOM     15  C   UNL     1       3.000  24.965  69.633  1.00  0.00     0.106 CG0
ATOM     16  G   UNL     1       2.664  24.936  68.124  1.00  0.00     0.000 G0
ENDBRANCH  13  15
ENDBRANCH  12  13
BRANCH  12  17
ATOM     17  C   UNL     1       5.885  23.903  71.699  1.00  0.00    -0.006 C 
ATOM     18  C   UNL     1       7.377  24.227  71.867  1.00  0.00     0.008 C 
ATOM     19  C   UNL     1       5.556  22.560  72.376  1.00  0.00     0.008 C 
ENDBRANCH  12  17
ENDBRANCH  11  12
ENDBRANCH   1  11
TORSDOF 1
ENDMDL
MODEL 9
REMARK VINA RESULT:    -2.892      2.235      3.751
REMARK INTER + INTRA:          -4.763
REMARK INTER:                  -4.800
REMARK INTRA:                   0.037
REMARK UNBOUND:                -0.349
REMARK SMILES CC1=CCC[C@@H](C)C(=O)C[C@@H](C(C)C)C(=O)C1
REMARK SMILES IDX 8 1 9 2 6 3 7 4 5 5 4 6 3 7 2 8 1 9 10 11 11 12 15 13 16 14
REMARK SMILES IDX 17 15 12 17 13 18 14 19
REMARK H PARENT
REMARK Flexibility Score: 70.00
ROOT
ATOM      1  C   UNL     1       5.394  24.440  71.101  1.00  0.00     0.136 C 
ATOM      2  O   UNL     1       4.736  24.226  72.107  1.00  0.00    -0.299 OA
ENDROOT
BRANCH   1   3
ATOM      3  C   UNL     1       6.350  23.344  70.610  1.00  0.00     0.053 C 
ATOM      4  C   UNL     1       7.496  23.142  71.604  1.00  0.00     0.016 C 
BRANCH   3   5
ATOM      5  C   UNL     1       6.850  23.785  69.251  1.00  0.00     0.015 C 
BRANCH   5   6
ATOM      6  C   UNL     1       7.031  22.898  68.047  1.00  0.00     0.028 C 
BRANCH   6   7
ATOM      7  C   UNL     1       5.705  22.190  67.761  1.00  0.00    -0.028 C 
ATOM      8  C   UNL     1       4.470  22.737  67.485  1.00  0.00    -0.070 CG0
ATOM      9  C   UNL     1       3.377  21.760  67.120  1.00  0.00     0.039 C 
ATOM     10  G   UNL     1       4.081  24.232  67.535  1.00  0.00     0.000 G0
ENDBRANCH   6   7
ENDBRANCH   5   6
ENDBRANCH   3   5
ENDBRANCH   1   3
BRANCH   1  11
ATOM     11  C   UNL     1       5.220  25.793  70.381  1.00  0.00     0.087 C 
BRANCH  11  12
ATOM     12  C   UNL     1       3.868  25.978  69.581  1.00  0.00     0.066 C 
BRANCH  12  13
ATOM     13  C   UNL     1       3.417  24.701  68.832  1.00  0.00     0.140 C 
ATOM     14  O   UNL     1       2.501  24.032  69.289  1.00  0.00    -0.299 OA
BRANCH  13  15
ATOM     15  C   UNL     1       4.081  24.233  67.532  1.00  0.00     0.106 CG0
ATOM     16  G   UNL     1       4.465  22.735  67.509  1.00  0.00     0.000 G0
ENDBRANCH  13  15
ENDBRANCH  12  13
BRANCH  12  17
ATOM     17  C   UNL     1       3.932  27.208  68.623  1.00  0.00    -0.006 C 
ATOM     18  C   UNL     1       4.498  28.447  69.334  1.00  0.00     0.008 C 
ATOM     19  C   UNL     1       2.585  27.550  67.960  1.00  0.00     0.008 C 
ENDBRANCH  12  17
ENDBRANCH  11  12
ENDBRANCH   1  11
TORSDOF 1
ENDMDL
