MODEL 1
REMARK VINA RESULT:    10.536      0.000      0.000
REMARK INTER + INTRA:          19.978
REMARK INTER:                  20.391
REMARK INTRA:                  -0.413
REMARK UNBOUND:                -0.413
REMARK SMILES CCCCCCCCCCCCCCCCCC(=O)[O-]
REMARK SMILES IDX 10 1 11 2 12 3 13 4 14 5 15 6 16 7 17 8 18 9 19 10 20 11
REMARK SMILES IDX 9 12 8 13 7 14 6 15 5 16 4 17 3 18 2 19 1 20
REMARK H PARENT
REMARK Flexibility Score: inf
ROOT
ATOM      1  C   UNL     1     -32.169  12.023  18.102  1.00  0.00     0.000 C 
ENDROOT
BRANCH   1   2
ATOM      2  C   UNL     1     -32.712  12.856  16.931  1.00  0.00     0.000 C 
BRANCH   2   3
ATOM      3  C   UNL     1     -34.183  13.269  17.118  1.00  0.00     0.000 C 
BRANCH   3   4
ATOM      4  C   UNL     1     -34.398  14.605  17.852  1.00  0.00     0.000 C 
BRANCH   4   5
ATOM      5  C   UNL     1     -34.988  15.699  16.945  1.00  0.00     0.000 C 
BRANCH   5   6
ATOM      6  C   UNL     1     -35.304  16.993  17.714  1.00  0.00     0.000 C 
BRANCH   6   7
ATOM      7  C   UNL     1     -36.749  17.029  18.241  1.00  0.00     0.006 C 
BRANCH   7   8
ATOM      8  C   UNL     1     -37.471  15.689  18.044  1.00  0.00     0.053 C 
BRANCH   8   9
ATOM      9  C   UNL     1     -38.874  15.729  18.568  1.00  0.00     0.041 C 
ATOM     10  O   UNL     1     -39.171  15.116  19.628  1.00  0.00    -0.550 OA
ATOM     11  O   UNL     1     -39.859  16.416  17.870  1.00  0.00    -0.550 OA
ENDBRANCH   8   9
ENDBRANCH   7   8
ENDBRANCH   6   7
ENDBRANCH   5   6
ENDBRANCH   4   5
ENDBRANCH   3   4
ENDBRANCH   2   3
ENDBRANCH   1   2
BRANCH   1  12
ATOM     12  C   UNL     1     -33.166  12.000  19.267  1.00  0.00     0.000 C 
BRANCH  12  13
ATOM     13  C   UNL     1     -33.365  10.571  19.794  1.00  0.00    -0.000 C 
BRANCH  13  14
ATOM     14  C   UNL     1     -34.012  10.544  21.196  1.00  0.00    -0.000 C 
BRANCH  14  15
ATOM     15  C   UNL     1     -34.253  11.942  21.796  1.00  0.00    -0.000 C 
BRANCH  15  16
ATOM     16  C   UNL     1     -34.598  11.957  23.297  1.00  0.00    -0.000 C 
BRANCH  16  17
ATOM     17  C   UNL     1     -33.866  10.897  24.142  1.00  0.00    -0.000 C 
BRANCH  17  18
ATOM     18  C   UNL     1     -34.354  10.852  25.598  1.00  0.00    -0.000 C 
BRANCH  18  19
ATOM     19  C   UNL     1     -34.509   9.405  26.079  1.00  0.00    -0.003 C 
ATOM     20  C   UNL     1     -33.336   8.988  26.961  1.00  0.00     0.004 C 
ENDBRANCH  18  19
ENDBRANCH  17  18
ENDBRANCH  16  17
ENDBRANCH  15  16
ENDBRANCH  14  15
ENDBRANCH  13  14
ENDBRANCH  12  13
ENDBRANCH   1  12
TORSDOF 16
ENDMDL
MODEL 2
REMARK VINA RESULT:    10.962      3.539      8.253
REMARK INTER + INTRA:          20.803
REMARK INTER:                  21.758
REMARK INTRA:                  -0.956
REMARK UNBOUND:                -0.413
REMARK SMILES CCCCCCCCCCCCCCCCCC(=O)[O-]
REMARK SMILES IDX 10 1 11 2 12 3 13 4 14 5 15 6 16 7 17 8 18 9 19 10 20 11
REMARK SMILES IDX 9 12 8 13 7 14 6 15 5 16 4 17 3 18 2 19 1 20
REMARK H PARENT
REMARK Flexibility Score: inf
ROOT
ATOM      1  C   UNL     1     -32.828  12.183  17.652  1.00  0.00     0.000 C 
ENDROOT
BRANCH   1   2
ATOM      2  C   UNL     1     -33.242  12.186  19.131  1.00  0.00     0.000 C 
BRANCH   2   3
ATOM      3  C   UNL     1     -33.367  10.770  19.723  1.00  0.00     0.000 C 
BRANCH   3   4
ATOM      4  C   UNL     1     -33.993  10.702  21.128  1.00  0.00     0.000 C 
BRANCH   4   5
ATOM      5  C   UNL     1     -34.121  12.082  21.796  1.00  0.00     0.000 C 
BRANCH   5   6
ATOM      6  C   UNL     1     -34.610  11.989  23.250  1.00  0.00     0.000 C 
BRANCH   6   7
ATOM      7  C   UNL     1     -34.104  10.723  23.963  1.00  0.00     0.006 C 
BRANCH   7   8
ATOM      8  C   UNL     1     -33.779  10.980  25.441  1.00  0.00     0.053 C 
BRANCH   8   9
ATOM      9  C   UNL     1     -33.928   9.741  26.270  1.00  0.00     0.041 C 
ATOM     10  O   UNL     1     -34.970   9.040  26.179  1.00  0.00    -0.550 OA
ATOM     11  O   UNL     1     -32.930   9.378  27.165  1.00  0.00    -0.550 OA
ENDBRANCH   8   9
ENDBRANCH   7   8
ENDBRANCH   6   7
ENDBRANCH   5   6
ENDBRANCH   4   5
ENDBRANCH   3   4
ENDBRANCH   2   3
ENDBRANCH   1   2
BRANCH   1  12
ATOM     12  C   UNL     1     -33.616  13.234  16.860  1.00  0.00     0.000 C 
BRANCH  12  13
ATOM     13  C   UNL     1     -34.392  14.166  17.803  1.00  0.00    -0.000 C 
BRANCH  13  14
ATOM     14  C   UNL     1     -35.046  15.349  17.056  1.00  0.00    -0.000 C 
BRANCH  14  15
ATOM     15  C   UNL     1     -35.157  16.633  17.901  1.00  0.00    -0.000 C 
BRANCH  15  16
ATOM     16  C   UNL     1     -36.596  17.080  18.221  1.00  0.00    -0.000 C 
BRANCH  16  17
ATOM     17  C   UNL     1     -37.695  16.091  17.790  1.00  0.00    -0.000 C 
BRANCH  17  18
ATOM     18  C   UNL     1     -38.580  15.635  18.959  1.00  0.00    -0.000 C 
BRANCH  18  19
ATOM     19  C   UNL     1     -40.059  15.620  18.552  1.00  0.00    -0.003 C 
ATOM     20  C   UNL     1     -40.338  16.635  17.449  1.00  0.00     0.004 C 
ENDBRANCH  18  19
ENDBRANCH  17  18
ENDBRANCH  16  17
ENDBRANCH  15  16
ENDBRANCH  14  15
ENDBRANCH  13  14
ENDBRANCH  12  13
ENDBRANCH   1  12
TORSDOF 16
ENDMDL
MODEL 3
REMARK VINA RESULT:    11.143      1.824      2.245
REMARK INTER + INTRA:          21.153
REMARK INTER:                  21.543
REMARK INTRA:                  -0.391
REMARK UNBOUND:                -0.413
REMARK SMILES CCCCCCCCCCCCCCCCCC(=O)[O-]
REMARK SMILES IDX 10 1 11 2 12 3 13 4 14 5 15 6 16 7 17 8 18 9 19 10 20 11
REMARK SMILES IDX 9 12 8 13 7 14 6 15 5 16 4 17 3 18 2 19 1 20
REMARK H PARENT
REMARK Flexibility Score: inf
ROOT
ATOM      1  C   UNL     1     -32.648  12.502  17.756  1.00  0.00     0.000 C 
ENDROOT
BRANCH   1   2
ATOM      2  C   UNL     1     -34.038  12.290  17.135  1.00  0.00     0.000 C 
BRANCH   2   3
ATOM      3  C   UNL     1     -34.674  13.595  16.625  1.00  0.00     0.000 C 
BRANCH   3   4
ATOM      4  C   UNL     1     -34.695  14.752  17.639  1.00  0.00     0.000 C 
BRANCH   4   5
ATOM      5  C   UNL     1     -34.848  16.131  16.973  1.00  0.00     0.000 C 
BRANCH   5   6
ATOM      6  C   UNL     1     -35.220  17.233  17.980  1.00  0.00     0.000 C 
BRANCH   6   7
ATOM      7  C   UNL     1     -36.691  17.156  18.422  1.00  0.00     0.006 C 
BRANCH   7   8
ATOM      8  C   UNL     1     -37.391  15.897  17.892  1.00  0.00     0.053 C 
BRANCH   8   9
ATOM      9  C   UNL     1     -38.756  15.725  18.484  1.00  0.00     0.041 C 
ATOM     10  O   UNL     1     -38.927  14.962  19.471  1.00  0.00    -0.550 OA
ATOM     11  O   UNL     1     -39.845  16.385  17.928  1.00  0.00    -0.550 OA
ENDBRANCH   8   9
ENDBRANCH   7   8
ENDBRANCH   6   7
ENDBRANCH   5   6
ENDBRANCH   4   5
ENDBRANCH   3   4
ENDBRANCH   2   3
ENDBRANCH   1   2
BRANCH   1  12
ATOM     12  C   UNL     1     -32.543  11.805  19.118  1.00  0.00     0.000 C 
BRANCH  12  13
ATOM     13  C   UNL     1     -33.729  12.178  20.020  1.00  0.00    -0.000 C 
BRANCH  13  14
ATOM     14  C   UNL     1     -33.954  11.152  21.151  1.00  0.00    -0.000 C 
BRANCH  14  15
ATOM     15  C   UNL     1     -34.101   9.701  20.654  1.00  0.00    -0.000 C 
BRANCH  15  16
ATOM     16  C   UNL     1     -33.305   8.654  21.456  1.00  0.00    -0.000 C 
BRANCH  16  17
ATOM     17  C   UNL     1     -34.024   8.107  22.704  1.00  0.00    -0.000 C 
BRANCH  17  18
ATOM     18  C   UNL     1     -34.502   6.657  22.532  1.00  0.00    -0.000 C 
BRANCH  18  19
ATOM     19  C   UNL     1     -34.827   6.023  23.889  1.00  0.00    -0.003 C 
ATOM     20  C   UNL     1     -35.977   6.752  24.577  1.00  0.00     0.004 C 
ENDBRANCH  18  19
ENDBRANCH  17  18
ENDBRANCH  16  17
ENDBRANCH  15  16
ENDBRANCH  14  15
ENDBRANCH  13  14
ENDBRANCH  12  13
ENDBRANCH   1  12
TORSDOF 16
ENDMDL
MODEL 4
REMARK VINA RESULT:    11.153      3.929      8.589
REMARK INTER + INTRA:          21.173
REMARK INTER:                  21.991
REMARK INTRA:                  -0.817
REMARK UNBOUND:                -0.413
REMARK SMILES CCCCCCCCCCCCCCCCCC(=O)[O-]
REMARK SMILES IDX 10 1 11 2 12 3 13 4 14 5 15 6 16 7 17 8 18 9 19 10 20 11
REMARK SMILES IDX 9 12 8 13 7 14 6 15 5 16 4 17 3 18 2 19 1 20
REMARK H PARENT
REMARK Flexibility Score: inf
ROOT
ATOM      1  C   UNL     1     -33.220  12.152  19.175  1.00  0.00     0.000 C 
ENDROOT
BRANCH   1   2
ATOM      2  C   UNL     1     -33.439  10.722  19.693  1.00  0.00     0.000 C 
BRANCH   2   3
ATOM      3  C   UNL     1     -33.989  10.681  21.130  1.00  0.00     0.000 C 
BRANCH   3   4
ATOM      4  C   UNL     1     -34.090  12.048  21.831  1.00  0.00     0.000 C 
BRANCH   4   5
ATOM      5  C   UNL     1     -34.709  11.958  23.236  1.00  0.00     0.000 C 
BRANCH   5   6
ATOM      6  C   UNL     1     -33.896  11.058  24.181  1.00  0.00     0.000 C 
BRANCH   6   7
ATOM      7  C   UNL     1     -34.602  10.825  25.528  1.00  0.00     0.006 C 
BRANCH   7   8
ATOM      8  C   UNL     1     -34.474   9.372  26.006  1.00  0.00     0.053 C 
BRANCH   8   9
ATOM      9  C   UNL     1     -33.285   9.181  26.897  1.00  0.00     0.041 C 
ATOM     10  O   UNL     1     -33.049   8.053  27.405  1.00  0.00    -0.550 OA
ATOM     11  O   UNL     1     -32.455  10.255  27.191  1.00  0.00    -0.550 OA
ENDBRANCH   8   9
ENDBRANCH   7   8
ENDBRANCH   6   7
ENDBRANCH   5   6
ENDBRANCH   4   5
ENDBRANCH   3   4
ENDBRANCH   2   3
ENDBRANCH   1   2
BRANCH   1  12
ATOM     12  C   UNL     1     -32.788  12.141  17.703  1.00  0.00     0.000 C 
BRANCH  12  13
ATOM     13  C   UNL     1     -33.598  13.158  16.884  1.00  0.00    -0.000 C 
BRANCH  13  14
ATOM     14  C   UNL     1     -34.338  14.178  17.777  1.00  0.00    -0.000 C 
BRANCH  14  15
ATOM     15  C   UNL     1     -35.204  15.179  16.989  1.00  0.00    -0.000 C 
BRANCH  15  16
ATOM     16  C   UNL     1     -35.341  16.571  17.634  1.00  0.00    -0.000 C 
BRANCH  16  17
ATOM     17  C   UNL     1     -36.712  16.858  18.275  1.00  0.00    -0.000 C 
BRANCH  17  18
ATOM     18  C   UNL     1     -37.672  15.662  18.194  1.00  0.00    -0.000 C 
BRANCH  18  19
ATOM     19  C   UNL     1     -39.059  16.036  18.729  1.00  0.00    -0.003 C 
ATOM     20  C   UNL     1     -40.043  16.282  17.590  1.00  0.00     0.004 C 
ENDBRANCH  18  19
ENDBRANCH  17  18
ENDBRANCH  16  17
ENDBRANCH  15  16
ENDBRANCH  14  15
ENDBRANCH  13  14
ENDBRANCH  12  13
ENDBRANCH   1  12
TORSDOF 16
ENDMDL
MODEL 5
REMARK VINA RESULT:    11.329      3.971      8.334
REMARK INTER + INTRA:          21.513
REMARK INTER:                  21.956
REMARK INTRA:                  -0.443
REMARK UNBOUND:                -0.413
REMARK SMILES CCCCCCCCCCCCCCCCCC(=O)[O-]
REMARK SMILES IDX 10 1 11 2 12 3 13 4 14 5 15 6 16 7 17 8 18 9 19 10 20 11
REMARK SMILES IDX 9 12 8 13 7 14 6 15 5 16 4 17 3 18 2 19 1 20
REMARK H PARENT
REMARK Flexibility Score: inf
ROOT
ATOM      1  C   UNL     1     -32.630  12.807  16.979  1.00  0.00     0.000 C 
ENDROOT
BRANCH   1   2
ATOM      2  C   UNL     1     -32.149  11.939  18.152  1.00  0.00     0.000 C 
BRANCH   2   3
ATOM      3  C   UNL     1     -33.307  11.350  18.978  1.00  0.00     0.000 C 
BRANCH   3   4
ATOM      4  C   UNL     1     -33.642  12.114  20.272  1.00  0.00     0.000 C 
BRANCH   4   5
ATOM      5  C   UNL     1     -34.178  11.199  21.387  1.00  0.00     0.000 C 
BRANCH   5   6
ATOM      6  C   UNL     1     -33.924   9.710  21.100  1.00  0.00     0.000 C 
BRANCH   6   7
ATOM      7  C   UNL     1     -33.985   8.845  22.371  1.00  0.00     0.006 C 
BRANCH   7   8
ATOM      8  C   UNL     1     -33.853   7.348  22.061  1.00  0.00     0.053 C 
BRANCH   8   9
ATOM      9  C   UNL     1     -34.731   6.515  22.944  1.00  0.00     0.041 C 
ATOM     10  O   UNL     1     -35.777   5.989  22.482  1.00  0.00    -0.550 OA
ATOM     11  O   UNL     1     -34.410   6.347  24.285  1.00  0.00    -0.550 OA
ENDBRANCH   8   9
ENDBRANCH   7   8
ENDBRANCH   6   7
ENDBRANCH   5   6
ENDBRANCH   4   5
ENDBRANCH   3   4
ENDBRANCH   2   3
ENDBRANCH   1   2
BRANCH   1  12
ATOM     12  C   UNL     1     -34.129  13.109  17.099  1.00  0.00     0.000 C 
BRANCH  12  13
ATOM     13  C   UNL     1     -34.370  14.393  17.907  1.00  0.00    -0.000 C 
BRANCH  13  14
ATOM     14  C   UNL     1     -35.032  15.504  17.064  1.00  0.00    -0.000 C 
BRANCH  14  15
ATOM     15  C   UNL     1     -35.339  16.788  17.859  1.00  0.00    -0.000 C 
BRANCH  15  16
ATOM     16  C   UNL     1     -36.827  17.012  18.187  1.00  0.00    -0.000 C 
BRANCH  16  17
ATOM     17  C   UNL     1     -37.730  15.781  17.982  1.00  0.00    -0.000 C 
BRANCH  17  18
ATOM     18  C   UNL     1     -38.899  15.725  18.976  1.00  0.00    -0.000 C 
BRANCH  18  19
ATOM     19  C   UNL     1     -40.244  15.700  18.240  1.00  0.00    -0.003 C 
ATOM     20  C   UNL     1     -40.409  16.929  17.351  1.00  0.00     0.004 C 
ENDBRANCH  18  19
ENDBRANCH  17  18
ENDBRANCH  16  17
ENDBRANCH  15  16
ENDBRANCH  14  15
ENDBRANCH  13  14
ENDBRANCH  12  13
ENDBRANCH   1  12
TORSDOF 16
ENDMDL
MODEL 6
REMARK VINA RESULT:    12.207      5.754      8.681
REMARK INTER + INTRA:          23.212
REMARK INTER:                  23.978
REMARK INTRA:                  -0.766
REMARK UNBOUND:                -0.413
REMARK SMILES CCCCCCCCCCCCCCCCCC(=O)[O-]
REMARK SMILES IDX 10 1 11 2 12 3 13 4 14 5 15 6 16 7 17 8 18 9 19 10 20 11
REMARK SMILES IDX 9 12 8 13 7 14 6 15 5 16 4 17 3 18 2 19 1 20
REMARK H PARENT
REMARK Flexibility Score: inf
ROOT
ATOM      1  C   UNL     1     -31.097  12.843  16.894  1.00  0.00     0.000 C 
ENDROOT
BRANCH   1   2
ATOM      2  C   UNL     1     -29.605  12.835  17.259  1.00  0.00     0.000 C 
BRANCH   2   3
ATOM      3  C   UNL     1     -28.717  13.468  16.173  1.00  0.00     0.000 C 
BRANCH   3   4
ATOM      4  C   UNL     1     -28.017  14.777  16.582  1.00  0.00     0.000 C 
BRANCH   4   5
ATOM      5  C   UNL     1     -27.248  14.657  17.909  1.00  0.00     0.000 C 
BRANCH   5   6
ATOM      6  C   UNL     1     -26.187  15.758  18.076  1.00  0.00     0.000 C 
BRANCH   6   7
ATOM      7  C   UNL     1     -26.188  16.369  19.488  1.00  0.00     0.006 C 
BRANCH   7   8
ATOM      8  C   UNL     1     -26.109  15.298  20.584  1.00  0.00     0.053 C 
BRANCH   8   9
ATOM      9  C   UNL     1     -27.102  15.545  21.679  1.00  0.00     0.041 C 
ATOM     10  O   UNL     1     -27.257  16.705  22.143  1.00  0.00    -0.550 OA
ATOM     11  O   UNL     1     -27.833  14.489  22.207  1.00  0.00    -0.550 OA
ENDBRANCH   8   9
ENDBRANCH   7   8
ENDBRANCH   6   7
ENDBRANCH   5   6
ENDBRANCH   4   5
ENDBRANCH   3   4
ENDBRANCH   2   3
ENDBRANCH   1   2
BRANCH   1  12
ATOM     12  C   UNL     1     -31.950  12.330  18.061  1.00  0.00     0.000 C 
BRANCH  12  13
ATOM     13  C   UNL     1     -33.448  12.457  17.746  1.00  0.00    -0.000 C 
BRANCH  13  14
ATOM     14  C   UNL     1     -33.995  13.869  18.044  1.00  0.00    -0.000 C 
BRANCH  14  15
ATOM     15  C   UNL     1     -34.889  14.438  16.925  1.00  0.00    -0.000 C 
BRANCH  15  16
ATOM     16  C   UNL     1     -35.034  15.972  16.923  1.00  0.00    -0.000 C 
BRANCH  16  17
ATOM     17  C   UNL     1     -35.637  16.569  18.209  1.00  0.00    -0.000 C 
BRANCH  17  18
ATOM     18  C   UNL     1     -37.139  16.863  18.084  1.00  0.00    -0.000 C 
BRANCH  18  19
ATOM     19  C   UNL     1     -37.972  15.636  18.476  1.00  0.00    -0.003 C 
ATOM     20  C   UNL     1     -39.463  15.903  18.302  1.00  0.00     0.004 C 
ENDBRANCH  18  19
ENDBRANCH  17  18
ENDBRANCH  16  17
ENDBRANCH  15  16
ENDBRANCH  14  15
ENDBRANCH  13  14
ENDBRANCH  12  13
ENDBRANCH   1  12
TORSDOF 16
ENDMDL
