MODEL 1
REMARK VINA RESULT:    -6.861      0.000      0.000
REMARK INTER + INTRA:         -14.056
REMARK INTER:                 -11.273
REMARK INTRA:                  -2.782
REMARK UNBOUND:                -2.782
REMARK SMILES C[C@H]1O[C@H](OC[C@H]2O[C@H](Oc3c(-c4ccc(O)c(O)c4)oc4cc(O)cc(O)c4c3=O)[C@@H](O)[C@@H](O)[C@H]2O)[C@@H](O)[C@@H](O)[C@@H]1O
REMARK SMILES IDX 7 1 36 2 34 3 32 4 9 5 8 6 6 7 5 8 4 9 1 10 2 11 42 12 3 13
REMARK SMILES IDX 40 14 38 15 43 16 41 18 39 20 37 22 35 24 10 26 11 27 12 28
REMARK SMILES IDX 30 29 21 30 29 31 31 32 22 33 27 34 23 35 26 36 24 37 13 38
REMARK SMILES IDX 20 39 14 40 18 41 15 42 16 43 19 44 17 46 28 48 25 50 33 52
REMARK H PARENT 43 17 41 19 39 21 37 23 35 25 19 45 17 47 28 49 25 51 33 53
REMARK Flexibility Score: inf
ROOT
ATOM      1  C   UNL     1     -36.312   3.858  82.346  1.00  0.00     0.180 C 
ATOM      2  C   UNL     1     -35.202   3.370  83.304  1.00  0.00     0.177 C 
ATOM      3  C   UNL     1     -33.882   4.077  82.938  1.00  0.00     0.180 C 
ATOM      4  C   UNL     1     -34.079   5.599  82.880  1.00  0.00     0.214 C 
ATOM      5  C   UNL     1     -35.306   5.956  82.014  1.00  0.00     0.339 C 
ATOM      6  O   UNL     1     -36.472   5.267  82.438  1.00  0.00    -0.332 OA
ENDROOT
BRANCH   1   7
ATOM      7  C   UNL     1     -37.662   3.196  82.652  1.00  0.00     0.198 C 
BRANCH   7   8
ATOM      8  O   UNL     1     -38.383   3.971  83.589  1.00  0.00    -0.347 OA
BRANCH   8   9
ATOM      9  C   UNL     1     -39.742   4.088  83.203  1.00  0.00     0.281 C 
ATOM     10  C   UNL     1     -39.524   6.955  80.915  1.00  0.00     0.041 C 
ATOM     11  C   UNL     1     -39.562   5.483  81.322  1.00  0.00     0.150 C 
ATOM     12  C   UNL     1     -40.527   4.678  80.408  1.00  0.00     0.174 C 
ATOM     13  O   UNL     1     -39.979   5.389  82.672  1.00  0.00    -0.344 OA
ATOM     14  C   UNL     1     -41.093   3.428  81.139  1.00  0.00     0.179 C 
ATOM     15  C   UNL     1     -40.087   2.944  82.202  1.00  0.00     0.202 C 
BRANCH  12  16
ATOM     16  O   UNL     1     -39.883   4.312  79.212  1.00  0.00    -0.388 OA
ATOM     17  H   UNL     1     -39.313   5.073  78.929  1.00  0.00     0.211 HD
ENDBRANCH  12  16
BRANCH  14  18
ATOM     18  O   UNL     1     -42.313   3.749  81.759  1.00  0.00    -0.387 OA
ATOM     19  H   UNL     1     -42.154   4.564  82.302  1.00  0.00     0.211 HD
ENDBRANCH  14  18
BRANCH  15  20
ATOM     20  O   UNL     1     -40.548   1.795  82.869  1.00  0.00    -0.385 OA
ATOM     21  H   UNL     1     -39.912   1.055  82.684  1.00  0.00     0.211 HD
ENDBRANCH  15  20
ENDBRANCH   8   9
ENDBRANCH   7   8
ENDBRANCH   1   7
BRANCH   2  22
ATOM     22  O   UNL     1     -35.563   3.648  84.635  1.00  0.00    -0.387 OA
ATOM     23  H   UNL     1     -35.736   4.624  84.691  1.00  0.00     0.211 HD
ENDBRANCH   2  22
BRANCH   3  24
ATOM     24  O   UNL     1     -32.874   3.762  83.864  1.00  0.00    -0.387 OA
ATOM     25  H   UNL     1     -32.893   4.473  84.557  1.00  0.00     0.211 HD
ENDBRANCH   3  24
BRANCH   5  26
ATOM     26  O   UNL     1     -35.035   5.710  80.632  1.00  0.00    -0.454 OA
BRANCH  26  27
ATOM     27  C   UNL     1     -35.497   6.569  79.630  1.00  0.00     0.214 A 
ATOM     28  C   UNL     1     -34.889   7.822  79.436  1.00  0.00     0.180 A 
ATOM     29  C   UNL     1     -36.598   6.214  78.840  1.00  0.00     0.239 A 
ATOM     30  O   UNL     1     -35.410   8.676  78.563  1.00  0.00    -0.452 OA
ATOM     31  C   UNL     1     -37.089   7.121  77.870  1.00  0.00     0.111 A 
ATOM     32  O   UNL     1     -37.152   5.102  79.040  1.00  0.00    -0.285 OA
ATOM     33  C   UNL     1     -36.464   8.395  77.806  1.00  0.00     0.146 A 
ATOM     34  C   UNL     1     -38.185   6.856  76.996  1.00  0.00     0.134 A 
ATOM     35  C   UNL     1     -36.954   9.384  76.949  1.00  0.00     0.094 A 
ATOM     36  C   UNL     1     -38.677   7.879  76.175  1.00  0.00     0.093 A 
ATOM     37  C   UNL     1     -38.069   9.134  76.146  1.00  0.00     0.123 A 
BRANCH  28  38
ATOM     38  C   UNL     1     -33.696   8.244  80.207  1.00  0.00     0.025 A 
ATOM     39  C   UNL     1     -33.817   8.982  81.397  1.00  0.00     0.062 A 
ATOM     40  C   UNL     1     -32.420   7.868  79.767  1.00  0.00     0.016 A 
ATOM     41  C   UNL     1     -32.684   9.376  82.118  1.00  0.00     0.158 A 
ATOM     42  C   UNL     1     -31.284   8.252  80.483  1.00  0.00     0.051 A 
ATOM     43  C   UNL     1     -31.399   9.007  81.655  1.00  0.00     0.157 A 
BRANCH  41  44
ATOM     44  O   UNL     1     -32.880  10.124  83.281  1.00  0.00    -0.504 OA
ATOM     45  H   UNL     1     -32.904  11.134  83.307  1.00  0.00     0.293 HD
ENDBRANCH  41  44
BRANCH  43  46
ATOM     46  O   UNL     1     -30.225   9.359  82.324  1.00  0.00    -0.504 OA
ATOM     47  H   UNL     1     -30.192   9.990  83.111  1.00  0.00     0.293 HD
ENDBRANCH  43  46
ENDBRANCH  28  38
BRANCH  34  48
ATOM     48  O   UNL     1     -38.803   5.608  76.877  1.00  0.00    -0.507 OA
ATOM     49  H   UNL     1     -39.712   5.380  77.250  1.00  0.00     0.293 HD
ENDBRANCH  34  48
BRANCH  37  50
ATOM     50  O   UNL     1     -38.578  10.124  75.310  1.00  0.00    -0.508 OA
ATOM     51  H   UNL     1     -38.336  11.100  75.436  1.00  0.00     0.293 HD
ENDBRANCH  37  50
ENDBRANCH  26  27
ENDBRANCH   5  26
BRANCH   4  52
ATOM     52  O   UNL     1     -34.250   6.108  84.180  1.00  0.00    -0.384 OA
ATOM     53  H   UNL     1     -34.450   5.335  84.768  1.00  0.00     0.211 HD
ENDBRANCH   4  52
TORSDOF 16
ENDMDL
MODEL 2
REMARK VINA RESULT:    -6.269      1.973      6.397
REMARK INTER + INTRA:         -13.083
REMARK INTER:                 -12.579
REMARK INTRA:                  -0.504
REMARK UNBOUND:                -2.782
REMARK SMILES C[C@H]1O[C@H](OC[C@H]2O[C@H](Oc3c(-c4ccc(O)c(O)c4)oc4cc(O)cc(O)c4c3=O)[C@@H](O)[C@@H](O)[C@H]2O)[C@@H](O)[C@@H](O)[C@@H]1O
REMARK SMILES IDX 7 1 36 2 34 3 32 4 9 5 8 6 6 7 5 8 4 9 1 10 2 11 42 12 3 13
REMARK SMILES IDX 40 14 38 15 43 16 41 18 39 20 37 22 35 24 10 26 11 27 12 28
REMARK SMILES IDX 30 29 21 30 29 31 31 32 22 33 27 34 23 35 26 36 24 37 13 38
REMARK SMILES IDX 20 39 14 40 18 41 15 42 16 43 19 44 17 46 28 48 25 50 33 52
REMARK H PARENT 43 17 41 19 39 21 37 23 35 25 19 45 17 47 28 49 25 51 33 53
REMARK Flexibility Score: inf
ROOT
ATOM      1  C   UNL     1     -39.619   4.859  80.390  1.00  0.00     0.180 C 
ATOM      2  C   UNL     1     -40.981   4.215  80.048  1.00  0.00     0.177 C 
ATOM      3  C   UNL     1     -41.094   4.069  78.518  1.00  0.00     0.180 C 
ATOM      4  C   UNL     1     -39.863   3.346  77.950  1.00  0.00     0.214 C 
ATOM      5  C   UNL     1     -38.563   3.988  78.480  1.00  0.00     0.339 C 
ATOM      6  O   UNL     1     -38.550   4.065  79.897  1.00  0.00    -0.332 OA
ENDROOT
BRANCH   1   7
ATOM      7  C   UNL     1     -39.435   5.036  81.903  1.00  0.00     0.198 C 
BRANCH   7   8
ATOM      8  O   UNL     1     -38.330   5.878  82.164  1.00  0.00    -0.347 OA
BRANCH   8   9
ATOM      9  C   UNL     1     -37.472   5.294  83.131  1.00  0.00     0.281 C 
ATOM     10  C   UNL     1     -39.910   3.359  85.082  1.00  0.00     0.041 C 
ATOM     11  C   UNL     1     -38.854   3.610  84.008  1.00  0.00     0.150 C 
ATOM     12  C   UNL     1     -37.785   2.481  84.004  1.00  0.00     0.174 C 
ATOM     13  O   UNL     1     -38.237   4.862  84.252  1.00  0.00    -0.344 OA
ATOM     14  C   UNL     1     -36.423   2.989  83.453  1.00  0.00     0.179 C 
ATOM     15  C   UNL     1     -36.659   4.145  82.461  1.00  0.00     0.202 C 
BRANCH  12  16
ATOM     16  O   UNL     1     -38.243   1.372  83.269  1.00  0.00    -0.388 OA
ATOM     17  H   UNL     1     -38.759   0.791  83.885  1.00  0.00     0.211 HD
ENDBRANCH  12  16
BRANCH  14  18
ATOM     18  O   UNL     1     -35.615   3.436  84.513  1.00  0.00    -0.387 OA
ATOM     19  H   UNL     1     -36.180   4.030  85.074  1.00  0.00     0.211 HD
ENDBRANCH  14  18
BRANCH  15  20
ATOM     20  O   UNL     1     -35.451   4.616  81.916  1.00  0.00    -0.385 OA
ATOM     21  H   UNL     1     -34.930   3.833  81.599  1.00  0.00     0.211 HD
ENDBRANCH  15  20
ENDBRANCH   8   9
ENDBRANCH   7   8
ENDBRANCH   1   7
BRANCH   2  22
ATOM     22  O   UNL     1     -41.089   2.962  80.677  1.00  0.00    -0.387 OA
ATOM     23  H   UNL     1     -41.773   2.444  80.177  1.00  0.00     0.211 HD
ENDBRANCH   2  22
BRANCH   3  24
ATOM     24  O   UNL     1     -42.260   3.369  78.167  1.00  0.00    -0.387 OA
ATOM     25  H   UNL     1     -43.020   3.863  78.573  1.00  0.00     0.211 HD
ENDBRANCH   3  24
BRANCH   5  26
ATOM     26  O   UNL     1     -38.361   5.275  77.892  1.00  0.00    -0.454 OA
BRANCH  26  27
ATOM     27  C   UNL     1     -37.382   6.154  78.367  1.00  0.00     0.214 A 
ATOM     28  C   UNL     1     -37.679   7.516  78.544  1.00  0.00     0.180 A 
ATOM     29  C   UNL     1     -36.083   5.698  78.629  1.00  0.00     0.239 A 
ATOM     30  O   UNL     1     -36.711   8.360  78.882  1.00  0.00    -0.452 OA
ATOM     31  C   UNL     1     -35.090   6.612  79.054  1.00  0.00     0.111 A 
ATOM     32  O   UNL     1     -35.821   4.482  78.442  1.00  0.00    -0.285 OA
ATOM     33  C   UNL     1     -35.461   7.981  79.120  1.00  0.00     0.146 A 
ATOM     34  C   UNL     1     -33.745   6.255  79.371  1.00  0.00     0.134 A 
ATOM     35  C   UNL     1     -34.513   8.960  79.430  1.00  0.00     0.094 A 
ATOM     36  C   UNL     1     -32.809   7.261  79.642  1.00  0.00     0.093 A 
ATOM     37  C   UNL     1     -33.185   8.604  79.674  1.00  0.00     0.123 A 
BRANCH  28  38
ATOM     38  C   UNL     1     -39.040   8.058  78.326  1.00  0.00     0.025 A 
ATOM     39  C   UNL     1     -39.431   8.577  77.079  1.00  0.00     0.062 A 
ATOM     40  C   UNL     1     -39.976   8.018  79.369  1.00  0.00     0.016 A 
ATOM     41  C   UNL     1     -40.719   9.088  76.883  1.00  0.00     0.158 A 
ATOM     42  C   UNL     1     -41.265   8.519  79.181  1.00  0.00     0.051 A 
ATOM     43  C   UNL     1     -41.650   9.059  77.949  1.00  0.00     0.157 A 
BRANCH  41  44
ATOM     44  O   UNL     1     -41.031   9.605  75.624  1.00  0.00    -0.504 OA
ATOM     45  H   UNL     1     -41.504  10.486  75.476  1.00  0.00     0.293 HD
ENDBRANCH  41  44
BRANCH  43  46
ATOM     46  O   UNL     1     -42.954   9.544  77.826  1.00  0.00    -0.504 OA
ATOM     47  H   UNL     1     -43.251  10.189  77.109  1.00  0.00     0.293 HD
ENDBRANCH  43  46
ENDBRANCH  28  38
BRANCH  34  48
ATOM     48  O   UNL     1     -33.289   4.937  79.460  1.00  0.00    -0.507 OA
ATOM     49  H   UNL     1     -32.401   4.613  79.109  1.00  0.00     0.293 HD
ENDBRANCH  34  48
BRANCH  37  50
ATOM     50  O   UNL     1     -32.231   9.578  79.957  1.00  0.00    -0.508 OA
ATOM     51  H   UNL     1     -31.238   9.379  79.905  1.00  0.00     0.293 HD
ENDBRANCH  37  50
ENDBRANCH  26  27
ENDBRANCH   5  26
BRANCH   4  52
ATOM     52  O   UNL     1     -39.901   1.986  78.306  1.00  0.00    -0.384 OA
ATOM     53  H   UNL     1     -39.985   1.471  77.462  1.00  0.00     0.211 HD
ENDBRANCH   4  52
TORSDOF 16
ENDMDL
MODEL 3
REMARK VINA RESULT:    -6.260      2.117      6.653
REMARK INTER + INTRA:         -13.067
REMARK INTER:                 -11.111
REMARK INTRA:                  -1.956
REMARK UNBOUND:                -2.782
REMARK SMILES C[C@H]1O[C@H](OC[C@H]2O[C@H](Oc3c(-c4ccc(O)c(O)c4)oc4cc(O)cc(O)c4c3=O)[C@@H](O)[C@@H](O)[C@H]2O)[C@@H](O)[C@@H](O)[C@@H]1O
REMARK SMILES IDX 7 1 36 2 34 3 32 4 9 5 8 6 6 7 5 8 4 9 1 10 2 11 42 12 3 13
REMARK SMILES IDX 40 14 38 15 43 16 41 18 39 20 37 22 35 24 10 26 11 27 12 28
REMARK SMILES IDX 30 29 21 30 29 31 31 32 22 33 27 34 23 35 26 36 24 37 13 38
REMARK SMILES IDX 20 39 14 40 18 41 15 42 16 43 19 44 17 46 28 48 25 50 33 52
REMARK H PARENT 43 17 41 19 39 21 37 23 35 25 19 45 17 47 28 49 25 51 33 53
REMARK Flexibility Score: inf
ROOT
ATOM      1  C   UNL     1     -39.454   4.892  80.401  1.00  0.00     0.180 C 
ATOM      2  C   UNL     1     -40.830   4.251  80.109  1.00  0.00     0.177 C 
ATOM      3  C   UNL     1     -40.992   4.091  78.585  1.00  0.00     0.180 C 
ATOM      4  C   UNL     1     -39.783   3.356  77.985  1.00  0.00     0.214 C 
ATOM      5  C   UNL     1     -38.465   3.998  78.466  1.00  0.00     0.339 C 
ATOM      6  O   UNL     1     -38.405   4.088  79.882  1.00  0.00    -0.332 OA
ENDROOT
BRANCH   1   7
ATOM      7  C   UNL     1     -39.221   5.083  81.905  1.00  0.00     0.198 C 
BRANCH   7   8
ATOM      8  O   UNL     1     -37.836   5.062  82.189  1.00  0.00    -0.347 OA
BRANCH   8   9
ATOM      9  C   UNL     1     -37.494   6.102  83.091  1.00  0.00     0.281 C 
ATOM     10  C   UNL     1     -34.683   4.530  84.860  1.00  0.00     0.041 C 
ATOM     11  C   UNL     1     -35.371   5.400  83.810  1.00  0.00     0.150 C 
ATOM     12  C   UNL     1     -34.675   6.785  83.691  1.00  0.00     0.174 C 
ATOM     13  O   UNL     1     -36.731   5.569  84.169  1.00  0.00    -0.344 OA
ATOM     14  C   UNL     1     -35.659   7.876  83.184  1.00  0.00     0.179 C 
ATOM     15  C   UNL     1     -36.751   7.228  82.309  1.00  0.00     0.202 C 
BRANCH  12  16
ATOM     16  O   UNL     1     -33.546   6.699  82.855  1.00  0.00    -0.388 OA
ATOM     17  H   UNL     1     -32.738   6.745  83.430  1.00  0.00     0.211 HD
ENDBRANCH  12  16
BRANCH  14  18
ATOM     18  O   UNL     1     -36.257   8.525  84.278  1.00  0.00    -0.387 OA
ATOM     19  H   UNL     1     -36.325   7.856  85.007  1.00  0.00     0.211 HD
ENDBRANCH  14  18
BRANCH  15  20
ATOM     20  O   UNL     1     -37.649   8.186  81.805  1.00  0.00    -0.385 OA
ATOM     21  H   UNL     1     -38.440   8.213  82.404  1.00  0.00     0.211 HD
ENDBRANCH  15  20
ENDBRANCH   8   9
ENDBRANCH   7   8
ENDBRANCH   1   7
BRANCH   2  22
ATOM     22  O   UNL     1     -40.923   3.005  80.753  1.00  0.00    -0.387 OA
ATOM     23  H   UNL     1     -40.721   2.311  80.073  1.00  0.00     0.211 HD
ENDBRANCH   2  22
BRANCH   3  24
ATOM     24  O   UNL     1     -42.172   3.393  78.279  1.00  0.00    -0.387 OA
ATOM     25  H   UNL     1     -42.114   3.145  77.319  1.00  0.00     0.211 HD
ENDBRANCH   3  24
BRANCH   5  26
ATOM     26  O   UNL     1     -38.276   5.278  77.859  1.00  0.00    -0.454 OA
BRANCH  26  27
ATOM     27  C   UNL     1     -37.308   6.175  78.324  1.00  0.00     0.214 A 
ATOM     28  C   UNL     1     -37.623   7.535  78.487  1.00  0.00     0.180 A 
ATOM     29  C   UNL     1     -36.003   5.739  78.587  1.00  0.00     0.239 A 
ATOM     30  O   UNL     1     -36.667   8.395  78.814  1.00  0.00    -0.452 OA
ATOM     31  C   UNL     1     -35.021   6.671  79.001  1.00  0.00     0.111 A 
ATOM     32  O   UNL     1     -35.724   4.525  78.412  1.00  0.00    -0.285 OA
ATOM     33  C   UNL     1     -35.411   8.036  79.054  1.00  0.00     0.146 A 
ATOM     34  C   UNL     1     -33.671   6.336  79.319  1.00  0.00     0.134 A 
ATOM     35  C   UNL     1     -34.476   9.030  79.352  1.00  0.00     0.094 A 
ATOM     36  C   UNL     1     -32.749   7.358  79.576  1.00  0.00     0.093 A 
ATOM     37  C   UNL     1     -33.143   8.696  79.596  1.00  0.00     0.123 A 
BRANCH  28  38
ATOM     38  C   UNL     1     -38.992   8.055  78.266  1.00  0.00     0.025 A 
ATOM     39  C   UNL     1     -39.376   8.607  77.031  1.00  0.00     0.062 A 
ATOM     40  C   UNL     1     -39.942   7.962  79.293  1.00  0.00     0.016 A 
ATOM     41  C   UNL     1     -40.672   9.097  76.833  1.00  0.00     0.158 A 
ATOM     42  C   UNL     1     -41.239   8.442  79.102  1.00  0.00     0.051 A 
ATOM     43  C   UNL     1     -41.617   9.015  77.883  1.00  0.00     0.157 A 
BRANCH  41  44
ATOM     44  O   UNL     1     -40.976   9.648  75.586  1.00  0.00    -0.504 OA
ATOM     45  H   UNL     1     -41.744   9.341  75.004  1.00  0.00     0.293 HD
ENDBRANCH  41  44
BRANCH  43  46
ATOM     46  O   UNL     1     -42.929   9.476  77.756  1.00  0.00    -0.504 OA
ATOM     47  H   UNL     1     -43.733   8.873  77.668  1.00  0.00     0.293 HD
ENDBRANCH  43  46
ENDBRANCH  28  38
BRANCH  34  48
ATOM     48  O   UNL     1     -33.196   5.026  79.420  1.00  0.00    -0.507 OA
ATOM     49  H   UNL     1     -32.756   4.516  78.670  1.00  0.00     0.293 HD
ENDBRANCH  34  48
BRANCH  37  50
ATOM     50  O   UNL     1     -32.201   9.686  79.867  1.00  0.00    -0.508 OA
ATOM     51  H   UNL     1     -31.521   9.582  80.611  1.00  0.00     0.293 HD
ENDBRANCH  37  50
ENDBRANCH  26  27
ENDBRANCH   5  26
BRANCH   4  52
ATOM     52  O   UNL     1     -39.817   2.000  78.355  1.00  0.00    -0.384 OA
ATOM     53  H   UNL     1     -40.729   1.819  78.698  1.00  0.00     0.211 HD
ENDBRANCH   4  52
TORSDOF 16
ENDMDL
MODEL 4
REMARK VINA RESULT:    -6.133      2.613      5.756
REMARK INTER + INTRA:         -12.859
REMARK INTER:                 -11.799
REMARK INTRA:                  -1.060
REMARK UNBOUND:                -2.782
REMARK SMILES C[C@H]1O[C@H](OC[C@H]2O[C@H](Oc3c(-c4ccc(O)c(O)c4)oc4cc(O)cc(O)c4c3=O)[C@@H](O)[C@@H](O)[C@H]2O)[C@@H](O)[C@@H](O)[C@@H]1O
REMARK SMILES IDX 7 1 36 2 34 3 32 4 9 5 8 6 6 7 5 8 4 9 1 10 2 11 42 12 3 13
REMARK SMILES IDX 40 14 38 15 43 16 41 18 39 20 37 22 35 24 10 26 11 27 12 28
REMARK SMILES IDX 30 29 21 30 29 31 31 32 22 33 27 34 23 35 26 36 24 37 13 38
REMARK SMILES IDX 20 39 14 40 18 41 15 42 16 43 19 44 17 46 28 48 25 50 33 52
REMARK H PARENT 43 17 41 19 39 21 37 23 35 25 19 45 17 47 28 49 25 51 33 53
REMARK Flexibility Score: inf
ROOT
ATOM      1  C   UNL     1     -39.018   8.021  81.606  1.00  0.00     0.180 C 
ATOM      2  C   UNL     1     -38.747   8.813  82.905  1.00  0.00     0.177 C 
ATOM      3  C   UNL     1     -37.886   7.948  83.846  1.00  0.00     0.180 C 
ATOM      4  C   UNL     1     -36.635   7.432  83.116  1.00  0.00     0.214 C 
ATOM      5  C   UNL     1     -37.020   6.794  81.765  1.00  0.00     0.339 C 
ATOM      6  O   UNL     1     -37.799   7.672  80.967  1.00  0.00    -0.332 OA
ENDROOT
BRANCH   1   7
ATOM      7  C   UNL     1     -39.873   8.823  80.616  1.00  0.00     0.198 C 
BRANCH   7   8
ATOM      8  O   UNL     1     -39.043   9.587  79.765  1.00  0.00    -0.347 OA
BRANCH   8   9
ATOM      9  C   UNL     1     -39.649   9.756  78.494  1.00  0.00     0.281 C 
ATOM     10  C   UNL     1     -36.702   9.455  76.321  1.00  0.00     0.041 C 
ATOM     11  C   UNL     1     -37.947   8.986  77.072  1.00  0.00     0.150 C 
ATOM     12  C   UNL     1     -38.857   8.121  76.154  1.00  0.00     0.174 C 
ATOM     13  O   UNL     1     -38.660  10.118  77.536  1.00  0.00    -0.344 OA
ATOM     14  C   UNL     1     -40.343   8.185  76.605  1.00  0.00     0.179 C 
ATOM     15  C   UNL     1     -40.419   8.453  78.121  1.00  0.00     0.202 C 
BRANCH  12  16
ATOM     16  O   UNL     1     -38.399   6.791  76.119  1.00  0.00    -0.388 OA
ATOM     17  H   UNL     1     -39.044   6.263  75.581  1.00  0.00     0.211 HD
ENDBRANCH  12  16
BRANCH  14  18
ATOM     18  O   UNL     1     -41.009   9.212  75.912  1.00  0.00    -0.387 OA
ATOM     19  H   UNL     1     -41.756   9.512  76.492  1.00  0.00     0.211 HD
ENDBRANCH  14  18
BRANCH  15  20
ATOM     20  O   UNL     1     -41.750   8.490  78.576  1.00  0.00    -0.385 OA
ATOM     21  H   UNL     1     -41.755   8.906  79.477  1.00  0.00     0.211 HD
ENDBRANCH  15  20
ENDBRANCH   8   9
ENDBRANCH   7   8
ENDBRANCH   1   7
BRANCH   2  22
ATOM     22  O   UNL     1     -38.093  10.020  82.601  1.00  0.00    -0.387 OA
ATOM     23  H   UNL     1     -38.637  10.478  81.908  1.00  0.00     0.211 HD
ENDBRANCH   2  22
BRANCH   3  24
ATOM     24  O   UNL     1     -37.505   8.675  84.985  1.00  0.00    -0.387 OA
ATOM     25  H   UNL     1     -37.093   9.518  84.660  1.00  0.00     0.211 HD
ENDBRANCH   3  24
BRANCH   5  26
ATOM     26  O   UNL     1     -37.692   5.549  81.969  1.00  0.00    -0.454 OA
BRANCH  26  27
ATOM     27  C   UNL     1     -38.382   4.910  80.933  1.00  0.00     0.214 A 
ATOM     28  C   UNL     1     -37.764   4.712  79.687  1.00  0.00     0.180 A 
ATOM     29  C   UNL     1     -39.711   4.502  81.110  1.00  0.00     0.239 A 
ATOM     30  O   UNL     1     -38.467   4.212  78.678  1.00  0.00    -0.452 OA
ATOM     31  C   UNL     1     -40.413   3.909  80.033  1.00  0.00     0.111 A 
ATOM     32  O   UNL     1     -40.264   4.708  82.221  1.00  0.00    -0.285 OA
ATOM     33  C   UNL     1     -39.734   3.830  78.788  1.00  0.00     0.146 A 
ATOM     34  C   UNL     1     -41.757   3.436  80.106  1.00  0.00     0.134 A 
ATOM     35  C   UNL     1     -40.390   3.355  77.650  1.00  0.00     0.094 A 
ATOM     36  C   UNL     1     -42.400   3.000  78.941  1.00  0.00     0.093 A 
ATOM     37  C   UNL     1     -41.727   2.955  77.720  1.00  0.00     0.123 A 
BRANCH  28  38
ATOM     38  C   UNL     1     -36.350   5.081  79.444  1.00  0.00     0.025 A 
ATOM     39  C   UNL     1     -35.999   6.042  78.480  1.00  0.00     0.062 A 
ATOM     40  C   UNL     1     -35.339   4.494  80.217  1.00  0.00     0.016 A 
ATOM     41  C   UNL     1     -34.660   6.384  78.257  1.00  0.00     0.158 A 
ATOM     42  C   UNL     1     -34.002   4.833  80.007  1.00  0.00     0.051 A 
ATOM     43  C   UNL     1     -33.646   5.771  79.031  1.00  0.00     0.157 A 
BRANCH  41  44
ATOM     44  O   UNL     1     -34.385   7.332  77.269  1.00  0.00    -0.504 OA
ATOM     45  H   UNL     1     -34.023   7.105  76.353  1.00  0.00     0.293 HD
ENDBRANCH  41  44
BRANCH  43  46
ATOM     46  O   UNL     1     -32.291   6.066  78.870  1.00  0.00    -0.504 OA
ATOM     47  H   UNL     1     -31.726   6.525  79.570  1.00  0.00     0.293 HD
ENDBRANCH  43  46
ENDBRANCH  28  38
BRANCH  34  48
ATOM     48  O   UNL     1     -42.488   3.348  81.294  1.00  0.00    -0.507 OA
ATOM     49  H   UNL     1     -43.123   4.056  81.631  1.00  0.00     0.293 HD
ENDBRANCH  34  48
BRANCH  37  50
ATOM     50  O   UNL     1     -42.394   2.506  76.583  1.00  0.00    -0.508 OA
ATOM     51  H   UNL     1     -42.701   1.545  76.494  1.00  0.00     0.293 HD
ENDBRANCH  37  50
ENDBRANCH  26  27
ENDBRANCH   5  26
BRANCH   4  52
ATOM     52  O   UNL     1     -35.736   8.492  82.904  1.00  0.00    -0.384 OA
ATOM     53  H   UNL     1     -34.843   8.174  83.196  1.00  0.00     0.211 HD
ENDBRANCH   4  52
TORSDOF 16
ENDMDL
MODEL 5
REMARK VINA RESULT:    -6.133      2.327      7.729
REMARK INTER + INTRA:         -12.859
REMARK INTER:                 -11.620
REMARK INTRA:                  -1.238
REMARK UNBOUND:                -2.782
REMARK SMILES C[C@H]1O[C@H](OC[C@H]2O[C@H](Oc3c(-c4ccc(O)c(O)c4)oc4cc(O)cc(O)c4c3=O)[C@@H](O)[C@@H](O)[C@H]2O)[C@@H](O)[C@@H](O)[C@@H]1O
REMARK SMILES IDX 7 1 36 2 34 3 32 4 9 5 8 6 6 7 5 8 4 9 1 10 2 11 42 12 3 13
REMARK SMILES IDX 40 14 38 15 43 16 41 18 39 20 37 22 35 24 10 26 11 27 12 28
REMARK SMILES IDX 30 29 21 30 29 31 31 32 22 33 27 34 23 35 26 36 24 37 13 38
REMARK SMILES IDX 20 39 14 40 18 41 15 42 16 43 19 44 17 46 28 48 25 50 33 52
REMARK H PARENT 43 17 41 19 39 21 37 23 35 25 19 45 17 47 28 49 25 51 33 53
REMARK Flexibility Score: inf
ROOT
ATOM      1  C   UNL     1     -37.820   8.026  78.944  1.00  0.00     0.180 C 
ATOM      2  C   UNL     1     -37.781   9.195  77.934  1.00  0.00     0.177 C 
ATOM      3  C   UNL     1     -37.970   8.631  76.512  1.00  0.00     0.180 C 
ATOM      4  C   UNL     1     -39.222   7.743  76.442  1.00  0.00     0.214 C 
ATOM      5  C   UNL     1     -39.220   6.711  77.590  1.00  0.00     0.339 C 
ATOM      6  O   UNL     1     -39.054   7.328  78.857  1.00  0.00    -0.332 OA
ENDROOT
BRANCH   1   7
ATOM      7  C   UNL     1     -37.638   8.513  80.388  1.00  0.00     0.198 C 
BRANCH   7   8
ATOM      8  O   UNL     1     -37.507   7.409  81.260  1.00  0.00    -0.347 OA
BRANCH   8   9
ATOM      9  C   UNL     1     -37.103   7.835  82.551  1.00  0.00     0.281 C 
ATOM     10  C   UNL     1     -39.236   5.696  84.643  1.00  0.00     0.041 C 
ATOM     11  C   UNL     1     -37.973   6.115  83.893  1.00  0.00     0.150 C 
ATOM     12  C   UNL     1     -36.709   5.921  84.778  1.00  0.00     0.174 C 
ATOM     13  O   UNL     1     -38.093   7.473  83.508  1.00  0.00    -0.344 OA
ATOM     14  C   UNL     1     -35.569   6.892  84.362  1.00  0.00     0.179 C 
ATOM     15  C   UNL     1     -35.697   7.239  82.865  1.00  0.00     0.202 C 
BRANCH  12  16
ATOM     16  O   UNL     1     -36.274   4.584  84.729  1.00  0.00    -0.388 OA
ATOM     17  H   UNL     1     -36.519   4.217  83.840  1.00  0.00     0.211 HD
ENDBRANCH  12  16
BRANCH  14  18
ATOM     18  O   UNL     1     -35.643   8.071  85.125  1.00  0.00    -0.387 OA
ATOM     19  H   UNL     1     -36.301   8.663  84.676  1.00  0.00     0.211 HD
ENDBRANCH  14  18
BRANCH  15  20
ATOM     20  O   UNL     1     -34.665   8.095  82.440  1.00  0.00    -0.385 OA
ATOM     21  H   UNL     1     -33.842   7.858  82.941  1.00  0.00     0.211 HD
ENDBRANCH  15  20
ENDBRANCH   8   9
ENDBRANCH   7   8
ENDBRANCH   1   7
BRANCH   2  22
ATOM     22  O   UNL     1     -38.790  10.125  78.239  1.00  0.00    -0.387 OA
ATOM     23  H   UNL     1     -38.457  11.017  77.958  1.00  0.00     0.211 HD
ENDBRANCH   2  22
BRANCH   3  24
ATOM     24  O   UNL     1     -38.071   9.670  75.572  1.00  0.00    -0.387 OA
ATOM     25  H   UNL     1     -38.091  10.518  76.088  1.00  0.00     0.211 HD
ENDBRANCH   3  24
BRANCH   5  26
ATOM     26  O   UNL     1     -38.222   5.713  77.367  1.00  0.00    -0.454 OA
BRANCH  26  27
ATOM     27  C   UNL     1     -37.483   5.166  78.422  1.00  0.00     0.214 A 
ATOM     28  C   UNL     1     -38.100   4.309  79.349  1.00  0.00     0.180 A 
ATOM     29  C   UNL     1     -36.134   5.503  78.595  1.00  0.00     0.239 A 
ATOM     30  O   UNL     1     -37.421   3.892  80.411  1.00  0.00    -0.452 OA
ATOM     31  C   UNL     1     -35.417   4.987  79.701  1.00  0.00     0.111 A 
ATOM     32  O   UNL     1     -35.599   6.292  77.775  1.00  0.00    -0.285 OA
ATOM     33  C   UNL     1     -36.148   4.200  80.631  1.00  0.00     0.146 A 
ATOM     34  C   UNL     1     -34.038   5.243  79.962  1.00  0.00     0.134 A 
ATOM     35  C   UNL     1     -35.541   3.739  81.802  1.00  0.00     0.094 A 
ATOM     36  C   UNL     1     -33.468   4.800  81.162  1.00  0.00     0.093 A 
ATOM     37  C   UNL     1     -34.208   4.052  82.078  1.00  0.00     0.123 A 
BRANCH  28  38
ATOM     38  C   UNL     1     -39.510   3.879  79.204  1.00  0.00     0.025 A 
ATOM     39  C   UNL     1     -40.432   4.022  80.257  1.00  0.00     0.062 A 
ATOM     40  C   UNL     1     -39.952   3.357  77.981  1.00  0.00     0.016 A 
ATOM     41  C   UNL     1     -41.762   3.612  80.110  1.00  0.00     0.158 A 
ATOM     42  C   UNL     1     -41.278   2.952  77.823  1.00  0.00     0.051 A 
ATOM     43  C   UNL     1     -42.192   3.069  78.876  1.00  0.00     0.157 A 
BRANCH  41  44
ATOM     44  O   UNL     1     -42.616   3.766  81.204  1.00  0.00    -0.504 OA
ATOM     45  H   UNL     1     -43.126   3.007  81.634  1.00  0.00     0.293 HD
ENDBRANCH  41  44
BRANCH  43  46
ATOM     46  O   UNL     1     -43.504   2.645  78.654  1.00  0.00    -0.504 OA
ATOM     47  H   UNL     1     -44.313   3.062  79.090  1.00  0.00     0.293 HD
ENDBRANCH  43  46
ENDBRANCH  28  38
BRANCH  34  48
ATOM     48  O   UNL     1     -33.185   5.898  79.069  1.00  0.00    -0.507 OA
ATOM     49  H   UNL     1     -33.469   6.629  78.436  1.00  0.00     0.293 HD
ENDBRANCH  34  48
BRANCH  37  50
ATOM     50  O   UNL     1     -33.607   3.618  83.256  1.00  0.00    -0.508 OA
ATOM     51  H   UNL     1     -33.139   2.721  83.314  1.00  0.00     0.293 HD
ENDBRANCH  37  50
ENDBRANCH  26  27
ENDBRANCH   5  26
BRANCH   4  52
ATOM     52  O   UNL     1     -40.378   8.541  76.520  1.00  0.00    -0.384 OA
ATOM     53  H   UNL     1     -40.674   8.525  77.467  1.00  0.00     0.211 HD
ENDBRANCH   4  52
TORSDOF 16
ENDMDL
MODEL 6
REMARK VINA RESULT:    -5.990      2.162      6.336
REMARK INTER + INTRA:         -12.624
REMARK INTER:                 -10.902
REMARK INTRA:                  -1.722
REMARK UNBOUND:                -2.782
REMARK SMILES C[C@H]1O[C@H](OC[C@H]2O[C@H](Oc3c(-c4ccc(O)c(O)c4)oc4cc(O)cc(O)c4c3=O)[C@@H](O)[C@@H](O)[C@H]2O)[C@@H](O)[C@@H](O)[C@@H]1O
REMARK SMILES IDX 7 1 36 2 34 3 32 4 9 5 8 6 6 7 5 8 4 9 1 10 2 11 42 12 3 13
REMARK SMILES IDX 40 14 38 15 43 16 41 18 39 20 37 22 35 24 10 26 11 27 12 28
REMARK SMILES IDX 30 29 21 30 29 31 31 32 22 33 27 34 23 35 26 36 24 37 13 38
REMARK SMILES IDX 20 39 14 40 18 41 15 42 16 43 19 44 17 46 28 48 25 50 33 52
REMARK H PARENT 43 17 41 19 39 21 37 23 35 25 19 45 17 47 28 49 25 51 33 53
REMARK Flexibility Score: inf
ROOT
ATOM      1  C   UNL     1     -39.046   5.089  81.934  1.00  0.00     0.180 C 
ATOM      2  C   UNL     1     -40.150   4.161  82.487  1.00  0.00     0.177 C 
ATOM      3  C   UNL     1     -39.633   2.709  82.476  1.00  0.00     0.180 C 
ATOM      4  C   UNL     1     -38.275   2.611  83.187  1.00  0.00     0.214 C 
ATOM      5  C   UNL     1     -37.304   3.685  82.652  1.00  0.00     0.339 C 
ATOM      6  O   UNL     1     -37.865   4.987  82.717  1.00  0.00    -0.332 OA
ENDROOT
BRANCH   1   7
ATOM      7  C   UNL     1     -39.490   6.558  81.916  1.00  0.00     0.198 C 
BRANCH   7   8
ATOM      8  O   UNL     1     -38.606   7.324  81.123  1.00  0.00    -0.347 OA
BRANCH   8   9
ATOM      9  C   UNL     1     -39.309   8.343  80.432  1.00  0.00     0.281 C 
ATOM     10  C   UNL     1     -36.501  10.125  78.869  1.00  0.00     0.041 C 
ATOM     11  C   UNL     1     -37.650   9.123  78.963  1.00  0.00     0.150 C 
ATOM     12  C   UNL     1     -38.548   9.186  77.695  1.00  0.00     0.174 C 
ATOM     13  O   UNL     1     -38.419   9.410  80.118  1.00  0.00    -0.344 OA
ATOM     14  C   UNL     1     -40.001   8.727  78.004  1.00  0.00     0.179 C 
ATOM     15  C   UNL     1     -39.995   7.725  79.175  1.00  0.00     0.202 C 
BRANCH  12  16
ATOM     16  O   UNL     1     -37.989   8.419  76.657  1.00  0.00    -0.388 OA
ATOM     17  H   UNL     1     -37.046   8.707  76.540  1.00  0.00     0.211 HD
ENDBRANCH  12  16
BRANCH  14  18
ATOM     18  O   UNL     1     -40.792   9.840  78.341  1.00  0.00    -0.387 OA
ATOM     19  H   UNL     1     -40.959   9.787  79.317  1.00  0.00     0.211 HD
ENDBRANCH  14  18
BRANCH  15  20
ATOM     20  O   UNL     1     -41.290   7.262  79.469  1.00  0.00    -0.385 OA
ATOM     21  H   UNL     1     -41.625   7.763  80.259  1.00  0.00     0.211 HD
ENDBRANCH  15  20
ENDBRANCH   8   9
ENDBRANCH   7   8
ENDBRANCH   1   7
BRANCH   2  22
ATOM     22  O   UNL     1     -40.498   4.555  83.791  1.00  0.00    -0.387 OA
ATOM     23  H   UNL     1     -40.159   3.854  84.407  1.00  0.00     0.211 HD
ENDBRANCH   2  22
BRANCH   3  24
ATOM     24  O   UNL     1     -40.555   1.846  83.091  1.00  0.00    -0.387 OA
ATOM     25  H   UNL     1     -41.244   1.633  82.408  1.00  0.00     0.211 HD
ENDBRANCH   3  24
BRANCH   5  26
ATOM     26  O   UNL     1     -36.886   3.369  81.322  1.00  0.00    -0.454 OA
BRANCH  26  27
ATOM     27  C   UNL     1     -36.437   4.357  80.440  1.00  0.00     0.214 A 
ATOM     28  C   UNL     1     -37.086   4.557  79.210  1.00  0.00     0.180 A 
ATOM     29  C   UNL     1     -35.307   5.127  80.750  1.00  0.00     0.239 A 
ATOM     30  O   UNL     1     -36.580   5.414  78.332  1.00  0.00    -0.452 OA
ATOM     31  C   UNL     1     -34.831   6.082  79.820  1.00  0.00     0.111 A 
ATOM     32  O   UNL     1     -34.717   4.921  81.841  1.00  0.00    -0.285 OA
ATOM     33  C   UNL     1     -35.501   6.152  78.569  1.00  0.00     0.146 A 
ATOM     34  C   UNL     1     -33.708   6.935  80.039  1.00  0.00     0.134 A 
ATOM     35  C   UNL     1     -35.031   6.993  77.558  1.00  0.00     0.094 A 
ATOM     36  C   UNL     1     -33.239   7.740  78.994  1.00  0.00     0.093 A 
ATOM     37  C   UNL     1     -33.892   7.775  77.762  1.00  0.00     0.123 A 
BRANCH  28  38
ATOM     38  C   UNL     1     -38.309   3.808  78.837  1.00  0.00     0.025 A 
ATOM     39  C   UNL     1     -39.583   4.396  78.923  1.00  0.00     0.062 A 
ATOM     40  C   UNL     1     -38.196   2.499  78.349  1.00  0.00     0.016 A 
ATOM     41  C   UNL     1     -40.732   3.680  78.568  1.00  0.00     0.158 A 
ATOM     42  C   UNL     1     -39.336   1.779  77.987  1.00  0.00     0.051 A 
ATOM     43  C   UNL     1     -40.608   2.352  78.095  1.00  0.00     0.157 A 
BRANCH  41  44
ATOM     44  O   UNL     1     -41.966   4.321  78.698  1.00  0.00    -0.504 OA
ATOM     45  H   UNL     1     -42.763   3.924  79.176  1.00  0.00     0.293 HD
ENDBRANCH  41  44
BRANCH  43  46
ATOM     46  O   UNL     1     -41.708   1.579  77.717  1.00  0.00    -0.504 OA
ATOM     47  H   UNL     1     -42.070   0.809  78.260  1.00  0.00     0.293 HD
ENDBRANCH  43  46
ENDBRANCH  28  38
BRANCH  34  48
ATOM     48  O   UNL     1     -33.043   7.047  81.263  1.00  0.00    -0.507 OA
ATOM     49  H   UNL     1     -33.497   7.062  82.163  1.00  0.00     0.293 HD
ENDBRANCH  34  48
BRANCH  37  50
ATOM     50  O   UNL     1     -33.404   8.596  76.748  1.00  0.00    -0.508 OA
ATOM     51  H   UNL     1     -33.528   8.361  75.770  1.00  0.00     0.293 HD
ENDBRANCH  37  50
ENDBRANCH  26  27
ENDBRANCH   5  26
BRANCH   4  52
ATOM     52  O   UNL     1     -38.449   2.774  84.573  1.00  0.00    -0.384 OA
ATOM     53  H   UNL     1     -37.571   3.054  84.942  1.00  0.00     0.211 HD
ENDBRANCH   4  52
TORSDOF 16
ENDMDL
MODEL 7
REMARK VINA RESULT:    -5.967      2.427      6.739
REMARK INTER + INTRA:         -12.587
REMARK INTER:                 -10.834
REMARK INTRA:                  -1.753
REMARK UNBOUND:                -2.782
REMARK SMILES C[C@H]1O[C@H](OC[C@H]2O[C@H](Oc3c(-c4ccc(O)c(O)c4)oc4cc(O)cc(O)c4c3=O)[C@@H](O)[C@@H](O)[C@H]2O)[C@@H](O)[C@@H](O)[C@@H]1O
REMARK SMILES IDX 7 1 36 2 34 3 32 4 9 5 8 6 6 7 5 8 4 9 1 10 2 11 42 12 3 13
REMARK SMILES IDX 40 14 38 15 43 16 41 18 39 20 37 22 35 24 10 26 11 27 12 28
REMARK SMILES IDX 30 29 21 30 29 31 31 32 22 33 27 34 23 35 26 36 24 37 13 38
REMARK SMILES IDX 20 39 14 40 18 41 15 42 16 43 19 44 17 46 28 48 25 50 33 52
REMARK H PARENT 43 17 41 19 39 21 37 23 35 25 19 45 17 47 28 49 25 51 33 53
REMARK Flexibility Score: inf
ROOT
ATOM      1  C   UNL     1     -39.412   4.297  83.026  1.00  0.00     0.180 C 
ATOM      2  C   UNL     1     -40.288   3.235  83.728  1.00  0.00     0.177 C 
ATOM      3  C   UNL     1     -39.910   1.842  83.190  1.00  0.00     0.180 C 
ATOM      4  C   UNL     1     -38.394   1.614  83.290  1.00  0.00     0.214 C 
ATOM      5  C   UNL     1     -37.625   2.809  82.688  1.00  0.00     0.339 C 
ATOM      6  O   UNL     1     -38.033   4.043  83.257  1.00  0.00    -0.332 OA
ENDROOT
BRANCH   1   7
ATOM      7  C   UNL     1     -39.732   5.716  83.514  1.00  0.00     0.198 C 
BRANCH   7   8
ATOM      8  O   UNL     1     -38.972   6.662  82.791  1.00  0.00    -0.347 OA
BRANCH   8   9
ATOM      9  C   UNL     1     -38.421   7.635  83.663  1.00  0.00     0.281 C 
ATOM     10  C   UNL     1     -35.129   6.139  84.313  1.00  0.00     0.041 C 
ATOM     11  C   UNL     1     -36.148   7.046  83.626  1.00  0.00     0.150 C 
ATOM     12  C   UNL     1     -35.591   8.489  83.467  1.00  0.00     0.174 C 
ATOM     13  O   UNL     1     -37.339   7.066  84.393  1.00  0.00    -0.344 OA
ATOM     14  C   UNL     1     -36.737   9.538  83.409  1.00  0.00     0.179 C 
ATOM     15  C   UNL     1     -38.011   8.889  82.833  1.00  0.00     0.202 C 
BRANCH  12  16
ATOM     16  O   UNL     1     -34.771   8.577  82.327  1.00  0.00    -0.388 OA
ATOM     17  H   UNL     1     -34.132   9.323  82.470  1.00  0.00     0.211 HD
ENDBRANCH  12  16
BRANCH  14  18
ATOM     18  O   UNL     1     -37.002  10.027  84.700  1.00  0.00    -0.387 OA
ATOM     19  H   UNL     1     -36.527  10.895  84.782  1.00  0.00     0.211 HD
ENDBRANCH  14  18
BRANCH  15  20
ATOM     20  O   UNL     1     -39.067   9.814  82.736  1.00  0.00    -0.385 OA
ATOM     21  H   UNL     1     -39.056  10.200  81.822  1.00  0.00     0.211 HD
ENDBRANCH  15  20
ENDBRANCH   8   9
ENDBRANCH   7   8
ENDBRANCH   1   7
BRANCH   2  22
ATOM     22  O   UNL     1     -40.096   3.301  85.119  1.00  0.00    -0.387 OA
ATOM     23  H   UNL     1     -40.322   2.406  85.486  1.00  0.00     0.211 HD
ENDBRANCH   2  22
BRANCH   3  24
ATOM     24  O   UNL     1     -40.590   0.833  83.893  1.00  0.00    -0.387 OA
ATOM     25  H   UNL     1     -40.943   1.253  84.721  1.00  0.00     0.211 HD
ENDBRANCH   3  24
BRANCH   5  26
ATOM     26  O   UNL     1     -37.757   2.827  81.265  1.00  0.00    -0.454 OA
BRANCH  26  27
ATOM     27  C   UNL     1     -37.273   3.892  80.497  1.00  0.00     0.214 A 
ATOM     28  C   UNL     1     -38.039   4.406  79.437  1.00  0.00     0.180 A 
ATOM     29  C   UNL     1     -36.002   4.428  80.745  1.00  0.00     0.239 A 
ATOM     30  O   UNL     1     -37.520   5.334  78.642  1.00  0.00    -0.452 OA
ATOM     31  C   UNL     1     -35.504   5.465  79.920  1.00  0.00     0.111 A 
ATOM     32  O   UNL     1     -35.314   3.942  81.679  1.00  0.00    -0.285 OA
ATOM     33  C   UNL     1     -36.314   5.859  78.822  1.00  0.00     0.146 A 
ATOM     34  C   UNL     1     -34.238   6.100  80.095  1.00  0.00     0.134 A 
ATOM     35  C   UNL     1     -35.851   6.802  77.901  1.00  0.00     0.094 A 
ATOM     36  C   UNL     1     -33.786   7.014  79.135  1.00  0.00     0.093 A 
ATOM     37  C   UNL     1     -34.582   7.368  78.046  1.00  0.00     0.123 A 
BRANCH  28  38
ATOM     38  C   UNL     1     -39.406   3.915  79.145  1.00  0.00     0.025 A 
ATOM     39  C   UNL     1     -40.417   3.940  80.122  1.00  0.00     0.062 A 
ATOM     40  C   UNL     1     -39.715   3.452  77.859  1.00  0.00     0.016 A 
ATOM     41  C   UNL     1     -41.706   3.473  79.837  1.00  0.00     0.158 A 
ATOM     42  C   UNL     1     -40.999   2.991  77.564  1.00  0.00     0.051 A 
ATOM     43  C   UNL     1     -42.002   2.991  78.541  1.00  0.00     0.157 A 
BRANCH  41  44
ATOM     44  O   UNL     1     -42.653   3.511  80.862  1.00  0.00    -0.504 OA
ATOM     45  H   UNL     1     -42.920   4.352  81.356  1.00  0.00     0.293 HD
ENDBRANCH  41  44
BRANCH  43  46
ATOM     46  O   UNL     1     -43.265   2.516  78.181  1.00  0.00    -0.504 OA
ATOM     47  H   UNL     1     -44.109   3.068  78.226  1.00  0.00     0.293 HD
ENDBRANCH  43  46
ENDBRANCH  28  38
BRANCH  34  48
ATOM     48  O   UNL     1     -33.406   5.889  81.198  1.00  0.00    -0.507 OA
ATOM     49  H   UNL     1     -32.988   6.622  81.750  1.00  0.00     0.293 HD
ENDBRANCH  34  48
BRANCH  37  50
ATOM     50  O   UNL     1     -34.106   8.289  77.116  1.00  0.00    -0.508 OA
ATOM     51  H   UNL     1     -34.391   9.261  77.138  1.00  0.00     0.293 HD
ENDBRANCH  37  50
ENDBRANCH  26  27
ENDBRANCH   5  26
BRANCH   4  52
ATOM     52  O   UNL     1     -38.026   1.439  84.636  1.00  0.00    -0.384 OA
ATOM     53  H   UNL     1     -37.387   2.166  84.856  1.00  0.00     0.211 HD
ENDBRANCH   4  52
TORSDOF 16
ENDMDL
