MODEL 1
REMARK VINA RESULT:     4.018      0.000      0.000
REMARK INTER + INTRA:           7.181
REMARK INTER:                   7.541
REMARK INTRA:                  -0.360
REMARK UNBOUND:                -0.360
REMARK SMILES O=C([O-])CCCCCCCCCCCCCCC(=O)[O-]
REMARK SMILES IDX 10 1 9 2 8 3 7 4 6 5 5 6 4 7 2 8 1 9 3 10 11 11 12 12 13 13
REMARK SMILES IDX 14 14 15 15 16 16 17 17 18 18 19 19 20 20
REMARK H PARENT
REMARK Flexibility Score: inf
ROOT
ATOM      1  C   UNL     1     -20.327   4.578 -20.014  1.00  0.00     0.000 C 
ENDROOT
BRANCH   1   2
ATOM      2  C   UNL     1     -20.627   6.083 -20.124  1.00  0.00     0.000 C 
BRANCH   2   3
ATOM      3  C   UNL     1     -21.547   6.591 -19.002  1.00  0.00     0.000 C 
BRANCH   3   4
ATOM      4  C   UNL     1     -22.159   7.971 -19.308  1.00  0.00     0.000 C 
BRANCH   4   5
ATOM      5  C   UNL     1     -23.284   8.421 -18.353  1.00  0.00     0.000 C 
BRANCH   5   6
ATOM      6  C   UNL     1     -23.080   9.805 -17.710  1.00  0.00     0.006 C 
BRANCH   6   7
ATOM      7  C   UNL     1     -23.337   9.801 -16.198  1.00  0.00     0.053 C 
BRANCH   7   8
ATOM      8  C   UNL     1     -22.044   9.706 -15.450  1.00  0.00     0.041 C 
ATOM      9  O   UNL     1     -20.991  10.187 -15.943  1.00  0.00    -0.550 OA
ATOM     10  O   UNL     1     -22.013   9.130 -14.187  1.00  0.00    -0.550 OA
ENDBRANCH   7   8
ENDBRANCH   6   7
ENDBRANCH   5   6
ENDBRANCH   4   5
ENDBRANCH   3   4
ENDBRANCH   2   3
ENDBRANCH   1   2
BRANCH   1  11
ATOM     11  C   UNL     1     -20.833   3.940 -18.703  1.00  0.00     0.000 C 
BRANCH  11  12
ATOM     12  C   UNL     1     -19.825   2.929 -18.126  1.00  0.00     0.000 C 
BRANCH  12  13
ATOM     13  C   UNL     1     -18.512   2.876 -18.922  1.00  0.00     0.000 C 
BRANCH  13  14
ATOM     14  C   UNL     1     -17.547   4.014 -18.546  1.00  0.00     0.000 C 
BRANCH  14  15
ATOM     15  C   UNL     1     -16.614   4.400 -19.706  1.00  0.00     0.000 C 
BRANCH  15  16
ATOM     16  C   UNL     1     -15.679   3.252 -20.124  1.00  0.00     0.006 C 
BRANCH  16  17
ATOM     17  C   UNL     1     -14.243   3.464 -19.624  1.00  0.00     0.053 C 
BRANCH  17  18
ATOM     18  C   UNL     1     -14.168   4.554 -18.600  1.00  0.00     0.041 C 
ATOM     19  O   UNL     1     -14.330   4.290 -17.380  1.00  0.00    -0.550 OA
ATOM     20  O   UNL     1     -13.882   5.857 -18.989  1.00  0.00    -0.550 OA
ENDBRANCH  17  18
ENDBRANCH  16  17
ENDBRANCH  15  16
ENDBRANCH  14  15
ENDBRANCH  13  14
ENDBRANCH  12  13
ENDBRANCH  11  12
ENDBRANCH   1  11
TORSDOF 15
ENDMDL
