MODEL 1
REMARK VINA RESULT:    -6.024      0.000      0.000
REMARK INTER + INTRA:          -9.758
REMARK INTER:                  -9.017
REMARK INTRA:                  -0.741
REMARK UNBOUND:                -0.741
REMARK SMILES COC(=O)C1=CO[C@H](O[C@@H]2O[C@@H](CO)[C@H](O)[C@H](O)[C@@H]2O)[C@@H]2C(CO)=CC[C@@H]12
REMARK SMILES IDX 9 1 8 2 5 3 6 4 27 5 7 6 21 7 26 8 22 9 25 10 3 11 4 12 2 13
REMARK SMILES IDX 1 14 23 15 24 16 10 18 19 19 11 20 17 21 12 22 15 23 20 24
REMARK SMILES IDX 18 26 13 28 14 29 16 31
REMARK H PARENT 24 17 20 25 18 27 14 30 16 32
REMARK Flexibility Score: inf
ROOT
ATOM      1  O   UNL     1      52.984  10.851  90.534  1.00  0.00    -0.310 OA
ENDROOT
BRANCH   1   2
ATOM      2  C   UNL     1      54.146  11.123  89.768  1.00  0.00     0.316 C 
ATOM      3  C   UNL     1      52.991  12.277  87.335  1.00  0.00     0.076 C 
ATOM      4  C   UNL     1      53.434  10.996  87.354  1.00  0.00     0.202 C 
ATOM      5  C   UNL     1      52.999  13.008  88.653  1.00  0.00     0.047 C 
ATOM      6  O   UNL     1      54.031  10.429  88.511  1.00  0.00    -0.471 OA
ATOM      7  C   UNL     1      54.243  12.621  89.443  1.00  0.00     0.094 C 
ATOM      8  C   UNL     1      52.979  14.533  88.738  1.00  0.00     0.037 C 
ATOM      9  C   UNL     1      54.263  13.663  90.515  1.00  0.00    -0.039 C 
ATOM     10  C   UNL     1      53.611  14.749  90.086  1.00  0.00    -0.024 C 
BRANCH   3  11
ATOM     11  C   UNL     1      52.337  12.832  86.133  1.00  0.00     0.337 C 
ATOM     12  O   UNL     1      51.116  12.595  85.916  1.00  0.00    -0.246 OA
BRANCH  11  13
ATOM     13  O   UNL     1      53.075  13.609  85.230  1.00  0.00    -0.466 OA
ATOM     14  C   UNL     1      52.978  15.027  85.179  1.00  0.00     0.282 C 
ENDBRANCH  11  13
ENDBRANCH   3  11
BRANCH   9  15
ATOM     15  C   UNL     1      55.187  13.664  91.701  1.00  0.00     0.187 C 
BRANCH  15  16
ATOM     16  O   UNL     1      54.442  13.653  92.887  1.00  0.00    -0.392 OA
ATOM     17  H   UNL     1      55.066  13.874  93.627  1.00  0.00     0.211 HD
ENDBRANCH  15  16
ENDBRANCH   9  15
ENDBRANCH   1   2
BRANCH   1  18
ATOM     18  C   UNL     1      53.273  10.582  91.896  1.00  0.00     0.286 C 
ATOM     19  C   UNL     1      51.986  10.115  92.643  1.00  0.00     0.202 C 
ATOM     20  O   UNL     1      54.342   9.656  92.039  1.00  0.00    -0.341 OA
ATOM     21  C   UNL     1      52.215   8.798  93.429  1.00  0.00     0.179 C 
ATOM     22  C   UNL     1      53.964   8.360  91.607  1.00  0.00     0.178 C 
ATOM     23  C   UNL     1      52.938   7.723  92.583  1.00  0.00     0.177 C 
BRANCH  19  24
ATOM     24  O   UNL     1      50.884  10.004  91.772  1.00  0.00    -0.385 OA
ATOM     25  H   UNL     1      50.941  10.744  91.112  1.00  0.00     0.211 HD
ENDBRANCH  19  24
BRANCH  21  26
ATOM     26  O   UNL     1      50.996   8.293  93.915  1.00  0.00    -0.387 OA
ATOM     27  H   UNL     1      51.211   7.748  94.717  1.00  0.00     0.211 HD
ENDBRANCH  21  26
BRANCH  22  28
ATOM     28  C   UNL     1      55.229   7.501  91.481  1.00  0.00     0.191 C 
BRANCH  28  29
ATOM     29  O   UNL     1      55.785   7.276  92.750  1.00  0.00    -0.394 OA
ATOM     30  H   UNL     1      55.236   6.570  93.177  1.00  0.00     0.210 HD
ENDBRANCH  28  29
ENDBRANCH  22  28
BRANCH  23  31
ATOM     31  O   UNL     1      52.017   6.963  91.837  1.00  0.00    -0.387 OA
ATOM     32  H   UNL     1      52.187   7.157  90.878  1.00  0.00     0.211 HD
ENDBRANCH  23  31
ENDBRANCH   1  18
TORSDOF 11
ENDMDL
MODEL 2
REMARK VINA RESULT:    -5.941      1.889      7.008
REMARK INTER + INTRA:          -9.634
REMARK INTER:                  -9.044
REMARK INTRA:                  -0.590
REMARK UNBOUND:                -0.741
REMARK SMILES COC(=O)C1=CO[C@H](O[C@@H]2O[C@@H](CO)[C@H](O)[C@H](O)[C@@H]2O)[C@@H]2C(CO)=CC[C@@H]12
REMARK SMILES IDX 9 1 8 2 5 3 6 4 27 5 7 6 21 7 26 8 22 9 25 10 3 11 4 12 2 13
REMARK SMILES IDX 1 14 23 15 24 16 10 18 19 19 11 20 17 21 12 22 15 23 20 24
REMARK SMILES IDX 18 26 13 28 14 29 16 31
REMARK H PARENT 24 17 20 25 18 27 14 30 16 32
REMARK Flexibility Score: inf
ROOT
ATOM      1  O   UNL     1      53.236  11.070  89.485  1.00  0.00    -0.310 OA
ENDROOT
BRANCH   1   2
ATOM      2  C   UNL     1      54.259  11.064  90.467  1.00  0.00     0.316 C 
ATOM      3  C   UNL     1      52.716  10.648  92.923  1.00  0.00     0.076 C 
ATOM      4  C   UNL     1      53.184  11.877  92.596  1.00  0.00     0.202 C 
ATOM      5  C   UNL     1      52.911   9.562  91.896  1.00  0.00     0.047 C 
ATOM      6  O   UNL     1      53.966  12.094  91.430  1.00  0.00    -0.471 OA
ATOM      7  C   UNL     1      54.271   9.730  91.229  1.00  0.00     0.094 C 
ATOM      8  C   UNL     1      52.871   8.080  92.262  1.00  0.00     0.037 C 
ATOM      9  C   UNL     1      54.434   8.420  90.528  1.00  0.00    -0.039 C 
ATOM     10  C   UNL     1      53.699   7.492  91.151  1.00  0.00    -0.024 C 
BRANCH   3  11
ATOM     11  C   UNL     1      51.871  10.455  94.119  1.00  0.00     0.337 C 
ATOM     12  O   UNL     1      51.910  11.299  95.058  1.00  0.00    -0.246 OA
BRANCH  11  13
ATOM     13  O   UNL     1      51.041   9.331  94.216  1.00  0.00    -0.466 OA
ATOM     14  C   UNL     1      51.017   8.490  95.362  1.00  0.00     0.282 C 
ENDBRANCH  11  13
ENDBRANCH   3  11
BRANCH   9  15
ATOM     15  C   UNL     1      55.530   8.093  89.552  1.00  0.00     0.187 C 
BRANCH  15  16
ATOM     16  O   UNL     1      55.078   8.290  88.242  1.00  0.00    -0.392 OA
ATOM     17  H   UNL     1      55.656   7.745  87.647  1.00  0.00     0.211 HD
ENDBRANCH  15  16
ENDBRANCH   9  15
ENDBRANCH   1   2
BRANCH   1  18
ATOM     18  C   UNL     1      53.681  11.558  88.229  1.00  0.00     0.286 C 
ATOM     19  C   UNL     1      52.552  11.422  87.162  1.00  0.00     0.202 C 
ATOM     20  O   UNL     1      54.175  12.887  88.321  1.00  0.00    -0.341 OA
ATOM     21  C   UNL     1      52.305  12.751  86.404  1.00  0.00     0.179 C 
ATOM     22  C   UNL     1      53.132  13.808  88.587  1.00  0.00     0.178 C 
ATOM     23  C   UNL     1      52.197  13.964  87.357  1.00  0.00     0.177 C 
BRANCH  19  24
ATOM     24  O   UNL     1      51.358  10.924  87.721  1.00  0.00    -0.385 OA
ATOM     25  H   UNL     1      51.498   9.965  87.936  1.00  0.00     0.211 HD
ENDBRANCH  19  24
BRANCH  21  26
ATOM     26  O   UNL     1      51.152  12.658  85.604  1.00  0.00    -0.387 OA
ATOM     27  H   UNL     1      51.198  13.404  84.949  1.00  0.00     0.211 HD
ENDBRANCH  21  26
BRANCH  22  28
ATOM     28  C   UNL     1      53.758  15.150  88.992  1.00  0.00     0.191 C 
BRANCH  28  29
ATOM     29  O   UNL     1      53.978  15.939  87.853  1.00  0.00    -0.394 OA
ATOM     30  H   UNL     1      53.191  16.536  87.767  1.00  0.00     0.210 HD
ENDBRANCH  28  29
ENDBRANCH  22  28
BRANCH  23  31
ATOM     31  O   UNL     1      50.876  14.133  87.813  1.00  0.00    -0.387 OA
ATOM     32  H   UNL     1      50.508  13.226  87.985  1.00  0.00     0.211 HD
ENDBRANCH  23  31
ENDBRANCH   1  18
TORSDOF 11
ENDMDL
MODEL 3
REMARK VINA RESULT:    -5.877      1.728      2.338
REMARK INTER + INTRA:          -9.538
REMARK INTER:                  -8.302
REMARK INTRA:                  -1.236
REMARK UNBOUND:                -0.741
REMARK SMILES COC(=O)C1=CO[C@H](O[C@@H]2O[C@@H](CO)[C@H](O)[C@H](O)[C@@H]2O)[C@@H]2C(CO)=CC[C@@H]12
REMARK SMILES IDX 9 1 8 2 5 3 6 4 27 5 7 6 21 7 26 8 22 9 25 10 3 11 4 12 2 13
REMARK SMILES IDX 1 14 23 15 24 16 10 18 19 19 11 20 17 21 12 22 15 23 20 24
REMARK SMILES IDX 18 26 13 28 14 29 16 31
REMARK H PARENT 24 17 20 25 18 27 14 30 16 32
REMARK Flexibility Score: inf
ROOT
ATOM      1  O   UNL     1      53.180   9.900  90.294  1.00  0.00    -0.310 OA
ENDROOT
BRANCH   1   2
ATOM      2  C   UNL     1      54.107  10.843  89.784  1.00  0.00     0.316 C 
ATOM      3  C   UNL     1      52.577  12.045  87.593  1.00  0.00     0.076 C 
ATOM      4  C   UNL     1      53.540  11.125  87.344  1.00  0.00     0.202 C 
ATOM      5  C   UNL     1      52.252  12.300  89.042  1.00  0.00     0.047 C 
ATOM      6  O   UNL     1      54.319  10.557  88.388  1.00  0.00    -0.471 OA
ATOM      7  C   UNL     1      53.534  12.266  89.866  1.00  0.00     0.094 C 
ATOM      8  C   UNL     1      51.561  13.580  89.509  1.00  0.00     0.037 C 
ATOM      9  C   UNL     1      53.085  12.864  91.160  1.00  0.00    -0.039 C 
ATOM     10  C   UNL     1      52.023  13.646  90.939  1.00  0.00    -0.024 C 
BRANCH   3  11
ATOM     11  C   UNL     1      51.753  12.592  86.496  1.00  0.00     0.337 C 
ATOM     12  O   UNL     1      50.875  11.867  85.949  1.00  0.00    -0.246 OA
BRANCH  11  13
ATOM     13  O   UNL     1      51.955  13.906  86.057  1.00  0.00    -0.466 OA
ATOM     14  C   UNL     1      52.834  14.232  84.987  1.00  0.00     0.282 C 
ENDBRANCH  11  13
ENDBRANCH   3  11
BRANCH   9  15
ATOM     15  C   UNL     1      53.906  12.915  92.419  1.00  0.00     0.187 C 
BRANCH  15  16
ATOM     16  O   UNL     1      53.286  12.163  93.424  1.00  0.00    -0.392 OA
ATOM     17  H   UNL     1      53.926  12.098  94.180  1.00  0.00     0.211 HD
ENDBRANCH  15  16
ENDBRANCH   9  15
ENDBRANCH   1   2
BRANCH   1  18
ATOM     18  C   UNL     1      53.742   8.606  90.453  1.00  0.00     0.286 C 
ATOM     19  C   UNL     1      53.894   8.262  91.966  1.00  0.00     0.202 C 
ATOM     20  O   UNL     1      53.004   7.617  89.750  1.00  0.00    -0.341 OA
ATOM     21  C   UNL     1      53.277   6.883  92.315  1.00  0.00     0.179 C 
ATOM     22  C   UNL     1      51.732   7.406  90.338  1.00  0.00     0.178 C 
ATOM     23  C   UNL     1      51.863   6.701  91.715  1.00  0.00     0.177 C 
BRANCH  19  24
ATOM     24  O   UNL     1      53.372   9.279  92.792  1.00  0.00    -0.385 OA
ATOM     25  H   UNL     1      53.615  10.153  92.390  1.00  0.00     0.211 HD
ENDBRANCH  19  24
BRANCH  21  26
ATOM     26  O   UNL     1      53.241   6.695  93.708  1.00  0.00    -0.387 OA
ATOM     27  H   UNL     1      53.567   7.538  94.119  1.00  0.00     0.211 HD
ENDBRANCH  21  26
BRANCH  22  28
ATOM     28  C   UNL     1      50.875   6.585  89.364  1.00  0.00     0.191 C 
BRANCH  28  29
ATOM     29  O   UNL     1      51.516   6.495  88.119  1.00  0.00    -0.394 OA
ATOM     30  H   UNL     1      52.033   5.649  88.129  1.00  0.00     0.210 HD
ENDBRANCH  28  29
ENDBRANCH  22  28
BRANCH  23  31
ATOM     31  O   UNL     1      50.877   7.213  92.580  1.00  0.00    -0.387 OA
ATOM     32  H   UNL     1      50.415   6.435  92.990  1.00  0.00     0.211 HD
ENDBRANCH  23  31
ENDBRANCH   1  18
TORSDOF 11
ENDMDL
MODEL 4
REMARK VINA RESULT:    -5.829      2.406      4.629
REMARK INTER + INTRA:          -9.466
REMARK INTER:                  -8.541
REMARK INTRA:                  -0.926
REMARK UNBOUND:                -0.741
REMARK SMILES COC(=O)C1=CO[C@H](O[C@@H]2O[C@@H](CO)[C@H](O)[C@H](O)[C@@H]2O)[C@@H]2C(CO)=CC[C@@H]12
REMARK SMILES IDX 9 1 8 2 5 3 6 4 27 5 7 6 21 7 26 8 22 9 25 10 3 11 4 12 2 13
REMARK SMILES IDX 1 14 23 15 24 16 10 18 19 19 11 20 17 21 12 22 15 23 20 24
REMARK SMILES IDX 18 26 13 28 14 29 16 31
REMARK H PARENT 24 17 20 25 18 27 14 30 16 32
REMARK Flexibility Score: inf
ROOT
ATOM      1  O   UNL     1      52.270  12.128  89.370  1.00  0.00    -0.310 OA
ENDROOT
BRANCH   1   2
ATOM      2  C   UNL     1      51.090  12.822  88.998  1.00  0.00     0.316 C 
ATOM      3  C   UNL     1      52.096  15.552  88.657  1.00  0.00     0.076 C 
ATOM      4  C   UNL     1      51.409  15.199  89.770  1.00  0.00     0.202 C 
ATOM      5  C   UNL     1      52.426  14.442  87.693  1.00  0.00     0.047 C 
ATOM      6  O   UNL     1      50.880  13.892  89.939  1.00  0.00    -0.471 OA
ATOM      7  C   UNL     1      51.254  13.469  87.615  1.00  0.00     0.094 C 
ATOM      8  C   UNL     1      52.767  14.709  86.228  1.00  0.00     0.037 C 
ATOM      9  C   UNL     1      51.600  12.666  86.403  1.00  0.00    -0.039 C 
ATOM     10  C   UNL     1      52.392  13.392  85.605  1.00  0.00    -0.024 C 
BRANCH   3  11
ATOM     11  C   UNL     1      52.671  16.906  88.521  1.00  0.00     0.337 C 
ATOM     12  O   UNL     1      53.925  17.059  88.526  1.00  0.00    -0.246 OA
BRANCH  11  13
ATOM     13  O   UNL     1      51.826  18.016  88.399  1.00  0.00    -0.466 OA
ATOM     14  C   UNL     1      51.726  19.018  89.403  1.00  0.00     0.282 C 
ENDBRANCH  11  13
ENDBRANCH   3  11
BRANCH   9  15
ATOM     15  C   UNL     1      50.875  11.430  85.950  1.00  0.00     0.187 C 
BRANCH  15  16
ATOM     16  O   UNL     1      51.736  10.327  85.997  1.00  0.00    -0.392 OA
ATOM     17  H   UNL     1      52.267  10.332  85.160  1.00  0.00     0.211 HD
ENDBRANCH  15  16
ENDBRANCH   9  15
ENDBRANCH   1   2
BRANCH   1  18
ATOM     18  C   UNL     1      52.097  10.719  89.389  1.00  0.00     0.286 C 
ATOM     19  C   UNL     1      53.203  10.025  88.537  1.00  0.00     0.202 C 
ATOM     20  O   UNL     1      52.042  10.209  90.714  1.00  0.00    -0.341 OA
ATOM     21  C   UNL     1      53.912   8.890  89.319  1.00  0.00     0.179 C 
ATOM     22  C   UNL     1      53.298  10.312  91.360  1.00  0.00     0.178 C 
ATOM     23  C   UNL     1      54.325   9.323  90.745  1.00  0.00     0.177 C 
BRANCH  19  24
ATOM     24  O   UNL     1      54.133  10.953  88.027  1.00  0.00    -0.385 OA
ATOM     25  H   UNL     1      53.633  11.760  87.737  1.00  0.00     0.211 HD
ENDBRANCH  19  24
BRANCH  21  26
ATOM     26  O   UNL     1      55.035   8.426  88.609  1.00  0.00    -0.387 OA
ATOM     27  H   UNL     1      55.422   9.213  88.142  1.00  0.00     0.211 HD
ENDBRANCH  21  26
BRANCH  22  28
ATOM     28  C   UNL     1      53.098  10.055  92.860  1.00  0.00     0.191 C 
BRANCH  28  29
ATOM     29  O   UNL     1      53.092   8.675  93.113  1.00  0.00    -0.394 OA
ATOM     30  H   UNL     1      54.035   8.374  93.062  1.00  0.00     0.210 HD
ENDBRANCH  28  29
ENDBRANCH  22  28
BRANCH  23  31
ATOM     31  O   UNL     1      55.594   9.933  90.741  1.00  0.00    -0.387 OA
ATOM     32  H   UNL     1      55.634  10.529  91.534  1.00  0.00     0.211 HD
ENDBRANCH  23  31
ENDBRANCH   1  18
TORSDOF 11
ENDMDL
MODEL 5
REMARK VINA RESULT:    -5.656      2.047      6.717
REMARK INTER + INTRA:          -9.207
REMARK INTER:                  -8.387
REMARK INTRA:                  -0.820
REMARK UNBOUND:                -0.741
REMARK SMILES COC(=O)C1=CO[C@H](O[C@@H]2O[C@@H](CO)[C@H](O)[C@H](O)[C@@H]2O)[C@@H]2C(CO)=CC[C@@H]12
REMARK SMILES IDX 9 1 8 2 5 3 6 4 27 5 7 6 21 7 26 8 22 9 25 10 3 11 4 12 2 13
REMARK SMILES IDX 1 14 23 15 24 16 10 18 19 19 11 20 17 21 12 22 15 23 20 24
REMARK SMILES IDX 18 26 13 28 14 29 16 31
REMARK H PARENT 24 17 20 25 18 27 14 30 16 32
REMARK Flexibility Score: inf
ROOT
ATOM      1  O   UNL     1      52.368  12.700  89.343  1.00  0.00    -0.310 OA
ENDROOT
BRANCH   1   2
ATOM      2  C   UNL     1      52.129  12.342  90.694  1.00  0.00     0.316 C 
ATOM      3  C   UNL     1      52.291   9.420  90.566  1.00  0.00     0.076 C 
ATOM      4  C   UNL     1      51.091  10.047  90.631  1.00  0.00     0.202 C 
ATOM      5  C   UNL     1      53.502  10.304  90.422  1.00  0.00     0.047 C 
ATOM      6  O   UNL     1      50.991  11.460  90.732  1.00  0.00    -0.471 OA
ATOM      7  C   UNL     1      53.320  11.560  91.268  1.00  0.00     0.094 C 
ATOM      8  C   UNL     1      54.907   9.828  90.787  1.00  0.00     0.037 C 
ATOM      9  C   UNL     1      54.704  12.125  91.282  1.00  0.00    -0.039 C 
ATOM     10  C   UNL     1      55.584  11.139  91.077  1.00  0.00    -0.024 C 
BRANCH   3  11
ATOM     11  C   UNL     1      52.369   7.952  90.422  1.00  0.00     0.337 C 
ATOM     12  O   UNL     1      52.545   7.442  89.279  1.00  0.00    -0.246 OA
BRANCH  11  13
ATOM     13  O   UNL     1      52.235   7.130  91.547  1.00  0.00    -0.466 OA
ATOM     14  C   UNL     1      53.156   7.154  92.631  1.00  0.00     0.282 C 
ENDBRANCH  11  13
ENDBRANCH   3  11
BRANCH   9  15
ATOM     15  C   UNL     1      55.080  13.473  91.829  1.00  0.00     0.187 C 
BRANCH  15  16
ATOM     16  O   UNL     1      54.538  13.638  93.109  1.00  0.00    -0.392 OA
ATOM     17  H   UNL     1      54.905  14.483  93.478  1.00  0.00     0.211 HD
ENDBRANCH  15  16
ENDBRANCH   9  15
ENDBRANCH   1   2
BRANCH   1  18
ATOM     18  C   UNL     1      51.404  13.610  88.836  1.00  0.00     0.286 C 
ATOM     19  C   UNL     1      51.760  15.069  89.256  1.00  0.00     0.202 C 
ATOM     20  O   UNL     1      51.242  13.481  87.430  1.00  0.00    -0.341 OA
ATOM     21  C   UNL     1      51.764  16.038  88.046  1.00  0.00     0.179 C 
ATOM     22  C   UNL     1      52.392  13.928  86.734  1.00  0.00     0.178 C 
ATOM     23  C   UNL     1      52.543  15.470  86.837  1.00  0.00     0.177 C 
BRANCH  19  24
ATOM     24  O   UNL     1      52.977  15.130  89.964  1.00  0.00    -0.385 OA
ATOM     25  H   UNL     1      52.926  15.894  90.595  1.00  0.00     0.211 HD
ENDBRANCH  19  24
BRANCH  21  26
ATOM     26  O   UNL     1      52.288  17.289  88.416  1.00  0.00    -0.387 OA
ATOM     27  H   UNL     1      51.888  17.518  89.296  1.00  0.00     0.211 HD
ENDBRANCH  21  26
BRANCH  22  28
ATOM     28  C   UNL     1      52.286  13.469  85.273  1.00  0.00     0.191 C 
BRANCH  28  29
ATOM     29  O   UNL     1      52.309  14.581  84.418  1.00  0.00    -0.394 OA
ATOM     30  H   UNL     1      51.547  15.157  84.684  1.00  0.00     0.210 HD
ENDBRANCH  28  29
ENDBRANCH  22  28
BRANCH  23  31
ATOM     31  O   UNL     1      53.913  15.785  86.925  1.00  0.00    -0.387 OA
ATOM     32  H   UNL     1      54.340  15.466  86.087  1.00  0.00     0.211 HD
ENDBRANCH  23  31
ENDBRANCH   1  18
TORSDOF 11
ENDMDL
MODEL 6
REMARK VINA RESULT:    -5.449      2.926      5.196
REMARK INTER + INTRA:          -8.898
REMARK INTER:                  -7.817
REMARK INTRA:                  -1.081
REMARK UNBOUND:                -0.741
REMARK SMILES COC(=O)C1=CO[C@H](O[C@@H]2O[C@@H](CO)[C@H](O)[C@H](O)[C@@H]2O)[C@@H]2C(CO)=CC[C@@H]12
REMARK SMILES IDX 9 1 8 2 5 3 6 4 27 5 7 6 21 7 26 8 22 9 25 10 3 11 4 12 2 13
REMARK SMILES IDX 1 14 23 15 24 16 10 18 19 19 11 20 17 21 12 22 15 23 20 24
REMARK SMILES IDX 18 26 13 28 14 29 16 31
REMARK H PARENT 24 17 20 25 18 27 14 30 16 32
REMARK Flexibility Score: inf
ROOT
ATOM      1  O   UNL     1      52.644  13.526  89.598  1.00  0.00    -0.310 OA
ENDROOT
BRANCH   1   2
ATOM      2  C   UNL     1      51.359  13.970  89.195  1.00  0.00     0.316 C 
ATOM      3  C   UNL     1      51.755  16.870  89.059  1.00  0.00     0.076 C 
ATOM      4  C   UNL     1      51.113  16.305  90.110  1.00  0.00     0.202 C 
ATOM      5  C   UNL     1      52.365  15.923  88.059  1.00  0.00     0.047 C 
ATOM      6  O   UNL     1      50.877  14.906  90.177  1.00  0.00    -0.471 OA
ATOM      7  C   UNL     1      51.441  14.727  87.860  1.00  0.00     0.094 C 
ATOM      8  C   UNL     1      52.706  16.352  86.633  1.00  0.00     0.037 C 
ATOM      9  C   UNL     1      52.010  14.099  86.629  1.00  0.00    -0.039 C 
ATOM     10  C   UNL     1      52.658  15.029  85.919  1.00  0.00    -0.024 C 
BRANCH   3  11
ATOM     11  C   UNL     1      52.024  18.323  89.030  1.00  0.00     0.337 C 
ATOM     12  O   UNL     1      53.177  18.742  88.728  1.00  0.00    -0.246 OA
BRANCH  11  13
ATOM     13  O   UNL     1      51.007  19.229  89.350  1.00  0.00    -0.466 OA
ATOM     14  C   UNL     1      51.041  20.042  90.516  1.00  0.00     0.282 C 
ENDBRANCH  11  13
ENDBRANCH   3  11
BRANCH   9  15
ATOM     15  C   UNL     1      51.595  12.767  86.069  1.00  0.00     0.187 C 
BRANCH  15  16
ATOM     16  O   UNL     1      52.560  11.799  86.373  1.00  0.00    -0.392 OA
ATOM     17  H   UNL     1      53.392  12.281  86.618  1.00  0.00     0.211 HD
ENDBRANCH  15  16
ENDBRANCH   9  15
ENDBRANCH   1   2
BRANCH   1  18
ATOM     18  C   UNL     1      52.628  12.862  90.852  1.00  0.00     0.286 C 
ATOM     19  C   UNL     1      52.824  11.327  90.656  1.00  0.00     0.202 C 
ATOM     20  O   UNL     1      53.576  13.413  91.756  1.00  0.00    -0.341 OA
ATOM     21  C   UNL     1      53.949  10.764  91.562  1.00  0.00     0.179 C 
ATOM     22  C   UNL     1      54.903  13.133  91.346  1.00  0.00     0.178 C 
ATOM     23  C   UNL     1      55.233  11.625  91.512  1.00  0.00     0.177 C 
BRANCH  19  24
ATOM     24  O   UNL     1      53.041  10.993  89.304  1.00  0.00    -0.385 OA
ATOM     25  H   UNL     1      52.188  11.129  88.815  1.00  0.00     0.211 HD
ENDBRANCH  19  24
BRANCH  21  26
ATOM     26  O   UNL     1      54.244   9.434  91.216  1.00  0.00    -0.387 OA
ATOM     27  H   UNL     1      54.847   9.470  90.428  1.00  0.00     0.211 HD
ENDBRANCH  21  26
BRANCH  22  28
ATOM     28  C   UNL     1      55.861  14.012  92.162  1.00  0.00     0.191 C 
BRANCH  28  29
ATOM     29  O   UNL     1      55.439  14.067  93.500  1.00  0.00    -0.394 OA
ATOM     30  H   UNL     1      56.260  14.143  94.051  1.00  0.00     0.210 HD
ENDBRANCH  28  29
ENDBRANCH  22  28
BRANCH  23  31
ATOM     31  O   UNL     1      56.069  11.226  90.451  1.00  0.00    -0.387 OA
ATOM     32  H   UNL     1      57.006  11.347  90.756  1.00  0.00     0.211 HD
ENDBRANCH  23  31
ENDBRANCH   1  18
TORSDOF 11
ENDMDL
MODEL 7
REMARK VINA RESULT:    -5.424      2.376      3.197
REMARK INTER + INTRA:          -8.861
REMARK INTER:                  -9.209
REMARK INTRA:                   0.348
REMARK UNBOUND:                -0.741
REMARK SMILES COC(=O)C1=CO[C@H](O[C@@H]2O[C@@H](CO)[C@H](O)[C@H](O)[C@@H]2O)[C@@H]2C(CO)=CC[C@@H]12
REMARK SMILES IDX 9 1 8 2 5 3 6 4 27 5 7 6 21 7 26 8 22 9 25 10 3 11 4 12 2 13
REMARK SMILES IDX 1 14 23 15 24 16 10 18 19 19 11 20 17 21 12 22 15 23 20 24
REMARK SMILES IDX 18 26 13 28 14 29 16 31
REMARK H PARENT 24 17 20 25 18 27 14 30 16 32
REMARK Flexibility Score: inf
ROOT
ATOM      1  O   UNL     1      51.639  12.204  88.342  1.00  0.00    -0.310 OA
ENDROOT
BRANCH   1   2
ATOM      2  C   UNL     1      53.007  12.481  88.091  1.00  0.00     0.316 C 
ATOM      3  C   UNL     1      52.835  14.207  85.729  1.00  0.00     0.076 C 
ATOM      4  C   UNL     1      53.188  12.904  85.613  1.00  0.00     0.202 C 
ATOM      5  C   UNL     1      52.408  14.666  87.100  1.00  0.00     0.047 C 
ATOM      6  O   UNL     1      53.314  12.059  86.748  1.00  0.00    -0.471 OA
ATOM      7  C   UNL     1      53.276  13.993  88.156  1.00  0.00     0.094 C 
ATOM      8  C   UNL     1      52.424  16.137  87.507  1.00  0.00     0.037 C 
ATOM      9  C   UNL     1      52.960  14.799  89.374  1.00  0.00    -0.039 C 
ATOM     10  C   UNL     1      52.548  16.016  89.002  1.00  0.00    -0.024 C 
BRANCH   3  11
ATOM     11  C   UNL     1      52.671  15.055  84.531  1.00  0.00     0.337 C 
ATOM     12  O   UNL     1      52.229  16.233  84.651  1.00  0.00    -0.246 OA
BRANCH  11  13
ATOM     13  O   UNL     1      52.994  14.550  83.266  1.00  0.00    -0.466 OA
ATOM     14  C   UNL     1      54.221  14.843  82.611  1.00  0.00     0.282 C 
ENDBRANCH  11  13
ENDBRANCH   3  11
BRANCH   9  15
ATOM     15  C   UNL     1      53.406  14.465  90.770  1.00  0.00     0.187 C 
BRANCH  15  16
ATOM     16  O   UNL     1      52.319  13.999  91.520  1.00  0.00    -0.392 OA
ATOM     17  H   UNL     1      51.538  14.568  91.292  1.00  0.00     0.211 HD
ENDBRANCH  15  16
ENDBRANCH   9  15
ENDBRANCH   1   2
BRANCH   1  18
ATOM     18  C   UNL     1      51.453  11.223  89.350  1.00  0.00     0.286 C 
ATOM     19  C   UNL     1      51.249   9.817  88.707  1.00  0.00     0.202 C 
ATOM     20  O   UNL     1      52.510  11.230  90.300  1.00  0.00    -0.341 OA
ATOM     21  C   UNL     1      52.192   8.752  89.325  1.00  0.00     0.179 C 
ATOM     22  C   UNL     1      53.721  10.769  89.728  1.00  0.00     0.178 C 
ATOM     23  C   UNL     1      53.653   9.247  89.429  1.00  0.00     0.177 C 
BRANCH  19  24
ATOM     24  O   UNL     1      51.374   9.857  87.304  1.00  0.00    -0.385 OA
ATOM     25  H   UNL     1      51.218   8.940  86.957  1.00  0.00     0.211 HD
ENDBRANCH  19  24
BRANCH  21  26
ATOM     26  O   UNL     1      52.135   7.555  88.590  1.00  0.00    -0.387 OA
ATOM     27  H   UNL     1      51.572   6.925  89.113  1.00  0.00     0.211 HD
ENDBRANCH  21  26
BRANCH  22  28
ATOM     28  C   UNL     1      54.871  11.103  90.688  1.00  0.00     0.191 C 
BRANCH  28  29
ATOM     29  O   UNL     1      55.702   9.984  90.849  1.00  0.00    -0.394 OA
ATOM     30  H   UNL     1      55.519   9.384  90.081  1.00  0.00     0.210 HD
ENDBRANCH  28  29
ENDBRANCH  22  28
BRANCH  23  31
ATOM     31  O   UNL     1      54.359   8.989  88.238  1.00  0.00    -0.387 OA
ATOM     32  H   UNL     1      54.373   8.003  88.114  1.00  0.00     0.211 HD
ENDBRANCH  23  31
ENDBRANCH   1  18
TORSDOF 11
ENDMDL
MODEL 8
REMARK VINA RESULT:    -4.978      2.227      6.876
REMARK INTER + INTRA:          -8.192
REMARK INTER:                  -7.699
REMARK INTRA:                  -0.492
REMARK UNBOUND:                -0.741
REMARK SMILES COC(=O)C1=CO[C@H](O[C@@H]2O[C@@H](CO)[C@H](O)[C@H](O)[C@@H]2O)[C@@H]2C(CO)=CC[C@@H]12
REMARK SMILES IDX 9 1 8 2 5 3 6 4 27 5 7 6 21 7 26 8 22 9 25 10 3 11 4 12 2 13
REMARK SMILES IDX 1 14 23 15 24 16 10 18 19 19 11 20 17 21 12 22 15 23 20 24
REMARK SMILES IDX 18 26 13 28 14 29 16 31
REMARK H PARENT 24 17 20 25 18 27 14 30 16 32
REMARK Flexibility Score: inf
ROOT
ATOM      1  O   UNL     1      52.351  13.284  89.979  1.00  0.00    -0.310 OA
ENDROOT
BRANCH   1   2
ATOM      2  C   UNL     1      52.356  12.830  91.323  1.00  0.00     0.316 C 
ATOM      3  C   UNL     1      52.267   9.924  90.963  1.00  0.00     0.076 C 
ATOM      4  C   UNL     1      51.155  10.615  91.313  1.00  0.00     0.202 C 
ATOM      5  C   UNL     1      53.490  10.742  90.639  1.00  0.00     0.047 C 
ATOM      6  O   UNL     1      51.184  12.019  91.529  1.00  0.00    -0.471 OA
ATOM      7  C   UNL     1      53.574  11.932  91.588  1.00  0.00     0.094 C 
ATOM      8  C   UNL     1      54.898  10.152  90.679  1.00  0.00     0.037 C 
ATOM      9  C   UNL     1      54.972  12.409  91.361  1.00  0.00    -0.039 C 
ATOM     10  C   UNL     1      55.718  11.392  90.916  1.00  0.00    -0.024 C 
BRANCH   3  11
ATOM     11  C   UNL     1      52.204   8.471  90.705  1.00  0.00     0.337 C 
ATOM     12  O   UNL     1      51.602   8.040  89.681  1.00  0.00    -0.246 OA
BRANCH  11  13
ATOM     13  O   UNL     1      52.798   7.574  91.601  1.00  0.00    -0.466 OA
ATOM     14  C   UNL     1      52.733   7.742  93.012  1.00  0.00     0.282 C 
ENDBRANCH  11  13
ENDBRANCH   3  11
BRANCH   9  15
ATOM     15  C   UNL     1      55.550  13.682  91.913  1.00  0.00     0.187 C 
BRANCH  15  16
ATOM     16  O   UNL     1      55.084  13.893  93.216  1.00  0.00    -0.392 OA
ATOM     17  H   UNL     1      55.684  13.391  93.828  1.00  0.00     0.211 HD
ENDBRANCH  15  16
ENDBRANCH   9  15
ENDBRANCH   1   2
BRANCH   1  18
ATOM     18  C   UNL     1      53.267  14.344  89.753  1.00  0.00     0.286 C 
ATOM     19  C   UNL     1      54.005  14.143  88.393  1.00  0.00     0.202 C 
ATOM     20  O   UNL     1      52.639  15.615  89.840  1.00  0.00    -0.341 OA
ATOM     21  C   UNL     1      53.944  15.414  87.506  1.00  0.00     0.179 C 
ATOM     22  C   UNL     1      51.747  15.826  88.760  1.00  0.00     0.178 C 
ATOM     23  C   UNL     1      52.519  16.010  87.425  1.00  0.00     0.177 C 
BRANCH  19  24
ATOM     24  O   UNL     1      53.530  13.012  87.699  1.00  0.00    -0.385 OA
ATOM     25  H   UNL     1      53.652  13.177  86.728  1.00  0.00     0.211 HD
ENDBRANCH  19  24
BRANCH  21  26
ATOM     26  O   UNL     1      54.429  15.139  86.215  1.00  0.00    -0.387 OA
ATOM     27  H   UNL     1      54.494  16.010  85.743  1.00  0.00     0.211 HD
ENDBRANCH  21  26
BRANCH  22  28
ATOM     28  C   UNL     1      50.876  17.048  89.078  1.00  0.00     0.191 C 
BRANCH  28  29
ATOM     29  O   UNL     1      51.137  18.077  88.160  1.00  0.00    -0.394 OA
ATOM     30  H   UNL     1      50.544  17.917  87.381  1.00  0.00     0.210 HD
ENDBRANCH  28  29
ENDBRANCH  22  28
BRANCH  23  31
ATOM     31  O   UNL     1      51.779  15.411  86.388  1.00  0.00    -0.387 OA
ATOM     32  H   UNL     1      51.151  14.769  86.811  1.00  0.00     0.211 HD
ENDBRANCH  23  31
ENDBRANCH   1  18
TORSDOF 11
ENDMDL
MODEL 9
REMARK VINA RESULT:    -4.796      2.692      4.871
REMARK INTER + INTRA:          -7.920
REMARK INTER:                  -7.657
REMARK INTRA:                  -0.263
REMARK UNBOUND:                -0.741
REMARK SMILES COC(=O)C1=CO[C@H](O[C@@H]2O[C@@H](CO)[C@H](O)[C@H](O)[C@@H]2O)[C@@H]2C(CO)=CC[C@@H]12
REMARK SMILES IDX 9 1 8 2 5 3 6 4 27 5 7 6 21 7 26 8 22 9 25 10 3 11 4 12 2 13
REMARK SMILES IDX 1 14 23 15 24 16 10 18 19 19 11 20 17 21 12 22 15 23 20 24
REMARK SMILES IDX 18 26 13 28 14 29 16 31
REMARK H PARENT 24 17 20 25 18 27 14 30 16 32
REMARK Flexibility Score: inf
ROOT
ATOM      1  O   UNL     1      53.222  13.061  89.455  1.00  0.00    -0.310 OA
ENDROOT
BRANCH   1   2
ATOM      2  C   UNL     1      51.900  13.198  88.958  1.00  0.00     0.316 C 
ATOM      3  C   UNL     1      51.423  16.063  89.341  1.00  0.00     0.076 C 
ATOM      4  C   UNL     1      50.893  15.151  90.192  1.00  0.00     0.202 C 
ATOM      5  C   UNL     1      52.368  15.533  88.294  1.00  0.00     0.047 C 
ATOM      6  O   UNL     1      51.081  13.756  90.003  1.00  0.00    -0.471 OA
ATOM      7  C   UNL     1      51.863  14.189  87.784  1.00  0.00     0.094 C 
ATOM      8  C   UNL     1      52.682  16.306  87.014  1.00  0.00     0.037 C 
ATOM      9  C   UNL     1      52.693  13.992  86.557  1.00  0.00    -0.039 C 
ATOM     10  C   UNL     1      53.091  15.184  86.099  1.00  0.00    -0.024 C 
BRANCH   3  11
ATOM     11  C   UNL     1      51.247  17.510  89.580  1.00  0.00     0.337 C 
ATOM     12  O   UNL     1      50.886  18.264  88.632  1.00  0.00    -0.246 OA
BRANCH  11  13
ATOM     13  O   UNL     1      51.494  18.045  90.850  1.00  0.00    -0.466 OA
ATOM     14  C   UNL     1      51.617  19.442  91.085  1.00  0.00     0.282 C 
ENDBRANCH  11  13
ENDBRANCH   3  11
BRANCH   9  15
ATOM     15  C   UNL     1      52.743  12.731  85.741  1.00  0.00     0.187 C 
BRANCH  15  16
ATOM     16  O   UNL     1      51.607  11.952  85.995  1.00  0.00    -0.392 OA
ATOM     17  H   UNL     1      51.810  11.029  85.693  1.00  0.00     0.211 HD
ENDBRANCH  15  16
ENDBRANCH   9  15
ENDBRANCH   1   2
BRANCH   1  18
ATOM     18  C   UNL     1      53.844  11.856  89.038  1.00  0.00     0.286 C 
ATOM     19  C   UNL     1      54.688  11.250  90.200  1.00  0.00     0.202 C 
ATOM     20  O   UNL     1      52.904  10.926  88.517  1.00  0.00    -0.341 OA
ATOM     21  C   UNL     1      54.355   9.755  90.444  1.00  0.00     0.179 C 
ATOM     22  C   UNL     1      52.054  10.425  89.534  1.00  0.00     0.178 C 
ATOM     23  C   UNL     1      52.832   9.492  90.502  1.00  0.00     0.177 C 
BRANCH  19  24
ATOM     24  O   UNL     1      54.565  12.001  91.386  1.00  0.00    -0.385 OA
ATOM     25  H   UNL     1      53.608  12.003  91.648  1.00  0.00     0.211 HD
ENDBRANCH  19  24
BRANCH  21  26
ATOM     26  O   UNL     1      54.971   9.297  91.622  1.00  0.00    -0.387 OA
ATOM     27  H   UNL     1      55.726   9.915  91.809  1.00  0.00     0.211 HD
ENDBRANCH  21  26
BRANCH  22  28
ATOM     28  C   UNL     1      50.879   9.694  88.872  1.00  0.00     0.191 C 
BRANCH  28  29
ATOM     29  O   UNL     1      51.161   9.460  87.518  1.00  0.00    -0.394 OA
ATOM     30  H   UNL     1      51.702  10.230  87.205  1.00  0.00     0.210 HD
ENDBRANCH  28  29
ENDBRANCH  22  28
BRANCH  23  31
ATOM     31  O   UNL     1      52.335   9.679  91.806  1.00  0.00    -0.387 OA
ATOM     32  H   UNL     1      51.986   8.802  92.115  1.00  0.00     0.211 HD
ENDBRANCH  23  31
ENDBRANCH   1  18
TORSDOF 11
ENDMDL
