MODEL 1
REMARK VINA RESULT:    -3.273      0.000      0.000
REMARK INTER + INTRA:          -4.183
REMARK INTER:                  -4.039
REMARK INTRA:                  -0.144
REMARK UNBOUND:                -0.144
REMARK SMILES CCCCCC(=O)[O-]
REMARK SMILES IDX 4 1 5 2 6 3 7 4 8 5 3 6 2 7 1 8
REMARK H PARENT
REMARK Flexibility Score: inf
ROOT
ATOM      1  C   UNL     1      36.578  23.587 221.023  1.00  0.00     0.006 C 
ENDROOT
BRANCH   1   2
ATOM      2  C   UNL     1      36.283  23.521 222.527  1.00  0.00     0.053 C 
BRANCH   2   3
ATOM      3  C   UNL     1      36.081  24.885 223.112  1.00  0.00     0.041 C 
ATOM      4  O   UNL     1      36.930  25.793 222.917  1.00  0.00    -0.550 OA
ATOM      5  O   UNL     1      34.935  25.162 223.850  1.00  0.00    -0.550 OA
ENDBRANCH   2   3
ENDBRANCH   1   2
BRANCH   1   6
ATOM      6  C   UNL     1      35.356  24.038 220.209  1.00  0.00     0.000 C 
BRANCH   6   7
ATOM      7  C   UNL     1      35.671  24.052 218.710  1.00  0.00    -0.003 C 
ATOM      8  C   UNL     1      36.958  23.289 218.409  1.00  0.00     0.004 C 
ENDBRANCH   6   7
ENDBRANCH   1   6
TORSDOF 4
ENDMDL
MODEL 2
REMARK VINA RESULT:    -3.229      2.987      4.041
REMARK INTER + INTRA:          -4.128
REMARK INTER:                  -3.969
REMARK INTRA:                  -0.158
REMARK UNBOUND:                -0.144
REMARK SMILES CCCCCC(=O)[O-]
REMARK SMILES IDX 4 1 5 2 6 3 7 4 8 5 3 6 2 7 1 8
REMARK H PARENT
REMARK Flexibility Score: inf
ROOT
ATOM      1  C   UNL     1      36.267  23.075 221.453  1.00  0.00     0.006 C 
ENDROOT
BRANCH   1   2
ATOM      2  C   UNL     1      35.954  24.356 220.667  1.00  0.00     0.053 C 
BRANCH   2   3
ATOM      3  C   UNL     1      35.700  24.069 219.219  1.00  0.00     0.041 C 
ATOM      4  O   UNL     1      34.531  24.131 218.755  1.00  0.00    -0.550 OA
ATOM      5  O   UNL     1      36.760  23.761 218.375  1.00  0.00    -0.550 OA
ENDBRANCH   2   3
ENDBRANCH   1   2
BRANCH   1   6
ATOM      6  C   UNL     1      37.587  23.179 222.232  1.00  0.00     0.000 C 
BRANCH   6   7
ATOM      7  C   UNL     1      38.773  23.362 221.279  1.00  0.00    -0.003 C 
ATOM      8  C   UNL     1      39.944  24.042 221.981  1.00  0.00     0.004 C 
ENDBRANCH   6   7
ENDBRANCH   1   6
TORSDOF 4
ENDMDL
MODEL 3
REMARK VINA RESULT:    -3.204      1.716      1.848
REMARK INTER + INTRA:          -4.097
REMARK INTER:                  -3.943
REMARK INTRA:                  -0.154
REMARK UNBOUND:                -0.144
REMARK SMILES CCCCCC(=O)[O-]
REMARK SMILES IDX 4 1 5 2 6 3 7 4 8 5 3 6 2 7 1 8
REMARK H PARENT
REMARK Flexibility Score: inf
ROOT
ATOM      1  C   UNL     1      35.250  23.706 221.614  1.00  0.00     0.006 C 
ENDROOT
BRANCH   1   2
ATOM      2  C   UNL     1      36.087  22.513 222.097  1.00  0.00     0.053 C 
BRANCH   2   3
ATOM      3  C   UNL     1      37.150  22.938 223.063  1.00  0.00     0.041 C 
ATOM      4  O   UNL     1      38.350  22.606 222.873  1.00  0.00    -0.550 OA
ATOM      5  O   UNL     1      36.820  23.728 224.157  1.00  0.00    -0.550 OA
ENDBRANCH   2   3
ENDBRANCH   1   2
BRANCH   1   6
ATOM      6  C   UNL     1      35.983  24.540 220.554  1.00  0.00     0.000 C 
BRANCH   6   7
ATOM      7  C   UNL     1      35.520  24.162 219.143  1.00  0.00    -0.003 C 
ATOM      8  C   UNL     1      36.651  23.519 218.345  1.00  0.00     0.004 C 
ENDBRANCH   6   7
ENDBRANCH   1   6
TORSDOF 4
ENDMDL
MODEL 4
REMARK VINA RESULT:    -3.194      1.822      2.279
REMARK INTER + INTRA:          -4.085
REMARK INTER:                  -3.876
REMARK INTRA:                  -0.209
REMARK UNBOUND:                -0.144
REMARK SMILES CCCCCC(=O)[O-]
REMARK SMILES IDX 4 1 5 2 6 3 7 4 8 5 3 6 2 7 1 8
REMARK H PARENT
REMARK Flexibility Score: inf
ROOT
ATOM      1  C   UNL     1      35.947  23.165 221.451  1.00  0.00     0.006 C 
ENDROOT
BRANCH   1   2
ATOM      2  C   UNL     1      36.985  23.331 222.568  1.00  0.00     0.053 C 
BRANCH   2   3
ATOM      3  C   UNL     1      38.281  23.869 222.045  1.00  0.00     0.041 C 
ATOM      4  O   UNL     1      38.767  24.929 222.520  1.00  0.00    -0.550 OA
ATOM      5  O   UNL     1      38.969  23.182 221.051  1.00  0.00    -0.550 OA
ENDBRANCH   2   3
ENDBRANCH   1   2
BRANCH   1   6
ATOM      6  C   UNL     1      35.803  24.433 220.597  1.00  0.00     0.000 C 
BRANCH   6   7
ATOM      7  C   UNL     1      35.429  24.082 219.153  1.00  0.00    -0.003 C 
ATOM      8  C   UNL     1      36.635  23.550 218.384  1.00  0.00     0.004 C 
ENDBRANCH   6   7
ENDBRANCH   1   6
TORSDOF 4
ENDMDL
MODEL 5
REMARK VINA RESULT:    -3.069      2.686      4.147
REMARK INTER + INTRA:          -3.931
REMARK INTER:                  -3.764
REMARK INTRA:                  -0.167
REMARK UNBOUND:                -0.144
REMARK SMILES CCCCCC(=O)[O-]
REMARK SMILES IDX 4 1 5 2 6 3 7 4 8 5 3 6 2 7 1 8
REMARK H PARENT
REMARK Flexibility Score: inf
ROOT
ATOM      1  C   UNL     1      35.333  23.615 221.387  1.00  0.00     0.006 C 
ENDROOT
BRANCH   1   2
ATOM      2  C   UNL     1      35.620  24.384 220.090  1.00  0.00     0.053 C 
BRANCH   2   3
ATOM      3  C   UNL     1      36.552  23.629 219.193  1.00  0.00     0.041 C 
ATOM      4  O   UNL     1      37.648  23.196 219.635  1.00  0.00    -0.550 OA
ATOM      5  O   UNL     1      36.195  23.377 217.873  1.00  0.00    -0.550 OA
ENDBRANCH   2   3
ENDBRANCH   1   2
BRANCH   1   6
ATOM      6  C   UNL     1      35.585  24.469 222.638  1.00  0.00     0.000 C 
BRANCH   6   7
ATOM      7  C   UNL     1      36.692  25.498 222.386  1.00  0.00    -0.003 C 
ATOM      8  C   UNL     1      37.798  25.385 223.432  1.00  0.00     0.004 C 
ENDBRANCH   6   7
ENDBRANCH   1   6
TORSDOF 4
ENDMDL
MODEL 6
REMARK VINA RESULT:    -2.955      2.434      3.578
REMARK INTER + INTRA:          -3.790
REMARK INTER:                  -3.673
REMARK INTRA:                  -0.117
REMARK UNBOUND:                -0.144
REMARK SMILES CCCCCC(=O)[O-]
REMARK SMILES IDX 4 1 5 2 6 3 7 4 8 5 3 6 2 7 1 8
REMARK H PARENT
REMARK Flexibility Score: inf
ROOT
ATOM      1  C   UNL     1      37.651  23.263 221.915  1.00  0.00     0.006 C 
ENDROOT
BRANCH   1   2
ATOM      2  C   UNL     1      36.541  23.569 220.902  1.00  0.00     0.053 C 
BRANCH   2   3
ATOM      3  C   UNL     1      35.249  23.906 221.581  1.00  0.00     0.041 C 
ATOM      4  O   UNL     1      35.243  24.297 222.777  1.00  0.00    -0.550 OA
ATOM      5  O   UNL     1      34.052  23.818 220.880  1.00  0.00    -0.550 OA
ENDBRANCH   2   3
ENDBRANCH   1   2
BRANCH   1   6
ATOM      6  C   UNL     1      39.047  23.284 221.274  1.00  0.00     0.000 C 
BRANCH   6   7
ATOM      7  C   UNL     1      40.030  24.092 222.128  1.00  0.00    -0.003 C 
ATOM      8  C   UNL     1      39.301  24.877 223.215  1.00  0.00     0.004 C 
ENDBRANCH   6   7
ENDBRANCH   1   6
TORSDOF 4
ENDMDL
MODEL 7
REMARK VINA RESULT:    -2.925      2.272      3.447
REMARK INTER + INTRA:          -3.753
REMARK INTER:                  -3.518
REMARK INTRA:                  -0.235
REMARK UNBOUND:                -0.144
REMARK SMILES CCCCCC(=O)[O-]
REMARK SMILES IDX 4 1 5 2 6 3 7 4 8 5 3 6 2 7 1 8
REMARK H PARENT
REMARK Flexibility Score: inf
ROOT
ATOM      1  C   UNL     1      37.455  22.953 222.880  1.00  0.00     0.006 C 
ENDROOT
BRANCH   1   2
ATOM      2  C   UNL     1      36.177  22.577 222.117  1.00  0.00     0.053 C 
BRANCH   2   3
ATOM      3  C   UNL     1      35.315  23.774 221.857  1.00  0.00     0.041 C 
ATOM      4  O   UNL     1      34.935  24.041 220.687  1.00  0.00    -0.550 OA
ATOM      5  O   UNL     1      34.905  24.578 222.914  1.00  0.00    -0.550 OA
ENDBRANCH   2   3
ENDBRANCH   1   2
BRANCH   1   6
ATOM      6  C   UNL     1      38.458  23.711 221.998  1.00  0.00     0.000 C 
BRANCH   6   7
ATOM      7  C   UNL     1      39.129  24.845 222.781  1.00  0.00    -0.003 C 
ATOM      8  C   UNL     1      38.129  25.945 223.125  1.00  0.00     0.004 C 
ENDBRANCH   6   7
ENDBRANCH   1   6
TORSDOF 4
ENDMDL
MODEL 8
REMARK VINA RESULT:    -2.882      2.630      3.673
REMARK INTER + INTRA:          -3.700
REMARK INTER:                  -3.492
REMARK INTRA:                  -0.208
REMARK UNBOUND:                -0.144
REMARK SMILES CCCCCC(=O)[O-]
REMARK SMILES IDX 4 1 5 2 6 3 7 4 8 5 3 6 2 7 1 8
REMARK H PARENT
REMARK Flexibility Score: inf
ROOT
ATOM      1  C   UNL     1      36.861  24.700 223.802  1.00  0.00     0.006 C 
ENDROOT
BRANCH   1   2
ATOM      2  C   UNL     1      35.515  24.708 223.065  1.00  0.00     0.053 C 
BRANCH   2   3
ATOM      3  C   UNL     1      35.465  23.666 221.990  1.00  0.00     0.041 C 
ATOM      4  O   UNL     1      36.091  22.582 222.127  1.00  0.00    -0.550 OA
ATOM      5  O   UNL     1      34.702  23.881 220.849  1.00  0.00    -0.550 OA
ENDBRANCH   2   3
ENDBRANCH   1   2
BRANCH   1   6
ATOM      6  C   UNL     1      37.856  25.707 223.207  1.00  0.00     0.000 C 
BRANCH   6   7
ATOM      7  C   UNL     1      39.265  25.108 223.133  1.00  0.00    -0.003 C 
ATOM      8  C   UNL     1      39.358  24.049 222.038  1.00  0.00     0.004 C 
ENDBRANCH   6   7
ENDBRANCH   1   6
TORSDOF 4
ENDMDL
MODEL 9
REMARK VINA RESULT:    -2.789      3.498      4.394
REMARK INTER + INTRA:          -3.585
REMARK INTER:                  -3.484
REMARK INTRA:                  -0.101
REMARK UNBOUND:                -0.144
REMARK SMILES CCCCCC(=O)[O-]
REMARK SMILES IDX 4 1 5 2 6 3 7 4 8 5 3 6 2 7 1 8
REMARK H PARENT
REMARK Flexibility Score: inf
ROOT
ATOM      1  C   UNL     1      39.071  23.341 221.275  1.00  0.00     0.006 C 
ENDROOT
BRANCH   1   2
ATOM      2  C   UNL     1      37.704  23.599 221.924  1.00  0.00     0.053 C 
BRANCH   2   3
ATOM      3  C   UNL     1      36.592  23.517 220.925  1.00  0.00     0.041 C 
ATOM      4  O   UNL     1      35.402  23.724 221.280  1.00  0.00    -0.550 OA
ATOM      5  O   UNL     1      36.874  23.242 219.592  1.00  0.00    -0.550 OA
ENDBRANCH   2   3
ENDBRANCH   1   2
BRANCH   1   6
ATOM      6  C   UNL     1      40.227  23.927 222.099  1.00  0.00     0.000 C 
BRANCH   6   7
ATOM      7  C   UNL     1      41.236  22.839 222.478  1.00  0.00    -0.003 C 
ATOM      8  C   UNL     1      40.998  21.562 221.677  1.00  0.00     0.004 C 
ENDBRANCH   6   7
ENDBRANCH   1   6
TORSDOF 4
ENDMDL
