MODEL 1
REMARK VINA RESULT:    -5.659      0.000      0.000
REMARK INTER + INTRA:          -6.968
REMARK INTER:                  -6.983
REMARK INTRA:                   0.015
REMARK UNBOUND:                 0.015
REMARK SMILES Oc1cc(O)c2cc(O)c(-c3cc(O)c(O)c(O)c3)[o+]c2c1
REMARK SMILES IDX 10 1 20 2 21 3 22 4 2 5 3 6 4 7 6 8 7 9 8 10 11 11 12 12
REMARK SMILES IDX 13 13 19 14 15 15 17 16 14 17 16 19 18 21 9 23 1 25 5 27
REMARK H PARENT 14 18 16 20 18 22 9 24 1 26 5 28
REMARK Flexibility Score: inf
ROOT
ATOM      1  C   UNL     1      75.049  90.675  11.738  1.00  0.00     0.402 A 
ATOM      2  O   UNL     1      73.839  90.821  11.207  1.00  0.00    -0.202 OA
ATOM      3  C   UNL     1      73.007  91.802  11.542  1.00  0.00     0.368 A 
ATOM      4  C   UNL     1      71.753  91.870  10.928  1.00  0.00     0.162 A 
ATOM      5  C   UNL     1      70.858  92.890  11.264  1.00  0.00     0.128 A 
ATOM      6  C   UNL     1      71.218  93.844  12.219  1.00  0.00     0.093 A 
ATOM      7  C   UNL     1      72.468  93.798  12.848  1.00  0.00     0.136 A 
ATOM      8  C   UNL     1      73.381  92.767  12.508  1.00  0.00     0.125 A 
ATOM      9  C   UNL     1      74.661  92.649  13.076  1.00  0.00     0.078 A 
ATOM     10  C   UNL     1      75.508  91.607  12.687  1.00  0.00     0.223 A 
ENDROOT
BRANCH   1  11
ATOM     11  C   UNL     1      75.879  89.535  11.289  1.00  0.00     0.091 A 
ATOM     12  C   UNL     1      75.318  88.248  11.241  1.00  0.00     0.068 A 
ATOM     13  C   UNL     1      76.089  87.148  10.839  1.00  0.00     0.162 A 
ATOM     14  C   UNL     1      77.236  89.701  10.963  1.00  0.00     0.068 A 
ATOM     15  C   UNL     1      77.439  87.328  10.494  1.00  0.00     0.200 A 
ATOM     16  C   UNL     1      78.011  88.604  10.561  1.00  0.00     0.162 A 
BRANCH  13  17
ATOM     17  O   UNL     1      75.517  85.879  10.781  1.00  0.00    -0.504 OA
ATOM     18  H   UNL     1      76.073  85.054  10.589  1.00  0.00     0.293 HD
ENDBRANCH  13  17
BRANCH  15  19
ATOM     19  O   UNL     1      78.225  86.249  10.088  1.00  0.00    -0.502 OA
ATOM     20  H   UNL     1      77.819  85.387   9.745  1.00  0.00     0.293 HD
ENDBRANCH  15  19
BRANCH  16  21
ATOM     21  O   UNL     1      79.355  88.775  10.232  1.00  0.00    -0.504 OA
ATOM     22  H   UNL     1      79.643  89.033   9.296  1.00  0.00     0.293 HD
ENDBRANCH  16  21
ENDBRANCH   1  11
BRANCH  10  23
ATOM     23  O   UNL     1      76.796  91.520  13.215  1.00  0.00    -0.500 OA
ATOM     24  H   UNL     1      77.468  92.271  13.111  1.00  0.00     0.294 HD
ENDBRANCH  10  23
BRANCH   5  25
ATOM     25  O   UNL     1      69.606  92.964  10.658  1.00  0.00    -0.507 OA
ATOM     26  H   UNL     1      69.480  93.414   9.757  1.00  0.00     0.293 HD
ENDBRANCH   5  25
BRANCH   7  27
ATOM     27  O   UNL     1      72.750  94.788  13.793  1.00  0.00    -0.507 OA
ATOM     28  H   UNL     1      73.619  94.859  14.303  1.00  0.00     0.293 HD
ENDBRANCH   7  27
TORSDOF 7
ENDMDL
MODEL 2
REMARK VINA RESULT:    -5.651      0.068      1.789
REMARK INTER + INTRA:          -6.957
REMARK INTER:                  -7.005
REMARK INTRA:                   0.047
REMARK UNBOUND:                 0.015
REMARK SMILES Oc1cc(O)c2cc(O)c(-c3cc(O)c(O)c(O)c3)[o+]c2c1
REMARK SMILES IDX 10 1 20 2 21 3 22 4 2 5 3 6 4 7 6 8 7 9 8 10 11 11 12 12
REMARK SMILES IDX 13 13 19 14 15 15 17 16 14 17 16 19 18 21 9 23 1 25 5 27
REMARK H PARENT 14 18 16 20 18 22 9 24 1 26 5 28
REMARK Flexibility Score: inf
ROOT
ATOM      1  C   UNL     1      75.047  90.645  11.771  1.00  0.00     0.402 A 
ATOM      2  O   UNL     1      73.839  90.792  11.236  1.00  0.00    -0.202 OA
ATOM      3  C   UNL     1      73.009  91.777  11.564  1.00  0.00     0.368 A 
ATOM      4  C   UNL     1      71.757  91.846  10.946  1.00  0.00     0.162 A 
ATOM      5  C   UNL     1      70.864  92.869  11.275  1.00  0.00     0.128 A 
ATOM      6  C   UNL     1      71.223  93.827  12.227  1.00  0.00     0.093 A 
ATOM      7  C   UNL     1      72.472  93.780  12.860  1.00  0.00     0.136 A 
ATOM      8  C   UNL     1      73.383  92.744  12.527  1.00  0.00     0.125 A 
ATOM      9  C   UNL     1      74.661  92.626  13.099  1.00  0.00     0.078 A 
ATOM     10  C   UNL     1      75.506  91.580  12.717  1.00  0.00     0.223 A 
ENDROOT
BRANCH   1  11
ATOM     11  C   UNL     1      75.875  89.500  11.329  1.00  0.00     0.091 A 
ATOM     12  C   UNL     1      77.224  89.709  11.001  1.00  0.00     0.068 A 
ATOM     13  C   UNL     1      78.024  88.646  10.560  1.00  0.00     0.162 A 
ATOM     14  C   UNL     1      75.325  88.215  11.176  1.00  0.00     0.068 A 
ATOM     15  C   UNL     1      77.472  87.361  10.430  1.00  0.00     0.200 A 
ATOM     16  C   UNL     1      76.121  87.149  10.734  1.00  0.00     0.162 A 
BRANCH  13  17
ATOM     17  O   UNL     1      79.366  88.863  10.251  1.00  0.00    -0.504 OA
ATOM     18  H   UNL     1      79.839  88.325   9.534  1.00  0.00     0.293 HD
ENDBRANCH  13  17
BRANCH  15  19
ATOM     19  O   UNL     1      78.249  86.287   9.995  1.00  0.00    -0.502 OA
ATOM     20  H   UNL     1      78.662  85.625  10.641  1.00  0.00     0.293 HD
ENDBRANCH  15  19
BRANCH  16  21
ATOM     21  O   UNL     1      75.574  85.875  10.589  1.00  0.00    -0.504 OA
ATOM     22  H   UNL     1      74.988  85.636   9.799  1.00  0.00     0.293 HD
ENDBRANCH  16  21
ENDBRANCH   1  11
BRANCH  10  23
ATOM     23  O   UNL     1      76.793  91.491  13.250  1.00  0.00    -0.500 OA
ATOM     24  H   UNL     1      77.609  91.393  12.658  1.00  0.00     0.294 HD
ENDBRANCH  10  23
BRANCH   5  25
ATOM     25  O   UNL     1      69.614  92.945  10.665  1.00  0.00    -0.507 OA
ATOM     26  H   UNL     1      69.212  92.149  10.181  1.00  0.00     0.293 HD
ENDBRANCH   5  25
BRANCH   7  27
ATOM     27  O   UNL     1      72.754  94.773  13.801  1.00  0.00    -0.507 OA
ATOM     28  H   UNL     1      73.246  95.631  13.595  1.00  0.00     0.293 HD
ENDBRANCH   7  27
TORSDOF 7
ENDMDL
MODEL 3
REMARK VINA RESULT:    -5.575      1.971      3.241
REMARK INTER + INTRA:          -6.863
REMARK INTER:                  -6.557
REMARK INTRA:                  -0.306
REMARK UNBOUND:                 0.015
REMARK SMILES Oc1cc(O)c2cc(O)c(-c3cc(O)c(O)c(O)c3)[o+]c2c1
REMARK SMILES IDX 10 1 20 2 21 3 22 4 2 5 3 6 4 7 6 8 7 9 8 10 11 11 12 12
REMARK SMILES IDX 13 13 19 14 15 15 17 16 14 17 16 19 18 21 9 23 1 25 5 27
REMARK H PARENT 14 18 16 20 18 22 9 24 1 26 5 28
REMARK Flexibility Score: inf
ROOT
ATOM      1  C   UNL     1      75.178  89.100  11.671  1.00  0.00     0.402 A 
ATOM      2  O   UNL     1      75.028  90.421  11.701  1.00  0.00    -0.202 OA
ATOM      3  C   UNL     1      74.167  91.041  12.501  1.00  0.00     0.368 A 
ATOM      4  C   UNL     1      74.080  92.436  12.457  1.00  0.00     0.162 A 
ATOM      5  C   UNL     1      73.182  93.112  13.286  1.00  0.00     0.128 A 
ATOM      6  C   UNL     1      72.365  92.392  14.161  1.00  0.00     0.093 A 
ATOM      7  C   UNL     1      72.432  90.995  14.223  1.00  0.00     0.136 A 
ATOM      8  C   UNL     1      73.345  90.303  13.387  1.00  0.00     0.125 A 
ATOM      9  C   UNL     1      73.492  88.906  13.391  1.00  0.00     0.078 A 
ATOM     10  C   UNL     1      74.418  88.295  12.540  1.00  0.00     0.223 A 
ENDROOT
BRANCH   1  11
ATOM     11  C   UNL     1      76.165  88.527  10.728  1.00  0.00     0.091 A 
ATOM     12  C   UNL     1      77.533  88.773  10.926  1.00  0.00     0.068 A 
ATOM     13  C   UNL     1      78.486  88.259  10.036  1.00  0.00     0.162 A 
ATOM     14  C   UNL     1      75.759  87.788   9.604  1.00  0.00     0.068 A 
ATOM     15  C   UNL     1      78.073  87.503   8.926  1.00  0.00     0.200 A 
ATOM     16  C   UNL     1      76.708  87.273   8.710  1.00  0.00     0.162 A 
BRANCH  13  17
ATOM     17  O   UNL     1      79.843  88.499  10.250  1.00  0.00    -0.504 OA
ATOM     18  H   UNL     1      80.525  87.749  10.224  1.00  0.00     0.293 HD
ENDBRANCH  13  17
BRANCH  15  19
ATOM     19  O   UNL     1      79.003  86.980   8.028  1.00  0.00    -0.502 OA
ATOM     20  H   UNL     1      79.797  86.431   8.335  1.00  0.00     0.293 HD
ENDBRANCH  15  19
BRANCH  16  21
ATOM     21  O   UNL     1      76.302  86.534   7.600  1.00  0.00    -0.504 OA
ATOM     22  H   UNL     1      76.339  85.522   7.593  1.00  0.00     0.293 HD
ENDBRANCH  16  21
ENDBRANCH   1  11
BRANCH  10  23
ATOM     23  O   UNL     1      74.598  86.912  12.580  1.00  0.00    -0.500 OA
ATOM     24  H   UNL     1      75.166  86.469  13.291  1.00  0.00     0.294 HD
ENDBRANCH  10  23
BRANCH   5  25
ATOM     25  O   UNL     1      73.089  94.502  13.248  1.00  0.00    -0.507 OA
ATOM     26  H   UNL     1      73.905  95.083  13.092  1.00  0.00     0.293 HD
ENDBRANCH   5  25
BRANCH   7  27
ATOM     27  O   UNL     1      71.580  90.349  15.123  1.00  0.00    -0.507 OA
ATOM     28  H   UNL     1      70.809  90.796  15.600  1.00  0.00     0.293 HD
ENDBRANCH   7  27
TORSDOF 7
ENDMDL
MODEL 4
REMARK VINA RESULT:    -5.468      2.024      2.609
REMARK INTER + INTRA:          -6.732
REMARK INTER:                  -6.353
REMARK INTRA:                  -0.380
REMARK UNBOUND:                 0.015
REMARK SMILES Oc1cc(O)c2cc(O)c(-c3cc(O)c(O)c(O)c3)[o+]c2c1
REMARK SMILES IDX 10 1 20 2 21 3 22 4 2 5 3 6 4 7 6 8 7 9 8 10 11 11 12 12
REMARK SMILES IDX 13 13 19 14 15 15 17 16 14 17 16 19 18 21 9 23 1 25 5 27
REMARK H PARENT 14 18 16 20 18 22 9 24 1 26 5 28
REMARK Flexibility Score: inf
ROOT
ATOM      1  C   UNL     1      75.163  89.006  11.496  1.00  0.00     0.402 A 
ATOM      2  O   UNL     1      74.660  90.211  11.246  1.00  0.00    -0.202 OA
ATOM      3  C   UNL     1      73.727  90.784  11.999  1.00  0.00     0.368 A 
ATOM      4  C   UNL     1      73.259  92.055  11.653  1.00  0.00     0.162 A 
ATOM      5  C   UNL     1      72.277  92.680  12.426  1.00  0.00     0.128 A 
ATOM      6  C   UNL     1      71.759  92.030  13.550  1.00  0.00     0.093 A 
ATOM      7  C   UNL     1      72.211  90.757  13.917  1.00  0.00     0.136 A 
ATOM      8  C   UNL     1      73.210  90.120  13.137  1.00  0.00     0.125 A 
ATOM      9  C   UNL     1      73.734  88.851  13.438  1.00  0.00     0.078 A 
ATOM     10  C   UNL     1      74.722  88.290  12.624  1.00  0.00     0.223 A 
ENDROOT
BRANCH   1  11
ATOM     11  C   UNL     1      76.192  88.471  10.577  1.00  0.00     0.091 A 
ATOM     12  C   UNL     1      75.802  87.664   9.496  1.00  0.00     0.068 A 
ATOM     13  C   UNL     1      76.758  87.128   8.623  1.00  0.00     0.162 A 
ATOM     14  C   UNL     1      77.561  88.706  10.794  1.00  0.00     0.068 A 
ATOM     15  C   UNL     1      78.123  87.386   8.836  1.00  0.00     0.200 A 
ATOM     16  C   UNL     1      78.522  88.171   9.925  1.00  0.00     0.162 A 
BRANCH  13  17
ATOM     17  O   UNL     1      76.357  86.341   7.545  1.00  0.00    -0.504 OA
ATOM     18  H   UNL     1      76.988  85.679   7.107  1.00  0.00     0.293 HD
ENDBRANCH  13  17
BRANCH  15  19
ATOM     19  O   UNL     1      79.093  86.866   7.979  1.00  0.00    -0.502 OA
ATOM     20  H   UNL     1      79.838  86.265   8.310  1.00  0.00     0.293 HD
ENDBRANCH  15  19
BRANCH  16  21
ATOM     21  O   UNL     1      79.878  88.412  10.140  1.00  0.00    -0.504 OA
ATOM     22  H   UNL     1      80.533  87.656  10.299  1.00  0.00     0.293 HD
ENDBRANCH  16  21
ENDBRANCH   1  11
BRANCH  10  23
ATOM     23  O   UNL     1      75.276  87.051  12.951  1.00  0.00    -0.500 OA
ATOM     24  H   UNL     1      76.140  86.727  12.535  1.00  0.00     0.294 HD
ENDBRANCH  10  23
BRANCH   5  25
ATOM     25  O   UNL     1      71.805  93.946  12.088  1.00  0.00    -0.507 OA
ATOM     26  H   UNL     1      71.357  94.545  12.773  1.00  0.00     0.293 HD
ENDBRANCH   5  25
BRANCH   7  27
ATOM     27  O   UNL     1      71.640  90.175  15.052  1.00  0.00    -0.507 OA
ATOM     28  H   UNL     1      71.895  90.408  16.002  1.00  0.00     0.293 HD
ENDBRANCH   7  27
TORSDOF 7
ENDMDL
MODEL 5
REMARK VINA RESULT:    -5.413      2.530      7.479
REMARK INTER + INTRA:          -6.664
REMARK INTER:                  -6.280
REMARK INTRA:                  -0.384
REMARK UNBOUND:                 0.015
REMARK SMILES Oc1cc(O)c2cc(O)c(-c3cc(O)c(O)c(O)c3)[o+]c2c1
REMARK SMILES IDX 10 1 20 2 21 3 22 4 2 5 3 6 4 7 6 8 7 9 8 10 11 11 12 12
REMARK SMILES IDX 13 13 19 14 15 15 17 16 14 17 16 19 18 21 9 23 1 25 5 27
REMARK H PARENT 14 18 16 20 18 22 9 24 1 26 5 28
REMARK Flexibility Score: inf
ROOT
ATOM      1  C   UNL     1      76.548  88.413  10.499  1.00  0.00     0.402 A 
ATOM      2  O   UNL     1      76.646  88.114   9.207  1.00  0.00    -0.202 OA
ATOM      3  C   UNL     1      77.682  87.466   8.684  1.00  0.00     0.368 A 
ATOM      4  C   UNL     1      77.695  87.200   7.311  1.00  0.00     0.162 A 
ATOM      5  C   UNL     1      78.773  86.523   6.735  1.00  0.00     0.128 A 
ATOM      6  C   UNL     1      79.844  86.112   7.533  1.00  0.00     0.093 A 
ATOM      7  C   UNL     1      79.855  86.368   8.911  1.00  0.00     0.136 A 
ATOM      8  C   UNL     1      78.761  87.051   9.500  1.00  0.00     0.125 A 
ATOM      9  C   UNL     1      78.679  87.338  10.874  1.00  0.00     0.078 A 
ATOM     10  C   UNL     1      77.566  88.013  11.384  1.00  0.00     0.223 A 
ENDROOT
BRANCH   1  11
ATOM     11  C   UNL     1      75.347  89.146  10.959  1.00  0.00     0.091 A 
ATOM     12  C   UNL     1      74.182  88.432  11.280  1.00  0.00     0.068 A 
ATOM     13  C   UNL     1      73.025  89.104  11.698  1.00  0.00     0.162 A 
ATOM     14  C   UNL     1      75.329  90.550  11.029  1.00  0.00     0.068 A 
ATOM     15  C   UNL     1      73.023  90.506  11.785  1.00  0.00     0.200 A 
ATOM     16  C   UNL     1      74.174  91.227  11.445  1.00  0.00     0.162 A 
BRANCH  13  17
ATOM     17  O   UNL     1      71.879  88.383  12.028  1.00  0.00    -0.504 OA
ATOM     18  H   UNL     1      71.847  87.372  11.952  1.00  0.00     0.293 HD
ENDBRANCH  13  17
BRANCH  15  19
ATOM     19  O   UNL     1      71.884  91.197  12.202  1.00  0.00    -0.502 OA
ATOM     20  H   UNL     1      71.310  90.874  12.971  1.00  0.00     0.293 HD
ENDBRANCH  15  19
BRANCH  16  21
ATOM     21  O   UNL     1      74.162  92.619  11.519  1.00  0.00    -0.504 OA
ATOM     22  H   UNL     1      74.285  93.105  12.399  1.00  0.00     0.293 HD
ENDBRANCH  16  21
ENDBRANCH   1  11
BRANCH  10  23
ATOM     23  O   UNL     1      77.463  88.254  12.754  1.00  0.00    -0.500 OA
ATOM     24  H   UNL     1      78.145  88.814  13.251  1.00  0.00     0.294 HD
ENDBRANCH  10  23
BRANCH   5  25
ATOM     25  O   UNL     1      78.794  86.253   5.369  1.00  0.00    -0.507 OA
ATOM     26  H   UNL     1      77.962  86.348   4.797  1.00  0.00     0.293 HD
ENDBRANCH   5  25
BRANCH   7  27
ATOM     27  O   UNL     1      80.964  85.927   9.637  1.00  0.00    -0.507 OA
ATOM     28  H   UNL     1      81.070  86.032  10.637  1.00  0.00     0.293 HD
ENDBRANCH   7  27
TORSDOF 7
ENDMDL
MODEL 6
REMARK VINA RESULT:    -5.384      1.698      2.036
REMARK INTER + INTRA:          -6.628
REMARK INTER:                  -6.371
REMARK INTRA:                  -0.257
REMARK UNBOUND:                 0.015
REMARK SMILES Oc1cc(O)c2cc(O)c(-c3cc(O)c(O)c(O)c3)[o+]c2c1
REMARK SMILES IDX 10 1 20 2 21 3 22 4 2 5 3 6 4 7 6 8 7 9 8 10 11 11 12 12
REMARK SMILES IDX 13 13 19 14 15 15 17 16 14 17 16 19 18 21 9 23 1 25 5 27
REMARK H PARENT 14 18 16 20 18 22 9 24 1 26 5 28
REMARK Flexibility Score: inf
ROOT
ATOM      1  C   UNL     1      75.870  89.812  11.092  1.00  0.00     0.402 A 
ATOM      2  O   UNL     1      74.587  89.545  10.861  1.00  0.00    -0.202 OA
ATOM      3  C   UNL     1      73.604  90.397  11.128  1.00  0.00     0.368 A 
ATOM      4  C   UNL     1      72.285  90.023  10.852  1.00  0.00     0.162 A 
ATOM      5  C   UNL     1      71.232  90.900  11.125  1.00  0.00     0.128 A 
ATOM      6  C   UNL     1      71.497  92.155  11.679  1.00  0.00     0.093 A 
ATOM      7  C   UNL     1      72.809  92.553  11.965  1.00  0.00     0.136 A 
ATOM      8  C   UNL     1      73.882  91.668  11.686  1.00  0.00     0.125 A 
ATOM      9  C   UNL     1      75.229  91.987  11.927  1.00  0.00     0.078 A 
ATOM     10  C   UNL     1      76.234  91.064  11.621  1.00  0.00     0.223 A 
ENDROOT
BRANCH   1  11
ATOM     11  C   UNL     1      76.873  88.776  10.760  1.00  0.00     0.091 A 
ATOM     12  C   UNL     1      77.605  88.167  11.792  1.00  0.00     0.068 A 
ATOM     13  C   UNL     1      78.576  87.198  11.503  1.00  0.00     0.162 A 
ATOM     14  C   UNL     1      77.150  88.426   9.427  1.00  0.00     0.068 A 
ATOM     15  C   UNL     1      78.831  86.839  10.169  1.00  0.00     0.200 A 
ATOM     16  C   UNL     1      78.121  87.458   9.133  1.00  0.00     0.162 A 
BRANCH  13  17
ATOM     17  O   UNL     1      79.286  86.591  12.537  1.00  0.00    -0.504 OA
ATOM     18  H   UNL     1      79.104  86.813  13.509  1.00  0.00     0.293 HD
ENDBRANCH  13  17
BRANCH  15  19
ATOM     19  O   UNL     1      79.790  85.875   9.857  1.00  0.00    -0.502 OA
ATOM     20  H   UNL     1      80.539  85.635  10.494  1.00  0.00     0.293 HD
ENDBRANCH  15  19
BRANCH  16  21
ATOM     21  O   UNL     1      78.388  87.109   7.809  1.00  0.00    -0.504 OA
ATOM     22  H   UNL     1      78.506  87.811   7.089  1.00  0.00     0.293 HD
ENDBRANCH  16  21
ENDBRANCH   1  11
BRANCH  10  23
ATOM     23  O   UNL     1      77.574  91.401  11.814  1.00  0.00    -0.500 OA
ATOM     24  H   UNL     1      77.866  92.357  11.973  1.00  0.00     0.294 HD
ENDBRANCH  10  23
BRANCH   5  25
ATOM     25  O   UNL     1      69.916  90.535  10.853  1.00  0.00    -0.507 OA
ATOM     26  H   UNL     1      69.138  91.140  11.092  1.00  0.00     0.293 HD
ENDBRANCH   5  25
BRANCH   7  27
ATOM     27  O   UNL     1      72.989  93.823  12.520  1.00  0.00    -0.507 OA
ATOM     28  H   UNL     1      73.028  94.012  13.512  1.00  0.00     0.293 HD
ENDBRANCH   7  27
TORSDOF 7
ENDMDL
MODEL 7
REMARK VINA RESULT:    -5.279      2.082      7.151
REMARK INTER + INTRA:          -6.499
REMARK INTER:                  -6.126
REMARK INTRA:                  -0.373
REMARK UNBOUND:                 0.015
REMARK SMILES Oc1cc(O)c2cc(O)c(-c3cc(O)c(O)c(O)c3)[o+]c2c1
REMARK SMILES IDX 10 1 20 2 21 3 22 4 2 5 3 6 4 7 6 8 7 9 8 10 11 11 12 12
REMARK SMILES IDX 13 13 19 14 15 15 17 16 14 17 16 19 18 21 9 23 1 25 5 27
REMARK H PARENT 14 18 16 20 18 22 9 24 1 26 5 28
REMARK Flexibility Score: inf
ROOT
ATOM      1  C   UNL     1      75.522  89.309  12.122  1.00  0.00     0.402 A 
ATOM      2  O   UNL     1      76.357  89.098  11.109  1.00  0.00    -0.202 OA
ATOM      3  C   UNL     1      77.387  88.261  11.173  1.00  0.00     0.368 A 
ATOM      4  C   UNL     1      78.211  88.109  10.054  1.00  0.00     0.162 A 
ATOM      5  C   UNL     1      79.303  87.237  10.096  1.00  0.00     0.128 A 
ATOM      6  C   UNL     1      79.574  86.517  11.262  1.00  0.00     0.093 A 
ATOM      7  C   UNL     1      78.763  86.652  12.397  1.00  0.00     0.136 A 
ATOM      8  C   UNL     1      77.652  87.533  12.358  1.00  0.00     0.125 A 
ATOM      9  C   UNL     1      76.777  87.721  13.441  1.00  0.00     0.078 A 
ATOM     10  C   UNL     1      75.699  88.604  13.327  1.00  0.00     0.223 A 
ENDROOT
BRANCH   1  11
ATOM     11  C   UNL     1      74.416  90.274  11.929  1.00  0.00     0.091 A 
ATOM     12  C   UNL     1      73.278  89.885  11.205  1.00  0.00     0.068 A 
ATOM     13  C   UNL     1      72.225  90.786  10.991  1.00  0.00     0.162 A 
ATOM     14  C   UNL     1      74.504  91.593  12.408  1.00  0.00     0.068 A 
ATOM     15  C   UNL     1      72.313  92.096  11.491  1.00  0.00     0.200 A 
ATOM     16  C   UNL     1      73.455  92.498  12.195  1.00  0.00     0.162 A 
BRANCH  13  17
ATOM     17  O   UNL     1      71.094  90.384  10.283  1.00  0.00    -0.504 OA
ATOM     18  H   UNL     1      71.132  89.632   9.604  1.00  0.00     0.293 HD
ENDBRANCH  13  17
BRANCH  15  19
ATOM     19  O   UNL     1      71.277  93.009  11.293  1.00  0.00    -0.502 OA
ATOM     20  H   UNL     1      70.303  92.732  11.315  1.00  0.00     0.293 HD
ENDBRANCH  15  19
BRANCH  16  21
ATOM     21  O   UNL     1      73.543  93.803  12.677  1.00  0.00    -0.504 OA
ATOM     22  H   UNL     1      72.927  94.535  12.344  1.00  0.00     0.293 HD
ENDBRANCH  16  21
ENDBRANCH   1  11
BRANCH  10  23
ATOM     23  O   UNL     1      74.803  88.753  14.385  1.00  0.00    -0.500 OA
ATOM     24  H   UNL     1      74.541  89.666  14.738  1.00  0.00     0.294 HD
ENDBRANCH  10  23
BRANCH   5  25
ATOM     25  O   UNL     1      80.129  87.081   8.986  1.00  0.00    -0.507 OA
ATOM     26  H   UNL     1      79.842  87.390   8.064  1.00  0.00     0.293 HD
ENDBRANCH   5  25
BRANCH   7  27
ATOM     27  O   UNL     1      79.103  85.898  13.523  1.00  0.00    -0.507 OA
ATOM     28  H   UNL     1      79.976  85.402  13.635  1.00  0.00     0.293 HD
ENDBRANCH   7  27
TORSDOF 7
ENDMDL
MODEL 8
REMARK VINA RESULT:    -5.092      1.932      6.969
REMARK INTER + INTRA:          -6.268
REMARK INTER:                  -5.926
REMARK INTRA:                  -0.342
REMARK UNBOUND:                 0.015
REMARK SMILES Oc1cc(O)c2cc(O)c(-c3cc(O)c(O)c(O)c3)[o+]c2c1
REMARK SMILES IDX 10 1 20 2 21 3 22 4 2 5 3 6 4 7 6 8 7 9 8 10 11 11 12 12
REMARK SMILES IDX 13 13 19 14 15 15 17 16 14 17 16 19 18 21 9 23 1 25 5 27
REMARK H PARENT 14 18 16 20 18 22 9 24 1 26 5 28
REMARK Flexibility Score: inf
ROOT
ATOM      1  C   UNL     1      75.202  90.167  11.888  1.00  0.00     0.402 A 
ATOM      2  O   UNL     1      75.027  89.197  10.995  1.00  0.00    -0.202 OA
ATOM      3  C   UNL     1      76.031  88.569  10.391  1.00  0.00     0.368 A 
ATOM      4  C   UNL     1      75.745  87.563   9.464  1.00  0.00     0.162 A 
ATOM      5  C   UNL     1      76.782  86.888   8.814  1.00  0.00     0.128 A 
ATOM      6  C   UNL     1      78.110  87.222   9.090  1.00  0.00     0.093 A 
ATOM      7  C   UNL     1      78.423  88.227  10.014  1.00  0.00     0.136 A 
ATOM      8  C   UNL     1      77.374  88.912  10.680  1.00  0.00     0.125 A 
ATOM      9  C   UNL     1      77.592  89.922  11.632  1.00  0.00     0.078 A 
ATOM     10  C   UNL     1      76.507  90.550  12.250  1.00  0.00     0.223 A 
ENDROOT
BRANCH   1  11
ATOM     11  C   UNL     1      74.002  90.796  12.483  1.00  0.00     0.091 A 
ATOM     12  C   UNL     1      73.597  92.066  12.044  1.00  0.00     0.068 A 
ATOM     13  C   UNL     1      72.477  92.693  12.606  1.00  0.00     0.162 A 
ATOM     14  C   UNL     1      73.290  90.174  13.523  1.00  0.00     0.068 A 
ATOM     15  C   UNL     1      71.758  92.054  13.630  1.00  0.00     0.200 A 
ATOM     16  C   UNL     1      72.169  90.797  14.090  1.00  0.00     0.162 A 
BRANCH  13  17
ATOM     17  O   UNL     1      72.076  93.948  12.150  1.00  0.00    -0.504 OA
ATOM     18  H   UNL     1      72.487  94.801  12.514  1.00  0.00     0.293 HD
ENDBRANCH  13  17
BRANCH  15  19
ATOM     19  O   UNL     1      70.638  92.657  14.203  1.00  0.00    -0.502 OA
ATOM     20  H   UNL     1      70.519  93.663  14.223  1.00  0.00     0.293 HD
ENDBRANCH  15  19
BRANCH  16  21
ATOM     21  O   UNL     1      71.461  90.174  15.117  1.00  0.00    -0.504 OA
ATOM     22  H   UNL     1      71.816  89.345  15.578  1.00  0.00     0.293 HD
ENDBRANCH  16  21
ENDBRANCH   1  11
BRANCH  10  23
ATOM     23  O   UNL     1      76.725  91.518  13.231  1.00  0.00    -0.500 OA
ATOM     24  H   UNL     1      76.046  92.244  13.424  1.00  0.00     0.294 HD
ENDBRANCH  10  23
BRANCH   5  25
ATOM     25  O   UNL     1      76.506  85.885   7.888  1.00  0.00    -0.507 OA
ATOM     26  H   UNL     1      76.546  84.904   8.142  1.00  0.00     0.293 HD
ENDBRANCH   5  25
BRANCH   7  27
ATOM     27  O   UNL     1      79.775  88.502  10.232  1.00  0.00    -0.507 OA
ATOM     28  H   UNL     1      80.172  88.738  11.131  1.00  0.00     0.293 HD
ENDBRANCH   7  27
TORSDOF 7
ENDMDL
MODEL 9
REMARK VINA RESULT:    -5.074      1.669      7.217
REMARK INTER + INTRA:          -6.245
REMARK INTER:                  -5.910
REMARK INTRA:                  -0.335
REMARK UNBOUND:                 0.015
REMARK SMILES Oc1cc(O)c2cc(O)c(-c3cc(O)c(O)c(O)c3)[o+]c2c1
REMARK SMILES IDX 10 1 20 2 21 3 22 4 2 5 3 6 4 7 6 8 7 9 8 10 11 11 12 12
REMARK SMILES IDX 13 13 19 14 15 15 17 16 14 17 16 19 18 21 9 23 1 25 5 27
REMARK H PARENT 14 18 16 20 18 22 9 24 1 26 5 28
REMARK Flexibility Score: inf
ROOT
ATOM      1  C   UNL     1      72.676  91.991  12.059  1.00  0.00     0.402 A 
ATOM      2  O   UNL     1      72.995  90.778  11.614  1.00  0.00    -0.202 OA
ATOM      3  C   UNL     1      74.244  90.331  11.543  1.00  0.00     0.368 A 
ATOM      4  C   UNL     1      74.478  89.041  11.058  1.00  0.00     0.162 A 
ATOM      5  C   UNL     1      75.782  88.546  10.971  1.00  0.00     0.128 A 
ATOM      6  C   UNL     1      76.857  89.345  11.368  1.00  0.00     0.093 A 
ATOM      7  C   UNL     1      76.649  90.642  11.857  1.00  0.00     0.136 A 
ATOM      8  C   UNL     1      75.327  91.146  11.951  1.00  0.00     0.125 A 
ATOM      9  C   UNL     1      75.022  92.427  12.442  1.00  0.00     0.078 A 
ATOM     10  C   UNL     1      73.692  92.854  12.509  1.00  0.00     0.223 A 
ENDROOT
BRANCH   1  11
ATOM     11  C   UNL     1      71.248  92.376  12.081  1.00  0.00     0.091 A 
ATOM     12  C   UNL     1      70.535  92.323  13.290  1.00  0.00     0.068 A 
ATOM     13  C   UNL     1      69.176  92.663  13.334  1.00  0.00     0.162 A 
ATOM     14  C   UNL     1      70.570  92.742  10.905  1.00  0.00     0.068 A 
ATOM     15  C   UNL     1      68.513  93.048  12.157  1.00  0.00     0.200 A 
ATOM     16  C   UNL     1      69.210  93.082  10.943  1.00  0.00     0.162 A 
BRANCH  13  17
ATOM     17  O   UNL     1      68.484  92.619  14.543  1.00  0.00    -0.504 OA
ATOM     18  H   UNL     1      68.539  91.815  15.158  1.00  0.00     0.293 HD
ENDBRANCH  13  17
BRANCH  15  19
ATOM     19  O   UNL     1      67.161  93.394  12.177  1.00  0.00    -0.502 OA
ATOM     20  H   UNL     1      66.434  92.737  11.920  1.00  0.00     0.293 HD
ENDBRANCH  15  19
BRANCH  16  21
ATOM     21  O   UNL     1      68.544  93.451   9.776  1.00  0.00    -0.504 OA
ATOM     22  H   UNL     1      67.753  92.923   9.427  1.00  0.00     0.293 HD
ENDBRANCH  16  21
ENDBRANCH   1  11
BRANCH  10  23
ATOM     23  O   UNL     1      73.387  94.107  13.042  1.00  0.00    -0.500 OA
ATOM     24  H   UNL     1      73.957  94.533  13.763  1.00  0.00     0.294 HD
ENDBRANCH  10  23
BRANCH   5  25
ATOM     25  O   UNL     1      76.024  87.262  10.488  1.00  0.00    -0.507 OA
ATOM     26  H   UNL     1      75.370  86.798   9.867  1.00  0.00     0.293 HD
ENDBRANCH   5  25
BRANCH   7  27
ATOM     27  O   UNL     1      77.777  91.376  12.231  1.00  0.00    -0.507 OA
ATOM     28  H   UNL     1      78.179  92.123  11.683  1.00  0.00     0.293 HD
ENDBRANCH   7  27
TORSDOF 7
ENDMDL
