MODEL 1
REMARK VINA RESULT:    -3.445      0.000      0.000
REMARK INTER + INTRA:         -12.524
REMARK INTER:                  -7.877
REMARK INTRA:                  -4.648
REMARK UNBOUND:                -4.648
REMARK SMILES CCCCCCCCCCCCCCCCCCCCCCCC(=O)[O-]
REMARK SMILES IDX 13 1 14 2 15 3 16 4 17 5 18 6 19 7 20 8 21 9 22 10 23 11
REMARK SMILES IDX 24 12 25 13 26 14 12 15 11 16 10 17 9 18 8 19 7 20 6 21 5 22
REMARK SMILES IDX 4 23 3 24 2 25 1 26
REMARK H PARENT
REMARK Flexibility Score: inf
ROOT
ATOM      1  C   UNL     1      16.160  -4.641  28.768  1.00  0.00     0.000 C 
ENDROOT
BRANCH   1   2
ATOM      2  C   UNL     1      16.085  -5.606  27.572  1.00  0.00     0.000 C 
BRANCH   2   3
ATOM      3  C   UNL     1      15.308  -6.905  27.875  1.00  0.00     0.000 C 
BRANCH   3   4
ATOM      4  C   UNL     1      15.955  -8.138  27.218  1.00  0.00     0.000 C 
BRANCH   4   5
ATOM      5  C   UNL     1      16.305  -9.234  28.247  1.00  0.00     0.000 C 
BRANCH   5   6
ATOM      6  C   UNL     1      15.520  -9.115  29.565  1.00  0.00     0.000 C 
BRANCH   6   7
ATOM      7  C   UNL     1      16.431  -8.896  30.786  1.00  0.00     0.000 C 
BRANCH   7   8
ATOM      8  C   UNL     1      17.924  -8.923  30.425  1.00  0.00     0.000 C 
BRANCH   8   9
ATOM      9  C   UNL     1      18.796  -9.488  31.559  1.00  0.00     0.000 C 
BRANCH   9  10
ATOM     10  C   UNL     1      19.243 -10.933  31.289  1.00  0.00     0.006 C 
BRANCH  10  11
ATOM     11  C   UNL     1      20.772 -11.076  31.249  1.00  0.00     0.053 C 
BRANCH  11  12
ATOM     12  C   UNL     1      21.190 -12.438  31.709  1.00  0.00     0.041 C 
ATOM     13  O   UNL     1      21.907 -13.166  30.969  1.00  0.00    -0.550 OA
ATOM     14  O   UNL     1      20.796 -12.905  32.957  1.00  0.00    -0.550 OA
ENDBRANCH  11  12
ENDBRANCH  10  11
ENDBRANCH   9  10
ENDBRANCH   8   9
ENDBRANCH   7   8
ENDBRANCH   6   7
ENDBRANCH   5   6
ENDBRANCH   4   5
ENDBRANCH   3   4
ENDBRANCH   2   3
ENDBRANCH   1   2
BRANCH   1  15
ATOM     15  C   UNL     1      16.238  -5.373  30.117  1.00  0.00     0.000 C 
BRANCH  15  16
ATOM     16  C   UNL     1      17.216  -4.704  31.099  1.00  0.00     0.000 C 
BRANCH  16  17
ATOM     17  C   UNL     1      17.936  -5.678  32.053  1.00  0.00     0.000 C 
BRANCH  17  18
ATOM     18  C   UNL     1      19.467  -5.756  31.879  1.00  0.00    -0.000 C 
BRANCH  18  19
ATOM     19  C   UNL     1      20.042  -4.883  30.750  1.00  0.00    -0.000 C 
BRANCH  19  20
ATOM     20  C   UNL     1      20.629  -5.708  29.595  1.00  0.00    -0.000 C 
BRANCH  20  21
ATOM     21  C   UNL     1      19.639  -5.793  28.424  1.00  0.00    -0.000 C 
BRANCH  21  22
ATOM     22  C   UNL     1      19.634  -7.175  27.751  1.00  0.00    -0.000 C 
BRANCH  22  23
ATOM     23  C   UNL     1      20.756  -8.090  28.273  1.00  0.00    -0.000 C 
BRANCH  23  24
ATOM     24  C   UNL     1      20.531  -9.567  27.912  1.00  0.00    -0.000 C 
BRANCH  24  25
ATOM     25  C   UNL     1      19.494  -9.747  26.793  1.00  0.00    -0.003 C 
ATOM     26  C   UNL     1      18.920 -11.162  26.796  1.00  0.00     0.004 C 
ENDBRANCH  24  25
ENDBRANCH  23  24
ENDBRANCH  22  23
ENDBRANCH  21  22
ENDBRANCH  20  21
ENDBRANCH  19  20
ENDBRANCH  18  19
ENDBRANCH  17  18
ENDBRANCH  16  17
ENDBRANCH  15  16
ENDBRANCH   1  15
TORSDOF 22
ENDMDL
MODEL 2
REMARK VINA RESULT:    -3.329      2.895      5.833
REMARK INTER + INTRA:         -12.259
REMARK INTER:                  -8.117
REMARK INTRA:                  -4.143
REMARK UNBOUND:                -4.648
REMARK SMILES CCCCCCCCCCCCCCCCCCCCCCCC(=O)[O-]
REMARK SMILES IDX 13 1 14 2 15 3 16 4 17 5 18 6 19 7 20 8 21 9 22 10 23 11
REMARK SMILES IDX 24 12 25 13 26 14 12 15 11 16 10 17 9 18 8 19 7 20 6 21 5 22
REMARK SMILES IDX 4 23 3 24 2 25 1 26
REMARK H PARENT
REMARK Flexibility Score: inf
ROOT
ATOM      1  C   UNL     1      17.145  -5.614  30.984  1.00  0.00     0.000 C 
ENDROOT
BRANCH   1   2
ATOM      2  C   UNL     1      18.533  -5.257  31.544  1.00  0.00     0.000 C 
BRANCH   2   3
ATOM      3  C   UNL     1      19.666  -5.364  30.501  1.00  0.00     0.000 C 
BRANCH   3   4
ATOM      4  C   UNL     1      19.135  -5.328  29.057  1.00  0.00     0.000 C 
BRANCH   4   5
ATOM      5  C   UNL     1      19.592  -6.551  28.233  1.00  0.00     0.000 C 
BRANCH   5   6
ATOM      6  C   UNL     1      20.596  -7.452  28.973  1.00  0.00     0.000 C 
BRANCH   6   7
ATOM      7  C   UNL     1      20.820  -8.801  28.268  1.00  0.00     0.000 C 
BRANCH   7   8
ATOM      8  C   UNL     1      19.632  -9.216  27.388  1.00  0.00     0.000 C 
BRANCH   8   9
ATOM      9  C   UNL     1      19.327 -10.721  27.477  1.00  0.00     0.000 C 
BRANCH   9  10
ATOM     10  C   UNL     1      18.142 -11.132  26.589  1.00  0.00     0.006 C 
BRANCH  10  11
ATOM     11  C   UNL     1      17.905 -10.147  25.434  1.00  0.00     0.053 C 
BRANCH  11  12
ATOM     12  C   UNL     1      18.431 -10.703  24.147  1.00  0.00     0.041 C 
ATOM     13  O   UNL     1      19.614 -10.457  23.786  1.00  0.00    -0.550 OA
ATOM     14  O   UNL     1      17.621 -11.502  23.348  1.00  0.00    -0.550 OA
ENDBRANCH  11  12
ENDBRANCH  10  11
ENDBRANCH   9  10
ENDBRANCH   8   9
ENDBRANCH   7   8
ENDBRANCH   6   7
ENDBRANCH   5   6
ENDBRANCH   4   5
ENDBRANCH   3   4
ENDBRANCH   2   3
ENDBRANCH   1   2
BRANCH   1  15
ATOM     15  C   UNL     1      16.685  -7.021  31.394  1.00  0.00     0.000 C 
BRANCH  15  16
ATOM     16  C   UNL     1      16.921  -8.067  30.291  1.00  0.00     0.000 C 
BRANCH  16  17
ATOM     17  C   UNL     1      17.815  -9.253  30.707  1.00  0.00     0.000 C 
BRANCH  17  18
ATOM     18  C   UNL     1      18.731  -8.991  31.919  1.00  0.00    -0.000 C 
BRANCH  18  19
ATOM     19  C   UNL     1      20.106  -9.680  31.860  1.00  0.00    -0.000 C 
BRANCH  19  20
ATOM     20  C   UNL     1      20.116 -10.922  30.955  1.00  0.00    -0.000 C 
BRANCH  20  21
ATOM     21  C   UNL     1      21.085 -11.985  31.494  1.00  0.00    -0.000 C 
BRANCH  21  22
ATOM     22  C   UNL     1      20.363 -13.250  31.984  1.00  0.00    -0.000 C 
BRANCH  22  23
ATOM     23  C   UNL     1      20.114 -13.237  33.503  1.00  0.00    -0.000 C 
BRANCH  23  24
ATOM     24  C   UNL     1      18.786 -12.560  33.879  1.00  0.00    -0.000 C 
BRANCH  24  25
ATOM     25  C   UNL     1      17.645 -12.929  32.919  1.00  0.00    -0.003 C 
ATOM     26  C   UNL     1      16.452 -11.994  33.097  1.00  0.00     0.004 C 
ENDBRANCH  24  25
ENDBRANCH  23  24
ENDBRANCH  22  23
ENDBRANCH  21  22
ENDBRANCH  20  21
ENDBRANCH  19  20
ENDBRANCH  18  19
ENDBRANCH  17  18
ENDBRANCH  16  17
ENDBRANCH  15  16
ENDBRANCH   1  15
TORSDOF 22
ENDMDL
MODEL 3
REMARK VINA RESULT:    -3.295      3.020      6.662
REMARK INTER + INTRA:         -12.181
REMARK INTER:                  -7.455
REMARK INTRA:                  -4.727
REMARK UNBOUND:                -4.648
REMARK SMILES CCCCCCCCCCCCCCCCCCCCCCCC(=O)[O-]
REMARK SMILES IDX 13 1 14 2 15 3 16 4 17 5 18 6 19 7 20 8 21 9 22 10 23 11
REMARK SMILES IDX 24 12 25 13 26 14 12 15 11 16 10 17 9 18 8 19 7 20 6 21 5 22
REMARK SMILES IDX 4 23 3 24 2 25 1 26
REMARK H PARENT
REMARK Flexibility Score: inf
ROOT
ATOM      1  C   UNL     1      19.005  -8.714  30.999  1.00  0.00     0.000 C 
ENDROOT
BRANCH   1   2
ATOM      2  C   UNL     1      17.988  -9.601  30.259  1.00  0.00     0.000 C 
BRANCH   2   3
ATOM      3  C   UNL     1      17.549  -9.030  28.894  1.00  0.00     0.000 C 
BRANCH   3   4
ATOM      4  C   UNL     1      18.056  -9.880  27.715  1.00  0.00     0.000 C 
BRANCH   4   5
ATOM      5  C   UNL     1      19.443  -9.422  27.216  1.00  0.00     0.000 C 
BRANCH   5   6
ATOM      6  C   UNL     1      19.581  -7.894  27.095  1.00  0.00     0.000 C 
BRANCH   6   7
ATOM      7  C   UNL     1      20.736  -7.329  27.940  1.00  0.00     0.000 C 
BRANCH   7   8
ATOM      8  C   UNL     1      20.506  -5.870  28.360  1.00  0.00     0.000 C 
BRANCH   8   9
ATOM      9  C   UNL     1      20.742  -5.642  29.863  1.00  0.00     0.000 C 
BRANCH   9  10
ATOM     10  C   UNL     1      19.536  -4.985  30.552  1.00  0.00     0.006 C 
BRANCH  10  11
ATOM     11  C   UNL     1      18.207  -5.328  29.862  1.00  0.00     0.053 C 
BRANCH  11  12
ATOM     12  C   UNL     1      17.101  -5.435  30.865  1.00  0.00     0.041 C 
ATOM     13  O   UNL     1      16.276  -6.386  30.801  1.00  0.00    -0.550 OA
ATOM     14  O   UNL     1      16.983  -4.491  31.878  1.00  0.00    -0.550 OA
ENDBRANCH  11  12
ENDBRANCH  10  11
ENDBRANCH   9  10
ENDBRANCH   8   9
ENDBRANCH   7   8
ENDBRANCH   6   7
ENDBRANCH   5   6
ENDBRANCH   4   5
ENDBRANCH   3   4
ENDBRANCH   2   3
ENDBRANCH   1   2
BRANCH   1  15
ATOM     15  C   UNL     1      20.413  -9.327  31.032  1.00  0.00     0.000 C 
BRANCH  15  16
ATOM     16  C   UNL     1      20.437 -10.784  30.535  1.00  0.00     0.000 C 
BRANCH  16  17
ATOM     17  C   UNL     1      21.135 -11.777  31.486  1.00  0.00     0.000 C 
BRANCH  17  18
ATOM     18  C   UNL     1      20.222 -12.418  32.552  1.00  0.00    -0.000 C 
BRANCH  18  19
ATOM     19  C   UNL     1      18.844 -12.877  32.042  1.00  0.00    -0.000 C 
BRANCH  19  20
ATOM     20  C   UNL     1      17.712 -12.601  33.043  1.00  0.00    -0.000 C 
BRANCH  20  21
ATOM     21  C   UNL     1      18.017 -11.352  33.884  1.00  0.00    -0.000 C 
BRANCH  21  22
ATOM     22  C   UNL     1      16.980 -10.235  33.683  1.00  0.00    -0.000 C 
BRANCH  22  23
ATOM     23  C   UNL     1      17.175  -9.063  34.661  1.00  0.00    -0.000 C 
BRANCH  23  24
ATOM     24  C   UNL     1      18.601  -8.493  34.622  1.00  0.00    -0.000 C 
BRANCH  24  25
ATOM     25  C   UNL     1      18.628  -6.998  34.268  1.00  0.00    -0.003 C 
ATOM     26  C   UNL     1      20.024  -6.560  33.832  1.00  0.00     0.004 C 
ENDBRANCH  24  25
ENDBRANCH  23  24
ENDBRANCH  22  23
ENDBRANCH  21  22
ENDBRANCH  20  21
ENDBRANCH  19  20
ENDBRANCH  18  19
ENDBRANCH  17  18
ENDBRANCH  16  17
ENDBRANCH  15  16
ENDBRANCH   1  15
TORSDOF 22
ENDMDL
MODEL 4
REMARK VINA RESULT:    -3.278      1.201      3.950
REMARK INTER + INTRA:         -12.142
REMARK INTER:                  -7.521
REMARK INTRA:                  -4.621
REMARK UNBOUND:                -4.648
REMARK SMILES CCCCCCCCCCCCCCCCCCCCCCCC(=O)[O-]
REMARK SMILES IDX 13 1 14 2 15 3 16 4 17 5 18 6 19 7 20 8 21 9 22 10 23 11
REMARK SMILES IDX 24 12 25 13 26 14 12 15 11 16 10 17 9 18 8 19 7 20 6 21 5 22
REMARK SMILES IDX 4 23 3 24 2 25 1 26
REMARK H PARENT
REMARK Flexibility Score: inf
ROOT
ATOM      1  C   UNL     1      16.820  -9.521  27.908  1.00  0.00     0.000 C 
ENDROOT
BRANCH   1   2
ATOM      2  C   UNL     1      17.268  -8.962  26.546  1.00  0.00     0.000 C 
BRANCH   2   3
ATOM      3  C   UNL     1      18.758  -9.216  26.234  1.00  0.00     0.000 C 
BRANCH   3   4
ATOM      4  C   UNL     1      19.360 -10.321  27.121  1.00  0.00     0.000 C 
BRANCH   4   5
ATOM      5  C   UNL     1      20.505  -9.797  28.014  1.00  0.00     0.000 C 
BRANCH   5   6
ATOM      6  C   UNL     1      20.701 -10.609  29.306  1.00  0.00     0.000 C 
BRANCH   6   7
ATOM      7  C   UNL     1      20.632  -9.741  30.574  1.00  0.00     0.000 C 
BRANCH   7   8
ATOM      8  C   UNL     1      19.214  -9.651  31.157  1.00  0.00     0.000 C 
BRANCH   8   9
ATOM      9  C   UNL     1      19.134 -10.169  32.603  1.00  0.00     0.000 C 
BRANCH   9  10
ATOM     10  C   UNL     1      18.380 -11.504  32.706  1.00  0.00     0.006 C 
BRANCH  10  11
ATOM     11  C   UNL     1      19.148 -12.663  32.052  1.00  0.00     0.053 C 
BRANCH  11  12
ATOM     12  C   UNL     1      20.441 -12.910  32.765  1.00  0.00     0.041 C 
ATOM     13  O   UNL     1      20.442 -13.258  33.977  1.00  0.00    -0.550 OA
ATOM     14  O   UNL     1      21.649 -12.765  32.091  1.00  0.00    -0.550 OA
ENDBRANCH  11  12
ENDBRANCH  10  11
ENDBRANCH   9  10
ENDBRANCH   8   9
ENDBRANCH   7   8
ENDBRANCH   6   7
ENDBRANCH   5   6
ENDBRANCH   4   5
ENDBRANCH   3   4
ENDBRANCH   2   3
ENDBRANCH   1   2
BRANCH   1  15
ATOM     15  C   UNL     1      16.742  -8.440  28.996  1.00  0.00     0.000 C 
BRANCH  15  16
ATOM     16  C   UNL     1      15.356  -7.775  29.071  1.00  0.00     0.000 C 
BRANCH  16  17
ATOM     17  C   UNL     1      15.366  -6.243  28.898  1.00  0.00     0.000 C 
BRANCH  17  18
ATOM     18  C   UNL     1      16.327  -5.710  27.816  1.00  0.00    -0.000 C 
BRANCH  18  19
ATOM     19  C   UNL     1      16.998  -4.364  28.142  1.00  0.00    -0.000 C 
BRANCH  19  20
ATOM     20  C   UNL     1      18.532  -4.432  28.098  1.00  0.00    -0.000 C 
BRANCH  20  21
ATOM     21  C   UNL     1      19.010  -5.879  27.904  1.00  0.00    -0.000 C 
BRANCH  21  22
ATOM     22  C   UNL     1      19.797  -6.409  29.114  1.00  0.00    -0.000 C 
BRANCH  22  23
ATOM     23  C   UNL     1      19.904  -5.376  30.250  1.00  0.00    -0.000 C 
BRANCH  23  24
ATOM     24  C   UNL     1      19.278  -5.873  31.562  1.00  0.00    -0.000 C 
BRANCH  24  25
ATOM     25  C   UNL     1      17.774  -5.572  31.648  1.00  0.00    -0.003 C 
ATOM     26  C   UNL     1      17.020  -6.721  32.313  1.00  0.00     0.004 C 
ENDBRANCH  24  25
ENDBRANCH  23  24
ENDBRANCH  22  23
ENDBRANCH  21  22
ENDBRANCH  20  21
ENDBRANCH  19  20
ENDBRANCH  18  19
ENDBRANCH  17  18
ENDBRANCH  16  17
ENDBRANCH  15  16
ENDBRANCH   1  15
TORSDOF 22
ENDMDL
MODEL 5
REMARK VINA RESULT:    -3.252      3.005      6.605
REMARK INTER + INTRA:         -12.083
REMARK INTER:                  -7.657
REMARK INTRA:                  -4.425
REMARK UNBOUND:                -4.648
REMARK SMILES CCCCCCCCCCCCCCCCCCCCCCCC(=O)[O-]
REMARK SMILES IDX 13 1 14 2 15 3 16 4 17 5 18 6 19 7 20 8 21 9 22 10 23 11
REMARK SMILES IDX 24 12 25 13 26 14 12 15 11 16 10 17 9 18 8 19 7 20 6 21 5 22
REMARK SMILES IDX 4 23 3 24 2 25 1 26
REMARK H PARENT
REMARK Flexibility Score: inf
ROOT
ATOM      1  C   UNL     1      20.965  -9.872  28.409  1.00  0.00     0.000 C 
ENDROOT
BRANCH   1   2
ATOM      2  C   UNL     1      20.496  -8.416  28.242  1.00  0.00     0.000 C 
BRANCH   2   3
ATOM      3  C   UNL     1      19.147  -8.282  27.505  1.00  0.00     0.000 C 
BRANCH   3   4
ATOM      4  C   UNL     1      18.585  -6.850  27.570  1.00  0.00     0.000 C 
BRANCH   4   5
ATOM      5  C   UNL     1      19.594  -5.853  28.181  1.00  0.00     0.000 C 
BRANCH   5   6
ATOM      6  C   UNL     1      19.040  -5.078  29.389  1.00  0.00     0.000 C 
BRANCH   6   7
ATOM      7  C   UNL     1      19.513  -5.652  30.735  1.00  0.00     0.000 C 
BRANCH   7   8
ATOM      8  C   UNL     1      18.399  -6.395  31.489  1.00  0.00     0.000 C 
BRANCH   8   9
ATOM      9  C   UNL     1      18.537  -7.923  31.392  1.00  0.00     0.000 C 
BRANCH   9  10
ATOM     10  C   UNL     1      17.328  -8.578  30.706  1.00  0.00     0.006 C 
BRANCH  10  11
ATOM     11  C   UNL     1      16.197  -7.576  30.430  1.00  0.00     0.053 C 
BRANCH  11  12
ATOM     12  C   UNL     1      15.315  -8.064  29.323  1.00  0.00     0.041 C 
ATOM     13  O   UNL     1      14.445  -7.301  28.821  1.00  0.00    -0.550 OA
ATOM     14  O   UNL     1      15.456  -9.358  28.836  1.00  0.00    -0.550 OA
ENDBRANCH  11  12
ENDBRANCH  10  11
ENDBRANCH   9  10
ENDBRANCH   8   9
ENDBRANCH   7   8
ENDBRANCH   6   7
ENDBRANCH   5   6
ENDBRANCH   4   5
ENDBRANCH   3   4
ENDBRANCH   2   3
ENDBRANCH   1   2
BRANCH   1  15
ATOM     15  C   UNL     1      20.080 -10.672  29.377  1.00  0.00     0.000 C 
BRANCH  15  16
ATOM     16  C   UNL     1      20.723 -10.843  30.765  1.00  0.00     0.000 C 
BRANCH  16  17
ATOM     17  C   UNL     1      21.423 -12.199  30.988  1.00  0.00     0.000 C 
BRANCH  17  18
ATOM     18  C   UNL     1      20.775 -13.104  32.055  1.00  0.00    -0.000 C 
BRANCH  18  19
ATOM     19  C   UNL     1      19.258 -13.313  31.903  1.00  0.00    -0.000 C 
BRANCH  19  20
ATOM     20  C   UNL     1      18.466 -12.882  33.147  1.00  0.00    -0.000 C 
BRANCH  20  21
ATOM     21  C   UNL     1      17.687 -11.586  32.878  1.00  0.00    -0.000 C 
BRANCH  21  22
ATOM     22  C   UNL     1      17.959 -10.503  33.935  1.00  0.00    -0.000 C 
BRANCH  22  23
ATOM     23  C   UNL     1      19.385 -10.582  34.510  1.00  0.00    -0.000 C 
BRANCH  23  24
ATOM     24  C   UNL     1      20.244  -9.366  34.128  1.00  0.00    -0.000 C 
BRANCH  24  25
ATOM     25  C   UNL     1      19.854  -8.102  34.909  1.00  0.00    -0.003 C 
ATOM     26  C   UNL     1      20.844  -6.969  34.652  1.00  0.00     0.004 C 
ENDBRANCH  24  25
ENDBRANCH  23  24
ENDBRANCH  22  23
ENDBRANCH  21  22
ENDBRANCH  20  21
ENDBRANCH  19  20
ENDBRANCH  18  19
ENDBRANCH  17  18
ENDBRANCH  16  17
ENDBRANCH  15  16
ENDBRANCH   1  15
TORSDOF 22
ENDMDL
MODEL 6
REMARK VINA RESULT:    -3.215      2.543      6.084
REMARK INTER + INTRA:         -11.998
REMARK INTER:                  -7.541
REMARK INTRA:                  -4.457
REMARK UNBOUND:                -4.648
REMARK SMILES CCCCCCCCCCCCCCCCCCCCCCCC(=O)[O-]
REMARK SMILES IDX 13 1 14 2 15 3 16 4 17 5 18 6 19 7 20 8 21 9 22 10 23 11
REMARK SMILES IDX 24 12 25 13 26 14 12 15 11 16 10 17 9 18 8 19 7 20 6 21 5 22
REMARK SMILES IDX 4 23 3 24 2 25 1 26
REMARK H PARENT
REMARK Flexibility Score: inf
ROOT
ATOM      1  C   UNL     1      20.724  -8.217  28.968  1.00  0.00     0.000 C 
ENDROOT
BRANCH   1   2
ATOM      2  C   UNL     1      20.770  -6.821  28.322  1.00  0.00     0.000 C 
BRANCH   2   3
ATOM      3  C   UNL     1      19.506  -6.477  27.505  1.00  0.00     0.000 C 
BRANCH   3   4
ATOM      4  C   UNL     1      18.948  -5.085  27.853  1.00  0.00     0.000 C 
BRANCH   4   5
ATOM      5  C   UNL     1      17.411  -5.090  27.995  1.00  0.00     0.000 C 
BRANCH   5   6
ATOM      6  C   UNL     1      16.925  -4.976  29.450  1.00  0.00     0.000 C 
BRANCH   6   7
ATOM      7  C   UNL     1      18.013  -5.347  30.473  1.00  0.00     0.000 C 
BRANCH   7   8
ATOM      8  C   UNL     1      17.786  -6.727  31.109  1.00  0.00     0.000 C 
BRANCH   8   9
ATOM      9  C   UNL     1      16.624  -7.494  30.457  1.00  0.00     0.000 C 
BRANCH   9  10
ATOM     10  C   UNL     1      17.111  -8.613  29.523  1.00  0.00     0.006 C 
BRANCH  10  11
ATOM     11  C   UNL     1      16.239  -8.749  28.266  1.00  0.00     0.053 C 
BRANCH  11  12
ATOM     12  C   UNL     1      16.830  -9.743  27.316  1.00  0.00     0.041 C 
ATOM     13  O   UNL     1      16.092 -10.358  26.499  1.00  0.00    -0.550 OA
ATOM     14  O   UNL     1      18.199  -9.988  27.322  1.00  0.00    -0.550 OA
ENDBRANCH  11  12
ENDBRANCH  10  11
ENDBRANCH   9  10
ENDBRANCH   8   9
ENDBRANCH   7   8
ENDBRANCH   6   7
ENDBRANCH   5   6
ENDBRANCH   4   5
ENDBRANCH   3   4
ENDBRANCH   2   3
ENDBRANCH   1   2
BRANCH   1  15
ATOM     15  C   UNL     1      21.026  -8.184  30.473  1.00  0.00     0.000 C 
BRANCH  15  16
ATOM     16  C   UNL     1      20.626  -9.487  31.187  1.00  0.00     0.000 C 
BRANCH  16  17
ATOM     17  C   UNL     1      20.153 -10.616  30.249  1.00  0.00     0.000 C 
BRANCH  17  18
ATOM     18  C   UNL     1      21.142 -11.787  30.080  1.00  0.00    -0.000 C 
BRANCH  18  19
ATOM     19  C   UNL     1      21.466 -12.562  31.370  1.00  0.00    -0.000 C 
BRANCH  19  20
ATOM     20  C   UNL     1      20.240 -13.271  31.966  1.00  0.00    -0.000 C 
BRANCH  20  21
ATOM     21  C   UNL     1      20.160 -13.046  33.483  1.00  0.00    -0.000 C 
BRANCH  21  22
ATOM     22  C   UNL     1      19.056 -12.051  33.876  1.00  0.00    -0.000 C 
BRANCH  22  23
ATOM     23  C   UNL     1      17.831 -12.130  32.949  1.00  0.00    -0.000 C 
BRANCH  23  24
ATOM     24  C   UNL     1      17.312 -10.744  32.535  1.00  0.00    -0.000 C 
BRANCH  24  25
ATOM     25  C   UNL     1      17.799  -9.630  33.474  1.00  0.00    -0.003 C 
ATOM     26  C   UNL     1      16.640  -9.039  34.273  1.00  0.00     0.004 C 
ENDBRANCH  24  25
ENDBRANCH  23  24
ENDBRANCH  22  23
ENDBRANCH  21  22
ENDBRANCH  20  21
ENDBRANCH  19  20
ENDBRANCH  18  19
ENDBRANCH  17  18
ENDBRANCH  16  17
ENDBRANCH  15  16
ENDBRANCH   1  15
TORSDOF 22
ENDMDL
MODEL 7
REMARK VINA RESULT:    -3.206      2.381      4.422
REMARK INTER + INTRA:         -11.977
REMARK INTER:                  -7.150
REMARK INTRA:                  -4.827
REMARK UNBOUND:                -4.648
REMARK SMILES CCCCCCCCCCCCCCCCCCCCCCCC(=O)[O-]
REMARK SMILES IDX 13 1 14 2 15 3 16 4 17 5 18 6 19 7 20 8 21 9 22 10 23 11
REMARK SMILES IDX 24 12 25 13 26 14 12 15 11 16 10 17 9 18 8 19 7 20 6 21 5 22
REMARK SMILES IDX 4 23 3 24 2 25 1 26
REMARK H PARENT
REMARK Flexibility Score: inf
ROOT
ATOM      1  C   UNL     1      18.794  -6.704  26.777  1.00  0.00     0.000 C 
ENDROOT
BRANCH   1   2
ATOM      2  C   UNL     1      18.328  -5.239  26.712  1.00  0.00     0.000 C 
BRANCH   2   3
ATOM      3  C   UNL     1      16.821  -5.057  26.993  1.00  0.00     0.000 C 
BRANCH   3   4
ATOM      4  C   UNL     1      16.560  -4.199  28.244  1.00  0.00     0.000 C 
BRANCH   4   5
ATOM      5  C   UNL     1      16.386  -5.056  29.516  1.00  0.00     0.000 C 
BRANCH   5   6
ATOM      6  C   UNL     1      15.635  -6.377  29.272  1.00  0.00     0.000 C 
BRANCH   6   7
ATOM      7  C   UNL     1      16.282  -7.573  29.991  1.00  0.00     0.000 C 
BRANCH   7   8
ATOM      8  C   UNL     1      16.282  -8.851  29.137  1.00  0.00     0.000 C 
BRANCH   8   9
ATOM      9  C   UNL     1      15.608  -8.648  27.769  1.00  0.00     0.000 C 
BRANCH   9  10
ATOM     10  C   UNL     1      16.044  -9.703  26.740  1.00  0.00     0.006 C 
BRANCH  10  11
ATOM     11  C   UNL     1      17.475 -10.205  26.986  1.00  0.00     0.053 C 
BRANCH  11  12
ATOM     12  C   UNL     1      18.260 -10.215  25.711  1.00  0.00     0.041 C 
ATOM     13  O   UNL     1      17.715  -9.867  24.627  1.00  0.00    -0.550 OA
ATOM     14  O   UNL     1      19.596 -10.598  25.715  1.00  0.00    -0.550 OA
ENDBRANCH  11  12
ENDBRANCH  10  11
ENDBRANCH   9  10
ENDBRANCH   8   9
ENDBRANCH   7   8
ENDBRANCH   6   7
ENDBRANCH   5   6
ENDBRANCH   4   5
ENDBRANCH   3   4
ENDBRANCH   2   3
ENDBRANCH   1   2
BRANCH   1  15
ATOM     15  C   UNL     1      19.424  -7.065  28.130  1.00  0.00     0.000 C 
BRANCH  15  16
ATOM     16  C   UNL     1      20.894  -6.621  28.238  1.00  0.00     0.000 C 
BRANCH  16  17
ATOM     17  C   UNL     1      21.227  -5.794  29.496  1.00  0.00     0.000 C 
BRANCH  17  18
ATOM     18  C   UNL     1      20.060  -4.959  30.061  1.00  0.00    -0.000 C 
BRANCH  18  19
ATOM     19  C   UNL     1      19.875  -5.041  31.587  1.00  0.00    -0.000 C 
BRANCH  19  20
ATOM     20  C   UNL     1      18.879  -6.132  32.011  1.00  0.00    -0.000 C 
BRANCH  20  21
ATOM     21  C   UNL     1      19.563  -7.182  32.899  1.00  0.00    -0.000 C 
BRANCH  21  22
ATOM     22  C   UNL     1      20.372  -8.207  32.087  1.00  0.00    -0.000 C 
BRANCH  22  23
ATOM     23  C   UNL     1      19.488  -9.052  31.153  1.00  0.00    -0.000 C 
BRANCH  23  24
ATOM     24  C   UNL     1      19.664 -10.562  31.379  1.00  0.00    -0.000 C 
BRANCH  24  25
ATOM     25  C   UNL     1      20.646 -11.196  30.382  1.00  0.00    -0.003 C 
ATOM     26  C   UNL     1      20.644 -10.443  29.054  1.00  0.00     0.004 C 
ENDBRANCH  24  25
ENDBRANCH  23  24
ENDBRANCH  22  23
ENDBRANCH  21  22
ENDBRANCH  20  21
ENDBRANCH  19  20
ENDBRANCH  18  19
ENDBRANCH  17  18
ENDBRANCH  16  17
ENDBRANCH  15  16
ENDBRANCH   1  15
TORSDOF 22
ENDMDL
MODEL 8
REMARK VINA RESULT:    -3.193      2.324      3.934
REMARK INTER + INTRA:         -11.947
REMARK INTER:                  -7.433
REMARK INTRA:                  -4.514
REMARK UNBOUND:                -4.648
REMARK SMILES CCCCCCCCCCCCCCCCCCCCCCCC(=O)[O-]
REMARK SMILES IDX 13 1 14 2 15 3 16 4 17 5 18 6 19 7 20 8 21 9 22 10 23 11
REMARK SMILES IDX 24 12 25 13 26 14 12 15 11 16 10 17 9 18 8 19 7 20 6 21 5 22
REMARK SMILES IDX 4 23 3 24 2 25 1 26
REMARK H PARENT
REMARK Flexibility Score: inf
ROOT
ATOM      1  C   UNL     1      17.289  -8.102  31.452  1.00  0.00     0.000 C 
ENDROOT
BRANCH   1   2
ATOM      2  C   UNL     1      18.313  -9.144  30.969  1.00  0.00     0.000 C 
BRANCH   2   3
ATOM      3  C   UNL     1      19.779  -8.693  31.138  1.00  0.00     0.000 C 
BRANCH   3   4
ATOM      4  C   UNL     1      20.749  -9.531  30.286  1.00  0.00     0.000 C 
BRANCH   4   5
ATOM      5  C   UNL     1      20.292 -11.000  30.152  1.00  0.00     0.000 C 
BRANCH   5   6
ATOM      6  C   UNL     1      20.987 -11.954  31.138  1.00  0.00     0.000 C 
BRANCH   6   7
ATOM      7  C   UNL     1      19.993 -12.757  31.995  1.00  0.00     0.000 C 
BRANCH   7   8
ATOM      8  C   UNL     1      20.186 -12.528  33.501  1.00  0.00     0.000 C 
BRANCH   8   9
ATOM      9  C   UNL     1      18.928 -11.960  34.180  1.00  0.00     0.000 C 
BRANCH   9  10
ATOM     10  C   UNL     1      18.955 -10.426  34.272  1.00  0.00     0.006 C 
BRANCH  10  11
ATOM     11  C   UNL     1      20.360  -9.881  34.567  1.00  0.00     0.053 C 
BRANCH  11  12
ATOM     12  C   UNL     1      20.312  -8.407  34.829  1.00  0.00     0.041 C 
ATOM     13  O   UNL     1      21.124  -7.634  34.251  1.00  0.00    -0.550 OA
ATOM     14  O   UNL     1      19.368  -7.883  35.703  1.00  0.00    -0.550 OA
ENDBRANCH  11  12
ENDBRANCH  10  11
ENDBRANCH   9  10
ENDBRANCH   8   9
ENDBRANCH   7   8
ENDBRANCH   6   7
ENDBRANCH   5   6
ENDBRANCH   4   5
ENDBRANCH   3   4
ENDBRANCH   2   3
ENDBRANCH   1   2
BRANCH   1  15
ATOM     15  C   UNL     1      16.792  -7.191  30.320  1.00  0.00     0.000 C 
BRANCH  15  16
ATOM     16  C   UNL     1      17.105  -5.706  30.573  1.00  0.00     0.000 C 
BRANCH  16  17
ATOM     17  C   UNL     1      18.080  -5.442  31.738  1.00  0.00     0.000 C 
BRANCH  17  18
ATOM     18  C   UNL     1      19.499  -5.004  31.321  1.00  0.00    -0.000 C 
BRANCH  18  19
ATOM     19  C   UNL     1      19.765  -5.009  29.805  1.00  0.00    -0.000 C 
BRANCH  19  20
ATOM     20  C   UNL     1      21.083  -5.704  29.431  1.00  0.00    -0.000 C 
BRANCH  20  21
ATOM     21  C   UNL     1      20.899  -6.595  28.193  1.00  0.00    -0.000 C 
BRANCH  21  22
ATOM     22  C   UNL     1      19.425  -6.932  27.920  1.00  0.00    -0.000 C 
BRANCH  22  23
ATOM     23  C   UNL     1      19.247  -7.877  26.718  1.00  0.00    -0.000 C 
BRANCH  23  24
ATOM     24  C   UNL     1      17.885  -8.589  26.722  1.00  0.00    -0.000 C 
BRANCH  24  25
ATOM     25  C   UNL     1      17.929  -9.940  27.452  1.00  0.00    -0.003 C 
ATOM     26  C   UNL     1      18.869 -10.915  26.749  1.00  0.00     0.004 C 
ENDBRANCH  24  25
ENDBRANCH  23  24
ENDBRANCH  22  23
ENDBRANCH  21  22
ENDBRANCH  20  21
ENDBRANCH  19  20
ENDBRANCH  18  19
ENDBRANCH  17  18
ENDBRANCH  16  17
ENDBRANCH  15  16
ENDBRANCH   1  15
TORSDOF 22
ENDMDL
MODEL 9
REMARK VINA RESULT:    -3.167      2.713      4.914
REMARK INTER + INTRA:         -11.889
REMARK INTER:                  -7.413
REMARK INTRA:                  -4.476
REMARK UNBOUND:                -4.648
REMARK SMILES CCCCCCCCCCCCCCCCCCCCCCCC(=O)[O-]
REMARK SMILES IDX 13 1 14 2 15 3 16 4 17 5 18 6 19 7 20 8 21 9 22 10 23 11
REMARK SMILES IDX 24 12 25 13 26 14 12 15 11 16 10 17 9 18 8 19 7 20 6 21 5 22
REMARK SMILES IDX 4 23 3 24 2 25 1 26
REMARK H PARENT
REMARK Flexibility Score: inf
ROOT
ATOM      1  C   UNL     1      16.643  -7.910  29.450  1.00  0.00     0.000 C 
ENDROOT
BRANCH   1   2
ATOM      2  C   UNL     1      15.851  -9.115  28.913  1.00  0.00     0.000 C 
BRANCH   2   3
ATOM      3  C   UNL     1      15.672  -9.103  27.380  1.00  0.00     0.000 C 
BRANCH   3   4
ATOM      4  C   UNL     1      16.689  -8.182  26.681  1.00  0.00     0.000 C 
BRANCH   4   5
ATOM      5  C   UNL     1      17.633  -8.961  25.740  1.00  0.00     0.000 C 
BRANCH   5   6
ATOM      6  C   UNL     1      17.586 -10.485  25.942  1.00  0.00     0.000 C 
BRANCH   6   7
ATOM      7  C   UNL     1      18.911 -11.059  26.472  1.00  0.00     0.000 C 
BRANCH   7   8
ATOM      8  C   UNL     1      19.275 -10.525  27.866  1.00  0.00     0.000 C 
BRANCH   8   9
ATOM      9  C   UNL     1      20.665  -9.868  27.903  1.00  0.00     0.000 C 
BRANCH   9  10
ATOM     10  C   UNL     1      20.679  -8.575  28.734  1.00  0.00     0.006 C 
BRANCH  10  11
ATOM     11  C   UNL     1      20.241  -7.349  27.918  1.00  0.00     0.053 C 
BRANCH  11  12
ATOM     12  C   UNL     1      20.270  -6.113  28.763  1.00  0.00     0.041 C 
ATOM     13  O   UNL     1      19.219  -5.438  28.936  1.00  0.00    -0.550 OA
ATOM     14  O   UNL     1      21.455  -5.707  29.367  1.00  0.00    -0.550 OA
ENDBRANCH  11  12
ENDBRANCH  10  11
ENDBRANCH   9  10
ENDBRANCH   8   9
ENDBRANCH   7   8
ENDBRANCH   6   7
ENDBRANCH   5   6
ENDBRANCH   4   5
ENDBRANCH   3   4
ENDBRANCH   2   3
ENDBRANCH   1   2
BRANCH   1  15
ATOM     15  C   UNL     1      17.561  -8.280  30.625  1.00  0.00     0.000 C 
BRANCH  15  16
ATOM     16  C   UNL     1      17.374  -7.353  31.838  1.00  0.00     0.000 C 
BRANCH  16  17
ATOM     17  C   UNL     1      18.666  -6.672  32.333  1.00  0.00     0.000 C 
BRANCH  17  18
ATOM     18  C   UNL     1      19.951  -7.509  32.177  1.00  0.00    -0.000 C 
BRANCH  18  19
ATOM     19  C   UNL     1      20.629  -7.918  33.498  1.00  0.00    -0.000 C 
BRANCH  19  20
ATOM     20  C   UNL     1      19.714  -8.754  34.407  1.00  0.00    -0.000 C 
BRANCH  20  21
ATOM     21  C   UNL     1      19.946 -10.256  34.186  1.00  0.00    -0.000 C 
BRANCH  21  22
ATOM     22  C   UNL     1      18.694 -10.978  33.663  1.00  0.00    -0.000 C 
BRANCH  22  23
ATOM     23  C   UNL     1      18.979 -11.819  32.406  1.00  0.00    -0.000 C 
BRANCH  23  24
ATOM     24  C   UNL     1      19.813 -11.058  31.363  1.00  0.00    -0.000 C 
BRANCH  24  25
ATOM     25  C   UNL     1      21.082 -11.822  30.954  1.00  0.00    -0.003 C 
ATOM     26  C   UNL     1      21.455 -12.870  32.000  1.00  0.00     0.004 C 
ENDBRANCH  24  25
ENDBRANCH  23  24
ENDBRANCH  22  23
ENDBRANCH  21  22
ENDBRANCH  20  21
ENDBRANCH  19  20
ENDBRANCH  18  19
ENDBRANCH  17  18
ENDBRANCH  16  17
ENDBRANCH  15  16
ENDBRANCH   1  15
TORSDOF 22
ENDMDL
