MODEL 1
REMARK VINA RESULT:    -6.573      0.000      0.000
REMARK INTER + INTRA:          -7.053
REMARK INTER:                  -6.958
REMARK INTRA:                  -0.095
REMARK UNBOUND:                -0.095
REMARK SMILES C=C(C)[C@@H]1CC=C(C)C(=O)C1
REMARK SMILES IDX 8 1 7 2 6 3 5 4 4 5 11 6 9 7 10 8 2 9 1 10 3 11
REMARK H PARENT
REMARK Flexibility Score: inf
ROOT
ATOM      1  C   UNL     1      -2.985 -11.373  25.913  1.00  0.00     0.048 C 
ATOM      2  C   UNL     1      -3.720 -12.263  26.877  1.00  0.00    -0.012 C 
ATOM      3  C   UNL     1      -4.099 -13.495  26.495  1.00  0.00    -0.019 C 
ATOM      4  C   UNL     1      -4.821 -14.433  27.426  1.00  0.00     0.036 C 
ATOM      5  C   UNL     1      -5.724 -13.658  28.405  1.00  0.00     0.025 C 
ATOM      6  C   UNL     1      -4.901 -12.600  29.164  1.00  0.00     0.089 C 
ATOM      7  C   UNL     1      -4.132 -11.737  28.203  1.00  0.00     0.158 C 
ATOM      8  O   UNL     1      -3.809 -10.569  28.550  1.00  0.00    -0.295 OA
ENDROOT
BRANCH   5   9
ATOM      9  C   UNL     1      -6.453 -14.594  29.358  1.00  0.00    -0.077 C 
ATOM     10  C   UNL     1      -6.027 -14.777  30.621  1.00  0.00     0.008 C 
ATOM     11  C   UNL     1      -7.678 -15.340  28.896  1.00  0.00     0.039 C 
ENDBRANCH   5   9
TORSDOF 1
ENDMDL
MODEL 2
REMARK VINA RESULT:    -5.893      2.596      4.538
REMARK INTER + INTRA:          -6.333
REMARK INTER:                  -6.239
REMARK INTRA:                  -0.094
REMARK UNBOUND:                -0.095
REMARK SMILES C=C(C)[C@@H]1CC=C(C)C(=O)C1
REMARK SMILES IDX 8 1 7 2 6 3 5 4 4 5 11 6 9 7 10 8 2 9 1 10 3 11
REMARK H PARENT
REMARK Flexibility Score: inf
ROOT
ATOM      1  C   UNL     1      -7.145 -14.763  28.718  1.00  0.00     0.048 C 
ATOM      2  C   UNL     1      -5.821 -14.403  29.334  1.00  0.00    -0.012 C 
ATOM      3  C   UNL     1      -5.699 -14.349  30.671  1.00  0.00    -0.019 C 
ATOM      4  C   UNL     1      -4.392 -14.010  31.341  1.00  0.00     0.036 C 
ATOM      5  C   UNL     1      -3.570 -13.025  30.488  1.00  0.00     0.025 C 
ATOM      6  C   UNL     1      -3.370 -13.588  29.068  1.00  0.00     0.089 C 
ATOM      7  C   UNL     1      -4.690 -13.989  28.467  1.00  0.00     0.158 C 
ATOM      8  O   UNL     1      -4.813 -14.005  27.213  1.00  0.00    -0.295 OA
ENDROOT
BRANCH   5   9
ATOM      9  C   UNL     1      -2.242 -12.682  31.148  1.00  0.00    -0.077 C 
ATOM     10  C   UNL     1      -1.201 -13.532  31.109  1.00  0.00     0.008 C 
ATOM     11  C   UNL     1      -2.072 -11.368  31.866  1.00  0.00     0.039 C 
ENDBRANCH   5   9
TORSDOF 1
ENDMDL
MODEL 3
REMARK VINA RESULT:    -5.823      3.045      4.737
REMARK INTER + INTRA:          -6.258
REMARK INTER:                  -6.165
REMARK INTRA:                  -0.093
REMARK UNBOUND:                -0.095
REMARK SMILES C=C(C)[C@@H]1CC=C(C)C(=O)C1
REMARK SMILES IDX 8 1 7 2 6 3 5 4 4 5 11 6 9 7 10 8 2 9 1 10 3 11
REMARK H PARENT
REMARK Flexibility Score: inf
ROOT
ATOM      1  C   UNL     1      -6.839 -14.569  28.751  1.00  0.00     0.048 C 
ATOM      2  C   UNL     1      -5.675 -13.907  29.437  1.00  0.00    -0.012 C 
ATOM      3  C   UNL     1      -4.888 -13.060  28.752  1.00  0.00    -0.019 C 
ATOM      4  C   UNL     1      -3.721 -12.357  29.394  1.00  0.00     0.036 C 
ATOM      5  C   UNL     1      -3.081 -13.232  30.488  1.00  0.00     0.025 C 
ATOM      6  C   UNL     1      -4.143 -13.661  31.518  1.00  0.00     0.089 C 
ATOM      7  C   UNL     1      -5.326 -14.284  30.829  1.00  0.00     0.158 C 
ATOM      8  O   UNL     1      -6.042 -15.106  31.462  1.00  0.00    -0.295 OA
ENDROOT
BRANCH   5   9
ATOM      9  C   UNL     1      -1.905 -12.530  31.153  1.00  0.00    -0.077 C 
ATOM     10  C   UNL     1      -2.066 -11.366  31.808  1.00  0.00     0.008 C 
ATOM     11  C   UNL     1      -0.527 -13.135  31.086  1.00  0.00     0.039 C 
ENDBRANCH   5   9
TORSDOF 1
ENDMDL
MODEL 4
REMARK VINA RESULT:    -5.763      3.062      3.939
REMARK INTER + INTRA:          -6.195
REMARK INTER:                  -6.100
REMARK INTRA:                  -0.095
REMARK UNBOUND:                -0.095
REMARK SMILES C=C(C)[C@@H]1CC=C(C)C(=O)C1
REMARK SMILES IDX 8 1 7 2 6 3 5 4 4 5 11 6 9 7 10 8 2 9 1 10 3 11
REMARK H PARENT
REMARK Flexibility Score: inf
ROOT
ATOM      1  C   UNL     1      -0.023 -12.801  31.432  1.00  0.00     0.048 C 
ATOM      2  C   UNL     1      -1.244 -12.921  30.562  1.00  0.00    -0.012 C 
ATOM      3  C   UNL     1      -2.464 -12.731  31.092  1.00  0.00    -0.019 C 
ATOM      4  C   UNL     1      -3.718 -12.822  30.262  1.00  0.00     0.036 C 
ATOM      5  C   UNL     1      -3.561 -13.856  29.131  1.00  0.00     0.025 C 
ATOM      6  C   UNL     1      -2.319 -13.530  28.279  1.00  0.00     0.089 C 
ATOM      7  C   UNL     1      -1.106 -13.367  29.153  1.00  0.00     0.158 C 
ATOM      8  O   UNL     1       0.036 -13.580  28.664  1.00  0.00    -0.295 OA
ENDROOT
BRANCH   5   9
ATOM      9  C   UNL     1      -4.818 -13.952  28.278  1.00  0.00    -0.077 C 
ATOM     10  C   UNL     1      -6.036 -13.718  28.799  1.00  0.00     0.008 C 
ATOM     11  C   UNL     1      -4.716 -14.314  26.819  1.00  0.00     0.039 C 
ENDBRANCH   5   9
TORSDOF 1
ENDMDL
MODEL 5
REMARK VINA RESULT:    -5.710      2.969      4.406
REMARK INTER + INTRA:          -6.139
REMARK INTER:                  -6.047
REMARK INTRA:                  -0.091
REMARK UNBOUND:                -0.095
REMARK SMILES C=C(C)[C@@H]1CC=C(C)C(=O)C1
REMARK SMILES IDX 8 1 7 2 6 3 5 4 4 5 11 6 9 7 10 8 2 9 1 10 3 11
REMARK H PARENT
REMARK Flexibility Score: inf
ROOT
ATOM      1  C   UNL     1       0.011 -12.609  31.672  1.00  0.00     0.048 C 
ATOM      2  C   UNL     1      -0.956 -12.690  30.523  1.00  0.00    -0.012 C 
ATOM      3  C   UNL     1      -0.807 -13.646  29.590  1.00  0.00    -0.019 C 
ATOM      4  C   UNL     1      -1.757 -13.783  28.429  1.00  0.00     0.036 C 
ATOM      5  C   UNL     1      -2.303 -12.410  27.993  1.00  0.00     0.025 C 
ATOM      6  C   UNL     1      -2.947 -11.688  29.192  1.00  0.00     0.089 C 
ATOM      7  C   UNL     1      -1.996 -11.644  30.356  1.00  0.00     0.158 C 
ATOM      8  O   UNL     1      -2.115 -10.726  31.212  1.00  0.00    -0.295 OA
ENDROOT
BRANCH   5   9
ATOM      9  C   UNL     1      -3.272 -12.535  26.826  1.00  0.00    -0.077 C 
ATOM     10  C   UNL     1      -3.345 -11.588  25.873  1.00  0.00     0.008 C 
ATOM     11  C   UNL     1      -4.176 -13.735  26.719  1.00  0.00     0.039 C 
ENDBRANCH   5   9
TORSDOF 1
ENDMDL
MODEL 6
REMARK VINA RESULT:    -5.693      1.864      4.492
REMARK INTER + INTRA:          -6.121
REMARK INTER:                  -6.030
REMARK INTRA:                  -0.092
REMARK UNBOUND:                -0.095
REMARK SMILES C=C(C)[C@@H]1CC=C(C)C(=O)C1
REMARK SMILES IDX 8 1 7 2 6 3 5 4 4 5 11 6 9 7 10 8 2 9 1 10 3 11
REMARK H PARENT
REMARK Flexibility Score: inf
ROOT
ATOM      1  C   UNL     1      -5.678 -15.004  32.536  1.00  0.00     0.048 C 
ATOM      2  C   UNL     1      -5.303 -14.371  31.224  1.00  0.00    -0.012 C 
ATOM      3  C   UNL     1      -6.069 -14.577  30.140  1.00  0.00    -0.019 C 
ATOM      4  C   UNL     1      -5.750 -13.953  28.806  1.00  0.00     0.036 C 
ATOM      5  C   UNL     1      -4.228 -13.803  28.614  1.00  0.00     0.025 C 
ATOM      6  C   UNL     1      -3.618 -13.015  29.789  1.00  0.00     0.089 C 
ATOM      7  C   UNL     1      -4.027 -13.622  31.102  1.00  0.00     0.158 C 
ATOM      8  O   UNL     1      -3.289 -13.458  32.111  1.00  0.00    -0.295 OA
ENDROOT
BRANCH   5   9
ATOM      9  C   UNL     1      -3.892 -13.164  27.273  1.00  0.00    -0.077 C 
ATOM     10  C   UNL     1      -4.158 -13.791  26.114  1.00  0.00     0.008 C 
ATOM     11  C   UNL     1      -3.246 -11.804  27.225  1.00  0.00     0.039 C 
ENDBRANCH   5   9
TORSDOF 1
ENDMDL
MODEL 7
REMARK VINA RESULT:    -5.665      1.690      2.670
REMARK INTER + INTRA:          -6.092
REMARK INTER:                  -5.995
REMARK INTRA:                  -0.096
REMARK UNBOUND:                -0.095
REMARK SMILES C=C(C)[C@@H]1CC=C(C)C(=O)C1
REMARK SMILES IDX 8 1 7 2 6 3 5 4 4 5 11 6 9 7 10 8 2 9 1 10 3 11
REMARK H PARENT
REMARK Flexibility Score: inf
ROOT
ATOM      1  C   UNL     1      -3.013 -11.376  26.117  1.00  0.00     0.048 C 
ATOM      2  C   UNL     1      -3.712 -11.980  27.304  1.00  0.00    -0.012 C 
ATOM      3  C   UNL     1      -3.864 -11.260  28.429  1.00  0.00    -0.019 C 
ATOM      4  C   UNL     1      -4.572 -11.809  29.639  1.00  0.00     0.036 C 
ATOM      5  C   UNL     1      -4.359 -13.330  29.764  1.00  0.00     0.025 C 
ATOM      6  C   UNL     1      -4.790 -14.037  28.465  1.00  0.00     0.089 C 
ATOM      7  C   UNL     1      -4.124 -13.406  27.273  1.00  0.00     0.158 C 
ATOM      8  O   UNL     1      -3.950 -14.094  26.231  1.00  0.00    -0.295 OA
ENDROOT
BRANCH   5   9
ATOM      9  C   UNL     1      -5.078 -13.901  30.979  1.00  0.00    -0.077 C 
ATOM     10  C   UNL     1      -6.077 -14.791  30.846  1.00  0.00     0.008 C 
ATOM     11  C   UNL     1      -4.676 -13.471  32.366  1.00  0.00     0.039 C 
ENDBRANCH   5   9
TORSDOF 1
ENDMDL
MODEL 8
REMARK VINA RESULT:    -5.508      2.284      3.466
REMARK INTER + INTRA:          -5.925
REMARK INTER:                  -5.831
REMARK INTRA:                  -0.093
REMARK UNBOUND:                -0.095
REMARK SMILES C=C(C)[C@@H]1CC=C(C)C(=O)C1
REMARK SMILES IDX 8 1 7 2 6 3 5 4 4 5 11 6 9 7 10 8 2 9 1 10 3 11
REMARK H PARENT
REMARK Flexibility Score: inf
ROOT
ATOM      1  C   UNL     1      -3.029 -10.302  31.962  1.00  0.00     0.048 C 
ATOM      2  C   UNL     1      -3.609 -11.247  30.946  1.00  0.00    -0.012 C 
ATOM      3  C   UNL     1      -4.607 -10.837  30.145  1.00  0.00    -0.019 C 
ATOM      4  C   UNL     1      -5.213 -11.735  29.099  1.00  0.00     0.036 C 
ATOM      5  C   UNL     1      -5.192 -13.208  29.553  1.00  0.00     0.025 C 
ATOM      6  C   UNL     1      -3.759 -13.630  29.928  1.00  0.00     0.089 C 
ATOM      7  C   UNL     1      -3.162 -12.662  30.912  1.00  0.00     0.158 C 
ATOM      8  O   UNL     1      -2.250 -13.058  31.686  1.00  0.00    -0.295 OA
ENDROOT
BRANCH   5   9
ATOM      9  C   UNL     1      -5.792 -14.129  28.500  1.00  0.00    -0.077 C 
ATOM     10  C   UNL     1      -5.129 -14.421  27.367  1.00  0.00     0.008 C 
ATOM     11  C   UNL     1      -7.155 -14.735  28.713  1.00  0.00     0.039 C 
ENDBRANCH   5   9
TORSDOF 1
ENDMDL
MODEL 9
REMARK VINA RESULT:    -5.433      2.183      4.966
REMARK INTER + INTRA:          -5.846
REMARK INTER:                  -5.750
REMARK INTRA:                  -0.095
REMARK UNBOUND:                -0.095
REMARK SMILES C=C(C)[C@@H]1CC=C(C)C(=O)C1
REMARK SMILES IDX 8 1 7 2 6 3 5 4 4 5 11 6 9 7 10 8 2 9 1 10 3 11
REMARK H PARENT
REMARK Flexibility Score: inf
ROOT
ATOM      1  C   UNL     1      -5.642 -15.123  32.510  1.00  0.00     0.048 C 
ATOM      2  C   UNL     1      -5.044 -14.333  31.379  1.00  0.00    -0.012 C 
ATOM      3  C   UNL     1      -3.960 -13.569  31.597  1.00  0.00    -0.019 C 
ATOM      4  C   UNL     1      -3.310 -12.772  30.496  1.00  0.00     0.036 C 
ATOM      5  C   UNL     1      -4.353 -12.291  29.469  1.00  0.00     0.025 C 
ATOM      6  C   UNL     1      -5.158 -13.487  28.927  1.00  0.00     0.089 C 
ATOM      7  C   UNL     1      -5.721 -14.302  30.059  1.00  0.00     0.158 C 
ATOM      8  O   UNL     1      -6.759 -14.991  29.862  1.00  0.00    -0.295 OA
ENDROOT
BRANCH   5   9
ATOM      9  C   UNL     1      -3.708 -11.492  28.345  1.00  0.00    -0.077 C 
ATOM     10  C   UNL     1      -3.507 -12.032  27.130  1.00  0.00     0.008 C 
ATOM     11  C   UNL     1      -3.280 -10.067  28.580  1.00  0.00     0.039 C 
ENDBRANCH   5   9
TORSDOF 1
ENDMDL
