MODEL 1
REMARK VINA RESULT:    -5.127      0.000      0.000
REMARK INTER + INTRA:          -5.686
REMARK INTER:                  -5.427
REMARK INTRA:                  -0.259
REMARK UNBOUND:                -0.259
REMARK SMILES CC1=CC[C@H]2[C@H]3[C@@H]1[C@]2(C)CC[C@H]3C(C)C
REMARK SMILES IDX 1 1 2 2 3 3 4 4 5 5 6 6 7 7 8 8 10 9 11 10 12 11 9 12 13 13
REMARK SMILES IDX 14 14 15 15
REMARK H PARENT
REMARK Flexibility Score: inf
ROOT
ATOM      1  C   UNL     1     133.006 134.818 140.014  1.00  0.00     0.039 C 
ATOM      2  C   UNL     1     133.470 135.058 138.609  1.00  0.00    -0.073 C 
ATOM      3  C   UNL     1     133.707 136.314 138.149  1.00  0.00    -0.027 C 
ATOM      4  C   UNL     1     134.157 136.498 136.697  1.00  0.00     0.031 C 
ATOM      5  C   UNL     1     134.299 135.112 135.990  1.00  0.00     0.003 C 
ATOM      6  C   UNL     1     135.076 134.175 136.954  1.00  0.00     0.004 C 
ATOM      7  C   UNL     1     133.715 133.903 137.634  1.00  0.00     0.024 C 
ATOM      8  C   UNL     1     133.070 134.206 136.262  1.00  0.00    -0.022 C 
ATOM      9  C   UNL     1     133.130 132.923 135.376  1.00  0.00     0.008 C 
ATOM     10  C   UNL     1     134.584 132.447 135.114  1.00  0.00     0.005 C 
ATOM     11  C   UNL     1     135.569 132.879 136.245  1.00  0.00    -0.005 C 
ATOM     12  C   UNL     1     131.655 134.829 136.235  1.00  0.00     0.012 C 
ENDROOT
BRANCH  11  13
ATOM     13  C   UNL     1     137.058 132.979 135.795  1.00  0.00    -0.014 C 
ATOM     14  C   UNL     1     137.248 133.154 134.279  1.00  0.00     0.007 C 
ATOM     15  C   UNL     1     137.885 131.788 136.302  1.00  0.00     0.007 C 
ENDBRANCH  11  13
TORSDOF 1
ENDMDL
MODEL 2
REMARK VINA RESULT:    -5.120      3.281      5.108
REMARK INTER + INTRA:          -5.679
REMARK INTER:                  -5.419
REMARK INTRA:                  -0.259
REMARK UNBOUND:                -0.259
REMARK SMILES CC1=CC[C@H]2[C@H]3[C@@H]1[C@]2(C)CC[C@H]3C(C)C
REMARK SMILES IDX 1 1 2 2 3 3 4 4 5 5 6 6 7 7 8 8 10 9 11 10 12 11 9 12 13 13
REMARK SMILES IDX 14 14 15 15
REMARK H PARENT
REMARK Flexibility Score: inf
ROOT
ATOM      1  C   UNL     1     137.868 133.009 140.007  1.00  0.00     0.039 C 
ATOM      2  C   UNL     1     137.607 133.477 138.607  1.00  0.00    -0.073 C 
ATOM      3  C   UNL     1     136.344 133.710 138.165  1.00  0.00    -0.027 C 
ATOM      4  C   UNL     1     136.138 134.164 136.717  1.00  0.00     0.031 C 
ATOM      5  C   UNL     1     137.513 134.314 135.992  1.00  0.00     0.003 C 
ATOM      6  C   UNL     1     138.460 135.092 136.945  1.00  0.00     0.004 C 
ATOM      7  C   UNL     1     138.748 133.730 137.617  1.00  0.00     0.024 C 
ATOM      8  C   UNL     1     138.429 133.089 136.247  1.00  0.00    -0.022 C 
ATOM      9  C   UNL     1     139.699 133.157 135.344  1.00  0.00     0.008 C 
ATOM     10  C   UNL     1     140.165 134.615 135.080  1.00  0.00     0.005 C 
ATOM     11  C   UNL     1     139.745 135.594 136.220  1.00  0.00    -0.005 C 
ATOM     12  C   UNL     1     137.811 131.671 136.223  1.00  0.00     0.012 C 
ENDROOT
BRANCH  11  13
ATOM     13  C   UNL     1     139.632 137.084 135.777  1.00  0.00    -0.014 C 
ATOM     14  C   UNL     1     139.431 137.278 134.265  1.00  0.00     0.007 C 
ATOM     15  C   UNL     1     140.828 137.913 136.267  1.00  0.00     0.007 C 
ENDBRANCH  11  13
TORSDOF 1
ENDMDL
MODEL 3
REMARK VINA RESULT:    -5.107      5.001      7.186
REMARK INTER + INTRA:          -5.664
REMARK INTER:                  -5.402
REMARK INTRA:                  -0.262
REMARK UNBOUND:                -0.259
REMARK SMILES CC1=CC[C@H]2[C@H]3[C@@H]1[C@]2(C)CC[C@H]3C(C)C
REMARK SMILES IDX 1 1 2 2 3 3 4 4 5 5 6 6 7 7 8 8 10 9 11 10 12 11 9 12 13 13
REMARK SMILES IDX 14 14 15 15
REMARK H PARENT
REMARK Flexibility Score: inf
ROOT
ATOM      1  C   UNL     1     139.561 137.863 140.044  1.00  0.00     0.039 C 
ATOM      2  C   UNL     1     139.107 137.609 138.638  1.00  0.00    -0.073 C 
ATOM      3  C   UNL     1     138.887 136.347 138.185  1.00  0.00    -0.027 C 
ATOM      4  C   UNL     1     138.448 136.149 136.731  1.00  0.00     0.031 C 
ATOM      5  C   UNL     1     138.293 137.529 136.015  1.00  0.00     0.003 C 
ATOM      6  C   UNL     1     137.500 138.463 136.968  1.00  0.00     0.004 C 
ATOM      7  C   UNL     1     138.854 138.755 137.655  1.00  0.00     0.024 C 
ATOM      8  C   UNL     1     139.510 138.451 136.288  1.00  0.00    -0.022 C 
ATOM      9  C   UNL     1     139.440 139.728 135.394  1.00  0.00     0.008 C 
ATOM     10  C   UNL     1     137.982 140.185 135.120  1.00  0.00     0.005 C 
ATOM     11  C   UNL     1     136.996 139.749 136.249  1.00  0.00    -0.005 C 
ATOM     12  C   UNL     1     140.933 137.844 136.272  1.00  0.00     0.012 C 
ENDROOT
BRANCH  11  13
ATOM     13  C   UNL     1     135.511 139.628 135.792  1.00  0.00    -0.014 C 
ATOM     14  C   UNL     1     135.333 139.384 134.283  1.00  0.00     0.007 C 
ATOM     15  C   UNL     1     134.680 140.841 136.237  1.00  0.00     0.007 C 
ENDBRANCH  11  13
TORSDOF 1
ENDMDL
MODEL 4
REMARK VINA RESULT:    -5.096      3.213      5.057
REMARK INTER + INTRA:          -5.653
REMARK INTER:                  -5.390
REMARK INTRA:                  -0.263
REMARK UNBOUND:                -0.259
REMARK SMILES CC1=CC[C@H]2[C@H]3[C@@H]1[C@]2(C)CC[C@H]3C(C)C
REMARK SMILES IDX 1 1 2 2 3 3 4 4 5 5 6 6 7 7 8 8 10 9 11 10 12 11 9 12 13 13
REMARK SMILES IDX 14 14 15 15
REMARK H PARENT
REMARK Flexibility Score: inf
ROOT
ATOM      1  C   UNL     1     134.859 139.586 140.063  1.00  0.00     0.039 C 
ATOM      2  C   UNL     1     135.095 139.122 138.657  1.00  0.00    -0.073 C 
ATOM      3  C   UNL     1     136.350 138.890 138.192  1.00  0.00    -0.027 C 
ATOM      4  C   UNL     1     136.529 138.441 136.739  1.00  0.00     0.031 C 
ATOM      5  C   UNL     1     135.141 138.291 136.039  1.00  0.00     0.003 C 
ATOM      6  C   UNL     1     134.212 137.510 137.007  1.00  0.00     0.004 C 
ATOM      7  C   UNL     1     133.936 138.870 137.688  1.00  0.00     0.024 C 
ATOM      8  C   UNL     1     134.230 139.515 136.313  1.00  0.00    -0.022 C 
ATOM      9  C   UNL     1     132.943 139.449 135.434  1.00  0.00     0.008 C 
ATOM     10  C   UNL     1     132.473 137.991 135.175  1.00  0.00     0.005 C 
ATOM     11  C   UNL     1     132.915 137.009 136.305  1.00  0.00    -0.005 C 
ATOM     12  C   UNL     1     134.846 140.934 136.282  1.00  0.00     0.012 C 
ENDROOT
BRANCH  11  13
ATOM     13  C   UNL     1     133.021 135.521 135.855  1.00  0.00    -0.014 C 
ATOM     14  C   UNL     1     133.263 135.333 134.348  1.00  0.00     0.007 C 
ATOM     15  C   UNL     1     131.800 134.705 136.305  1.00  0.00     0.007 C 
ENDBRANCH  11  13
TORSDOF 1
ENDMDL
MODEL 5
REMARK VINA RESULT:    -4.963      3.512      5.845
REMARK INTER + INTRA:          -5.512
REMARK INTER:                  -5.103
REMARK INTRA:                  -0.409
REMARK UNBOUND:                -0.259
REMARK SMILES CC1=CC[C@H]2[C@H]3[C@@H]1[C@]2(C)CC[C@H]3C(C)C
REMARK SMILES IDX 1 1 2 2 3 3 4 4 5 5 6 6 7 7 8 8 10 9 11 10 12 11 9 12 13 13
REMARK SMILES IDX 14 14 15 15
REMARK H PARENT
REMARK Flexibility Score: inf
ROOT
ATOM      1  C   UNL     1     137.893 131.887 136.514  1.00  0.00     0.039 C 
ATOM      2  C   UNL     1     137.770 133.234 135.868  1.00  0.00    -0.073 C 
ATOM      3  C   UNL     1     136.600 133.924 135.892  1.00  0.00    -0.027 C 
ATOM      4  C   UNL     1     136.529 135.285 135.193  1.00  0.00     0.031 C 
ATOM      5  C   UNL     1     137.916 135.656 134.579  1.00  0.00     0.003 C 
ATOM      6  C   UNL     1     138.995 135.368 135.657  1.00  0.00     0.004 C 
ATOM      7  C   UNL     1     138.957 133.902 135.168  1.00  0.00     0.024 C 
ATOM      8  C   UNL     1     138.527 134.467 133.794  1.00  0.00    -0.022 C 
ATOM      9  C   UNL     1     139.798 134.923 133.011  1.00  0.00     0.008 C 
ATOM     10  C   UNL     1     140.584 136.040 133.750  1.00  0.00     0.005 C 
ATOM     11  C   UNL     1     140.373 135.998 135.296  1.00  0.00    -0.005 C 
ATOM     12  C   UNL     1     137.608 133.605 132.897  1.00  0.00     0.012 C 
ENDROOT
BRANCH  11  13
ATOM     13  C   UNL     1     140.606 137.363 136.011  1.00  0.00    -0.014 C 
ATOM     14  C   UNL     1     139.917 137.483 137.381  1.00  0.00     0.007 C 
ATOM     15  C   UNL     1     140.218 138.547 135.113  1.00  0.00     0.007 C 
ENDBRANCH  11  13
TORSDOF 1
ENDMDL
MODEL 6
REMARK VINA RESULT:    -4.953      4.461      6.013
REMARK INTER + INTRA:          -5.501
REMARK INTER:                  -5.206
REMARK INTRA:                  -0.295
REMARK UNBOUND:                -0.259
REMARK SMILES CC1=CC[C@H]2[C@H]3[C@@H]1[C@]2(C)CC[C@H]3C(C)C
REMARK SMILES IDX 1 1 2 2 3 3 4 4 5 5 6 6 7 7 8 8 10 9 11 10 12 11 9 12 13 13
REMARK SMILES IDX 14 14 15 15
REMARK H PARENT
REMARK Flexibility Score: inf
ROOT
ATOM      1  C   UNL     1     133.321 137.328 135.949  1.00  0.00     0.039 C 
ATOM      2  C   UNL     1     134.275 138.478 135.841  1.00  0.00    -0.073 C 
ATOM      3  C   UNL     1     133.991 139.686 136.395  1.00  0.00    -0.027 C 
ATOM      4  C   UNL     1     134.995 140.830 136.230  1.00  0.00     0.031 C 
ATOM      5  C   UNL     1     136.250 140.346 135.435  1.00  0.00     0.003 C 
ATOM      6  C   UNL     1     136.685 138.983 136.038  1.00  0.00     0.004 C 
ATOM      7  C   UNL     1     135.619 138.344 135.119  1.00  0.00     0.024 C 
ATOM      8  C   UNL     1     135.848 139.544 134.171  1.00  0.00    -0.022 C 
ATOM      9  C   UNL     1     137.098 139.261 133.281  1.00  0.00     0.008 C 
ATOM     10  C   UNL     1     138.393 139.073 134.117  1.00  0.00     0.005 C 
ATOM     11  C   UNL     1     138.105 138.554 135.561  1.00  0.00    -0.005 C 
ATOM     12  C   UNL     1     134.661 140.040 133.311  1.00  0.00     0.012 C 
ENDROOT
BRANCH  11  13
ATOM     13  C   UNL     1     139.211 138.905 136.601  1.00  0.00    -0.014 C 
ATOM     14  C   UNL     1     140.483 138.049 136.483  1.00  0.00     0.007 C 
ATOM     15  C   UNL     1     138.671 138.862 138.039  1.00  0.00     0.007 C 
ENDBRANCH  11  13
TORSDOF 1
ENDMDL
MODEL 7
REMARK VINA RESULT:    -4.922      2.243      4.945
REMARK INTER + INTRA:          -5.468
REMARK INTER:                  -5.172
REMARK INTRA:                  -0.297
REMARK UNBOUND:                -0.259
REMARK SMILES CC1=CC[C@H]2[C@H]3[C@@H]1[C@]2(C)CC[C@H]3C(C)C
REMARK SMILES IDX 1 1 2 2 3 3 4 4 5 5 6 6 7 7 8 8 10 9 11 10 12 11 9 12 13 13
REMARK SMILES IDX 14 14 15 15
REMARK H PARENT
REMARK Flexibility Score: inf
ROOT
ATOM      1  C   UNL     1     135.349 133.349 135.858  1.00  0.00     0.039 C 
ATOM      2  C   UNL     1     134.185 134.290 135.784  1.00  0.00    -0.073 C 
ATOM      3  C   UNL     1     132.991 133.980 136.353  1.00  0.00    -0.027 C 
ATOM      4  C   UNL     1     131.830 134.971 136.223  1.00  0.00     0.031 C 
ATOM      5  C   UNL     1     132.285 136.245 135.441  1.00  0.00     0.003 C 
ATOM      6  C   UNL     1     133.652 136.689 136.028  1.00  0.00     0.004 C 
ATOM      7  C   UNL     1     134.290 135.647 135.081  1.00  0.00     0.024 C 
ATOM      8  C   UNL     1     133.071 135.874 134.157  1.00  0.00    -0.022 C 
ATOM      9  C   UNL     1     133.323 137.142 133.284  1.00  0.00     0.008 C 
ATOM     10  C   UNL     1     133.507 138.426 134.137  1.00  0.00     0.005 C 
ATOM     11  C   UNL     1     134.054 138.122 135.567  1.00  0.00    -0.005 C 
ATOM     12  C   UNL     1     132.577 134.694 133.287  1.00  0.00     0.012 C 
ENDROOT
BRANCH  11  13
ATOM     13  C   UNL     1     133.705 139.206 136.631  1.00  0.00    -0.014 C 
ATOM     14  C   UNL     1     134.556 140.484 136.532  1.00  0.00     0.007 C 
ATOM     15  C   UNL     1     133.759 138.639 138.057  1.00  0.00     0.007 C 
ENDBRANCH  11  13
TORSDOF 1
ENDMDL
MODEL 8
REMARK VINA RESULT:    -4.909      1.491      4.858
REMARK INTER + INTRA:          -5.455
REMARK INTER:                  -5.159
REMARK INTRA:                  -0.295
REMARK UNBOUND:                -0.259
REMARK SMILES CC1=CC[C@H]2[C@H]3[C@@H]1[C@]2(C)CC[C@H]3C(C)C
REMARK SMILES IDX 1 1 2 2 3 3 4 4 5 5 6 6 7 7 8 8 10 9 11 10 12 11 9 12 13 13
REMARK SMILES IDX 14 14 15 15
REMARK H PARENT
REMARK Flexibility Score: inf
ROOT
ATOM      1  C   UNL     1     139.343 135.366 135.871  1.00  0.00     0.039 C 
ATOM      2  C   UNL     1     138.409 134.196 135.806  1.00  0.00    -0.073 C 
ATOM      3  C   UNL     1     138.727 133.006 136.380  1.00  0.00    -0.027 C 
ATOM      4  C   UNL     1     137.742 131.840 136.261  1.00  0.00     0.031 C 
ATOM      5  C   UNL     1     136.462 132.284 135.482  1.00  0.00     0.003 C 
ATOM      6  C   UNL     1     136.013 133.651 136.064  1.00  0.00     0.004 C 
ATOM      7  C   UNL     1     137.048 134.290 135.110  1.00  0.00     0.024 C 
ATOM      8  C   UNL     1     136.824 133.065 134.192  1.00  0.00    -0.022 C 
ATOM      9  C   UNL     1     135.550 133.306 133.323  1.00  0.00     0.008 C 
ATOM     10  C   UNL     1     134.269 133.488 134.182  1.00  0.00     0.005 C 
ATOM     11  C   UNL     1     134.577 134.043 135.608  1.00  0.00    -0.005 C 
ATOM     12  C   UNL     1     138.002 132.573 133.319  1.00  0.00     0.012 C 
ENDROOT
BRANCH  11  13
ATOM     13  C   UNL     1     133.499 133.694 136.678  1.00  0.00    -0.014 C 
ATOM     14  C   UNL     1     132.210 134.526 136.570  1.00  0.00     0.007 C 
ATOM     15  C   UNL     1     134.068 133.775 138.102  1.00  0.00     0.007 C 
ENDBRANCH  11  13
TORSDOF 1
ENDMDL
MODEL 9
REMARK VINA RESULT:    -4.900      4.852      7.392
REMARK INTER + INTRA:          -5.445
REMARK INTER:                  -5.034
REMARK INTRA:                  -0.411
REMARK UNBOUND:                -0.259
REMARK SMILES CC1=CC[C@H]2[C@H]3[C@@H]1[C@]2(C)CC[C@H]3C(C)C
REMARK SMILES IDX 1 1 2 2 3 3 4 4 5 5 6 6 7 7 8 8 10 9 11 10 12 11 9 12 13 13
REMARK SMILES IDX 14 14 15 15
REMARK H PARENT
REMARK Flexibility Score: inf
ROOT
ATOM      1  C   UNL     1     140.879 137.886 136.501  1.00  0.00     0.039 C 
ATOM      2  C   UNL     1     139.536 137.748 135.852  1.00  0.00    -0.073 C 
ATOM      3  C   UNL     1     138.862 136.568 135.867  1.00  0.00    -0.027 C 
ATOM      4  C   UNL     1     137.503 136.483 135.166  1.00  0.00     0.031 C 
ATOM      5  C   UNL     1     137.113 137.869 134.560  1.00  0.00     0.003 C 
ATOM      6  C   UNL     1     137.385 138.945 135.646  1.00  0.00     0.004 C 
ATOM      7  C   UNL     1     138.852 138.930 135.159  1.00  0.00     0.024 C 
ATOM      8  C   UNL     1     138.295 138.502 133.781  1.00  0.00    -0.022 C 
ATOM      9  C   UNL     1     137.822 139.771 133.006  1.00  0.00     0.008 C 
ATOM     10  C   UNL     1     136.693 140.537 133.748  1.00  0.00     0.005 C 
ATOM     11  C   UNL     1     136.735 140.316 135.293  1.00  0.00    -0.005 C 
ATOM     12  C   UNL     1     139.172 137.601 132.880  1.00  0.00     0.012 C 
ENDROOT
BRANCH  11  13
ATOM     13  C   UNL     1     135.366 140.524 136.008  1.00  0.00    -0.014 C 
ATOM     14  C   UNL     1     135.249 139.813 137.366  1.00  0.00     0.007 C 
ATOM     15  C   UNL     1     134.188 140.138 135.101  1.00  0.00     0.007 C 
ENDBRANCH  11  13
TORSDOF 1
ENDMDL
