MODEL 1
REMARK VINA RESULT:    -6.039      0.000      0.000
REMARK INTER + INTRA:          -6.039
REMARK INTER:                  -6.039
REMARK INTRA:                   0.000
REMARK UNBOUND:                 0.000
REMARK SMILES C=C1CCC[C@]2(C)CC(=O)C(=C(C)C)C[C@@H]12
REMARK SMILES IDX 13 1 12 2 11 3 15 4 16 5 2 6 1 7 3 8 4 9 5 10 6 11 8 12 9 13
REMARK SMILES IDX 10 14 7 15 14 16
REMARK H PARENT
REMARK Flexibility Score: inf
ROOT
ATOM      1  C   UNL     1      21.233 -12.847  25.621  1.00  0.00     0.039 C 
ATOM      2  C   UNL     1      20.040 -12.636  26.525  1.00  0.00    -0.070 C 
ATOM      3  C   UNL     1      19.180 -11.589  26.351  1.00  0.00    -0.006 C 
ATOM      4  C   UNL     1      17.950 -11.425  27.232  1.00  0.00     0.047 C 
ATOM      5  C   UNL     1      16.776 -10.730  26.498  1.00  0.00     0.025 C 
ATOM      6  C   UNL     1      15.524 -10.502  27.348  1.00  0.00    -0.073 C 
ATOM      7  C   UNL     1      15.416 -10.854  28.644  1.00  0.00     0.008 C 
ATOM      8  C   UNL     1      14.342  -9.880  26.641  1.00  0.00     0.031 C 
ATOM      9  C   UNL     1      14.761  -8.582  25.943  1.00  0.00     0.005 C 
ATOM     10  C   UNL     1      15.993  -8.793  25.046  1.00  0.00     0.008 C 
ATOM     11  C   UNL     1      17.209  -9.398  25.810  1.00  0.00    -0.018 C 
ATOM     12  C   UNL     1      18.318  -9.715  24.777  1.00  0.00     0.088 C 
ATOM     13  C   UNL     1      19.454 -10.486  25.383  1.00  0.00     0.159 C 
ATOM     14  O   UNL     1      20.633 -10.171  25.067  1.00  0.00    -0.295 OA
ATOM     15  C   UNL     1      17.745  -8.363  26.838  1.00  0.00     0.012 C 
ATOM     16  C   UNL     1      19.817 -13.661  27.614  1.00  0.00     0.039 C 
ENDROOT
TORSDOF 0
ENDMDL
MODEL 2
REMARK VINA RESULT:    -5.943     11.595     12.532
REMARK INTER + INTRA:          -5.943
REMARK INTER:                  -5.943
REMARK INTRA:                   0.000
REMARK UNBOUND:                 0.000
REMARK SMILES C=C1CCC[C@]2(C)CC(=O)C(=C(C)C)C[C@@H]12
REMARK SMILES IDX 13 1 12 2 11 3 15 4 16 5 2 6 1 7 3 8 4 9 5 10 6 11 8 12 9 13
REMARK SMILES IDX 10 14 7 15 14 16
REMARK H PARENT
REMARK Flexibility Score: inf
ROOT
ATOM      1  C   UNL     1      14.161 -18.115  22.837  1.00  0.00     0.039 C 
ATOM      2  C   UNL     1      13.503 -18.434  21.514  1.00  0.00    -0.070 C 
ATOM      3  C   UNL     1      12.149 -18.570  21.396  1.00  0.00    -0.006 C 
ATOM      4  C   UNL     1      11.497 -18.831  20.045  1.00  0.00     0.047 C 
ATOM      5  C   UNL     1      10.069 -18.239  19.945  1.00  0.00     0.025 C 
ATOM      6  C   UNL     1       9.348 -18.505  18.622  1.00  0.00    -0.073 C 
ATOM      7  C   UNL     1       9.878 -19.207  17.602  1.00  0.00     0.008 C 
ATOM      8  C   UNL     1       7.977 -17.888  18.474  1.00  0.00     0.031 C 
ATOM      9  C   UNL     1       7.087 -18.279  19.658  1.00  0.00     0.005 C 
ATOM     10  C   UNL     1       7.770 -17.981  21.004  1.00  0.00     0.008 C 
ATOM     11  C   UNL     1       9.165 -18.662  21.145  1.00  0.00    -0.018 C 
ATOM     12  C   UNL     1       9.816 -18.157  22.456  1.00  0.00     0.088 C 
ATOM     13  C   UNL     1      11.246 -18.598  22.584  1.00  0.00     0.159 C 
ATOM     14  O   UNL     1      11.654 -19.001  23.707  1.00  0.00    -0.295 OA
ATOM     15  C   UNL     1       8.987 -20.204  21.221  1.00  0.00     0.012 C 
ATOM     16  C   UNL     1      14.411 -18.558  20.311  1.00  0.00     0.039 C 
ENDROOT
TORSDOF 0
ENDMDL
MODEL 3
REMARK VINA RESULT:    -5.810     12.280     12.998
REMARK INTER + INTRA:          -5.810
REMARK INTER:                  -5.810
REMARK INTRA:                   0.000
REMARK UNBOUND:                 0.000
REMARK SMILES C=C1CCC[C@]2(C)CC(=O)C(=C(C)C)C[C@@H]12
REMARK SMILES IDX 13 1 12 2 11 3 15 4 16 5 2 6 1 7 3 8 4 9 5 10 6 11 8 12 9 13
REMARK SMILES IDX 10 14 7 15 14 16
REMARK H PARENT
REMARK Flexibility Score: inf
ROOT
ATOM      1  C   UNL     1      13.743 -18.103  19.104  1.00  0.00     0.039 C 
ATOM      2  C   UNL     1      13.426 -18.518  20.522  1.00  0.00    -0.070 C 
ATOM      3  C   UNL     1      12.257 -19.147  20.845  1.00  0.00    -0.006 C 
ATOM      4  C   UNL     1      11.979 -19.612  22.267  1.00  0.00     0.047 C 
ATOM      5  C   UNL     1      11.075 -20.868  22.321  1.00  0.00     0.025 C 
ATOM      6  C   UNL     1      10.728 -21.359  23.728  1.00  0.00    -0.073 C 
ATOM      7  C   UNL     1      11.149 -20.763  24.860  1.00  0.00     0.008 C 
ATOM      8  C   UNL     1       9.897 -22.618  23.810  1.00  0.00     0.031 C 
ATOM      9  C   UNL     1       8.627 -22.474  22.964  1.00  0.00     0.005 C 
ATOM     10  C   UNL     1       8.950 -22.024  21.529  1.00  0.00     0.008 C 
ATOM     11  C   UNL     1       9.774 -20.702  21.474  1.00  0.00    -0.018 C 
ATOM     12  C   UNL     1      10.175 -20.446  20.001  1.00  0.00     0.088 C 
ATOM     13  C   UNL     1      11.141 -19.304  19.867  1.00  0.00     0.159 C 
ATOM     14  O   UNL     1      10.977 -18.483  18.923  1.00  0.00    -0.295 OA
ATOM     15  C   UNL     1       8.900 -19.522  21.981  1.00  0.00     0.012 C 
ATOM     16  C   UNL     1      14.481 -18.238  21.569  1.00  0.00     0.039 C 
ENDROOT
TORSDOF 0
ENDMDL
MODEL 4
REMARK VINA RESULT:    -5.788     12.842     13.887
REMARK INTER + INTRA:          -5.788
REMARK INTER:                  -5.788
REMARK INTRA:                   0.000
REMARK UNBOUND:                 0.000
REMARK SMILES C=C1CCC[C@]2(C)CC(=O)C(=C(C)C)C[C@@H]12
REMARK SMILES IDX 13 1 12 2 11 3 15 4 16 5 2 6 1 7 3 8 4 9 5 10 6 11 8 12 9 13
REMARK SMILES IDX 10 14 7 15 14 16
REMARK H PARENT
REMARK Flexibility Score: inf
ROOT
ATOM      1  C   UNL     1       8.913 -23.233  23.405  1.00  0.00     0.039 C 
ATOM      2  C   UNL     1       8.323 -22.111  22.580  1.00  0.00    -0.070 C 
ATOM      3  C   UNL     1       9.101 -21.123  22.046  1.00  0.00    -0.006 C 
ATOM      4  C   UNL     1       8.499 -20.035  21.167  1.00  0.00     0.047 C 
ATOM      5  C   UNL     1       9.494 -19.506  20.104  1.00  0.00     0.025 C 
ATOM      6  C   UNL     1       8.957 -18.381  19.217  1.00  0.00    -0.073 C 
ATOM      7  C   UNL     1       7.721 -17.856  19.329  1.00  0.00     0.008 C 
ATOM      8  C   UNL     1       9.885 -17.886  18.132  1.00  0.00     0.031 C 
ATOM      9  C   UNL     1      11.242 -17.498  18.727  1.00  0.00     0.005 C 
ATOM     10  C   UNL     1      11.827 -18.630  19.590  1.00  0.00     0.008 C 
ATOM     11  C   UNL     1      10.865 -19.093  20.725  1.00  0.00    -0.018 C 
ATOM     12  C   UNL     1      11.490 -20.333  21.410  1.00  0.00     0.088 C 
ATOM     13  C   UNL     1      10.547 -20.977  22.385  1.00  0.00     0.159 C 
ATOM     14  O   UNL     1      11.002 -21.374  23.492  1.00  0.00    -0.295 OA
ATOM     15  C   UNL     1      10.707 -17.954  21.771  1.00  0.00     0.012 C 
ATOM     16  C   UNL     1       6.831 -22.151  22.340  1.00  0.00     0.039 C 
ENDROOT
TORSDOF 0
ENDMDL
MODEL 5
REMARK VINA RESULT:    -5.778     15.497     16.836
REMARK INTER + INTRA:          -5.778
REMARK INTER:                  -5.778
REMARK INTRA:                   0.000
REMARK UNBOUND:                 0.000
REMARK SMILES C=C1CCC[C@]2(C)CC(=O)C(=C(C)C)C[C@@H]12
REMARK SMILES IDX 13 1 12 2 11 3 15 4 16 5 2 6 1 7 3 8 4 9 5 10 6 11 8 12 9 13
REMARK SMILES IDX 10 14 7 15 14 16
REMARK H PARENT
REMARK Flexibility Score: inf
ROOT
ATOM      1  C   UNL     1       8.312 -20.611  28.215  1.00  0.00     0.039 C 
ATOM      2  C   UNL     1       7.240 -21.471  27.586  1.00  0.00    -0.070 C 
ATOM      3  C   UNL     1       7.409 -22.056  26.363  1.00  0.00    -0.006 C 
ATOM      4  C   UNL     1       6.343 -22.968  25.772  1.00  0.00     0.047 C 
ATOM      5  C   UNL     1       6.937 -24.066  24.855  1.00  0.00     0.025 C 
ATOM      6  C   UNL     1       5.908 -24.989  24.199  1.00  0.00    -0.073 C 
ATOM      7  C   UNL     1       4.576 -24.880  24.373  1.00  0.00     0.008 C 
ATOM      8  C   UNL     1       6.462 -26.107  23.347  1.00  0.00     0.031 C 
ATOM      9  C   UNL     1       7.427 -25.548  22.297  1.00  0.00     0.005 C 
ATOM     10  C   UNL     1       8.501 -24.650  22.935  1.00  0.00     0.008 C 
ATOM     11  C   UNL     1       7.901 -23.482  23.775  1.00  0.00    -0.018 C 
ATOM     12  C   UNL     1       9.065 -22.758  24.494  1.00  0.00     0.088 C 
ATOM     13  C   UNL     1       8.575 -21.744  25.487  1.00  0.00     0.159 C 
ATOM     14  O   UNL     1       9.162 -20.630  25.549  1.00  0.00    -0.295 OA
ATOM     15  C   UNL     1       7.177 -22.481  22.833  1.00  0.00     0.012 C 
ATOM     16  C   UNL     1       5.978 -21.687  28.391  1.00  0.00     0.039 C 
ENDROOT
TORSDOF 0
ENDMDL
MODEL 6
REMARK VINA RESULT:    -5.774     10.811     12.038
REMARK INTER + INTRA:          -5.774
REMARK INTER:                  -5.774
REMARK INTRA:                   0.000
REMARK UNBOUND:                 0.000
REMARK SMILES C=C1CCC[C@]2(C)CC(=O)C(=C(C)C)C[C@@H]12
REMARK SMILES IDX 13 1 12 2 11 3 15 4 16 5 2 6 1 7 3 8 4 9 5 10 6 11 8 12 9 13
REMARK SMILES IDX 10 14 7 15 14 16
REMARK H PARENT
REMARK Flexibility Score: inf
ROOT
ATOM      1  C   UNL     1       9.389 -19.336  17.740  1.00  0.00     0.039 C 
ATOM      2  C   UNL     1       9.191 -18.455  18.952  1.00  0.00    -0.070 C 
ATOM      3  C   UNL     1      10.037 -18.503  20.023  1.00  0.00    -0.006 C 
ATOM      4  C   UNL     1       9.859 -17.565  21.210  1.00  0.00     0.047 C 
ATOM      5  C   UNL     1      11.199 -17.222  21.908  1.00  0.00     0.025 C 
ATOM      6  C   UNL     1      11.078 -16.314  23.133  1.00  0.00    -0.073 C 
ATOM      7  C   UNL     1       9.910 -15.839  23.608  1.00  0.00     0.008 C 
ATOM      8  C   UNL     1      12.374 -15.915  23.798  1.00  0.00     0.031 C 
ATOM      9  C   UNL     1      13.208 -17.156  24.131  1.00  0.00     0.005 C 
ATOM     10  C   UNL     1      13.383 -18.067  22.903  1.00  0.00     0.008 C 
ATOM     11  C   UNL     1      12.029 -18.496  22.261  1.00  0.00    -0.018 C 
ATOM     12  C   UNL     1      12.338 -19.262  20.952  1.00  0.00     0.088 C 
ATOM     13  C   UNL     1      11.097 -19.544  20.155  1.00  0.00     0.159 C 
ATOM     14  O   UNL     1      10.971 -20.678  19.616  1.00  0.00    -0.295 OA
ATOM     15  C   UNL     1      11.264 -19.433  23.237  1.00  0.00     0.012 C 
ATOM     16  C   UNL     1       8.031 -17.485  18.911  1.00  0.00     0.039 C 
ENDROOT
TORSDOF 0
ENDMDL
MODEL 7
REMARK VINA RESULT:    -5.713     11.151     12.427
REMARK INTER + INTRA:          -5.713
REMARK INTER:                  -5.713
REMARK INTRA:                   0.000
REMARK UNBOUND:                 0.000
REMARK SMILES C=C1CCC[C@]2(C)CC(=O)C(=C(C)C)C[C@@H]12
REMARK SMILES IDX 13 1 12 2 11 3 15 4 16 5 2 6 1 7 3 8 4 9 5 10 6 11 8 12 9 13
REMARK SMILES IDX 10 14 7 15 14 16
REMARK H PARENT
REMARK Flexibility Score: inf
ROOT
ATOM      1  C   UNL     1       7.594 -17.616  18.873  1.00  0.00     0.039 C 
ATOM      2  C   UNL     1       8.261 -17.919  20.195  1.00  0.00    -0.070 C 
ATOM      3  C   UNL     1       9.597 -18.188  20.283  1.00  0.00    -0.006 C 
ATOM      4  C   UNL     1      10.265 -18.431  21.630  1.00  0.00     0.047 C 
ATOM      5  C   UNL     1      11.748 -17.986  21.653  1.00  0.00     0.025 C 
ATOM      6  C   UNL     1      12.482 -18.244  22.970  1.00  0.00    -0.073 C 
ATOM      7  C   UNL     1      11.919 -18.822  24.048  1.00  0.00     0.008 C 
ATOM      8  C   UNL     1      13.914 -17.765  23.040  1.00  0.00     0.031 C 
ATOM      9  C   UNL     1      14.719 -18.318  21.860  1.00  0.00     0.005 C 
ATOM     10  C   UNL     1      14.024 -18.034  20.517  1.00  0.00     0.008 C 
ATOM     11  C   UNL     1      12.563 -18.573  20.458  1.00  0.00    -0.018 C 
ATOM     12  C   UNL     1      11.923 -18.085  19.136  1.00  0.00     0.088 C 
ATOM     13  C   UNL     1      10.452 -18.382  19.076  1.00  0.00     0.159 C 
ATOM     14  O   UNL     1       9.967 -18.809  17.993  1.00  0.00    -0.295 OA
ATOM     15  C   UNL     1      12.581 -20.127  20.478  1.00  0.00     0.012 C 
ATOM     16  C   UNL     1       7.386 -17.874  21.428  1.00  0.00     0.039 C 
ENDROOT
TORSDOF 0
ENDMDL
MODEL 8
REMARK VINA RESULT:    -5.630     11.104     12.556
REMARK INTER + INTRA:          -5.630
REMARK INTER:                  -5.630
REMARK INTRA:                   0.000
REMARK UNBOUND:                 0.000
REMARK SMILES C=C1CCC[C@]2(C)CC(=O)C(=C(C)C)C[C@@H]12
REMARK SMILES IDX 13 1 12 2 11 3 15 4 16 5 2 6 1 7 3 8 4 9 5 10 6 11 8 12 9 13
REMARK SMILES IDX 10 14 7 15 14 16
REMARK H PARENT
REMARK Flexibility Score: inf
ROOT
ATOM      1  C   UNL     1       9.642 -15.556  24.814  1.00  0.00     0.039 C 
ATOM      2  C   UNL     1      10.570 -16.058  23.731  1.00  0.00    -0.070 C 
ATOM      3  C   UNL     1      10.127 -16.853  22.713  1.00  0.00    -0.006 C 
ATOM      4  C   UNL     1      11.062 -17.299  21.597  1.00  0.00     0.047 C 
ATOM      5  C   UNL     1      10.329 -17.508  20.249  1.00  0.00     0.025 C 
ATOM      6  C   UNL     1      11.213 -17.997  19.099  1.00  0.00    -0.073 C 
ATOM      7  C   UNL     1      12.531 -18.249  19.215  1.00  0.00     0.008 C 
ATOM      8  C   UNL     1      10.536 -18.151  17.757  1.00  0.00     0.031 C 
ATOM      9  C   UNL     1       9.290 -19.032  17.887  1.00  0.00     0.005 C 
ATOM     10  C   UNL     1       8.360 -18.537  19.009  1.00  0.00     0.008 C 
ATOM     11  C   UNL     1       9.074 -18.425  20.390  1.00  0.00    -0.018 C 
ATOM     12  C   UNL     1       8.091 -17.766  21.387  1.00  0.00     0.088 C 
ATOM     13  C   UNL     1       8.751 -17.429  22.694  1.00  0.00     0.159 C 
ATOM     14  O   UNL     1       8.122 -17.657  23.763  1.00  0.00    -0.295 OA
ATOM     15  C   UNL     1       9.449 -19.845  20.899  1.00  0.00     0.012 C 
ATOM     16  C   UNL     1      12.012 -15.608  23.805  1.00  0.00     0.039 C 
ENDROOT
TORSDOF 0
ENDMDL
MODEL 9
REMARK VINA RESULT:    -5.528     15.825     17.544
REMARK INTER + INTRA:          -5.528
REMARK INTER:                  -5.528
REMARK INTRA:                   0.000
REMARK UNBOUND:                 0.000
REMARK SMILES C=C1CCC[C@]2(C)CC(=O)C(=C(C)C)C[C@@H]12
REMARK SMILES IDX 13 1 12 2 11 3 15 4 16 5 2 6 1 7 3 8 4 9 5 10 6 11 8 12 9 13
REMARK SMILES IDX 10 14 7 15 14 16
REMARK H PARENT
REMARK Flexibility Score: inf
ROOT
ATOM      1  C   UNL     1       3.985 -18.960  24.523  1.00  0.00     0.039 C 
ATOM      2  C   UNL     1       5.362 -19.583  24.479  1.00  0.00    -0.070 C 
ATOM      3  C   UNL     1       5.539 -20.937  24.431  1.00  0.00    -0.006 C 
ATOM      4  C   UNL     1       6.931 -21.546  24.326  1.00  0.00     0.047 C 
ATOM      5  C   UNL     1       6.938 -22.895  23.566  1.00  0.00     0.025 C 
ATOM      6  C   UNL     1       8.305 -23.574  23.464  1.00  0.00    -0.073 C 
ATOM      7  C   UNL     1       9.439 -23.074  23.993  1.00  0.00     0.008 C 
ATOM      8  C   UNL     1       8.353 -24.863  22.675  1.00  0.00     0.031 C 
ATOM      9  C   UNL     1       7.302 -25.847  23.199  1.00  0.00     0.005 C 
ATOM     10  C   UNL     1       5.907 -25.202  23.270  1.00  0.00     0.008 C 
ATOM     11  C   UNL     1       5.879 -23.897  24.122  1.00  0.00    -0.018 C 
ATOM     12  C   UNL     1       4.475 -23.260  23.981  1.00  0.00     0.088 C 
ATOM     13  C   UNL     1       4.408 -21.895  24.602  1.00  0.00     0.159 C 
ATOM     14  O   UNL     1       3.387 -21.588  25.275  1.00  0.00    -0.295 OA
ATOM     15  C   UNL     1       6.139 -24.244  25.615  1.00  0.00     0.012 C 
ATOM     16  C   UNL     1       6.540 -18.636  24.453  1.00  0.00     0.039 C 
ENDROOT
TORSDOF 0
ENDMDL
