MODEL 1
REMARK VINA RESULT:    -4.628      0.000      0.000
REMARK INTER + INTRA:         -13.041
REMARK INTER:                 -10.039
REMARK INTRA:                  -3.002
REMARK UNBOUND:                -3.002
REMARK SMILES CCCCCCCCCCCCCCCCCCCCCC(=O)[O-]
REMARK SMILES IDX 12 1 11 2 10 3 9 4 8 5 7 6 6 7 5 8 4 9 3 10 2 11 1 12 13 13
REMARK SMILES IDX 14 14 15 15 16 16 17 17 18 18 19 19 20 20 21 21 22 22 23 23
REMARK SMILES IDX 24 24
REMARK H PARENT
REMARK Flexibility Score: inf
ROOT
ATOM      1  C   UNL     1       4.593  74.112  39.960  1.00  0.00     0.000 C 
ENDROOT
BRANCH   1   2
ATOM      2  C   UNL     1       4.153  74.734  38.620  1.00  0.00     0.000 C 
BRANCH   2   3
ATOM      3  C   UNL     1       5.014  75.916  38.135  1.00  0.00     0.000 C 
BRANCH   3   4
ATOM      4  C   UNL     1       5.148  77.082  39.133  1.00  0.00    -0.000 C 
BRANCH   4   5
ATOM      5  C   UNL     1       6.575  77.267  39.693  1.00  0.00    -0.000 C 
BRANCH   5   6
ATOM      6  C   UNL     1       6.998  78.745  39.766  1.00  0.00    -0.000 C 
BRANCH   6   7
ATOM      7  C   UNL     1       6.111  79.661  38.906  1.00  0.00    -0.000 C 
BRANCH   7   8
ATOM      8  C   UNL     1       6.800  80.154  37.614  1.00  0.00    -0.000 C 
BRANCH   8   9
ATOM      9  C   UNL     1       8.226  79.591  37.464  1.00  0.00    -0.000 C 
BRANCH   9  10
ATOM     10  C   UNL     1       8.335  78.576  36.305  1.00  0.00    -0.000 C 
BRANCH  10  11
ATOM     11  C   UNL     1       8.889  77.207  36.736  1.00  0.00    -0.003 C 
ATOM     12  C   UNL     1      10.357  77.011  36.365  1.00  0.00     0.004 C 
ENDBRANCH  10  11
ENDBRANCH   9  10
ENDBRANCH   8   9
ENDBRANCH   7   8
ENDBRANCH   6   7
ENDBRANCH   5   6
ENDBRANCH   4   5
ENDBRANCH   3   4
ENDBRANCH   2   3
ENDBRANCH   1   2
BRANCH   1  13
ATOM     13  C   UNL     1       5.672  73.016  39.850  1.00  0.00     0.000 C 
BRANCH  13  14
ATOM     14  C   UNL     1       5.107  71.603  39.591  1.00  0.00     0.000 C 
BRANCH  14  15
ATOM     15  C   UNL     1       5.765  70.919  38.380  1.00  0.00     0.000 C 
BRANCH  15  16
ATOM     16  C   UNL     1       5.260  71.479  37.040  1.00  0.00     0.000 C 
BRANCH  16  17
ATOM     17  C   UNL     1       6.406  71.876  36.096  1.00  0.00     0.000 C 
BRANCH  17  18
ATOM     18  C   UNL     1       6.656  73.388  36.143  1.00  0.00     0.000 C 
BRANCH  18  19
ATOM     19  C   UNL     1       8.051  73.699  36.699  1.00  0.00     0.000 C 
BRANCH  19  20
ATOM     20  C   UNL     1       9.022  72.539  36.431  1.00  0.00     0.006 C 
BRANCH  20  21
ATOM     21  C   UNL     1       9.758  72.092  37.702  1.00  0.00     0.053 C 
BRANCH  21  22
ATOM     22  C   UNL     1      11.233  71.961  37.474  1.00  0.00     0.041 C 
ATOM     23  O   UNL     1      12.027  72.813  37.952  1.00  0.00    -0.550 OA
ATOM     24  O   UNL     1      11.730  70.881  36.757  1.00  0.00    -0.550 OA
ENDBRANCH  21  22
ENDBRANCH  20  21
ENDBRANCH  19  20
ENDBRANCH  18  19
ENDBRANCH  17  18
ENDBRANCH  16  17
ENDBRANCH  15  16
ENDBRANCH  14  15
ENDBRANCH  13  14
ENDBRANCH   1  13
TORSDOF 20
ENDMDL
MODEL 2
REMARK VINA RESULT:    -4.564      1.175      5.113
REMARK INTER + INTRA:         -12.902
REMARK INTER:                  -9.669
REMARK INTRA:                  -3.233
REMARK UNBOUND:                -3.002
REMARK SMILES CCCCCCCCCCCCCCCCCCCCCC(=O)[O-]
REMARK SMILES IDX 12 1 11 2 10 3 9 4 8 5 7 6 6 7 5 8 4 9 3 10 2 11 1 12 13 13
REMARK SMILES IDX 14 14 15 15 16 16 17 17 18 18 19 19 20 20 21 21 22 22 23 23
REMARK SMILES IDX 24 24
REMARK H PARENT
REMARK Flexibility Score: inf
ROOT
ATOM      1  C   UNL     1       8.997  79.420  37.666  1.00  0.00     0.000 C 
ENDROOT
BRANCH   1   2
ATOM      2  C   UNL     1       9.322  78.727  39.004  1.00  0.00     0.000 C 
BRANCH   2   3
ATOM      3  C   UNL     1       8.095  78.270  39.818  1.00  0.00     0.000 C 
BRANCH   3   4
ATOM      4  C   UNL     1       6.774  78.985  39.469  1.00  0.00    -0.000 C 
BRANCH   4   5
ATOM      5  C   UNL     1       5.733  78.077  38.780  1.00  0.00    -0.000 C 
BRANCH   5   6
ATOM      6  C   UNL     1       5.592  76.708  39.469  1.00  0.00    -0.000 C 
BRANCH   6   7
ATOM      7  C   UNL     1       4.451  75.860  38.880  1.00  0.00    -0.000 C 
BRANCH   7   8
ATOM      8  C   UNL     1       4.489  74.380  39.321  1.00  0.00    -0.000 C 
BRANCH   8   9
ATOM      9  C   UNL     1       4.324  73.415  38.132  1.00  0.00    -0.000 C 
BRANCH   9  10
ATOM     10  C   UNL     1       4.627  71.951  38.520  1.00  0.00    -0.000 C 
BRANCH  10  11
ATOM     11  C   UNL     1       6.014  71.758  39.158  1.00  0.00    -0.003 C 
ATOM     12  C   UNL     1       6.710  70.477  38.704  1.00  0.00     0.004 C 
ENDBRANCH  10  11
ENDBRANCH   9  10
ENDBRANCH   8   9
ENDBRANCH   7   8
ENDBRANCH   6   7
ENDBRANCH   5   6
ENDBRANCH   4   5
ENDBRANCH   3   4
ENDBRANCH   2   3
ENDBRANCH   1   2
BRANCH   1  13
ATOM     13  C   UNL     1       8.754  78.469  36.478  1.00  0.00     0.000 C 
BRANCH  13  14
ATOM     14  C   UNL     1       9.931  77.511  36.189  1.00  0.00     0.000 C 
BRANCH  14  15
ATOM     15  C   UNL     1       9.633  76.066  36.625  1.00  0.00     0.000 C 
BRANCH  15  16
ATOM     16  C   UNL     1       8.139  75.826  36.895  1.00  0.00     0.000 C 
BRANCH  16  17
ATOM     17  C   UNL     1       7.841  74.384  37.333  1.00  0.00     0.000 C 
BRANCH  17  18
ATOM     18  C   UNL     1       7.578  73.485  36.119  1.00  0.00     0.000 C 
BRANCH  18  19
ATOM     19  C   UNL     1       8.595  72.338  36.051  1.00  0.00     0.000 C 
BRANCH  19  20
ATOM     20  C   UNL     1       9.581  72.407  37.227  1.00  0.00     0.006 C 
BRANCH  20  21
ATOM     21  C   UNL     1      10.889  71.659  36.933  1.00  0.00     0.053 C 
BRANCH  21  22
ATOM     22  C   UNL     1      12.021  72.166  37.772  1.00  0.00     0.041 C 
ATOM     23  O   UNL     1      12.319  71.592  38.852  1.00  0.00    -0.550 OA
ATOM     24  O   UNL     1      12.765  73.259  37.345  1.00  0.00    -0.550 OA
ENDBRANCH  21  22
ENDBRANCH  20  21
ENDBRANCH  19  20
ENDBRANCH  18  19
ENDBRANCH  17  18
ENDBRANCH  16  17
ENDBRANCH  15  16
ENDBRANCH  14  15
ENDBRANCH  13  14
ENDBRANCH   1  13
TORSDOF 20
ENDMDL
MODEL 3
REMARK VINA RESULT:    -4.554      1.204      2.877
REMARK INTER + INTRA:         -12.880
REMARK INTER:                 -10.047
REMARK INTRA:                  -2.833
REMARK UNBOUND:                -3.002
REMARK SMILES CCCCCCCCCCCCCCCCCCCCCC(=O)[O-]
REMARK SMILES IDX 12 1 11 2 10 3 9 4 8 5 7 6 6 7 5 8 4 9 3 10 2 11 1 12 13 13
REMARK SMILES IDX 14 14 15 15 16 16 17 17 18 18 19 19 20 20 21 21 22 22 23 23
REMARK SMILES IDX 24 24
REMARK H PARENT
REMARK Flexibility Score: inf
ROOT
ATOM      1  C   UNL     1       5.685  75.506  39.467  1.00  0.00     0.000 C 
ENDROOT
BRANCH   1   2
ATOM      2  C   UNL     1       5.210  75.952  38.070  1.00  0.00     0.000 C 
BRANCH   2   3
ATOM      3  C   UNL     1       6.338  76.285  37.073  1.00  0.00     0.000 C 
BRANCH   3   4
ATOM      4  C   UNL     1       7.712  76.570  37.710  1.00  0.00    -0.000 C 
BRANCH   4   5
ATOM      5  C   UNL     1       8.812  76.934  36.690  1.00  0.00    -0.000 C 
BRANCH   5   6
ATOM      6  C   UNL     1       9.069  78.449  36.610  1.00  0.00    -0.000 C 
BRANCH   6   7
ATOM      7  C   UNL     1       8.181  79.256  37.572  1.00  0.00    -0.000 C 
BRANCH   7   8
ATOM      8  C   UNL     1       6.958  79.908  36.888  1.00  0.00    -0.000 C 
BRANCH   8   9
ATOM      9  C   UNL     1       5.724  79.938  37.809  1.00  0.00    -0.000 C 
BRANCH   9  10
ATOM     10  C   UNL     1       6.066  79.524  39.258  1.00  0.00    -0.000 C 
BRANCH  10  11
ATOM     11  C   UNL     1       4.832  79.380  40.164  1.00  0.00    -0.003 C 
ATOM     12  C   UNL     1       5.178  79.369  41.651  1.00  0.00     0.004 C 
ENDBRANCH  10  11
ENDBRANCH   9  10
ENDBRANCH   8   9
ENDBRANCH   7   8
ENDBRANCH   6   7
ENDBRANCH   5   6
ENDBRANCH   4   5
ENDBRANCH   3   4
ENDBRANCH   2   3
ENDBRANCH   1   2
BRANCH   1  13
ATOM     13  C   UNL     1       5.184  74.120  39.918  1.00  0.00     0.000 C 
BRANCH  13  14
ATOM     14  C   UNL     1       6.307  73.164  40.375  1.00  0.00     0.000 C 
BRANCH  14  15
ATOM     15  C   UNL     1       6.378  71.887  39.519  1.00  0.00     0.000 C 
BRANCH  15  16
ATOM     16  C   UNL     1       5.704  72.058  38.147  1.00  0.00     0.000 C 
BRANCH  16  17
ATOM     17  C   UNL     1       6.667  71.795  36.979  1.00  0.00     0.000 C 
BRANCH  17  18
ATOM     18  C   UNL     1       7.646  72.962  36.802  1.00  0.00     0.000 C 
BRANCH  18  19
ATOM     19  C   UNL     1       9.004  72.469  36.284  1.00  0.00     0.000 C 
BRANCH  19  20
ATOM     20  C   UNL     1       9.923  72.068  37.448  1.00  0.00     0.006 C 
BRANCH  20  21
ATOM     21  C   UNL     1      11.269  71.515  36.960  1.00  0.00     0.053 C 
BRANCH  21  22
ATOM     22  C   UNL     1      12.394  71.902  37.871  1.00  0.00     0.041 C 
ATOM     23  O   UNL     1      13.312  72.660  37.459  1.00  0.00    -0.550 OA
ATOM     24  O   UNL     1      12.411  71.447  39.183  1.00  0.00    -0.550 OA
ENDBRANCH  21  22
ENDBRANCH  20  21
ENDBRANCH  19  20
ENDBRANCH  18  19
ENDBRANCH  17  18
ENDBRANCH  16  17
ENDBRANCH  15  16
ENDBRANCH  14  15
ENDBRANCH  13  14
ENDBRANCH   1  13
TORSDOF 20
ENDMDL
MODEL 4
REMARK VINA RESULT:    -4.506      1.382      1.970
REMARK INTER + INTRA:         -12.777
REMARK INTER:                  -9.700
REMARK INTRA:                  -3.077
REMARK UNBOUND:                -3.002
REMARK SMILES CCCCCCCCCCCCCCCCCCCCCC(=O)[O-]
REMARK SMILES IDX 12 1 11 2 10 3 9 4 8 5 7 6 6 7 5 8 4 9 3 10 2 11 1 12 13 13
REMARK SMILES IDX 14 14 15 15 16 16 17 17 18 18 19 19 20 20 21 21 22 22 23 23
REMARK SMILES IDX 24 24
REMARK H PARENT
REMARK Flexibility Score: inf
ROOT
ATOM      1  C   UNL     1       5.453  74.488  36.567  1.00  0.00     0.000 C 
ENDROOT
BRANCH   1   2
ATOM      2  C   UNL     1       6.284  75.613  37.213  1.00  0.00     0.000 C 
BRANCH   2   3
ATOM      3  C   UNL     1       6.672  75.375  38.685  1.00  0.00     0.000 C 
BRANCH   3   4
ATOM      4  C   UNL     1       6.477  76.585  39.619  1.00  0.00    -0.000 C 
BRANCH   4   5
ATOM      5  C   UNL     1       5.294  77.496  39.226  1.00  0.00    -0.000 C 
BRANCH   5   6
ATOM      6  C   UNL     1       5.531  78.970  39.595  1.00  0.00    -0.000 C 
BRANCH   6   7
ATOM      7  C   UNL     1       5.322  79.924  38.407  1.00  0.00    -0.000 C 
BRANCH   7   8
ATOM      8  C   UNL     1       6.090  79.504  37.133  1.00  0.00    -0.000 C 
BRANCH   8   9
ATOM      9  C   UNL     1       7.614  79.664  37.295  1.00  0.00    -0.000 C 
BRANCH   9  10
ATOM     10  C   UNL     1       8.401  78.608  36.489  1.00  0.00    -0.000 C 
BRANCH  10  11
ATOM     11  C   UNL     1       9.522  77.928  37.294  1.00  0.00    -0.003 C 
ATOM     12  C   UNL     1      10.155  76.747  36.562  1.00  0.00     0.004 C 
ENDBRANCH  10  11
ENDBRANCH   9  10
ENDBRANCH   8   9
ENDBRANCH   7   8
ENDBRANCH   6   7
ENDBRANCH   5   6
ENDBRANCH   4   5
ENDBRANCH   3   4
ENDBRANCH   2   3
ENDBRANCH   1   2
BRANCH   1  13
ATOM     13  C   UNL     1       4.328  73.913  37.451  1.00  0.00     0.000 C 
BRANCH  13  14
ATOM     14  C   UNL     1       3.887  72.487  37.057  1.00  0.00     0.000 C 
BRANCH  14  15
ATOM     15  C   UNL     1       4.397  71.420  38.041  1.00  0.00     0.000 C 
BRANCH  15  16
ATOM     16  C   UNL     1       5.920  71.226  37.964  1.00  0.00     0.000 C 
BRANCH  16  17
ATOM     17  C   UNL     1       6.632  71.610  39.271  1.00  0.00     0.000 C 
BRANCH  17  18
ATOM     18  C   UNL     1       8.116  71.904  39.021  1.00  0.00     0.000 C 
BRANCH  18  19
ATOM     19  C   UNL     1       8.457  71.795  37.530  1.00  0.00     0.000 C 
BRANCH  19  20
ATOM     20  C   UNL     1       9.695  72.637  37.186  1.00  0.00     0.006 C 
BRANCH  20  21
ATOM     21  C   UNL     1      10.929  71.768  36.902  1.00  0.00     0.053 C 
BRANCH  21  22
ATOM     22  C   UNL     1      12.074  72.115  37.803  1.00  0.00     0.041 C 
ATOM     23  O   UNL     1      12.015  71.853  39.033  1.00  0.00    -0.550 OA
ATOM     24  O   UNL     1      13.217  72.704  37.277  1.00  0.00    -0.550 OA
ENDBRANCH  21  22
ENDBRANCH  20  21
ENDBRANCH  19  20
ENDBRANCH  18  19
ENDBRANCH  17  18
ENDBRANCH  16  17
ENDBRANCH  15  16
ENDBRANCH  14  15
ENDBRANCH  13  14
ENDBRANCH   1  13
TORSDOF 20
ENDMDL
MODEL 5
REMARK VINA RESULT:    -4.475      2.985      6.853
REMARK INTER + INTRA:         -12.708
REMARK INTER:                  -9.091
REMARK INTRA:                  -3.617
REMARK UNBOUND:                -3.002
REMARK SMILES CCCCCCCCCCCCCCCCCCCCCC(=O)[O-]
REMARK SMILES IDX 12 1 11 2 10 3 9 4 8 5 7 6 6 7 5 8 4 9 3 10 2 11 1 12 13 13
REMARK SMILES IDX 14 14 15 15 16 16 17 17 18 18 19 19 20 20 21 21 22 22 23 23
REMARK SMILES IDX 24 24
REMARK H PARENT
REMARK Flexibility Score: inf
ROOT
ATOM      1  C   UNL     1       5.501  79.358  39.278  1.00  0.00     0.000 C 
ENDROOT
BRANCH   1   2
ATOM      2  C   UNL     1       6.484  78.331  39.875  1.00  0.00     0.000 C 
BRANCH   2   3
ATOM      3  C   UNL     1       6.171  76.859  39.542  1.00  0.00     0.000 C 
BRANCH   3   4
ATOM      4  C   UNL     1       4.689  76.554  39.250  1.00  0.00    -0.000 C 
BRANCH   4   5
ATOM      5  C   UNL     1       4.472  75.393  38.256  1.00  0.00    -0.000 C 
BRANCH   5   6
ATOM      6  C   UNL     1       5.478  75.414  37.091  1.00  0.00    -0.000 C 
BRANCH   6   7
ATOM      7  C   UNL     1       5.349  74.188  36.171  1.00  0.00    -0.000 C 
BRANCH   7   8
ATOM      8  C   UNL     1       6.502  73.171  36.331  1.00  0.00    -0.000 C 
BRANCH   8   9
ATOM      9  C   UNL     1       7.498  73.588  37.429  1.00  0.00    -0.000 C 
BRANCH   9  10
ATOM     10  C   UNL     1       7.682  72.490  38.500  1.00  0.00    -0.000 C 
BRANCH  10  11
ATOM     11  C   UNL     1       6.939  72.782  39.815  1.00  0.00    -0.003 C 
ATOM     12  C   UNL     1       5.488  72.309  39.802  1.00  0.00     0.004 C 
ENDBRANCH  10  11
ENDBRANCH   9  10
ENDBRANCH   8   9
ENDBRANCH   7   8
ENDBRANCH   6   7
ENDBRANCH   5   6
ENDBRANCH   4   5
ENDBRANCH   3   4
ENDBRANCH   2   3
ENDBRANCH   1   2
BRANCH   1  13
ATOM     13  C   UNL     1       6.110  80.320  38.238  1.00  0.00     0.000 C 
BRANCH  13  14
ATOM     14  C   UNL     1       5.641  80.059  36.790  1.00  0.00     0.000 C 
BRANCH  14  15
ATOM     15  C   UNL     1       6.356  78.857  36.148  1.00  0.00     0.000 C 
BRANCH  15  16
ATOM     16  C   UNL     1       7.887  78.982  36.203  1.00  0.00     0.000 C 
BRANCH  16  17
ATOM     17  C   UNL     1       8.560  77.742  36.811  1.00  0.00     0.000 C 
BRANCH  17  18
ATOM     18  C   UNL     1       9.676  78.144  37.782  1.00  0.00     0.000 C 
BRANCH  18  19
ATOM     19  C   UNL     1       9.774  79.670  37.910  1.00  0.00     0.000 C 
BRANCH  19  20
ATOM     20  C   UNL     1      10.563  80.067  39.167  1.00  0.00     0.006 C 
BRANCH  20  21
ATOM     21  C   UNL     1       9.806  79.727  40.459  1.00  0.00     0.053 C 
BRANCH  21  22
ATOM     22  C   UNL     1      10.626  80.017  41.678  1.00  0.00     0.041 C 
ATOM     23  O   UNL     1      10.098  80.557  42.685  1.00  0.00    -0.550 OA
ATOM     24  O   UNL     1      11.970  79.666  41.710  1.00  0.00    -0.550 OA
ENDBRANCH  21  22
ENDBRANCH  20  21
ENDBRANCH  19  20
ENDBRANCH  18  19
ENDBRANCH  17  18
ENDBRANCH  16  17
ENDBRANCH  15  16
ENDBRANCH  14  15
ENDBRANCH  13  14
ENDBRANCH   1  13
TORSDOF 20
ENDMDL
MODEL 6
REMARK VINA RESULT:    -4.471      5.403      9.521
REMARK INTER + INTRA:         -12.699
REMARK INTER:                 -10.647
REMARK INTRA:                  -2.053
REMARK UNBOUND:                -3.002
REMARK SMILES CCCCCCCCCCCCCCCCCCCCCC(=O)[O-]
REMARK SMILES IDX 12 1 11 2 10 3 9 4 8 5 7 6 6 7 5 8 4 9 3 10 2 11 1 12 13 13
REMARK SMILES IDX 14 14 15 15 16 16 17 17 18 18 19 19 20 20 21 21 22 22 23 23
REMARK SMILES IDX 24 24
REMARK H PARENT
REMARK Flexibility Score: inf
ROOT
ATOM      1  C   UNL     1      10.957  80.672  39.826  1.00  0.00     0.000 C 
ENDROOT
BRANCH   1   2
ATOM      2  C   UNL     1      10.460  80.228  38.436  1.00  0.00     0.000 C 
BRANCH   2   3
ATOM      3  C   UNL     1       9.097  79.508  38.429  1.00  0.00     0.000 C 
BRANCH   3   4
ATOM      4  C   UNL     1       8.570  79.118  37.034  1.00  0.00    -0.000 C 
BRANCH   4   5
ATOM      5  C   UNL     1       9.220  77.845  36.452  1.00  0.00    -0.000 C 
BRANCH   5   6
ATOM      6  C   UNL     1       8.563  76.553  36.969  1.00  0.00    -0.000 C 
BRANCH   6   7
ATOM      7  C   UNL     1       7.087  76.747  37.353  1.00  0.00    -0.000 C 
BRANCH   7   8
ATOM      8  C   UNL     1       6.749  76.261  38.781  1.00  0.00    -0.000 C 
BRANCH   8   9
ATOM      9  C   UNL     1       6.409  77.429  39.727  1.00  0.00    -0.000 C 
BRANCH   9  10
ATOM     10  C   UNL     1       5.252  78.300  39.189  1.00  0.00    -0.000 C 
BRANCH  10  11
ATOM     11  C   UNL     1       4.937  79.519  40.071  1.00  0.00    -0.003 C 
ATOM     12  C   UNL     1       5.295  79.305  41.540  1.00  0.00     0.004 C 
ENDBRANCH  10  11
ENDBRANCH   9  10
ENDBRANCH   8   9
ENDBRANCH   7   8
ENDBRANCH   6   7
ENDBRANCH   5   6
ENDBRANCH   4   5
ENDBRANCH   3   4
ENDBRANCH   2   3
ENDBRANCH   1   2
BRANCH   1  13
ATOM     13  C   UNL     1      10.390  79.867  41.012  1.00  0.00     0.000 C 
BRANCH  13  14
ATOM     14  C   UNL     1      11.336  79.795  42.230  1.00  0.00     0.000 C 
BRANCH  14  15
ATOM     15  C   UNL     1      12.290  81.000  42.307  1.00  0.00     0.000 C 
BRANCH  15  16
ATOM     16  C   UNL     1      11.649  82.217  42.994  1.00  0.00     0.000 C 
BRANCH  16  17
ATOM     17  C   UNL     1      10.569  81.820  44.012  1.00  0.00     0.000 C 
BRANCH  17  18
ATOM     18  C   UNL     1       9.241  82.523  43.706  1.00  0.00     0.000 C 
BRANCH  18  19
ATOM     19  C   UNL     1       8.048  81.621  44.047  1.00  0.00     0.000 C 
BRANCH  19  20
ATOM     20  C   UNL     1       8.364  80.722  45.252  1.00  0.00     0.006 C 
BRANCH  20  21
ATOM     21  C   UNL     1       7.291  80.820  46.346  1.00  0.00     0.053 C 
BRANCH  21  22
ATOM     22  C   UNL     1       6.925  79.472  46.888  1.00  0.00     0.041 C 
ATOM     23  O   UNL     1       5.745  79.046  46.788  1.00  0.00    -0.550 OA
ATOM     24  O   UNL     1       7.897  78.675  47.481  1.00  0.00    -0.550 OA
ENDBRANCH  21  22
ENDBRANCH  20  21
ENDBRANCH  19  20
ENDBRANCH  18  19
ENDBRANCH  17  18
ENDBRANCH  16  17
ENDBRANCH  15  16
ENDBRANCH  14  15
ENDBRANCH  13  14
ENDBRANCH   1  13
TORSDOF 20
ENDMDL
MODEL 7
REMARK VINA RESULT:    -4.458      4.198      7.933
REMARK INTER + INTRA:         -12.673
REMARK INTER:                  -9.858
REMARK INTRA:                  -2.814
REMARK UNBOUND:                -3.002
REMARK SMILES CCCCCCCCCCCCCCCCCCCCCC(=O)[O-]
REMARK SMILES IDX 12 1 11 2 10 3 9 4 8 5 7 6 6 7 5 8 4 9 3 10 2 11 1 12 13 13
REMARK SMILES IDX 14 14 15 15 16 16 17 17 18 18 19 19 20 20 21 21 22 22 23 23
REMARK SMILES IDX 24 24
REMARK H PARENT
REMARK Flexibility Score: inf
ROOT
ATOM      1  C   UNL     1       6.006  79.418  36.737  1.00  0.00     0.000 C 
ENDROOT
BRANCH   1   2
ATOM      2  C   UNL     1       5.832  80.149  38.083  1.00  0.00     0.000 C 
BRANCH   2   3
ATOM      3  C   UNL     1       5.326  79.270  39.243  1.00  0.00     0.000 C 
BRANCH   3   4
ATOM      4  C   UNL     1       6.415  78.459  39.974  1.00  0.00    -0.000 C 
BRANCH   4   5
ATOM      5  C   UNL     1       6.360  76.942  39.695  1.00  0.00    -0.000 C 
BRANCH   5   6
ATOM      6  C   UNL     1       5.103  76.528  38.908  1.00  0.00    -0.000 C 
BRANCH   6   7
ATOM      7  C   UNL     1       5.403  75.500  37.805  1.00  0.00    -0.000 C 
BRANCH   7   8
ATOM      8  C   UNL     1       6.854  74.969  37.830  1.00  0.00    -0.000 C 
BRANCH   8   9
ATOM      9  C   UNL     1       6.912  73.448  38.069  1.00  0.00    -0.000 C 
BRANCH   9  10
ATOM     10  C   UNL     1       6.803  73.086  39.567  1.00  0.00    -0.000 C 
BRANCH  10  11
ATOM     11  C   UNL     1       5.500  72.355  39.930  1.00  0.00    -0.003 C 
ATOM     12  C   UNL     1       4.681  71.945  38.708  1.00  0.00     0.004 C 
ENDBRANCH  10  11
ENDBRANCH   9  10
ENDBRANCH   8   9
ENDBRANCH   7   8
ENDBRANCH   6   7
ENDBRANCH   5   6
ENDBRANCH   4   5
ENDBRANCH   3   4
ENDBRANCH   2   3
ENDBRANCH   1   2
BRANCH   1  13
ATOM     13  C   UNL     1       7.451  79.365  36.203  1.00  0.00     0.000 C 
BRANCH  13  14
ATOM     14  C   UNL     1       8.261  78.149  36.704  1.00  0.00     0.000 C 
BRANCH  14  15
ATOM     15  C   UNL     1       9.602  78.558  37.339  1.00  0.00     0.000 C 
BRANCH  15  16
ATOM     16  C   UNL     1       9.467  79.772  38.272  1.00  0.00     0.000 C 
BRANCH  16  17
ATOM     17  C   UNL     1      10.803  80.497  38.495  1.00  0.00     0.000 C 
BRANCH  17  18
ATOM     18  C   UNL     1      10.968  80.907  39.963  1.00  0.00     0.000 C 
BRANCH  18  19
ATOM     19  C   UNL     1      10.323  79.877  40.899  1.00  0.00     0.000 C 
BRANCH  19  20
ATOM     20  C   UNL     1      10.893  79.993  42.321  1.00  0.00     0.006 C 
BRANCH  20  21
ATOM     21  C   UNL     1      12.064  80.982  42.398  1.00  0.00     0.053 C 
BRANCH  21  22
ATOM     22  C   UNL     1      12.143  81.649  43.737  1.00  0.00     0.041 C 
ATOM     23  O   UNL     1      11.347  81.322  44.656  1.00  0.00    -0.550 OA
ATOM     24  O   UNL     1      13.114  82.613  43.976  1.00  0.00    -0.550 OA
ENDBRANCH  21  22
ENDBRANCH  20  21
ENDBRANCH  19  20
ENDBRANCH  18  19
ENDBRANCH  17  18
ENDBRANCH  16  17
ENDBRANCH  15  16
ENDBRANCH  14  15
ENDBRANCH  13  14
ENDBRANCH   1  13
TORSDOF 20
ENDMDL
MODEL 8
REMARK VINA RESULT:    -4.446      3.164      7.248
REMARK INTER + INTRA:         -12.646
REMARK INTER:                  -9.926
REMARK INTRA:                  -2.720
REMARK UNBOUND:                -3.002
REMARK SMILES CCCCCCCCCCCCCCCCCCCCCC(=O)[O-]
REMARK SMILES IDX 12 1 11 2 10 3 9 4 8 5 7 6 6 7 5 8 4 9 3 10 2 11 1 12 13 13
REMARK SMILES IDX 14 14 15 15 16 16 17 17 18 18 19 19 20 20 21 21 22 22 23 23
REMARK SMILES IDX 24 24
REMARK H PARENT
REMARK Flexibility Score: inf
ROOT
ATOM      1  C   UNL     1       5.808  77.333  39.577  1.00  0.00     0.000 C 
ENDROOT
BRANCH   1   2
ATOM      2  C   UNL     1       4.837  76.237  39.096  1.00  0.00     0.000 C 
BRANCH   2   3
ATOM      3  C   UNL     1       5.206  75.582  37.750  1.00  0.00     0.000 C 
BRANCH   3   4
ATOM      4  C   UNL     1       6.716  75.495  37.457  1.00  0.00    -0.000 C 
BRANCH   4   5
ATOM      5  C   UNL     1       7.123  74.261  36.623  1.00  0.00    -0.000 C 
BRANCH   5   6
ATOM      6  C   UNL     1       8.637  73.992  36.660  1.00  0.00    -0.000 C 
BRANCH   6   7
ATOM      7  C   UNL     1       8.980  72.587  37.183  1.00  0.00    -0.000 C 
BRANCH   7   8
ATOM      8  C   UNL     1       7.740  71.747  37.560  1.00  0.00    -0.000 C 
BRANCH   8   9
ATOM      9  C   UNL     1       7.671  71.459  39.072  1.00  0.00    -0.000 C 
BRANCH   9  10
ATOM     10  C   UNL     1       7.186  72.683  39.879  1.00  0.00    -0.000 C 
BRANCH  10  11
ATOM     11  C   UNL     1       5.657  72.750  40.036  1.00  0.00    -0.003 C 
ATOM     12  C   UNL     1       4.949  71.483  39.563  1.00  0.00     0.004 C 
ENDBRANCH  10  11
ENDBRANCH   9  10
ENDBRANCH   8   9
ENDBRANCH   7   8
ENDBRANCH   6   7
ENDBRANCH   5   6
ENDBRANCH   4   5
ENDBRANCH   3   4
ENDBRANCH   2   3
ENDBRANCH   1   2
BRANCH   1  13
ATOM     13  C   UNL     1       5.188  78.735  39.732  1.00  0.00     0.000 C 
BRANCH  13  14
ATOM     14  C   UNL     1       5.721  79.773  38.721  1.00  0.00     0.000 C 
BRANCH  14  15
ATOM     15  C   UNL     1       6.064  79.145  37.359  1.00  0.00     0.000 C 
BRANCH  15  16
ATOM     16  C   UNL     1       7.412  79.635  36.806  1.00  0.00     0.000 C 
BRANCH  16  17
ATOM     17  C   UNL     1       8.510  78.563  36.890  1.00  0.00     0.000 C 
BRANCH  17  18
ATOM     18  C   UNL     1       9.726  79.083  37.665  1.00  0.00     0.000 C 
BRANCH  18  19
ATOM     19  C   UNL     1       9.423  79.181  39.166  1.00  0.00     0.000 C 
BRANCH  19  20
ATOM     20  C   UNL     1       9.882  80.533  39.733  1.00  0.00     0.006 C 
BRANCH  20  21
ATOM     21  C   UNL     1      11.410  80.629  39.841  1.00  0.00     0.053 C 
BRANCH  21  22
ATOM     22  C   UNL     1      11.872  80.575  41.265  1.00  0.00     0.041 C 
ATOM     23  O   UNL     1      11.959  79.470  41.863  1.00  0.00    -0.550 OA
ATOM     24  O   UNL     1      12.232  81.745  41.922  1.00  0.00    -0.550 OA
ENDBRANCH  21  22
ENDBRANCH  20  21
ENDBRANCH  19  20
ENDBRANCH  18  19
ENDBRANCH  17  18
ENDBRANCH  16  17
ENDBRANCH  15  16
ENDBRANCH  14  15
ENDBRANCH  13  14
ENDBRANCH   1  13
TORSDOF 20
ENDMDL
MODEL 9
REMARK VINA RESULT:    -4.438      3.102      7.128
REMARK INTER + INTRA:         -12.629
REMARK INTER:                  -9.127
REMARK INTRA:                  -3.502
REMARK UNBOUND:                -3.002
REMARK SMILES CCCCCCCCCCCCCCCCCCCCCC(=O)[O-]
REMARK SMILES IDX 12 1 11 2 10 3 9 4 8 5 7 6 6 7 5 8 4 9 3 10 2 11 1 12 13 13
REMARK SMILES IDX 14 14 15 15 16 16 17 17 18 18 19 19 20 20 21 21 22 22 23 23
REMARK SMILES IDX 24 24
REMARK H PARENT
REMARK Flexibility Score: inf
ROOT
ATOM      1  C   UNL     1       5.390  77.818  39.251  1.00  0.00     0.000 C 
ENDROOT
BRANCH   1   2
ATOM      2  C   UNL     1       6.531  76.863  39.653  1.00  0.00     0.000 C 
BRANCH   2   3
ATOM      3  C   UNL     1       6.509  75.489  38.955  1.00  0.00     0.000 C 
BRANCH   3   4
ATOM      4  C   UNL     1       5.960  75.494  37.515  1.00  0.00    -0.000 C 
BRANCH   4   5
ATOM      5  C   UNL     1       4.999  74.326  37.206  1.00  0.00    -0.000 C 
BRANCH   5   6
ATOM      6  C   UNL     1       4.438  73.666  38.478  1.00  0.00    -0.000 C 
BRANCH   6   7
ATOM      7  C   UNL     1       4.441  72.130  38.403  1.00  0.00    -0.000 C 
BRANCH   7   8
ATOM      8  C   UNL     1       5.408  71.462  39.406  1.00  0.00    -0.000 C 
BRANCH   8   9
ATOM      9  C   UNL     1       6.619  70.818  38.704  1.00  0.00    -0.000 C 
BRANCH   9  10
ATOM     10  C   UNL     1       7.922  71.613  38.938  1.00  0.00    -0.000 C 
BRANCH  10  11
ATOM     11  C   UNL     1       8.345  72.472  37.733  1.00  0.00    -0.003 C 
ATOM     12  C   UNL     1       7.729  72.002  36.417  1.00  0.00     0.004 C 
ENDBRANCH  10  11
ENDBRANCH   9  10
ENDBRANCH   8   9
ENDBRANCH   7   8
ENDBRANCH   6   7
ENDBRANCH   5   6
ENDBRANCH   4   5
ENDBRANCH   3   4
ENDBRANCH   2   3
ENDBRANCH   1   2
BRANCH   1  13
ATOM     13  C   UNL     1       5.755  79.315  39.258  1.00  0.00     0.000 C 
BRANCH  13  14
ATOM     14  C   UNL     1       5.647  79.994  37.876  1.00  0.00     0.000 C 
BRANCH  14  15
ATOM     15  C   UNL     1       6.091  79.070  36.729  1.00  0.00     0.000 C 
BRANCH  15  16
ATOM     16  C   UNL     1       7.544  79.324  36.296  1.00  0.00     0.000 C 
BRANCH  16  17
ATOM     17  C   UNL     1       8.459  78.117  36.559  1.00  0.00     0.000 C 
BRANCH  17  18
ATOM     18  C   UNL     1       9.737  78.547  37.289  1.00  0.00     0.000 C 
BRANCH  18  19
ATOM     19  C   UNL     1       9.435  79.616  38.347  1.00  0.00     0.000 C 
BRANCH  19  20
ATOM     20  C   UNL     1       9.484  79.019  39.762  1.00  0.00     0.006 C 
BRANCH  20  21
ATOM     21  C   UNL     1       9.637  80.099  40.843  1.00  0.00     0.053 C 
BRANCH  21  22
ATOM     22  C   UNL     1      10.833  80.967  40.597  1.00  0.00     0.041 C 
ATOM     23  O   UNL     1      11.972  80.452  40.449  1.00  0.00    -0.550 OA
ATOM     24  O   UNL     1      10.682  82.345  40.505  1.00  0.00    -0.550 OA
ENDBRANCH  21  22
ENDBRANCH  20  21
ENDBRANCH  19  20
ENDBRANCH  18  19
ENDBRANCH  17  18
ENDBRANCH  16  17
ENDBRANCH  15  16
ENDBRANCH  14  15
ENDBRANCH  13  14
ENDBRANCH   1  13
TORSDOF 20
ENDMDL
