MODEL 1
REMARK VINA RESULT:    -7.066      0.000      0.000
REMARK INTER + INTRA:          -8.804
REMARK INTER:                  -8.512
REMARK INTRA:                  -0.292
REMARK UNBOUND:                -0.292
REMARK SMILES O=c1c(O)c(-c2ccc(O)c(O)c2)oc2cc(O)cc(O)c12
REMARK SMILES IDX 5 1 3 2 2 3 1 4 22 5 20 6 19 7 17 8 16 9 15 10 14 11 6 12
REMARK SMILES IDX 7 13 8 14 9 15 13 16 11 17 10 18 12 20 4 22 21 24 18 26
REMARK H PARENT 10 19 12 21 4 23 21 25 18 27
REMARK Flexibility Score: inf
ROOT
ATOM      1  C   UNL     1      -1.591  42.968  23.045  1.00  0.00     0.180 A 
ATOM      2  C   UNL     1      -1.589  42.632  21.679  1.00  0.00     0.208 A 
ATOM      3  C   UNL     1      -0.464  41.988  21.139  1.00  0.00     0.238 A 
ATOM      4  O   UNL     1      -0.499  41.625  19.934  1.00  0.00    -0.285 OA
ATOM      5  C   UNL     1       0.666  41.738  21.954  1.00  0.00     0.111 A 
ATOM      6  C   UNL     1       1.877  41.132  21.501  1.00  0.00     0.134 A 
ATOM      7  C   UNL     1       2.889  40.837  22.423  1.00  0.00     0.093 A 
ATOM      8  C   UNL     1       2.760  41.184  23.771  1.00  0.00     0.123 A 
ATOM      9  C   UNL     1       1.605  41.825  24.211  1.00  0.00     0.094 A 
ATOM     10  C   UNL     1       0.562  42.097  23.324  1.00  0.00     0.146 A 
ATOM     11  O   UNL     1      -0.530  42.690  23.792  1.00  0.00    -0.452 OA
ENDROOT
BRANCH   1  12
ATOM     12  C   UNL     1      -2.745  43.634  23.690  1.00  0.00     0.025 A 
ATOM     13  C   UNL     1      -3.867  42.872  24.053  1.00  0.00     0.016 A 
ATOM     14  C   UNL     1      -4.976  43.482  24.644  1.00  0.00     0.051 A 
ATOM     15  C   UNL     1      -4.987  44.865  24.867  1.00  0.00     0.157 A 
ATOM     16  C   UNL     1      -2.767  45.025  23.896  1.00  0.00     0.062 A 
ATOM     17  C   UNL     1      -3.877  45.640  24.486  1.00  0.00     0.158 A 
BRANCH  15  18
ATOM     18  O   UNL     1      -6.093  45.471  25.459  1.00  0.00    -0.504 OA
ATOM     19  H   UNL     1      -6.960  44.967  25.604  1.00  0.00     0.293 HD
ENDBRANCH  15  18
BRANCH  17  20
ATOM     20  O   UNL     1      -3.863  47.020  24.681  1.00  0.00    -0.504 OA
ATOM     21  H   UNL     1      -4.640  47.513  25.107  1.00  0.00     0.293 HD
ENDBRANCH  17  20
ENDBRANCH   1  12
BRANCH   2  22
ATOM     22  O   UNL     1      -2.683  42.957  20.873  1.00  0.00    -0.502 OA
ATOM     23  H   UNL     1      -2.840  43.893  20.519  1.00  0.00     0.293 HD
ENDBRANCH   2  22
BRANCH   6  24
ATOM     24  O   UNL     1       2.147  40.825  20.164  1.00  0.00    -0.507 OA
ATOM     25  H   UNL     1       3.070  40.701  19.775  1.00  0.00     0.293 HD
ENDBRANCH   6  24
BRANCH   8  26
ATOM     26  O   UNL     1       3.779  40.902  24.678  1.00  0.00    -0.508 OA
ATOM     27  H   UNL     1       3.787  41.302  25.608  1.00  0.00     0.293 HD
ENDBRANCH   8  26
TORSDOF 6
ENDMDL
MODEL 2
REMARK VINA RESULT:    -6.622     12.527     15.483
REMARK INTER + INTRA:          -8.268
REMARK INTER:                  -7.944
REMARK INTRA:                  -0.324
REMARK UNBOUND:                -0.292
REMARK SMILES O=c1c(O)c(-c2ccc(O)c(O)c2)oc2cc(O)cc(O)c12
REMARK SMILES IDX 5 1 3 2 2 3 1 4 22 5 20 6 19 7 17 8 16 9 15 10 14 11 6 12
REMARK SMILES IDX 7 13 8 14 9 15 13 16 11 17 10 18 12 20 4 22 21 24 18 26
REMARK H PARENT 10 19 12 21 4 23 21 25 18 27
REMARK Flexibility Score: inf
ROOT
ATOM      1  C   UNL     1       0.510  56.512  27.804  1.00  0.00     0.180 A 
ATOM      2  C   UNL     1       1.493  57.134  28.594  1.00  0.00     0.208 A 
ATOM      3  C   UNL     1       2.303  58.125  28.016  1.00  0.00     0.238 A 
ATOM      4  O   UNL     1       3.131  58.729  28.748  1.00  0.00    -0.285 OA
ATOM      5  C   UNL     1       2.161  58.441  26.644  1.00  0.00     0.111 A 
ATOM      6  C   UNL     1       2.958  59.397  25.943  1.00  0.00     0.134 A 
ATOM      7  C   UNL     1       2.655  59.705  24.611  1.00  0.00     0.093 A 
ATOM      8  C   UNL     1       1.624  59.047  23.935  1.00  0.00     0.123 A 
ATOM      9  C   UNL     1       0.877  58.074  24.594  1.00  0.00     0.094 A 
ATOM     10  C   UNL     1       1.129  57.772  25.934  1.00  0.00     0.146 A 
ATOM     11  O   UNL     1       0.377  56.854  26.529  1.00  0.00    -0.452 OA
ENDROOT
BRANCH   1  12
ATOM     12  C   UNL     1      -0.392  55.470  28.345  1.00  0.00     0.025 A 
ATOM     13  C   UNL     1       0.008  54.125  28.309  1.00  0.00     0.016 A 
ATOM     14  C   UNL     1      -0.836  53.123  28.794  1.00  0.00     0.051 A 
ATOM     15  C   UNL     1      -2.098  53.448  29.308  1.00  0.00     0.157 A 
ATOM     16  C   UNL     1      -1.668  55.792  28.843  1.00  0.00     0.062 A 
ATOM     17  C   UNL     1      -2.517  54.790  29.328  1.00  0.00     0.158 A 
BRANCH  15  18
ATOM     18  O   UNL     1      -2.936  52.446  29.794  1.00  0.00    -0.504 OA
ATOM     19  H   UNL     1      -3.084  52.313  30.787  1.00  0.00     0.293 HD
ENDBRANCH  15  18
BRANCH  17  20
ATOM     20  O   UNL     1      -3.772  55.145  29.819  1.00  0.00    -0.504 OA
ATOM     21  H   UNL     1      -4.361  55.826  29.353  1.00  0.00     0.293 HD
ENDBRANCH  17  20
ENDBRANCH   1  12
BRANCH   2  22
ATOM     22  O   UNL     1       1.670  56.752  29.926  1.00  0.00    -0.502 OA
ATOM     23  H   UNL     1       2.572  56.788  30.388  1.00  0.00     0.293 HD
ENDBRANCH   2  22
BRANCH   6  24
ATOM     24  O   UNL     1       4.066  60.047  26.494  1.00  0.00    -0.507 OA
ATOM     25  H   UNL     1       4.066  60.995  26.841  1.00  0.00     0.293 HD
ENDBRANCH   6  24
BRANCH   8  26
ATOM     26  O   UNL     1       1.341  59.348  22.604  1.00  0.00    -0.508 OA
ATOM     27  H   UNL     1       0.675  58.806  22.068  1.00  0.00     0.293 HD
ENDBRANCH   8  26
TORSDOF 6
ENDMDL
MODEL 3
REMARK VINA RESULT:    -6.274      3.493      6.182
REMARK INTER + INTRA:          -7.849
REMARK INTER:                  -7.662
REMARK INTRA:                  -0.187
REMARK UNBOUND:                -0.292
REMARK SMILES O=c1c(O)c(-c2ccc(O)c(O)c2)oc2cc(O)cc(O)c12
REMARK SMILES IDX 5 1 3 2 2 3 1 4 22 5 20 6 19 7 17 8 16 9 15 10 14 11 6 12
REMARK SMILES IDX 7 13 8 14 9 15 13 16 11 17 10 18 12 20 4 22 21 24 18 26
REMARK H PARENT 10 19 12 21 4 23 21 25 18 27
REMARK Flexibility Score: inf
ROOT
ATOM      1  C   UNL     1      -2.555  42.657  24.556  1.00  0.00     0.180 A 
ATOM      2  C   UNL     1      -3.883  42.403  24.170  1.00  0.00     0.208 A 
ATOM      3  C   UNL     1      -4.713  41.667  25.032  1.00  0.00     0.238 A 
ATOM      4  O   UNL     1      -5.920  41.507  24.714  1.00  0.00    -0.285 OA
ATOM      5  C   UNL     1      -4.191  41.146  26.240  1.00  0.00     0.111 A 
ATOM      6  C   UNL     1      -4.929  40.349  27.168  1.00  0.00     0.134 A 
ATOM      7  C   UNL     1      -4.339  39.979  28.383  1.00  0.00     0.093 A 
ATOM      8  C   UNL     1      -3.017  40.324  28.677  1.00  0.00     0.123 A 
ATOM      9  C   UNL     1      -2.272  41.054  27.755  1.00  0.00     0.094 A 
ATOM     10  C   UNL     1      -2.844  41.471  26.551  1.00  0.00     0.146 A 
ATOM     11  O   UNL     1      -2.103  42.185  25.711  1.00  0.00    -0.452 OA
ENDROOT
BRANCH   1  12
ATOM     12  C   UNL     1      -1.625  43.438  23.710  1.00  0.00     0.025 A 
ATOM     13  C   UNL     1      -1.865  44.805  23.499  1.00  0.00     0.016 A 
ATOM     14  C   UNL     1      -1.013  45.556  22.686  1.00  0.00     0.051 A 
ATOM     15  C   UNL     1       0.083  44.950  22.060  1.00  0.00     0.157 A 
ATOM     16  C   UNL     1      -0.535  42.827  23.062  1.00  0.00     0.062 A 
ATOM     17  C   UNL     1       0.319  43.577  22.246  1.00  0.00     0.158 A 
BRANCH  15  18
ATOM     18  O   UNL     1       0.933  45.703  21.252  1.00  0.00    -0.504 OA
ATOM     19  H   UNL     1       1.336  46.575  21.573  1.00  0.00     0.293 HD
ENDBRANCH  15  18
BRANCH  17  20
ATOM     20  O   UNL     1       1.393  42.941  21.625  1.00  0.00    -0.504 OA
ATOM     21  H   UNL     1       1.518  41.935  21.660  1.00  0.00     0.293 HD
ENDBRANCH  17  20
ENDBRANCH   1  12
BRANCH   2  22
ATOM     22  O   UNL     1      -4.357  42.860  22.938  1.00  0.00    -0.502 OA
ATOM     23  H   UNL     1      -5.299  42.672  22.613  1.00  0.00     0.293 HD
ENDBRANCH   2  22
BRANCH   6  24
ATOM     24  O   UNL     1      -6.223  39.875  26.936  1.00  0.00    -0.507 OA
ATOM     25  H   UNL     1      -6.492  38.902  26.940  1.00  0.00     0.293 HD
ENDBRANCH   6  24
BRANCH   8  26
ATOM     26  O   UNL     1      -2.433  39.936  29.881  1.00  0.00    -0.508 OA
ATOM     27  H   UNL     1      -1.981  39.036  29.986  1.00  0.00     0.293 HD
ENDBRANCH   8  26
TORSDOF 6
ENDMDL
MODEL 4
REMARK VINA RESULT:    -5.904     13.105     17.031
REMARK INTER + INTRA:          -7.404
REMARK INTER:                  -7.140
REMARK INTRA:                  -0.264
REMARK UNBOUND:                -0.292
REMARK SMILES O=c1c(O)c(-c2ccc(O)c(O)c2)oc2cc(O)cc(O)c12
REMARK SMILES IDX 5 1 3 2 2 3 1 4 22 5 20 6 19 7 17 8 16 9 15 10 14 11 6 12
REMARK SMILES IDX 7 13 8 14 9 15 13 16 11 17 10 18 12 20 4 22 21 24 18 26
REMARK H PARENT 10 19 12 21 4 23 21 25 18 27
REMARK Flexibility Score: inf
ROOT
ATOM      1  C   UNL     1      -1.385  57.143  28.442  1.00  0.00     0.180 A 
ATOM      2  C   UNL     1      -1.203  57.567  29.770  1.00  0.00     0.208 A 
ATOM      3  C   UNL     1      -2.283  58.150  30.452  1.00  0.00     0.238 A 
ATOM      4  O   UNL     1      -2.135  58.459  31.663  1.00  0.00    -0.285 OA
ATOM      5  C   UNL     1      -3.514  58.354  29.782  1.00  0.00     0.111 A 
ATOM      6  C   UNL     1      -4.662  58.976  30.362  1.00  0.00     0.134 A 
ATOM      7  C   UNL     1      -5.859  59.027  29.637  1.00  0.00     0.093 A 
ATOM      8  C   UNL     1      -5.933  58.536  28.331  1.00  0.00     0.123 A 
ATOM      9  C   UNL     1      -4.804  57.978  27.738  1.00  0.00     0.094 A 
ATOM     10  C   UNL     1      -3.606  57.877  28.448  1.00  0.00     0.146 A 
ATOM     11  O   UNL     1      -2.561  57.317  27.850  1.00  0.00    -0.452 OA
ENDROOT
BRANCH   1  12
ATOM     12  C   UNL     1      -0.300  56.506  27.662  1.00  0.00     0.025 A 
ATOM     13  C   UNL     1       0.063  55.179  27.941  1.00  0.00     0.016 A 
ATOM     14  C   UNL     1       1.099  54.565  27.233  1.00  0.00     0.051 A 
ATOM     15  C   UNL     1       1.799  55.272  26.247  1.00  0.00     0.157 A 
ATOM     16  C   UNL     1       0.419  57.221  26.687  1.00  0.00     0.062 A 
ATOM     17  C   UNL     1       1.459  56.609  25.977  1.00  0.00     0.158 A 
BRANCH  15  18
ATOM     18  O   UNL     1       2.830  54.656  25.541  1.00  0.00    -0.504 OA
ATOM     19  H   UNL     1       3.234  55.079  24.714  1.00  0.00     0.293 HD
ENDBRANCH  15  18
BRANCH  17  20
ATOM     20  O   UNL     1       2.146  57.345  25.013  1.00  0.00    -0.504 OA
ATOM     21  H   UNL     1       2.219  58.356  25.057  1.00  0.00     0.293 HD
ENDBRANCH  17  20
ENDBRANCH   1  12
BRANCH   2  22
ATOM     22  O   UNL     1       0.042  57.427  30.389  1.00  0.00    -0.502 OA
ATOM     23  H   UNL     1       0.869  57.913  30.064  1.00  0.00     0.293 HD
ENDBRANCH   2  22
BRANCH   6  24
ATOM     24  O   UNL     1      -4.673  59.577  31.623  1.00  0.00    -0.507 OA
ATOM     25  H   UNL     1      -4.508  59.096  32.495  1.00  0.00     0.293 HD
ENDBRANCH   6  24
BRANCH   8  26
ATOM     26  O   UNL     1      -7.125  58.607  27.612  1.00  0.00    -0.508 OA
ATOM     27  H   UNL     1      -7.649  59.470  27.539  1.00  0.00     0.293 HD
ENDBRANCH   8  26
TORSDOF 6
ENDMDL
MODEL 5
REMARK VINA RESULT:    -5.558     13.546     15.581
REMARK INTER + INTRA:          -6.987
REMARK INTER:                  -6.670
REMARK INTRA:                  -0.317
REMARK UNBOUND:                -0.292
REMARK SMILES O=c1c(O)c(-c2ccc(O)c(O)c2)oc2cc(O)cc(O)c12
REMARK SMILES IDX 5 1 3 2 2 3 1 4 22 5 20 6 19 7 17 8 16 9 15 10 14 11 6 12
REMARK SMILES IDX 7 13 8 14 9 15 13 16 11 17 10 18 12 20 4 22 21 24 18 26
REMARK H PARENT 10 19 12 21 4 23 21 25 18 27
REMARK Flexibility Score: inf
ROOT
ATOM      1  C   UNL     1      -1.391  57.259  28.679  1.00  0.00     0.180 A 
ATOM      2  C   UNL     1      -1.108  55.884  28.745  1.00  0.00     0.208 A 
ATOM      3  C   UNL     1      -0.005  55.381  28.036  1.00  0.00     0.238 A 
ATOM      4  O   UNL     1       0.286  54.163  28.158  1.00  0.00    -0.285 OA
ATOM      5  C   UNL     1       0.767  56.248  27.225  1.00  0.00     0.111 A 
ATOM      6  C   UNL     1       1.879  55.839  26.427  1.00  0.00     0.134 A 
ATOM      7  C   UNL     1       2.634  56.805  25.749  1.00  0.00     0.093 A 
ATOM      8  C   UNL     1       2.279  58.155  25.787  1.00  0.00     0.123 A 
ATOM      9  C   UNL     1       1.163  58.556  26.517  1.00  0.00     0.094 A 
ATOM     10  C   UNL     1       0.413  57.623  27.236  1.00  0.00     0.146 A 
ATOM     11  O   UNL     1      -0.630  58.053  27.937  1.00  0.00    -0.452 OA
ENDROOT
BRANCH   1  12
ATOM     12  C   UNL     1      -2.527  57.866  29.411  1.00  0.00     0.025 A 
ATOM     13  C   UNL     1      -2.318  58.389  30.696  1.00  0.00     0.016 A 
ATOM     14  C   UNL     1      -3.379  58.946  31.414  1.00  0.00     0.051 A 
ATOM     15  C   UNL     1      -4.667  58.975  30.864  1.00  0.00     0.157 A 
ATOM     16  C   UNL     1      -3.825  57.876  28.869  1.00  0.00     0.062 A 
ATOM     17  C   UNL     1      -4.891  58.433  29.587  1.00  0.00     0.158 A 
BRANCH  15  18
ATOM     18  O   UNL     1      -5.723  59.534  31.581  1.00  0.00    -0.504 OA
ATOM     19  H   UNL     1      -6.612  59.058  31.675  1.00  0.00     0.293 HD
ENDBRANCH  15  18
BRANCH  17  20
ATOM     20  O   UNL     1      -6.163  58.433  29.018  1.00  0.00    -0.504 OA
ATOM     21  H   UNL     1      -6.865  57.745  29.266  1.00  0.00     0.293 HD
ENDBRANCH  17  20
ENDBRANCH   1  12
BRANCH   2  22
ATOM     22  O   UNL     1      -1.928  55.031  29.489  1.00  0.00    -0.502 OA
ATOM     23  H   UNL     1      -2.921  54.940  29.313  1.00  0.00     0.293 HD
ENDBRANCH   2  22
BRANCH   6  24
ATOM     24  O   UNL     1       2.267  54.509  26.247  1.00  0.00    -0.507 OA
ATOM     25  H   UNL     1       1.651  53.712  26.324  1.00  0.00     0.293 HD
ENDBRANCH   6  24
BRANCH   8  26
ATOM     26  O   UNL     1       3.026  59.106  25.094  1.00  0.00    -0.508 OA
ATOM     27  H   UNL     1       2.601  59.718  24.408  1.00  0.00     0.293 HD
ENDBRANCH   8  26
TORSDOF 6
ENDMDL
MODEL 6
REMARK VINA RESULT:    -5.553      3.262      4.842
REMARK INTER + INTRA:          -6.981
REMARK INTER:                  -6.648
REMARK INTRA:                  -0.333
REMARK UNBOUND:                -0.292
REMARK SMILES O=c1c(O)c(-c2ccc(O)c(O)c2)oc2cc(O)cc(O)c12
REMARK SMILES IDX 5 1 3 2 2 3 1 4 22 5 20 6 19 7 17 8 16 9 15 10 14 11 6 12
REMARK SMILES IDX 7 13 8 14 9 15 13 16 11 17 10 18 12 20 4 22 21 24 18 26
REMARK H PARENT 10 19 12 21 4 23 21 25 18 27
REMARK Flexibility Score: inf
ROOT
ATOM      1  C   UNL     1      -2.413  41.755  26.343  1.00  0.00     0.180 A 
ATOM      2  C   UNL     1      -2.416  41.418  27.708  1.00  0.00     0.208 A 
ATOM      3  C   UNL     1      -1.204  41.078  28.329  1.00  0.00     0.238 A 
ATOM      4  O   UNL     1      -1.203  40.850  29.567  1.00  0.00    -0.285 OA
ATOM      5  C   UNL     1      -0.012  41.021  27.566  1.00  0.00     0.111 A 
ATOM      6  C   UNL     1       1.265  40.644  28.081  1.00  0.00     0.134 A 
ATOM      7  C   UNL     1       2.394  40.728  27.256  1.00  0.00     0.093 A 
ATOM      8  C   UNL     1       2.283  41.114  25.918  1.00  0.00     0.123 A 
ATOM      9  C   UNL     1       1.033  41.430  25.392  1.00  0.00     0.094 A 
ATOM     10  C   UNL     1      -0.106  41.394  26.199  1.00  0.00     0.146 A 
ATOM     11  O   UNL     1      -1.274  41.725  25.662  1.00  0.00    -0.452 OA
ENDROOT
BRANCH   1  12
ATOM     12  C   UNL     1      -3.648  42.139  25.623  1.00  0.00     0.025 A 
ATOM     13  C   UNL     1      -4.360  41.165  24.906  1.00  0.00     0.016 A 
ATOM     14  C   UNL     1      -5.516  41.509  24.201  1.00  0.00     0.051 A 
ATOM     15  C   UNL     1      -5.969  42.834  24.190  1.00  0.00     0.157 A 
ATOM     16  C   UNL     1      -4.093  43.473  25.593  1.00  0.00     0.062 A 
ATOM     17  C   UNL     1      -5.250  43.822  24.886  1.00  0.00     0.158 A 
BRANCH  15  18
ATOM     18  O   UNL     1      -7.124  43.174  23.489  1.00  0.00    -0.504 OA
ATOM     19  H   UNL     1      -7.997  43.367  23.965  1.00  0.00     0.293 HD
ENDBRANCH  15  18
BRANCH  17  20
ATOM     20  O   UNL     1      -5.666  45.152  24.883  1.00  0.00    -0.504 OA
ATOM     21  H   UNL     1      -6.361  45.498  24.230  1.00  0.00     0.293 HD
ENDBRANCH  17  20
ENDBRANCH   1  12
BRANCH   2  22
ATOM     22  O   UNL     1      -3.615  41.405  28.426  1.00  0.00    -0.502 OA
ATOM     23  H   UNL     1      -4.001  40.558  28.826  1.00  0.00     0.293 HD
ENDBRANCH   2  22
BRANCH   6  24
ATOM     24  O   UNL     1       1.477  40.160  29.375  1.00  0.00    -0.507 OA
ATOM     25  H   UNL     1       1.118  40.585  30.217  1.00  0.00     0.293 HD
ENDBRANCH   6  24
BRANCH   8  26
ATOM     26  O   UNL     1       3.410  41.178  25.101  1.00  0.00    -0.508 OA
ATOM     27  H   UNL     1       4.329  40.930  25.445  1.00  0.00     0.293 HD
ENDBRANCH   8  26
TORSDOF 6
ENDMDL
