MODEL 1
REMARK VINA RESULT:    -3.370      0.000      0.000
REMARK INTER + INTRA:          -4.571
REMARK INTER:                  -4.356
REMARK INTRA:                  -0.216
REMARK UNBOUND:                -0.216
REMARK SMILES CCO[C@@H]1O[C@@H](CO)[C@@H](O)[C@H](O)[C@H]1O
REMARK SMILES IDX 4 1 13 2 11 3 9 4 6 5 5 6 3 7 2 8 1 9 14 10 12 12 7 14 8 15
REMARK SMILES IDX 10 17
REMARK H PARENT 14 11 12 13 8 16 10 18
REMARK Flexibility Score: inf
ROOT
ATOM      1  C   UNL     1      -5.250  -8.735  -7.030  1.00  0.00     0.281 C 
ATOM      2  C   UNL     1      -4.664  -8.817  -5.595  1.00  0.00     0.202 C 
ATOM      3  C   UNL     1      -4.095 -10.221  -5.287  1.00  0.00     0.179 C 
ATOM      4  C   UNL     1      -3.230 -10.744  -6.450  1.00  0.00     0.177 C 
ATOM      5  C   UNL     1      -3.980 -10.562  -7.787  1.00  0.00     0.178 C 
ATOM      6  O   UNL     1      -4.317  -9.200  -7.995  1.00  0.00    -0.341 OA
ENDROOT
BRANCH   1   7
ATOM      7  O   UNL     1      -6.463  -9.473  -7.128  1.00  0.00    -0.350 OA
BRANCH   7   8
ATOM      8  C   UNL     1      -7.499  -8.895  -6.355  1.00  0.00     0.160 C 
ATOM      9  C   UNL     1      -8.757  -9.752  -6.431  1.00  0.00     0.035 C 
ENDBRANCH   7   8
ENDBRANCH   1   7
BRANCH   2  10
ATOM     10  O   UNL     1      -3.688  -7.825  -5.382  1.00  0.00    -0.385 OA
ATOM     11  H   UNL     1      -2.826  -8.271  -5.181  1.00  0.00     0.211 HD
ENDBRANCH   2  10
BRANCH   3  12
ATOM     12  O   UNL     1      -5.148 -11.125  -5.061  1.00  0.00    -0.387 OA
ATOM     13  H   UNL     1      -5.040 -11.865  -5.714  1.00  0.00     0.211 HD
ENDBRANCH   3  12
BRANCH   5  14
ATOM     14  C   UNL     1      -3.129 -11.048  -8.965  1.00  0.00     0.191 C 
BRANCH  14  15
ATOM     15  O   UNL     1      -3.753 -10.701 -10.170  1.00  0.00    -0.394 OA
ATOM     16  H   UNL     1      -3.123 -10.961 -10.893  1.00  0.00     0.210 HD
ENDBRANCH  14  15
ENDBRANCH   5  14
BRANCH   4  17
ATOM     17  O   UNL     1      -1.999 -10.064  -6.489  1.00  0.00    -0.387 OA
ATOM     18  H   UNL     1      -1.293 -10.753  -6.599  1.00  0.00     0.211 HD
ENDBRANCH   4  17
TORSDOF 7
ENDMDL
MODEL 2
REMARK VINA RESULT:    -3.262      1.730      4.190
REMARK INTER + INTRA:          -4.431
REMARK INTER:                  -4.284
REMARK INTRA:                  -0.147
REMARK UNBOUND:                -0.216
REMARK SMILES CCO[C@@H]1O[C@@H](CO)[C@@H](O)[C@H](O)[C@H]1O
REMARK SMILES IDX 4 1 13 2 11 3 9 4 6 5 5 6 3 7 2 8 1 9 14 10 12 12 7 14 8 15
REMARK SMILES IDX 10 17
REMARK H PARENT 14 11 12 13 8 16 10 18
REMARK Flexibility Score: inf
ROOT
ATOM      1  C   UNL     1      -4.431  -8.539  -7.612  1.00  0.00     0.281 C 
ATOM      2  C   UNL     1      -4.108 -10.019  -7.951  1.00  0.00     0.202 C 
ATOM      3  C   UNL     1      -4.813 -10.997  -6.984  1.00  0.00     0.179 C 
ATOM      4  C   UNL     1      -6.291 -10.612  -6.775  1.00  0.00     0.177 C 
ATOM      5  C   UNL     1      -6.402  -9.104  -6.462  1.00  0.00     0.178 C 
ATOM      6  O   UNL     1      -5.832  -8.329  -7.506  1.00  0.00    -0.341 OA
ENDROOT
BRANCH   1   7
ATOM      7  O   UNL     1      -3.784  -8.140  -6.409  1.00  0.00    -0.350 OA
BRANCH   7   8
ATOM      8  C   UNL     1      -3.517  -6.749  -6.386  1.00  0.00     0.160 C 
ATOM      9  C   UNL     1      -2.487  -6.426  -5.310  1.00  0.00     0.035 C 
ENDBRANCH   7   8
ENDBRANCH   1   7
BRANCH   2  10
ATOM     10  O   UNL     1      -4.429 -10.321  -9.288  1.00  0.00    -0.385 OA
ATOM     11  H   UNL     1      -3.841  -9.785  -9.880  1.00  0.00     0.211 HD
ENDBRANCH   2  10
BRANCH   3  12
ATOM     12  O   UNL     1      -4.161 -10.993  -5.739  1.00  0.00    -0.387 OA
ATOM     13  H   UNL     1      -3.647 -11.840  -5.679  1.00  0.00     0.211 HD
ENDBRANCH   3  12
BRANCH   5  14
ATOM     14  C   UNL     1      -7.865  -8.687  -6.278  1.00  0.00     0.191 C 
BRANCH  14  15
ATOM     15  O   UNL     1      -8.010  -7.329  -6.587  1.00  0.00    -0.394 OA
ATOM     16  H   UNL     1      -8.180  -6.866  -5.725  1.00  0.00     0.210 HD
ENDBRANCH  14  15
ENDBRANCH   5  14
BRANCH   4  17
ATOM     17  O   UNL     1      -7.046 -10.926  -7.919  1.00  0.00    -0.387 OA
ATOM     18  H   UNL     1      -7.703 -11.619  -7.648  1.00  0.00     0.211 HD
ENDBRANCH   4  17
TORSDOF 7
ENDMDL
MODEL 3
REMARK VINA RESULT:    -3.248      1.843      3.856
REMARK INTER + INTRA:          -4.412
REMARK INTER:                  -4.060
REMARK INTRA:                  -0.352
REMARK UNBOUND:                -0.216
REMARK SMILES CCO[C@@H]1O[C@@H](CO)[C@@H](O)[C@H](O)[C@H]1O
REMARK SMILES IDX 4 1 13 2 11 3 9 4 6 5 5 6 3 7 2 8 1 9 14 10 12 12 7 14 8 15
REMARK SMILES IDX 10 17
REMARK H PARENT 14 11 12 13 8 16 10 18
REMARK Flexibility Score: inf
ROOT
ATOM      1  C   UNL     1      -5.481  -8.896  -7.700  1.00  0.00     0.281 C 
ATOM      2  C   UNL     1      -6.652  -8.888  -6.681  1.00  0.00     0.202 C 
ATOM      3  C   UNL     1      -6.142  -8.895  -5.221  1.00  0.00     0.179 C 
ATOM      4  C   UNL     1      -5.004  -7.877  -5.019  1.00  0.00     0.177 C 
ATOM      5  C   UNL     1      -3.952  -8.035  -6.137  1.00  0.00     0.178 C 
ATOM      6  O   UNL     1      -4.544  -7.868  -7.416  1.00  0.00    -0.341 OA
ENDROOT
BRANCH   1   7
ATOM      7  O   UNL     1      -4.830 -10.161  -7.717  1.00  0.00    -0.350 OA
BRANCH   7   8
ATOM      8  C   UNL     1      -4.040 -10.335  -8.879  1.00  0.00     0.160 C 
ATOM      9  C   UNL     1      -2.778 -11.125  -8.548  1.00  0.00     0.035 C 
ENDBRANCH   7   8
ENDBRANCH   1   7
BRANCH   2  10
ATOM     10  O   UNL     1      -7.518  -7.801  -6.902  1.00  0.00    -0.385 OA
ATOM     11  H   UNL     1      -8.412  -8.033  -6.543  1.00  0.00     0.211 HD
ENDBRANCH   2  10
BRANCH   3  12
ATOM     12  O   UNL     1      -5.672 -10.176  -4.885  1.00  0.00    -0.387 OA
ATOM     13  H   UNL     1      -5.151 -10.507  -5.662  1.00  0.00     0.211 HD
ENDBRANCH   3  12
BRANCH   5  14
ATOM     14  C   UNL     1      -2.821  -7.014  -5.977  1.00  0.00     0.191 C 
BRANCH  14  15
ATOM     15  O   UNL     1      -3.111  -5.869  -6.730  1.00  0.00    -0.394 OA
ATOM     16  H   UNL     1      -2.985  -5.097  -6.118  1.00  0.00     0.210 HD
ENDBRANCH  14  15
ENDBRANCH   5  14
BRANCH   4  17
ATOM     17  O   UNL     1      -5.514  -6.566  -5.017  1.00  0.00    -0.387 OA
ATOM     18  H   UNL     1      -4.923  -6.028  -4.429  1.00  0.00     0.211 HD
ENDBRANCH   4  17
TORSDOF 7
ENDMDL
MODEL 4
REMARK VINA RESULT:    -3.204      9.036     11.715
REMARK INTER + INTRA:          -4.357
REMARK INTER:                  -3.979
REMARK INTRA:                  -0.378
REMARK UNBOUND:                -0.216
REMARK SMILES CCO[C@@H]1O[C@@H](CO)[C@@H](O)[C@H](O)[C@H]1O
REMARK SMILES IDX 4 1 13 2 11 3 9 4 6 5 5 6 3 7 2 8 1 9 14 10 12 12 7 14 8 15
REMARK SMILES IDX 10 17
REMARK H PARENT 14 11 12 13 8 16 10 18
REMARK Flexibility Score: inf
ROOT
ATOM      1  C   UNL     1     -15.358  -7.331  -5.494  1.00  0.00     0.281 C 
ATOM      2  C   UNL     1     -16.385  -6.793  -6.526  1.00  0.00     0.202 C 
ATOM      3  C   UNL     1     -16.483  -7.707  -7.769  1.00  0.00     0.179 C 
ATOM      4  C   UNL     1     -16.577  -9.192  -7.367  1.00  0.00     0.177 C 
ATOM      5  C   UNL     1     -15.485  -9.525  -6.328  1.00  0.00     0.178 C 
ATOM      6  O   UNL     1     -15.607  -8.695  -5.184  1.00  0.00    -0.341 OA
ENDROOT
BRANCH   1   7
ATOM      7  O   UNL     1     -14.026  -7.174  -5.971  1.00  0.00    -0.350 OA
BRANCH   7   8
ATOM      8  C   UNL     1     -13.166  -6.648  -4.977  1.00  0.00     0.160 C 
ATOM      9  C   UNL     1     -11.853  -7.423  -4.949  1.00  0.00     0.035 C 
ENDBRANCH   7   8
ENDBRANCH   1   7
BRANCH   2  10
ATOM     10  O   UNL     1     -17.651  -6.606  -5.941  1.00  0.00    -0.385 OA
ATOM     11  H   UNL     1     -17.595  -6.863  -4.986  1.00  0.00     0.211 HD
ENDBRANCH   2  10
BRANCH   3  12
ATOM     12  O   UNL     1     -15.354  -7.527  -8.586  1.00  0.00    -0.387 OA
ATOM     13  H   UNL     1     -15.460  -8.135  -9.364  1.00  0.00     0.211 HD
ENDBRANCH   3  12
BRANCH   5  14
ATOM     14  C   UNL     1     -15.574 -10.991  -5.888  1.00  0.00     0.191 C 
BRANCH  14  15
ATOM     15  O   UNL     1     -16.537 -11.122  -4.880  1.00  0.00    -0.394 OA
ATOM     16  H   UNL     1     -17.409 -11.229  -5.344  1.00  0.00     0.210 HD
ENDBRANCH  14  15
ENDBRANCH   5  14
BRANCH   4  17
ATOM     17  O   UNL     1     -17.850  -9.477  -6.841  1.00  0.00    -0.387 OA
ATOM     18  H   UNL     1     -18.388  -8.648  -6.925  1.00  0.00     0.211 HD
ENDBRANCH   4  17
TORSDOF 7
ENDMDL
MODEL 5
REMARK VINA RESULT:    -3.196      1.645      3.178
REMARK INTER + INTRA:          -4.346
REMARK INTER:                  -3.954
REMARK INTRA:                  -0.392
REMARK UNBOUND:                -0.216
REMARK SMILES CCO[C@@H]1O[C@@H](CO)[C@@H](O)[C@H](O)[C@H]1O
REMARK SMILES IDX 4 1 13 2 11 3 9 4 6 5 5 6 3 7 2 8 1 9 14 10 12 12 7 14 8 15
REMARK SMILES IDX 10 17
REMARK H PARENT 14 11 12 13 8 16 10 18
REMARK Flexibility Score: inf
ROOT
ATOM      1  C   UNL     1      -6.138  -9.608  -5.950  1.00  0.00     0.281 C 
ATOM      2  C   UNL     1      -6.284  -9.716  -7.492  1.00  0.00     0.202 C 
ATOM      3  C   UNL     1      -5.022  -9.207  -8.224  1.00  0.00     0.179 C 
ATOM      4  C   UNL     1      -3.736  -9.763  -7.582  1.00  0.00     0.177 C 
ATOM      5  C   UNL     1      -3.790  -9.574  -6.051  1.00  0.00     0.178 C 
ATOM      6  O   UNL     1      -4.933 -10.212  -5.503  1.00  0.00    -0.341 OA
ENDROOT
BRANCH   1   7
ATOM      7  O   UNL     1      -6.190  -8.250  -5.528  1.00  0.00    -0.350 OA
BRANCH   7   8
ATOM      8  C   UNL     1      -7.509  -7.736  -5.556  1.00  0.00     0.160 C 
ATOM      9  C   UNL     1      -7.516  -6.274  -5.124  1.00  0.00     0.035 C 
ENDBRANCH   7   8
ENDBRANCH   1   7
BRANCH   2  10
ATOM     10  O   UNL     1      -6.595 -11.031  -7.886  1.00  0.00    -0.385 OA
ATOM     11  H   UNL     1      -7.051 -11.485  -7.133  1.00  0.00     0.211 HD
ENDBRANCH   2  10
BRANCH   3  12
ATOM     12  O   UNL     1      -4.980  -7.803  -8.186  1.00  0.00    -0.387 OA
ATOM     13  H   UNL     1      -4.205  -7.521  -8.739  1.00  0.00     0.211 HD
ENDBRANCH   3  12
BRANCH   5  14
ATOM     14  C   UNL     1      -2.535 -10.145  -5.382  1.00  0.00     0.191 C 
BRANCH  14  15
ATOM     15  O   UNL     1      -1.503 -10.243  -6.324  1.00  0.00    -0.394 OA
ATOM     16  H   UNL     1      -1.761  -9.652  -7.079  1.00  0.00     0.210 HD
ENDBRANCH  14  15
ENDBRANCH   5  14
BRANCH   4  17
ATOM     17  O   UNL     1      -3.581 -11.125  -7.896  1.00  0.00    -0.387 OA
ATOM     18  H   UNL     1      -2.639 -11.361  -7.693  1.00  0.00     0.211 HD
ENDBRANCH   4  17
TORSDOF 7
ENDMDL
MODEL 6
REMARK VINA RESULT:    -3.151      8.076     10.077
REMARK INTER + INTRA:          -4.288
REMARK INTER:                  -3.908
REMARK INTRA:                  -0.380
REMARK UNBOUND:                -0.216
REMARK SMILES CCO[C@@H]1O[C@@H](CO)[C@@H](O)[C@H](O)[C@H]1O
REMARK SMILES IDX 4 1 13 2 11 3 9 4 6 5 5 6 3 7 2 8 1 9 14 10 12 12 7 14 8 15
REMARK SMILES IDX 10 17
REMARK H PARENT 14 11 12 13 8 16 10 18
REMARK Flexibility Score: inf
ROOT
ATOM      1  C   UNL     1     -15.504  -8.143  -6.375  1.00  0.00     0.281 C 
ATOM      2  C   UNL     1     -14.571  -7.029  -6.923  1.00  0.00     0.202 C 
ATOM      3  C   UNL     1     -13.190  -7.044  -6.229  1.00  0.00     0.179 C 
ATOM      4  C   UNL     1     -12.624  -8.475  -6.136  1.00  0.00     0.177 C 
ATOM      5  C   UNL     1     -13.703  -9.431  -5.585  1.00  0.00     0.178 C 
ATOM      6  O   UNL     1     -14.863  -9.410  -6.403  1.00  0.00    -0.341 OA
ENDROOT
BRANCH   1   7
ATOM      7  O   UNL     1     -15.934  -7.842  -5.053  1.00  0.00    -0.350 OA
BRANCH   7   8
ATOM      8  C   UNL     1     -17.339  -7.685  -4.975  1.00  0.00     0.160 C 
ATOM      9  C   UNL     1     -17.702  -6.208  -4.875  1.00  0.00     0.035 C 
ENDBRANCH   7   8
ENDBRANCH   1   7
BRANCH   2  10
ATOM     10  O   UNL     1     -14.430  -7.119  -8.320  1.00  0.00    -0.385 OA
ATOM     11  H   UNL     1     -15.318  -7.318  -8.713  1.00  0.00     0.211 HD
ENDBRANCH   2  10
BRANCH   3  12
ATOM     12  O   UNL     1     -13.298  -6.512  -4.933  1.00  0.00    -0.387 OA
ATOM     13  H   UNL     1     -13.354  -5.525  -5.030  1.00  0.00     0.211 HD
ENDBRANCH   3  12
BRANCH   5  14
ATOM     14  C   UNL     1     -13.177 -10.868  -5.508  1.00  0.00     0.191 C 
BRANCH  14  15
ATOM     15  O   UNL     1     -11.788 -10.852  -5.331  1.00  0.00    -0.394 OA
ATOM     16  H   UNL     1     -11.560 -11.691  -4.851  1.00  0.00     0.210 HD
ENDBRANCH  14  15
ENDBRANCH   5  14
BRANCH   4  17
ATOM     17  O   UNL     1     -12.189  -8.913  -7.400  1.00  0.00    -0.387 OA
ATOM     18  H   UNL     1     -12.707  -9.732  -7.614  1.00  0.00     0.211 HD
ENDBRANCH   4  17
TORSDOF 7
ENDMDL
MODEL 7
REMARK VINA RESULT:    -3.072      6.736     10.046
REMARK INTER + INTRA:          -4.186
REMARK INTER:                  -3.765
REMARK INTRA:                  -0.421
REMARK UNBOUND:                -0.216
REMARK SMILES CCO[C@@H]1O[C@@H](CO)[C@@H](O)[C@H](O)[C@H]1O
REMARK SMILES IDX 4 1 13 2 11 3 9 4 6 5 5 6 3 7 2 8 1 9 14 10 12 12 7 14 8 15
REMARK SMILES IDX 10 17
REMARK H PARENT 14 11 12 13 8 16 10 18
REMARK Flexibility Score: inf
ROOT
ATOM      1  C   UNL     1     -12.552  -8.448  -5.690  1.00  0.00     0.281 C 
ATOM      2  C   UNL     1     -13.026  -7.011  -6.037  1.00  0.00     0.202 C 
ATOM      3  C   UNL     1     -14.283  -7.023  -6.936  1.00  0.00     0.179 C 
ATOM      4  C   UNL     1     -15.335  -8.021  -6.417  1.00  0.00     0.177 C 
ATOM      5  C   UNL     1     -14.667  -9.381  -6.118  1.00  0.00     0.178 C 
ATOM      6  O   UNL     1     -13.618  -9.230  -5.173  1.00  0.00    -0.341 OA
ENDROOT
BRANCH   1   7
ATOM      7  O   UNL     1     -11.985  -9.086  -6.829  1.00  0.00    -0.350 OA
BRANCH   7   8
ATOM      8  C   UNL     1     -10.709  -8.562  -7.150  1.00  0.00     0.160 C 
ATOM      9  C   UNL     1      -9.616  -9.546  -6.750  1.00  0.00     0.035 C 
ENDBRANCH   7   8
ENDBRANCH   1   7
BRANCH   2  10
ATOM     10  O   UNL     1     -13.249  -6.249  -4.875  1.00  0.00    -0.385 OA
ATOM     11  H   UNL     1     -13.264  -5.291  -5.126  1.00  0.00     0.211 HD
ENDBRANCH   2  10
BRANCH   3  12
ATOM     12  O   UNL     1     -13.930  -7.375  -8.250  1.00  0.00    -0.387 OA
ATOM     13  H   UNL     1     -14.654  -7.957  -8.599  1.00  0.00     0.211 HD
ENDBRANCH   3  12
BRANCH   5  14
ATOM     14  C   UNL     1     -15.686 -10.386  -5.572  1.00  0.00     0.191 C 
BRANCH  14  15
ATOM     15  O   UNL     1     -16.936 -10.156  -6.160  1.00  0.00    -0.394 OA
ATOM     16  H   UNL     1     -17.602 -10.610  -5.581  1.00  0.00     0.210 HD
ENDBRANCH  14  15
ENDBRANCH   5  14
BRANCH   4  17
ATOM     17  O   UNL     1     -15.956  -7.522  -5.258  1.00  0.00    -0.387 OA
ATOM     18  H   UNL     1     -15.935  -8.251  -4.584  1.00  0.00     0.211 HD
ENDBRANCH   4  17
TORSDOF 7
ENDMDL
MODEL 8
REMARK VINA RESULT:    -2.917      1.855      4.403
REMARK INTER + INTRA:          -3.986
REMARK INTER:                  -3.582
REMARK INTRA:                  -0.404
REMARK UNBOUND:                -0.216
REMARK SMILES CCO[C@@H]1O[C@@H](CO)[C@@H](O)[C@H](O)[C@H]1O
REMARK SMILES IDX 4 1 13 2 11 3 9 4 6 5 5 6 3 7 2 8 1 9 14 10 12 12 7 14 8 15
REMARK SMILES IDX 10 17
REMARK H PARENT 14 11 12 13 8 16 10 18
REMARK Flexibility Score: inf
ROOT
ATOM      1  C   UNL     1      -3.527  -8.823  -5.928  1.00  0.00     0.281 C 
ATOM      2  C   UNL     1      -3.875  -7.898  -7.126  1.00  0.00     0.202 C 
ATOM      3  C   UNL     1      -5.000  -8.494  -8.003  1.00  0.00     0.179 C 
ATOM      4  C   UNL     1      -6.161  -9.027  -7.143  1.00  0.00     0.177 C 
ATOM      5  C   UNL     1      -5.610  -9.910  -6.003  1.00  0.00     0.178 C 
ATOM      6  O   UNL     1      -4.692  -9.184  -5.200  1.00  0.00    -0.341 OA
ENDROOT
BRANCH   1   7
ATOM      7  O   UNL     1      -2.845  -9.991  -6.370  1.00  0.00    -0.350 OA
BRANCH   7   8
ATOM      8  C   UNL     1      -1.764 -10.327  -5.520  1.00  0.00     0.160 C 
ATOM      9  C   UNL     1      -0.875  -9.111  -5.287  1.00  0.00     0.035 C 
ENDBRANCH   7   8
ENDBRANCH   1   7
BRANCH   2  10
ATOM     10  O   UNL     1      -4.214  -6.603  -6.692  1.00  0.00    -0.385 OA
ATOM     11  H   UNL     1      -4.248  -6.006  -7.482  1.00  0.00     0.211 HD
ENDBRANCH   2  10
BRANCH   3  12
ATOM     12  O   UNL     1      -4.491  -9.547  -8.783  1.00  0.00    -0.387 OA
ATOM     13  H   UNL     1      -5.270 -10.014  -9.183  1.00  0.00     0.211 HD
ENDBRANCH   3  12
BRANCH   5  14
ATOM     14  C   UNL     1      -6.743 -10.431  -5.112  1.00  0.00     0.191 C 
BRANCH  14  15
ATOM     15  O   UNL     1      -7.889 -10.647  -5.888  1.00  0.00    -0.394 OA
ATOM     16  H   UNL     1      -7.567 -10.944  -6.780  1.00  0.00     0.210 HD
ENDBRANCH  14  15
ENDBRANCH   5  14
BRANCH   4  17
ATOM     17  O   UNL     1      -6.906  -7.959  -6.610  1.00  0.00    -0.387 OA
ATOM     18  H   UNL     1      -7.325  -8.290  -5.773  1.00  0.00     0.211 HD
ENDBRANCH   4  17
TORSDOF 7
ENDMDL
MODEL 9
REMARK VINA RESULT:    -2.524      9.188     12.425
REMARK INTER + INTRA:          -3.477
REMARK INTER:                  -3.415
REMARK INTRA:                  -0.062
REMARK UNBOUND:                -0.216
REMARK SMILES CCO[C@@H]1O[C@@H](CO)[C@@H](O)[C@H](O)[C@H]1O
REMARK SMILES IDX 4 1 13 2 11 3 9 4 6 5 5 6 3 7 2 8 1 9 14 10 12 12 7 14 8 15
REMARK SMILES IDX 10 17
REMARK H PARENT 14 11 12 13 8 16 10 18
REMARK Flexibility Score: inf
ROOT
ATOM      1  C   UNL     1     -15.661  -7.432  -7.371  1.00  0.00     0.281 C 
ATOM      2  C   UNL     1     -15.884  -8.952  -7.147  1.00  0.00     0.202 C 
ATOM      3  C   UNL     1     -16.188  -9.275  -5.666  1.00  0.00     0.179 C 
ATOM      4  C   UNL     1     -17.229  -8.302  -5.081  1.00  0.00     0.177 C 
ATOM      5  C   UNL     1     -16.838  -6.848  -5.421  1.00  0.00     0.178 C 
ATOM      6  O   UNL     1     -16.729  -6.670  -6.825  1.00  0.00    -0.341 OA
ENDROOT
BRANCH   1   7
ATOM      7  O   UNL     1     -14.423  -7.011  -6.810  1.00  0.00    -0.350 OA
BRANCH   7   8
ATOM      8  C   UNL     1     -13.323  -7.366  -7.626  1.00  0.00     0.160 C 
ATOM      9  C   UNL     1     -12.254  -8.071  -6.798  1.00  0.00     0.035 C 
ENDBRANCH   7   8
ENDBRANCH   1   7
BRANCH   2  10
ATOM     10  O   UNL     1     -16.898  -9.451  -7.986  1.00  0.00    -0.385 OA
ATOM     11  H   UNL     1     -17.738  -8.966  -7.785  1.00  0.00     0.211 HD
ENDBRANCH   2  10
BRANCH   3  12
ATOM     12  O   UNL     1     -15.009  -9.193  -4.906  1.00  0.00    -0.387 OA
ATOM     13  H   UNL     1     -14.716  -8.245  -4.927  1.00  0.00     0.211 HD
ENDBRANCH   3  12
BRANCH   5  14
ATOM     14  C   UNL     1     -17.872  -5.858  -4.875  1.00  0.00     0.191 C 
BRANCH  14  15
ATOM     15  O   UNL     1     -19.158  -6.262  -5.257  1.00  0.00    -0.394 OA
ATOM     16  H   UNL     1     -19.778  -5.561  -4.926  1.00  0.00     0.210 HD
ENDBRANCH  14  15
ENDBRANCH   5  14
BRANCH   4  17
ATOM     17  O   UNL     1     -18.509  -8.590  -5.587  1.00  0.00    -0.387 OA
ATOM     18  H   UNL     1     -18.379  -9.168  -6.384  1.00  0.00     0.211 HD
ENDBRANCH   4  17
TORSDOF 7
ENDMDL
