MODEL 1
REMARK VINA RESULT:    -3.417      0.000      0.000
REMARK INTER + INTRA:          -3.984
REMARK INTER:                  -3.916
REMARK INTRA:                  -0.068
REMARK UNBOUND:                -0.068
REMARK SMILES COc1cc(C=O)ccc1O
REMARK SMILES IDX 3 1 10 2 9 3 8 4 5 5 4 6 2 7 1 8 11 9 6 11 7 12
REMARK H PARENT 11 10
REMARK Flexibility Score: inf
ROOT
ATOM      1  C   UNL     1      23.311  18.280  42.463  1.00  0.00     0.161 A 
ATOM      2  C   UNL     1      23.410  18.407  41.065  1.00  0.00     0.157 A 
ATOM      3  C   UNL     1      24.350  19.279  40.508  1.00  0.00     0.051 A 
ATOM      4  C   UNL     1      25.195  20.028  41.329  1.00  0.00     0.015 A 
ATOM      5  C   UNL     1      25.110  19.913  42.725  1.00  0.00     0.018 A 
ATOM      6  C   UNL     1      24.167  19.039  43.287  1.00  0.00     0.062 A 
ENDROOT
BRANCH   1   7
ATOM      7  O   UNL     1      22.357  17.397  42.995  1.00  0.00    -0.493 OA
ATOM      8  C   UNL     1      22.616  16.040  43.342  1.00  0.00     0.278 C 
ENDBRANCH   1   7
BRANCH   2   9
ATOM      9  O   UNL     1      22.583  17.675  40.214  1.00  0.00    -0.504 OA
ATOM     10  H   UNL     1      22.438  17.936  39.246  1.00  0.00     0.293 HD
ENDBRANCH   2   9
BRANCH   5  11
ATOM     11  C   UNL     1      25.994  20.696  43.608  1.00  0.00     0.260 C 
ATOM     12  O   UNL     1      27.169  20.316  43.855  1.00  0.00    -0.298 OA
ENDBRANCH   5  11
TORSDOF 3
ENDMDL
MODEL 2
REMARK VINA RESULT:    -3.380      2.234      3.534
REMARK INTER + INTRA:          -3.943
REMARK INTER:                  -3.889
REMARK INTRA:                  -0.054
REMARK UNBOUND:                -0.068
REMARK SMILES COc1cc(C=O)ccc1O
REMARK SMILES IDX 3 1 10 2 9 3 8 4 5 5 4 6 2 7 1 8 11 9 6 11 7 12
REMARK H PARENT 11 10
REMARK Flexibility Score: inf
ROOT
ATOM      1  C   UNL     1      23.382  18.432  41.702  1.00  0.00     0.161 A 
ATOM      2  C   UNL     1      22.973  17.103  41.920  1.00  0.00     0.157 A 
ATOM      3  C   UNL     1      22.565  16.696  43.194  1.00  0.00     0.051 A 
ATOM      4  C   UNL     1      22.559  17.601  44.257  1.00  0.00     0.015 A 
ATOM      5  C   UNL     1      22.963  18.930  44.058  1.00  0.00     0.018 A 
ATOM      6  C   UNL     1      23.373  19.340  42.781  1.00  0.00     0.062 A 
ENDROOT
BRANCH   1   7
ATOM      7  O   UNL     1      23.787  18.812  40.413  1.00  0.00    -0.493 OA
ATOM      8  C   UNL     1      23.853  20.157  39.950  1.00  0.00     0.278 C 
ENDBRANCH   1   7
BRANCH   2   9
ATOM      9  O   UNL     1      22.966  16.172  40.882  1.00  0.00    -0.504 OA
ATOM     10  H   UNL     1      22.140  15.639  40.640  1.00  0.00     0.293 HD
ENDBRANCH   2   9
BRANCH   5  11
ATOM     11  C   UNL     1      22.963  19.900  45.170  1.00  0.00     0.260 C 
ATOM     12  O   UNL     1      21.950  20.049  45.903  1.00  0.00    -0.298 OA
ENDBRANCH   5  11
TORSDOF 3
ENDMDL
MODEL 3
REMARK VINA RESULT:    -3.304     17.503     18.078
REMARK INTER + INTRA:          -3.856
REMARK INTER:                  -3.798
REMARK INTRA:                  -0.057
REMARK UNBOUND:                -0.068
REMARK SMILES COc1cc(C=O)ccc1O
REMARK SMILES IDX 3 1 10 2 9 3 8 4 5 5 4 6 2 7 1 8 11 9 6 11 7 12
REMARK H PARENT 11 10
REMARK Flexibility Score: inf
ROOT
ATOM      1  C   UNL     1      17.279  29.240  55.105  1.00  0.00     0.161 A 
ATOM      2  C   UNL     1      18.389  29.873  54.516  1.00  0.00     0.157 A 
ATOM      3  C   UNL     1      19.665  29.694  55.059  1.00  0.00     0.051 A 
ATOM      4  C   UNL     1      19.849  28.890  56.186  1.00  0.00     0.015 A 
ATOM      5  C   UNL     1      18.753  28.251  56.785  1.00  0.00     0.018 A 
ATOM      6  C   UNL     1      17.471  28.429  56.242  1.00  0.00     0.062 A 
ENDROOT
BRANCH   1   7
ATOM      7  O   UNL     1      16.009  29.438  54.538  1.00  0.00    -0.493 OA
ATOM      8  C   UNL     1      15.017  28.425  54.404  1.00  0.00     0.278 C 
ENDBRANCH   1   7
BRANCH   2   9
ATOM      9  O   UNL     1      18.245  30.684  53.391  1.00  0.00    -0.504 OA
ATOM     10  H   UNL     1      17.342  30.872  52.973  1.00  0.00     0.293 HD
ENDBRANCH   2   9
BRANCH   5  11
ATOM     11  C   UNL     1      18.927  27.398  57.976  1.00  0.00     0.260 C 
ATOM     12  O   UNL     1      19.418  27.861  59.041  1.00  0.00    -0.298 OA
ENDBRANCH   5  11
TORSDOF 3
ENDMDL
MODEL 4
REMARK VINA RESULT:    -3.276     16.124     18.498
REMARK INTER + INTRA:          -3.823
REMARK INTER:                  -3.752
REMARK INTRA:                  -0.071
REMARK UNBOUND:                -0.068
REMARK SMILES COc1cc(C=O)ccc1O
REMARK SMILES IDX 3 1 10 2 9 3 8 4 5 5 4 6 2 7 1 8 11 9 6 11 7 12
REMARK H PARENT 11 10
REMARK Flexibility Score: inf
ROOT
ATOM      1  C   UNL     1      27.580  33.538  53.023  1.00  0.00     0.161 A 
ATOM      2  C   UNL     1      28.874  33.824  53.495  1.00  0.00     0.157 A 
ATOM      3  C   UNL     1      29.981  33.632  52.662  1.00  0.00     0.051 A 
ATOM      4  C   UNL     1      29.812  33.156  51.361  1.00  0.00     0.015 A 
ATOM      5  C   UNL     1      28.529  32.866  50.873  1.00  0.00     0.018 A 
ATOM      6  C   UNL     1      27.417  33.058  51.707  1.00  0.00     0.062 A 
ENDROOT
BRANCH   1   7
ATOM      7  O   UNL     1      26.487  33.741  53.881  1.00  0.00    -0.493 OA
ATOM      8  C   UNL     1      25.692  34.922  53.912  1.00  0.00     0.278 C 
ENDBRANCH   1   7
BRANCH   2   9
ATOM      9  O   UNL     1      29.081  34.300  54.789  1.00  0.00    -0.504 OA
ATOM     10  H   UNL     1      28.316  34.579  55.391  1.00  0.00     0.293 HD
ENDBRANCH   2   9
BRANCH   5  11
ATOM     11  C   UNL     1      28.332  32.362  49.501  1.00  0.00     0.260 C 
ATOM     12  O   UNL     1      28.240  33.153  48.525  1.00  0.00    -0.298 OA
ENDBRANCH   5  11
TORSDOF 3
ENDMDL
MODEL 5
REMARK VINA RESULT:    -3.268      1.929      3.113
REMARK INTER + INTRA:          -3.814
REMARK INTER:                  -3.744
REMARK INTRA:                  -0.071
REMARK UNBOUND:                -0.068
REMARK SMILES COc1cc(C=O)ccc1O
REMARK SMILES IDX 3 1 10 2 9 3 8 4 5 5 4 6 2 7 1 8 11 9 6 11 7 12
REMARK H PARENT 11 10
REMARK Flexibility Score: inf
ROOT
ATOM      1  C   UNL     1      23.093  17.712  43.117  1.00  0.00     0.161 A 
ATOM      2  C   UNL     1      23.829  18.301  44.162  1.00  0.00     0.157 A 
ATOM      3  C   UNL     1      24.647  19.405  43.906  1.00  0.00     0.051 A 
ATOM      4  C   UNL     1      24.742  19.931  42.616  1.00  0.00     0.015 A 
ATOM      5  C   UNL     1      24.016  19.357  41.562  1.00  0.00     0.018 A 
ATOM      6  C   UNL     1      23.194  18.248  41.817  1.00  0.00     0.062 A 
ENDROOT
BRANCH   1   7
ATOM      7  O   UNL     1      22.280  16.603  43.403  1.00  0.00    -0.493 OA
ATOM      8  C   UNL     1      22.682  15.246  43.254  1.00  0.00     0.278 C 
ENDBRANCH   1   7
BRANCH   2   9
ATOM      9  O   UNL     1      23.759  17.802  45.463  1.00  0.00    -0.504 OA
ATOM     10  H   UNL     1      22.877  17.641  45.933  1.00  0.00     0.293 HD
ENDBRANCH   2   9
BRANCH   5  11
ATOM     11  C   UNL     1      24.104  19.899  40.193  1.00  0.00     0.260 C 
ATOM     12  O   UNL     1      23.508  20.962  39.875  1.00  0.00    -0.298 OA
ENDBRANCH   5  11
TORSDOF 3
ENDMDL
MODEL 6
REMARK VINA RESULT:    -3.238     11.460     13.083
REMARK INTER + INTRA:          -3.779
REMARK INTER:                  -3.705
REMARK INTRA:                  -0.074
REMARK UNBOUND:                -0.068
REMARK SMILES COc1cc(C=O)ccc1O
REMARK SMILES IDX 3 1 10 2 9 3 8 4 5 5 4 6 2 7 1 8 11 9 6 11 7 12
REMARK H PARENT 11 10
REMARK Flexibility Score: inf
ROOT
ATOM      1  C   UNL     1      18.816  19.043  52.726  1.00  0.00     0.161 A 
ATOM      2  C   UNL     1      18.174  18.189  51.809  1.00  0.00     0.157 A 
ATOM      3  C   UNL     1      17.003  17.521  52.177  1.00  0.00     0.051 A 
ATOM      4  C   UNL     1      16.461  17.692  53.452  1.00  0.00     0.015 A 
ATOM      5  C   UNL     1      17.087  18.540  54.379  1.00  0.00     0.018 A 
ATOM      6  C   UNL     1      18.263  19.212  54.012  1.00  0.00     0.062 A 
ENDROOT
BRANCH   1   7
ATOM      7  O   UNL     1      19.991  19.701  52.329  1.00  0.00    -0.493 OA
ATOM      8  C   UNL     1      21.308  19.274  52.659  1.00  0.00     0.278 C 
ENDBRANCH   1   7
BRANCH   2   9
ATOM      9  O   UNL     1      18.687  17.993  50.527  1.00  0.00    -0.504 OA
ATOM     10  H   UNL     1      19.513  18.476  50.195  1.00  0.00     0.293 HD
ENDBRANCH   2   9
BRANCH   5  11
ATOM     11  C   UNL     1      16.529  18.733  55.731  1.00  0.00     0.260 C 
ATOM     12  O   UNL     1      16.557  17.806  56.584  1.00  0.00    -0.298 OA
ENDBRANCH   5  11
TORSDOF 3
ENDMDL
MODEL 7
REMARK VINA RESULT:    -3.227     16.209     18.774
REMARK INTER + INTRA:          -3.767
REMARK INTER:                  -3.694
REMARK INTRA:                  -0.073
REMARK UNBOUND:                -0.068
REMARK SMILES COc1cc(C=O)ccc1O
REMARK SMILES IDX 3 1 10 2 9 3 8 4 5 5 4 6 2 7 1 8 11 9 6 11 7 12
REMARK H PARENT 11 10
REMARK Flexibility Score: inf
ROOT
ATOM      1  C   UNL     1      28.039  32.759  54.141  1.00  0.00     0.161 A 
ATOM      2  C   UNL     1      27.652  34.111  54.119  1.00  0.00     0.157 A 
ATOM      3  C   UNL     1      26.346  34.459  53.761  1.00  0.00     0.051 A 
ATOM      4  C   UNL     1      25.418  33.472  53.424  1.00  0.00     0.015 A 
ATOM      5  C   UNL     1      25.787  32.118  53.441  1.00  0.00     0.018 A 
ATOM      6  C   UNL     1      27.098  31.767  53.799  1.00  0.00     0.062 A 
ENDROOT
BRANCH   1   7
ATOM      7  O   UNL     1      29.358  32.439  54.504  1.00  0.00    -0.493 OA
ATOM      8  C   UNL     1      29.765  32.054  55.813  1.00  0.00     0.278 C 
ENDBRANCH   1   7
BRANCH   2   9
ATOM      9  O   UNL     1      28.551  35.125  54.449  1.00  0.00    -0.504 OA
ATOM     10  H   UNL     1      28.271  36.096  54.514  1.00  0.00     0.293 HD
ENDBRANCH   2   9
BRANCH   5  11
ATOM     11  C   UNL     1      24.821  31.061  53.087  1.00  0.00     0.260 C 
ATOM     12  O   UNL     1      24.655  30.706  51.889  1.00  0.00    -0.298 OA
ENDBRANCH   5  11
TORSDOF 3
ENDMDL
MODEL 8
REMARK VINA RESULT:    -3.218     16.269     18.321
REMARK INTER + INTRA:          -3.757
REMARK INTER:                  -3.684
REMARK INTRA:                  -0.073
REMARK UNBOUND:                -0.068
REMARK SMILES COc1cc(C=O)ccc1O
REMARK SMILES IDX 3 1 10 2 9 3 8 4 5 5 4 6 2 7 1 8 11 9 6 11 7 12
REMARK H PARENT 11 10
REMARK Flexibility Score: inf
ROOT
ATOM      1  C   UNL     1      27.285  32.999  51.490  1.00  0.00     0.161 A 
ATOM      2  C   UNL     1      26.243  33.371  52.361  1.00  0.00     0.157 A 
ATOM      3  C   UNL     1      26.540  33.894  53.622  1.00  0.00     0.051 A 
ATOM      4  C   UNL     1      27.866  34.052  54.029  1.00  0.00     0.015 A 
ATOM      5  C   UNL     1      28.917  33.688  53.174  1.00  0.00     0.018 A 
ATOM      6  C   UNL     1      28.621  33.162  51.907  1.00  0.00     0.062 A 
ENDROOT
BRANCH   1   7
ATOM      7  O   UNL     1      26.957  32.476  50.228  1.00  0.00    -0.493 OA
ATOM      8  C   UNL     1      26.843  33.249  49.038  1.00  0.00     0.278 C 
ENDBRANCH   1   7
BRANCH   2   9
ATOM      9  O   UNL     1      24.907  33.227  51.989  1.00  0.00    -0.504 OA
ATOM     10  H   UNL     1      24.517  32.336  51.708  1.00  0.00     0.293 HD
ENDBRANCH   2   9
BRANCH   5  11
ATOM     11  C   UNL     1      30.324  33.847  53.587  1.00  0.00     0.260 C 
ATOM     12  O   UNL     1      30.659  34.721  54.430  1.00  0.00    -0.298 OA
ENDBRANCH   5  11
TORSDOF 3
ENDMDL
