MODEL 1
REMARK VINA RESULT:    -3.665      0.000      0.000
REMARK INTER + INTRA:          -8.895
REMARK INTER:                  -6.664
REMARK INTRA:                  -2.231
REMARK UNBOUND:                -2.231
REMARK SMILES CCCCCCCCCCCCCCCC(=O)[O-]
REMARK SMILES IDX 9 1 10 2 11 3 12 4 13 5 14 6 15 7 16 8 17 9 18 10 8 11 7 12
REMARK SMILES IDX 6 13 5 14 4 15 3 16 2 17 1 18
REMARK H PARENT
REMARK Flexibility Score: inf
ROOT
ATOM      1  C   UNL     1       0.853  10.006  36.215  1.00  0.00     0.000 C 
ENDROOT
BRANCH   1   2
ATOM      2  C   UNL     1      -0.407   9.143  36.407  1.00  0.00     0.000 C 
BRANCH   2   3
ATOM      3  C   UNL     1      -1.613   9.966  36.905  1.00  0.00     0.000 C 
BRANCH   3   4
ATOM      4  C   UNL     1      -1.943   9.743  38.394  1.00  0.00     0.000 C 
BRANCH   4   5
ATOM      5  C   UNL     1      -1.549   8.362  38.949  1.00  0.00     0.000 C 
BRANCH   5   6
ATOM      6  C   UNL     1      -2.635   7.673  39.798  1.00  0.00     0.006 C 
BRANCH   6   7
ATOM      7  C   UNL     1      -2.052   6.815  40.928  1.00  0.00     0.053 C 
BRANCH   7   8
ATOM      8  C   UNL     1      -1.831   7.644  42.154  1.00  0.00     0.041 C 
ATOM      9  O   UNL     1      -2.780   7.858  42.953  1.00  0.00    -0.550 OA
ATOM     10  O   UNL     1      -0.590   8.224  42.387  1.00  0.00    -0.550 OA
ENDBRANCH   7   8
ENDBRANCH   6   7
ENDBRANCH   5   6
ENDBRANCH   4   5
ENDBRANCH   3   4
ENDBRANCH   2   3
ENDBRANCH   1   2
BRANCH   1  11
ATOM     11  C   UNL     1       2.089   9.411  36.909  1.00  0.00     0.000 C 
BRANCH  11  12
ATOM     12  C   UNL     1       2.137   9.748  38.410  1.00  0.00    -0.000 C 
BRANCH  12  13
ATOM     13  C   UNL     1       2.060   8.497  39.299  1.00  0.00    -0.000 C 
BRANCH  13  14
ATOM     14  C   UNL     1       1.955   7.195  38.485  1.00  0.00    -0.000 C 
BRANCH  14  15
ATOM     15  C   UNL     1       1.174   6.099  39.227  1.00  0.00    -0.000 C 
BRANCH  15  16
ATOM     16  C   UNL     1       0.864   4.886  38.331  1.00  0.00    -0.000 C 
BRANCH  16  17
ATOM     17  C   UNL     1      -0.636   4.556  38.286  1.00  0.00    -0.003 C 
ATOM     18  C   UNL     1      -1.359   5.254  37.134  1.00  0.00     0.004 C 
ENDBRANCH  16  17
ENDBRANCH  15  16
ENDBRANCH  14  15
ENDBRANCH  13  14
ENDBRANCH  12  13
ENDBRANCH  11  12
ENDBRANCH   1  11
TORSDOF 14
ENDMDL
MODEL 2
REMARK VINA RESULT:    -3.660      3.318      5.584
REMARK INTER + INTRA:          -8.886
REMARK INTER:                  -6.797
REMARK INTRA:                  -2.089
REMARK UNBOUND:                -2.231
REMARK SMILES CCCCCCCCCCCCCCCC(=O)[O-]
REMARK SMILES IDX 9 1 10 2 11 3 12 4 13 5 14 6 15 7 16 8 17 9 18 10 8 11 7 12
REMARK SMILES IDX 6 13 5 14 4 15 3 16 2 17 1 18
REMARK H PARENT
REMARK Flexibility Score: inf
ROOT
ATOM      1  C   UNL     1       0.004   8.642  40.411  1.00  0.00     0.000 C 
ENDROOT
BRANCH   1   2
ATOM      2  C   UNL     1       1.502   8.719  40.066  1.00  0.00     0.000 C 
BRANCH   2   3
ATOM      3  C   UNL     1       1.850   9.972  39.234  1.00  0.00     0.000 C 
BRANCH   3   4
ATOM      4  C   UNL     1       2.624   9.660  37.938  1.00  0.00     0.000 C 
BRANCH   4   5
ATOM      5  C   UNL     1       1.936  10.125  36.641  1.00  0.00     0.000 C 
BRANCH   5   6
ATOM      6  C   UNL     1       1.028   9.071  35.978  1.00  0.00     0.006 C 
BRANCH   6   7
ATOM      7  C   UNL     1       1.202   9.009  34.455  1.00  0.00     0.053 C 
BRANCH   7   8
ATOM      8  C   UNL     1       1.544   7.617  34.025  1.00  0.00     0.041 C 
ATOM      9  O   UNL     1       1.876   6.754  34.880  1.00  0.00    -0.550 OA
ATOM     10  O   UNL     1       1.546   7.287  32.675  1.00  0.00    -0.550 OA
ENDBRANCH   7   8
ENDBRANCH   6   7
ENDBRANCH   5   6
ENDBRANCH   4   5
ENDBRANCH   3   4
ENDBRANCH   2   3
ENDBRANCH   1   2
BRANCH   1  11
ATOM     11  C   UNL     1      -0.886   9.258  39.319  1.00  0.00     0.000 C 
BRANCH  11  12
ATOM     12  C   UNL     1      -2.244   8.546  39.199  1.00  0.00    -0.000 C 
BRANCH  12  13
ATOM     13  C   UNL     1      -2.419   7.429  40.240  1.00  0.00    -0.000 C 
BRANCH  13  14
ATOM     14  C   UNL     1      -3.018   6.145  39.639  1.00  0.00    -0.000 C 
BRANCH  14  15
ATOM     15  C   UNL     1      -1.939   5.179  39.123  1.00  0.00    -0.000 C 
BRANCH  15  16
ATOM     16  C   UNL     1      -1.713   5.303  37.606  1.00  0.00    -0.000 C 
BRANCH  16  17
ATOM     17  C   UNL     1      -0.438   6.089  37.264  1.00  0.00    -0.003 C 
ATOM     18  C   UNL     1       0.733   5.743  38.183  1.00  0.00     0.004 C 
ENDBRANCH  16  17
ENDBRANCH  15  16
ENDBRANCH  14  15
ENDBRANCH  13  14
ENDBRANCH  12  13
ENDBRANCH  11  12
ENDBRANCH   1  11
TORSDOF 14
ENDMDL
MODEL 3
REMARK VINA RESULT:    -3.642      1.689      1.901
REMARK INTER + INTRA:          -8.854
REMARK INTER:                  -6.409
REMARK INTRA:                  -2.445
REMARK UNBOUND:                -2.231
REMARK SMILES CCCCCCCCCCCCCCCC(=O)[O-]
REMARK SMILES IDX 9 1 10 2 11 3 12 4 13 5 14 6 15 7 16 8 17 9 18 10 8 11 7 12
REMARK SMILES IDX 6 13 5 14 4 15 3 16 2 17 1 18
REMARK H PARENT
REMARK Flexibility Score: inf
ROOT
ATOM      1  C   UNL     1      -0.166   9.982  35.686  1.00  0.00     0.000 C 
ENDROOT
BRANCH   1   2
ATOM      2  C   UNL     1      -1.301   9.265  36.438  1.00  0.00     0.000 C 
BRANCH   2   3
ATOM      3  C   UNL     1      -1.662   9.968  37.764  1.00  0.00     0.000 C 
BRANCH   3   4
ATOM      4  C   UNL     1      -1.319   9.140  39.018  1.00  0.00     0.000 C 
BRANCH   4   5
ATOM      5  C   UNL     1      -2.480   8.301  39.584  1.00  0.00     0.000 C 
BRANCH   5   6
ATOM      6  C   UNL     1      -2.048   7.090  40.432  1.00  0.00     0.006 C 
BRANCH   6   7
ATOM      7  C   UNL     1      -2.705   5.780  39.978  1.00  0.00     0.053 C 
BRANCH   7   8
ATOM      8  C   UNL     1      -2.272   4.647  40.854  1.00  0.00     0.041 C 
ATOM      9  O   UNL     1      -3.101   3.767  41.208  1.00  0.00    -0.550 OA
ATOM     10  O   UNL     1      -0.965   4.589  41.322  1.00  0.00    -0.550 OA
ENDBRANCH   7   8
ENDBRANCH   6   7
ENDBRANCH   5   6
ENDBRANCH   4   5
ENDBRANCH   3   4
ENDBRANCH   2   3
ENDBRANCH   1   2
BRANCH   1  11
ATOM     11  C   UNL     1       1.214   9.369  35.974  1.00  0.00     0.000 C 
BRANCH  11  12
ATOM     12  C   UNL     1       1.963  10.113  37.093  1.00  0.00    -0.000 C 
BRANCH  12  13
ATOM     13  C   UNL     1       2.374   9.184  38.247  1.00  0.00    -0.000 C 
BRANCH  13  14
ATOM     14  C   UNL     1       2.219   7.694  37.894  1.00  0.00    -0.000 C 
BRANCH  14  15
ATOM     15  C   UNL     1       1.470   6.907  38.980  1.00  0.00    -0.000 C 
BRANCH  15  16
ATOM     16  C   UNL     1       0.760   5.661  38.422  1.00  0.00    -0.000 C 
BRANCH  16  17
ATOM     17  C   UNL     1      -0.219   6.000  37.287  1.00  0.00    -0.003 C 
ATOM     18  C   UNL     1      -0.986   4.776  36.785  1.00  0.00     0.004 C 
ENDBRANCH  16  17
ENDBRANCH  15  16
ENDBRANCH  14  15
ENDBRANCH  13  14
ENDBRANCH  12  13
ENDBRANCH  11  12
ENDBRANCH   1  11
TORSDOF 14
ENDMDL
MODEL 4
REMARK VINA RESULT:    -3.553      3.696      6.397
REMARK INTER + INTRA:          -8.692
REMARK INTER:                  -6.482
REMARK INTRA:                  -2.210
REMARK UNBOUND:                -2.231
REMARK SMILES CCCCCCCCCCCCCCCC(=O)[O-]
REMARK SMILES IDX 9 1 10 2 11 3 12 4 13 5 14 6 15 7 16 8 17 9 18 10 8 11 7 12
REMARK SMILES IDX 6 13 5 14 4 15 3 16 2 17 1 18
REMARK H PARENT
REMARK Flexibility Score: inf
ROOT
ATOM      1  C   UNL     1      -1.094   4.583  38.983  1.00  0.00     0.000 C 
ENDROOT
BRANCH   1   2
ATOM      2  C   UNL     1      -1.676   5.000  37.621  1.00  0.00     0.000 C 
BRANCH   2   3
ATOM      3  C   UNL     1      -0.578   5.365  36.599  1.00  0.00     0.000 C 
BRANCH   3   4
ATOM      4  C   UNL     1       0.404   6.440  37.103  1.00  0.00     0.000 C 
BRANCH   4   5
ATOM      5  C   UNL     1       0.295   7.805  36.397  1.00  0.00     0.000 C 
BRANCH   5   6
ATOM      6  C   UNL     1       1.560   8.240  35.633  1.00  0.00     0.006 C 
BRANCH   6   7
ATOM      7  C   UNL     1       1.280   8.581  34.163  1.00  0.00     0.053 C 
BRANCH   7   8
ATOM      8  C   UNL     1       1.775   7.488  33.270  1.00  0.00     0.041 C 
ATOM      9  O   UNL     1       1.795   7.651  32.022  1.00  0.00    -0.550 OA
ATOM     10  O   UNL     1       2.167   6.270  33.812  1.00  0.00    -0.550 OA
ENDBRANCH   7   8
ENDBRANCH   6   7
ENDBRANCH   5   6
ENDBRANCH   4   5
ENDBRANCH   3   4
ENDBRANCH   2   3
ENDBRANCH   1   2
BRANCH   1  11
ATOM     11  C   UNL     1      -1.758   5.318  40.159  1.00  0.00     0.000 C 
BRANCH  11  12
ATOM     12  C   UNL     1      -2.832   6.317  39.695  1.00  0.00    -0.000 C 
BRANCH  12  13
ATOM     13  C   UNL     1      -2.547   7.752  40.166  1.00  0.00    -0.000 C 
BRANCH  13  14
ATOM     14  C   UNL     1      -2.050   8.662  39.030  1.00  0.00    -0.000 C 
BRANCH  14  15
ATOM     15  C   UNL     1      -0.741   9.386  39.386  1.00  0.00    -0.000 C 
BRANCH  15  16
ATOM     16  C   UNL     1       0.086   8.627  40.438  1.00  0.00    -0.000 C 
BRANCH  16  17
ATOM     17  C   UNL     1       1.547   8.428  40.006  1.00  0.00    -0.003 C 
ATOM     18  C   UNL     1       2.078   9.592  39.171  1.00  0.00     0.004 C 
ENDBRANCH  16  17
ENDBRANCH  15  16
ENDBRANCH  14  15
ENDBRANCH  13  14
ENDBRANCH  12  13
ENDBRANCH  11  12
ENDBRANCH   1  11
TORSDOF 14
ENDMDL
MODEL 5
REMARK VINA RESULT:    -3.512      2.138      3.997
REMARK INTER + INTRA:          -8.617
REMARK INTER:                  -6.444
REMARK INTRA:                  -2.173
REMARK UNBOUND:                -2.231
REMARK SMILES CCCCCCCCCCCCCCCC(=O)[O-]
REMARK SMILES IDX 9 1 10 2 11 3 12 4 13 5 14 6 15 7 16 8 17 9 18 10 8 11 7 12
REMARK SMILES IDX 6 13 5 14 4 15 3 16 2 17 1 18
REMARK H PARENT
REMARK Flexibility Score: inf
ROOT
ATOM      1  C   UNL     1      -1.344   9.952  37.760  1.00  0.00     0.000 C 
ENDROOT
BRANCH   1   2
ATOM      2  C   UNL     1      -2.031   9.253  38.947  1.00  0.00     0.000 C 
BRANCH   2   3
ATOM      3  C   UNL     1      -1.760   7.734  38.971  1.00  0.00     0.000 C 
BRANCH   3   4
ATOM      4  C   UNL     1      -2.775   6.937  39.814  1.00  0.00     0.000 C 
BRANCH   4   5
ATOM      5  C   UNL     1      -2.770   5.416  39.574  1.00  0.00     0.000 C 
BRANCH   5   6
ATOM      6  C   UNL     1      -2.022   4.596  40.642  1.00  0.00     0.006 C 
BRANCH   6   7
ATOM      7  C   UNL     1      -0.942   3.684  40.045  1.00  0.00     0.053 C 
BRANCH   7   8
ATOM      8  C   UNL     1       0.155   4.501  39.439  1.00  0.00     0.041 C 
ATOM      9  O   UNL     1       0.951   5.138  40.176  1.00  0.00    -0.550 OA
ATOM     10  O   UNL     1       0.267   4.598  38.057  1.00  0.00    -0.550 OA
ENDBRANCH   7   8
ENDBRANCH   6   7
ENDBRANCH   5   6
ENDBRANCH   4   5
ENDBRANCH   3   4
ENDBRANCH   2   3
ENDBRANCH   1   2
BRANCH   1  11
ATOM     11  C   UNL     1      -1.142   9.015  36.558  1.00  0.00     0.000 C 
BRANCH  11  12
ATOM     12  C   UNL     1       0.323   8.967  36.092  1.00  0.00    -0.000 C 
BRANCH  12  13
ATOM     13  C   UNL     1       1.051   7.696  36.561  1.00  0.00    -0.000 C 
BRANCH  13  14
ATOM     14  C   UNL     1       2.171   7.993  37.574  1.00  0.00    -0.000 C 
BRANCH  14  15
ATOM     15  C   UNL     1       2.340   9.497  37.841  1.00  0.00    -0.000 C 
BRANCH  15  16
ATOM     16  C   UNL     1       1.963   9.887  39.281  1.00  0.00    -0.000 C 
BRANCH  16  17
ATOM     17  C   UNL     1       1.580   8.672  40.139  1.00  0.00    -0.003 C 
ATOM     18  C   UNL     1       0.845   9.063  41.421  1.00  0.00     0.004 C 
ENDBRANCH  16  17
ENDBRANCH  15  16
ENDBRANCH  14  15
ENDBRANCH  13  14
ENDBRANCH  12  13
ENDBRANCH  11  12
ENDBRANCH   1  11
TORSDOF 14
ENDMDL
MODEL 6
REMARK VINA RESULT:    -3.499      2.770      4.440
REMARK INTER + INTRA:          -8.593
REMARK INTER:                  -6.322
REMARK INTRA:                  -2.271
REMARK UNBOUND:                -2.231
REMARK SMILES CCCCCCCCCCCCCCCC(=O)[O-]
REMARK SMILES IDX 9 1 10 2 11 3 12 4 13 5 14 6 15 7 16 8 17 9 18 10 8 11 7 12
REMARK SMILES IDX 6 13 5 14 4 15 3 16 2 17 1 18
REMARK H PARENT
REMARK Flexibility Score: inf
ROOT
ATOM      1  C   UNL     1      -1.918   9.924  38.203  1.00  0.00     0.000 C 
ENDROOT
BRANCH   1   2
ATOM      2  C   UNL     1      -1.376   8.877  39.192  1.00  0.00     0.000 C 
BRANCH   2   3
ATOM      3  C   UNL     1      -2.441   7.831  39.584  1.00  0.00     0.000 C 
BRANCH   3   4
ATOM      4  C   UNL     1      -1.853   6.456  39.953  1.00  0.00     0.000 C 
BRANCH   4   5
ATOM      5  C   UNL     1      -2.165   5.324  38.957  1.00  0.00     0.000 C 
BRANCH   5   6
ATOM      6  C   UNL     1      -1.640   5.558  37.528  1.00  0.00     0.006 C 
BRANCH   6   7
ATOM      7  C   UNL     1      -1.432   4.252  36.748  1.00  0.00     0.053 C 
BRANCH   7   8
ATOM      8  C   UNL     1      -0.011   4.134  36.297  1.00  0.00     0.041 C 
ATOM      9  O   UNL     1       0.563   3.014  36.297  1.00  0.00    -0.550 OA
ATOM     10  O   UNL     1       0.697   5.270  35.922  1.00  0.00    -0.550 OA
ENDBRANCH   7   8
ENDBRANCH   6   7
ENDBRANCH   5   6
ENDBRANCH   4   5
ENDBRANCH   3   4
ENDBRANCH   2   3
ENDBRANCH   1   2
BRANCH   1  11
ATOM     11  C   UNL     1      -0.996  10.124  36.989  1.00  0.00     0.000 C 
BRANCH  11  12
ATOM     12  C   UNL     1      -0.482   8.791  36.417  1.00  0.00    -0.000 C 
BRANCH  12  13
ATOM     13  C   UNL     1       1.046   8.770  36.250  1.00  0.00    -0.000 C 
BRANCH  13  14
ATOM     14  C   UNL     1       1.767   9.677  37.262  1.00  0.00    -0.000 C 
BRANCH  14  15
ATOM     15  C   UNL     1       2.358   8.890  38.442  1.00  0.00    -0.000 C 
BRANCH  15  16
ATOM     16  C   UNL     1       2.321   7.368  38.214  1.00  0.00    -0.000 C 
BRANCH  16  17
ATOM     17  C   UNL     1       1.513   6.631  39.293  1.00  0.00    -0.003 C 
ATOM     18  C   UNL     1       1.841   5.140  39.358  1.00  0.00     0.004 C 
ENDBRANCH  16  17
ENDBRANCH  15  16
ENDBRANCH  14  15
ENDBRANCH  13  14
ENDBRANCH  12  13
ENDBRANCH  11  12
ENDBRANCH   1  11
TORSDOF 14
ENDMDL
MODEL 7
REMARK VINA RESULT:    -3.420      2.772      5.001
REMARK INTER + INTRA:          -8.451
REMARK INTER:                  -5.997
REMARK INTRA:                  -2.454
REMARK UNBOUND:                -2.231
REMARK SMILES CCCCCCCCCCCCCCCC(=O)[O-]
REMARK SMILES IDX 9 1 10 2 11 3 12 4 13 5 14 6 15 7 16 8 17 9 18 10 8 11 7 12
REMARK SMILES IDX 6 13 5 14 4 15 3 16 2 17 1 18
REMARK H PARENT
REMARK Flexibility Score: inf
ROOT
ATOM      1  C   UNL     1      -1.517   9.333  38.702  1.00  0.00     0.000 C 
ENDROOT
BRANCH   1   2
ATOM      2  C   UNL     1      -0.196  10.123  38.683  1.00  0.00     0.000 C 
BRANCH   2   3
ATOM      3  C   UNL     1       0.934   9.397  39.443  1.00  0.00     0.000 C 
BRANCH   3   4
ATOM      4  C   UNL     1       2.257   9.315  38.657  1.00  0.00     0.000 C 
BRANCH   4   5
ATOM      5  C   UNL     1       2.128   8.783  37.217  1.00  0.00     0.000 C 
BRANCH   5   6
ATOM      6  C   UNL     1       2.253   7.254  37.080  1.00  0.00     0.006 C 
BRANCH   6   7
ATOM      7  C   UNL     1       1.259   6.664  36.070  1.00  0.00     0.053 C 
BRANCH   7   8
ATOM      8  C   UNL     1       0.736   5.350  36.559  1.00  0.00     0.041 C 
ATOM      9  O   UNL     1       1.512   4.524  37.109  1.00  0.00    -0.550 OA
ATOM     10  O   UNL     1      -0.598   5.016  36.363  1.00  0.00    -0.550 OA
ENDBRANCH   7   8
ENDBRANCH   6   7
ENDBRANCH   5   6
ENDBRANCH   4   5
ENDBRANCH   3   4
ENDBRANCH   2   3
ENDBRANCH   1   2
BRANCH   1  11
ATOM     11  C   UNL     1      -1.309   7.828  38.469  1.00  0.00     0.000 C 
BRANCH  11  12
ATOM     12  C   UNL     1      -2.150   6.965  39.426  1.00  0.00    -0.000 C 
BRANCH  12  13
ATOM     13  C   UNL     1      -2.620   7.745  40.665  1.00  0.00    -0.000 C 
BRANCH  13  14
ATOM     14  C   UNL     1      -1.928   7.278  41.958  1.00  0.00    -0.000 C 
BRANCH  14  15
ATOM     15  C   UNL     1      -0.579   7.977  42.189  1.00  0.00    -0.000 C 
BRANCH  15  16
ATOM     16  C   UNL     1       0.541   6.990  42.560  1.00  0.00    -0.000 C 
BRANCH  16  17
ATOM     17  C   UNL     1       0.470   5.687  41.749  1.00  0.00    -0.003 C 
ATOM     18  C   UNL     1       1.138   5.808  40.379  1.00  0.00     0.004 C 
ENDBRANCH  16  17
ENDBRANCH  15  16
ENDBRANCH  14  15
ENDBRANCH  13  14
ENDBRANCH  12  13
ENDBRANCH  11  12
ENDBRANCH   1  11
TORSDOF 14
ENDMDL
MODEL 8
REMARK VINA RESULT:    -3.357      3.090      5.762
REMARK INTER + INTRA:          -8.336
REMARK INTER:                  -5.656
REMARK INTRA:                  -2.680
REMARK UNBOUND:                -2.231
REMARK SMILES CCCCCCCCCCCCCCCC(=O)[O-]
REMARK SMILES IDX 9 1 10 2 11 3 12 4 13 5 14 6 15 7 16 8 17 9 18 10 8 11 7 12
REMARK SMILES IDX 6 13 5 14 4 15 3 16 2 17 1 18
REMARK H PARENT
REMARK Flexibility Score: inf
ROOT
ATOM      1  C   UNL     1      -2.712   6.395  39.680  1.00  0.00     0.000 C 
ENDROOT
BRANCH   1   2
ATOM      2  C   UNL     1      -2.035   5.458  40.696  1.00  0.00     0.000 C 
BRANCH   2   3
ATOM      3  C   UNL     1      -1.164   4.382  40.013  1.00  0.00     0.000 C 
BRANCH   3   4
ATOM      4  C   UNL     1      -1.222   4.423  38.473  1.00  0.00     0.000 C 
BRANCH   4   5
ATOM      5  C   UNL     1       0.124   4.187  37.764  1.00  0.00     0.000 C 
BRANCH   5   6
ATOM      6  C   UNL     1       0.085   4.356  36.233  1.00  0.00     0.006 C 
BRANCH   6   7
ATOM      7  C   UNL     1       0.910   5.554  35.744  1.00  0.00     0.053 C 
BRANCH   7   8
ATOM      8  C   UNL     1       2.369   5.310  35.970  1.00  0.00     0.041 C 
ATOM      9  O   UNL     1       2.950   4.359  35.385  1.00  0.00    -0.550 OA
ATOM     10  O   UNL     1       3.076   6.104  36.865  1.00  0.00    -0.550 OA
ENDBRANCH   7   8
ENDBRANCH   6   7
ENDBRANCH   5   6
ENDBRANCH   4   5
ENDBRANCH   3   4
ENDBRANCH   2   3
ENDBRANCH   1   2
BRANCH   1  11
ATOM     11  C   UNL     1      -2.590   7.877  40.069  1.00  0.00     0.000 C 
BRANCH  11  12
ATOM     12  C   UNL     1      -1.924   8.720  38.968  1.00  0.00    -0.000 C 
BRANCH  12  13
ATOM     13  C   UNL     1      -1.005   7.887  38.061  1.00  0.00    -0.000 C 
BRANCH  13  14
ATOM     14  C   UNL     1       0.487   8.193  38.286  1.00  0.00    -0.000 C 
BRANCH  14  15
ATOM     15  C   UNL     1       1.081   7.395  39.458  1.00  0.00    -0.000 C 
BRANCH  15  16
ATOM     16  C   UNL     1       1.200   8.233  40.742  1.00  0.00    -0.000 C 
BRANCH  16  17
ATOM     17  C   UNL     1       0.729   7.469  41.990  1.00  0.00    -0.003 C 
ATOM     18  C   UNL     1      -0.178   8.311  42.888  1.00  0.00     0.004 C 
ENDBRANCH  16  17
ENDBRANCH  15  16
ENDBRANCH  14  15
ENDBRANCH  13  14
ENDBRANCH  12  13
ENDBRANCH  11  12
ENDBRANCH   1  11
TORSDOF 14
ENDMDL
MODEL 9
REMARK VINA RESULT:    -3.341      2.669      5.176
REMARK INTER + INTRA:          -8.307
REMARK INTER:                  -6.226
REMARK INTRA:                  -2.082
REMARK UNBOUND:                -2.231
REMARK SMILES CCCCCCCCCCCCCCCC(=O)[O-]
REMARK SMILES IDX 9 1 10 2 11 3 12 4 13 5 14 6 15 7 16 8 17 9 18 10 8 11 7 12
REMARK SMILES IDX 6 13 5 14 4 15 3 16 2 17 1 18
REMARK H PARENT
REMARK Flexibility Score: inf
ROOT
ATOM      1  C   UNL     1      -2.213   8.085  39.582  1.00  0.00     0.000 C 
ENDROOT
BRANCH   1   2
ATOM      2  C   UNL     1      -1.872   9.226  38.607  1.00  0.00     0.000 C 
BRANCH   2   3
ATOM      3  C   UNL     1      -0.357   9.512  38.544  1.00  0.00     0.000 C 
BRANCH   3   4
ATOM      4  C   UNL     1       0.360   9.356  39.899  1.00  0.00     0.000 C 
BRANCH   4   5
ATOM      5  C   UNL     1       1.456   8.274  39.937  1.00  0.00     0.000 C 
BRANCH   5   6
ATOM      6  C   UNL     1       2.280   8.144  38.641  1.00  0.00     0.006 C 
BRANCH   6   7
ATOM      7  C   UNL     1       2.541   6.685  38.246  1.00  0.00     0.053 C 
BRANCH   7   8
ATOM      8  C   UNL     1       1.342   6.106  37.562  1.00  0.00     0.041 C 
ATOM      9  O   UNL     1       0.911   4.971  37.894  1.00  0.00    -0.550 OA
ATOM     10  O   UNL     1       0.731   6.799  36.525  1.00  0.00    -0.550 OA
ENDBRANCH   7   8
ENDBRANCH   6   7
ENDBRANCH   5   6
ENDBRANCH   4   5
ENDBRANCH   3   4
ENDBRANCH   2   3
ENDBRANCH   1   2
BRANCH   1  11
ATOM     11  C   UNL     1      -1.907   6.696  38.998  1.00  0.00     0.000 C 
BRANCH  11  12
ATOM     12  C   UNL     1      -2.985   5.659  39.357  1.00  0.00    -0.000 C 
BRANCH  12  13
ATOM     13  C   UNL     1      -2.627   4.846  40.612  1.00  0.00    -0.000 C 
BRANCH  13  14
ATOM     14  C   UNL     1      -1.127   4.906  40.950  1.00  0.00    -0.000 C 
BRANCH  14  15
ATOM     15  C   UNL     1      -0.857   5.578  42.306  1.00  0.00    -0.000 C 
BRANCH  15  16
ATOM     16  C   UNL     1      -2.143   6.085  42.980  1.00  0.00    -0.000 C 
BRANCH  16  17
ATOM     17  C   UNL     1      -2.181   7.617  43.098  1.00  0.00    -0.003 C 
ATOM     18  C   UNL     1      -0.785   8.240  43.124  1.00  0.00     0.004 C 
ENDBRANCH  16  17
ENDBRANCH  15  16
ENDBRANCH  14  15
ENDBRANCH  13  14
ENDBRANCH  12  13
ENDBRANCH  11  12
ENDBRANCH   1  11
TORSDOF 14
ENDMDL
