MODEL 1
REMARK VINA RESULT:    -5.025      0.000      0.000
REMARK INTER + INTRA:          -6.198
REMARK INTER:                  -6.053
REMARK INTRA:                  -0.145
REMARK UNBOUND:                -0.145
REMARK SMILES [NH3+][C@H](Cc1cnc[nH]1)C(=O)[O-]
REMARK SMILES IDX 3 1 2 2 1 3 9 7 10 8 11 9 4 10 5 11 8 12 6 13 7 14
REMARK H PARENT 1 4 1 5 1 6 8 15
REMARK Flexibility Score: inf
ROOT
ATOM      1  C   UNL     1     -13.495 -33.054 -13.995  1.00  0.00     0.127 C 
ENDROOT
BRANCH   1   2
ATOM      2  C   UNL     1     -14.703 -33.825 -14.564  1.00  0.00     0.233 C 
BRANCH   2   3
ATOM      3  N   UNL     1     -15.372 -33.034 -15.605  1.00  0.00    -0.350 N 
ATOM      4  H   UNL     1     -16.382 -33.299 -15.679  1.00  0.00     0.345 HD
ATOM      5  H   UNL     1     -14.908 -33.198 -16.528  1.00  0.00     0.345 HD
ATOM      6  H   UNL     1     -15.300 -32.015 -15.378  1.00  0.00     0.345 HD
ENDBRANCH   2   3
BRANCH   2   7
ATOM      7  C   UNL     1     -14.282 -35.163 -15.117  1.00  0.00     0.099 C 
ATOM      8  O   UNL     1     -13.289 -35.253 -15.887  1.00  0.00    -0.544 OA
ATOM      9  O   UNL     1     -14.978 -36.311 -14.757  1.00  0.00    -0.544 OA
ENDBRANCH   2   7
ENDBRANCH   1   2
BRANCH   1  10
ATOM     10  C   UNL     1     -13.694 -32.711 -12.547  1.00  0.00     0.041 A 
ATOM     11  C   UNL     1     -14.776 -33.049 -11.766  1.00  0.00     0.134 A 
ATOM     12  N   UNL     1     -12.789 -32.086 -11.779  1.00  0.00    -0.348 N 
ATOM     13  N   UNL     1     -14.559 -32.626 -10.506  1.00  0.00    -0.245 NA
ATOM     14  C   UNL     1     -13.340 -32.044 -10.552  1.00  0.00     0.196 A 
ATOM     15  H   UNL     1     -11.852 -31.722 -12.065  1.00  0.00     0.167 HD
ENDBRANCH   1  10
TORSDOF 4
ENDMDL
MODEL 2
REMARK VINA RESULT:    -4.992      1.749      2.451
REMARK INTER + INTRA:          -6.158
REMARK INTER:                  -6.061
REMARK INTRA:                  -0.096
REMARK UNBOUND:                -0.145
REMARK SMILES [NH3+][C@H](Cc1cnc[nH]1)C(=O)[O-]
REMARK SMILES IDX 3 1 2 2 1 3 9 7 10 8 11 9 4 10 5 11 8 12 6 13 7 14
REMARK H PARENT 1 4 1 5 1 6 8 15
REMARK Flexibility Score: inf
ROOT
ATOM      1  C   UNL     1     -14.532 -33.075 -11.772  1.00  0.00     0.127 C 
ENDROOT
BRANCH   1   2
ATOM      2  C   UNL     1     -14.111 -32.667 -13.199  1.00  0.00     0.233 C 
BRANCH   2   3
ATOM      3  N   UNL     1     -12.648 -32.606 -13.305  1.00  0.00    -0.350 N 
ATOM      4  H   UNL     1     -12.344 -32.703 -14.302  1.00  0.00     0.345 HD
ATOM      5  H   UNL     1     -12.219 -33.377 -12.743  1.00  0.00     0.345 HD
ATOM      6  H   UNL     1     -12.301 -31.694 -12.927  1.00  0.00     0.345 HD
ENDBRANCH   2   3
BRANCH   2   7
ATOM      7  C   UNL     1     -14.669 -33.622 -14.223  1.00  0.00     0.099 C 
ATOM      8  O   UNL     1     -14.687 -34.862 -13.998  1.00  0.00    -0.544 OA
ATOM      9  O   UNL     1     -15.189 -33.134 -15.415  1.00  0.00    -0.544 OA
ENDBRANCH   2   7
ENDBRANCH   1   2
BRANCH   1  10
ATOM     10  C   UNL     1     -14.351 -31.945 -10.801  1.00  0.00     0.041 A 
ATOM     11  C   UNL     1     -15.290 -30.996 -10.465  1.00  0.00     0.134 A 
ATOM     12  N   UNL     1     -13.257 -31.751 -10.049  1.00  0.00    -0.348 N 
ATOM     13  N   UNL     1     -14.782 -30.193  -9.509  1.00  0.00    -0.245 NA
ATOM     14  C   UNL     1     -13.543 -30.682  -9.283  1.00  0.00     0.196 A 
ATOM     15  H   UNL     1     -12.376 -32.313 -10.048  1.00  0.00     0.167 HD
ENDBRANCH   1  10
TORSDOF 4
ENDMDL
MODEL 3
REMARK VINA RESULT:    -4.871      4.926      5.760
REMARK INTER + INTRA:          -6.013
REMARK INTER:                  -5.871
REMARK INTRA:                  -0.141
REMARK UNBOUND:                -0.145
REMARK SMILES [NH3+][C@H](Cc1cnc[nH]1)C(=O)[O-]
REMARK SMILES IDX 3 1 2 2 1 3 9 7 10 8 11 9 4 10 5 11 8 12 6 13 7 14
REMARK H PARENT 1 4 1 5 1 6 8 15
REMARK Flexibility Score: inf
ROOT
ATOM      1  C   UNL     1     -17.379 -37.125 -15.128  1.00  0.00     0.127 C 
ENDROOT
BRANCH   1   2
ATOM      2  C   UNL     1     -17.974 -35.982 -14.281  1.00  0.00     0.233 C 
BRANCH   2   3
ATOM      3  N   UNL     1     -18.300 -34.830 -15.130  1.00  0.00    -0.350 N 
ATOM      4  H   UNL     1     -18.526 -35.139 -16.104  1.00  0.00     0.345 HD
ATOM      5  H   UNL     1     -17.488 -34.171 -15.161  1.00  0.00     0.345 HD
ATOM      6  H   UNL     1     -19.122 -34.317 -14.733  1.00  0.00     0.345 HD
ENDBRANCH   2   3
BRANCH   2   7
ATOM      7  C   UNL     1     -19.199 -36.443 -13.533  1.00  0.00     0.099 C 
ATOM      8  O   UNL     1     -19.087 -37.125 -12.480  1.00  0.00    -0.544 OA
ATOM      9  O   UNL     1     -20.463 -36.095 -13.994  1.00  0.00    -0.544 OA
ENDBRANCH   2   7
ENDBRANCH   1   2
BRANCH   1  10
ATOM     10  C   UNL     1     -15.942 -36.864 -15.474  1.00  0.00     0.041 A 
ATOM     11  C   UNL     1     -15.446 -36.538 -16.717  1.00  0.00     0.134 A 
ATOM     12  N   UNL     1     -14.936 -36.830 -14.588  1.00  0.00    -0.348 N 
ATOM     13  N   UNL     1     -14.121 -36.310 -16.615  1.00  0.00    -0.245 NA
ATOM     14  C   UNL     1     -13.847 -36.498 -15.306  1.00  0.00     0.196 A 
ATOM     15  H   UNL     1     -14.986 -37.008 -13.560  1.00  0.00     0.167 HD
ENDBRANCH   1  10
TORSDOF 4
ENDMDL
MODEL 4
REMARK VINA RESULT:    -4.645      3.689      5.065
REMARK INTER + INTRA:          -5.740
REMARK INTER:                  -5.622
REMARK INTRA:                  -0.118
REMARK UNBOUND:                -0.145
REMARK SMILES [NH3+][C@H](Cc1cnc[nH]1)C(=O)[O-]
REMARK SMILES IDX 3 1 2 2 1 3 9 7 10 8 11 9 4 10 5 11 8 12 6 13 7 14
REMARK H PARENT 1 4 1 5 1 6 8 15
REMARK Flexibility Score: inf
ROOT
ATOM      1  C   UNL     1     -16.564 -36.809 -15.188  1.00  0.00     0.127 C 
ENDROOT
BRANCH   1   2
ATOM      2  C   UNL     1     -15.622 -35.594 -15.313  1.00  0.00     0.233 C 
BRANCH   2   3
ATOM      3  N   UNL     1     -15.261 -35.086 -13.984  1.00  0.00    -0.350 N 
ATOM      4  H   UNL     1     -15.188 -35.870 -13.295  1.00  0.00     0.345 HD
ATOM      5  H   UNL     1     -15.987 -34.409 -13.655  1.00  0.00     0.345 HD
ATOM      6  H   UNL     1     -14.344 -34.584 -14.033  1.00  0.00     0.345 HD
ENDBRANCH   2   3
BRANCH   2   7
ATOM      7  C   UNL     1     -14.381 -35.949 -16.091  1.00  0.00     0.099 C 
ATOM      8  O   UNL     1     -14.415 -36.844 -16.977  1.00  0.00    -0.544 OA
ATOM      9  O   UNL     1     -13.193 -35.270 -15.847  1.00  0.00    -0.544 OA
ENDBRANCH   2   7
ENDBRANCH   1   2
BRANCH   1  10
ATOM     10  C   UNL     1     -17.886 -36.422 -14.591  1.00  0.00     0.041 A 
ATOM     11  C   UNL     1     -18.593 -37.125 -13.641  1.00  0.00     0.134 A 
ATOM     12  N   UNL     1     -18.533 -35.274 -14.845  1.00  0.00    -0.348 N 
ATOM     13  N   UNL     1     -19.694 -36.425 -13.305  1.00  0.00    -0.245 NA
ATOM     14  C   UNL     1     -19.624 -35.306 -14.059  1.00  0.00     0.196 A 
ATOM     15  H   UNL     1     -18.247 -34.513 -15.501  1.00  0.00     0.167 HD
ENDBRANCH   1  10
TORSDOF 4
ENDMDL
MODEL 5
REMARK VINA RESULT:    -4.641      3.945      5.349
REMARK INTER + INTRA:          -5.736
REMARK INTER:                  -5.653
REMARK INTRA:                  -0.082
REMARK UNBOUND:                -0.145
REMARK SMILES [NH3+][C@H](Cc1cnc[nH]1)C(=O)[O-]
REMARK SMILES IDX 3 1 2 2 1 3 9 7 10 8 11 9 4 10 5 11 8 12 6 13 7 14
REMARK H PARENT 1 4 1 5 1 6 8 15
REMARK Flexibility Score: inf
ROOT
ATOM      1  C   UNL     1     -13.740 -32.291 -11.075  1.00  0.00     0.127 C 
ENDROOT
BRANCH   1   2
ATOM      2  C   UNL     1     -14.836 -31.268 -10.716  1.00  0.00     0.233 C 
BRANCH   2   3
ATOM      3  N   UNL     1     -15.974 -31.938 -10.074  1.00  0.00    -0.350 N 
ATOM      4  H   UNL     1     -15.647 -32.562  -9.300  1.00  0.00     0.345 HD
ATOM      5  H   UNL     1     -16.491 -32.512 -10.779  1.00  0.00     0.345 HD
ATOM      6  H   UNL     1     -16.633 -31.225  -9.685  1.00  0.00     0.345 HD
ENDBRANCH   2   3
BRANCH   2   7
ATOM      7  C   UNL     1     -14.295 -30.185  -9.818  1.00  0.00     0.099 C 
ATOM      8  O   UNL     1     -13.292 -30.402  -9.086  1.00  0.00    -0.544 OA
ATOM      9  O   UNL     1     -14.889 -28.929  -9.812  1.00  0.00    -0.544 OA
ENDBRANCH   2   7
ENDBRANCH   1   2
BRANCH   1  10
ATOM     10  C   UNL     1     -13.959 -32.879 -12.438  1.00  0.00     0.041 A 
ATOM     11  C   UNL     1     -13.170 -32.686 -13.550  1.00  0.00     0.134 A 
ATOM     12  N   UNL     1     -14.926 -33.757 -12.745  1.00  0.00    -0.348 N 
ATOM     13  N   UNL     1     -13.648 -33.433 -14.564  1.00  0.00    -0.245 NA
ATOM     14  C   UNL     1     -14.717 -34.070 -14.037  1.00  0.00     0.196 A 
ATOM     15  H   UNL     1     -15.673 -34.129 -12.116  1.00  0.00     0.167 HD
ENDBRANCH   1  10
TORSDOF 4
ENDMDL
MODEL 6
REMARK VINA RESULT:    -4.616      2.850      4.831
REMARK INTER + INTRA:          -5.705
REMARK INTER:                  -5.547
REMARK INTRA:                  -0.159
REMARK UNBOUND:                -0.145
REMARK SMILES [NH3+][C@H](Cc1cnc[nH]1)C(=O)[O-]
REMARK SMILES IDX 3 1 2 2 1 3 9 7 10 8 11 9 4 10 5 11 8 12 6 13 7 14
REMARK H PARENT 1 4 1 5 1 6 8 15
REMARK Flexibility Score: inf
ROOT
ATOM      1  C   UNL     1     -15.134 -33.599 -14.926  1.00  0.00     0.127 C 
ENDROOT
BRANCH   1   2
ATOM      2  C   UNL     1     -13.867 -33.710 -14.054  1.00  0.00     0.233 C 
BRANCH   2   3
ATOM      3  N   UNL     1     -12.701 -33.181 -14.773  1.00  0.00    -0.350 N 
ATOM      4  H   UNL     1     -12.608 -32.150 -14.620  1.00  0.00     0.345 HD
ATOM      5  H   UNL     1     -12.803 -33.366 -15.797  1.00  0.00     0.345 HD
ATOM      6  H   UNL     1     -11.832 -33.658 -14.439  1.00  0.00     0.345 HD
ENDBRANCH   2   3
BRANCH   2   7
ATOM      7  C   UNL     1     -14.045 -32.984 -12.744  1.00  0.00     0.099 C 
ATOM      8  O   UNL     1     -14.957 -33.324 -11.944  1.00  0.00    -0.544 OA
ATOM      9  O   UNL     1     -13.185 -31.947 -12.404  1.00  0.00    -0.544 OA
ENDBRANCH   2   7
ENDBRANCH   1   2
BRANCH   1  10
ATOM     10  C   UNL     1     -15.743 -34.946 -15.187  1.00  0.00     0.041 A 
ATOM     11  C   UNL     1     -15.064 -36.114 -15.450  1.00  0.00     0.134 A 
ATOM     12  N   UNL     1     -17.055 -35.219 -15.115  1.00  0.00    -0.348 N 
ATOM     13  N   UNL     1     -15.950 -37.124 -15.558  1.00  0.00    -0.245 NA
ATOM     14  C   UNL     1     -17.151 -36.541 -15.349  1.00  0.00     0.196 A 
ATOM     15  H   UNL     1     -17.834 -34.554 -14.909  1.00  0.00     0.167 HD
ENDBRANCH   1  10
TORSDOF 4
ENDMDL
MODEL 7
REMARK VINA RESULT:    -4.543      1.630      2.193
REMARK INTER + INTRA:          -5.617
REMARK INTER:                  -5.474
REMARK INTRA:                  -0.143
REMARK UNBOUND:                -0.145
REMARK SMILES [NH3+][C@H](Cc1cnc[nH]1)C(=O)[O-]
REMARK SMILES IDX 3 1 2 2 1 3 9 7 10 8 11 9 4 10 5 11 8 12 6 13 7 14
REMARK H PARENT 1 4 1 5 1 6 8 15
REMARK Flexibility Score: inf
ROOT
ATOM      1  C   UNL     1     -14.685 -34.123 -15.144  1.00  0.00     0.127 C 
ENDROOT
BRANCH   1   2
ATOM      2  C   UNL     1     -15.199 -35.574 -15.050  1.00  0.00     0.233 C 
BRANCH   2   3
ATOM      3  N   UNL     1     -16.575 -35.665 -15.553  1.00  0.00    -0.350 N 
ATOM      4  H   UNL     1     -16.691 -35.091 -16.421  1.00  0.00     0.345 HD
ATOM      5  H   UNL     1     -17.242 -35.320 -14.825  1.00  0.00     0.345 HD
ATOM      6  H   UNL     1     -16.811 -36.662 -15.766  1.00  0.00     0.345 HD
ENDBRANCH   2   3
BRANCH   2   7
ATOM      7  C   UNL     1     -14.303 -36.518 -15.810  1.00  0.00     0.099 C 
ATOM      8  O   UNL     1     -13.367 -37.124 -15.223  1.00  0.00    -0.544 OA
ATOM      9  O   UNL     1     -14.521 -36.741 -17.164  1.00  0.00    -0.544 OA
ENDBRANCH   2   7
ENDBRANCH   1   2
BRANCH   1  10
ATOM     10  C   UNL     1     -14.354 -33.567 -13.790  1.00  0.00     0.041 A 
ATOM     11  C   UNL     1     -13.349 -32.673 -13.495  1.00  0.00     0.134 A 
ATOM     12  N   UNL     1     -15.058 -33.805 -12.673  1.00  0.00    -0.348 N 
ATOM     13  N   UNL     1     -13.411 -32.356 -12.187  1.00  0.00    -0.245 NA
ATOM     14  C   UNL     1     -14.463 -33.065 -11.720  1.00  0.00     0.196 A 
ATOM     15  H   UNL     1     -15.896 -34.420 -12.567  1.00  0.00     0.167 HD
ENDBRANCH   1  10
TORSDOF 4
ENDMDL
MODEL 8
REMARK VINA RESULT:    -4.405      2.118      2.861
REMARK INTER + INTRA:          -5.451
REMARK INTER:                  -5.612
REMARK INTRA:                   0.161
REMARK UNBOUND:                -0.145
REMARK SMILES [NH3+][C@H](Cc1cnc[nH]1)C(=O)[O-]
REMARK SMILES IDX 3 1 2 2 1 3 9 7 10 8 11 9 4 10 5 11 8 12 6 13 7 14
REMARK H PARENT 1 4 1 5 1 6 8 15
REMARK Flexibility Score: inf
ROOT
ATOM      1  C   UNL     1     -13.895 -35.273 -15.879  1.00  0.00     0.127 C 
ENDROOT
BRANCH   1   2
ATOM      2  C   UNL     1     -15.349 -35.389 -16.381  1.00  0.00     0.233 C 
BRANCH   2   3
ATOM      3  N   UNL     1     -15.385 -35.998 -17.716  1.00  0.00    -0.350 N 
ATOM      4  H   UNL     1     -14.933 -36.943 -17.704  1.00  0.00     0.345 HD
ATOM      5  H   UNL     1     -14.879 -35.387 -18.398  1.00  0.00     0.345 HD
ATOM      6  H   UNL     1     -16.376 -36.095 -18.036  1.00  0.00     0.345 HD
ENDBRANCH   2   3
BRANCH   2   7
ATOM      7  C   UNL     1     -16.192 -36.188 -15.420  1.00  0.00     0.099 C 
ATOM      8  O   UNL     1     -15.683 -37.125 -14.749  1.00  0.00    -0.544 OA
ATOM      9  O   UNL     1     -17.536 -35.876 -15.253  1.00  0.00    -0.544 OA
ENDBRANCH   2   7
ENDBRANCH   1   2
BRANCH   1  10
ATOM     10  C   UNL     1     -13.753 -34.197 -14.843  1.00  0.00     0.041 A 
ATOM     11  C   UNL     1     -14.623 -33.937 -13.808  1.00  0.00     0.134 A 
ATOM     12  N   UNL     1     -12.697 -33.377 -14.732  1.00  0.00    -0.348 N 
ATOM     13  N   UNL     1     -14.121 -32.943 -13.050  1.00  0.00    -0.245 NA
ATOM     14  C   UNL     1     -12.949 -32.627 -13.644  1.00  0.00     0.196 A 
ATOM     15  H   UNL     1     -11.854 -33.337 -15.348  1.00  0.00     0.167 HD
ENDBRANCH   1  10
TORSDOF 4
ENDMDL
