MODEL 1
REMARK VINA RESULT:    -3.845      0.000      0.000
REMARK INTER + INTRA:         -10.268
REMARK INTER:                  -7.441
REMARK INTRA:                  -2.827
REMARK UNBOUND:                -2.827
REMARK SMILES CCCCCCCCCCCCCCCCCC(=O)[O-]
REMARK SMILES IDX 10 1 11 2 12 3 13 4 14 5 15 6 16 7 17 8 18 9 19 10 20 11
REMARK SMILES IDX 9 12 8 13 7 14 6 15 5 16 4 17 3 18 2 19 1 20
REMARK H PARENT
REMARK Flexibility Score: inf
ROOT
ATOM      1  C   UNL     1       3.273  14.621  12.087  1.00  0.00     0.000 C 
ENDROOT
BRANCH   1   2
ATOM      2  C   UNL     1       4.720  14.164  12.344  1.00  0.00     0.000 C 
BRANCH   2   3
ATOM      3  C   UNL     1       5.570  14.055  11.061  1.00  0.00     0.000 C 
BRANCH   3   4
ATOM      4  C   UNL     1       6.739  13.067  11.221  1.00  0.00     0.000 C 
BRANCH   4   5
ATOM      5  C   UNL     1       6.601  12.186  12.474  1.00  0.00     0.000 C 
BRANCH   5   6
ATOM      6  C   UNL     1       7.933  12.019  13.226  1.00  0.00     0.000 C 
BRANCH   6   7
ATOM      7  C   UNL     1       9.151  12.036  12.283  1.00  0.00     0.006 C 
BRANCH   7   8
ATOM      8  C   UNL     1       9.613  10.643  11.826  1.00  0.00     0.053 C 
BRANCH   8   9
ATOM      9  C   UNL     1       9.021  10.263  10.504  1.00  0.00     0.041 C 
ATOM     10  O   UNL     1       9.418  10.821   9.448  1.00  0.00    -0.550 OA
ATOM     11  O   UNL     1       8.007   9.315  10.442  1.00  0.00    -0.550 OA
ENDBRANCH   8   9
ENDBRANCH   7   8
ENDBRANCH   6   7
ENDBRANCH   5   6
ENDBRANCH   4   5
ENDBRANCH   3   4
ENDBRANCH   2   3
ENDBRANCH   1   2
BRANCH   1  12
ATOM     12  C   UNL     1       2.250  13.485  12.252  1.00  0.00     0.000 C 
BRANCH  12  13
ATOM     13  C   UNL     1       2.905  12.152  12.643  1.00  0.00    -0.000 C 
BRANCH  13  14
ATOM     14  C   UNL     1       2.143  10.936  12.094  1.00  0.00    -0.000 C 
BRANCH  14  15
ATOM     15  C   UNL     1       2.331  10.812  10.577  1.00  0.00    -0.000 C 
BRANCH  15  16
ATOM     16  C   UNL     1       3.809  10.963  10.189  1.00  0.00    -0.000 C 
BRANCH  16  17
ATOM     17  C   UNL     1       3.986  11.450   8.736  1.00  0.00    -0.000 C 
BRANCH  17  18
ATOM     18  C   UNL     1       2.800  12.276   8.202  1.00  0.00    -0.000 C 
BRANCH  18  19
ATOM     19  C   UNL     1       2.947  13.798   8.407  1.00  0.00    -0.003 C 
ATOM     20  C   UNL     1       1.609  14.489   8.670  1.00  0.00     0.004 C 
ENDBRANCH  18  19
ENDBRANCH  17  18
ENDBRANCH  16  17
ENDBRANCH  15  16
ENDBRANCH  14  15
ENDBRANCH  13  14
ENDBRANCH  12  13
ENDBRANCH   1  12
TORSDOF 16
ENDMDL
MODEL 2
REMARK VINA RESULT:    -3.838      2.551      5.961
REMARK INTER + INTRA:         -10.255
REMARK INTER:                  -7.917
REMARK INTRA:                  -2.338
REMARK UNBOUND:                -2.827
REMARK SMILES CCCCCCCCCCCCCCCCCC(=O)[O-]
REMARK SMILES IDX 10 1 11 2 12 3 13 4 14 5 15 6 16 7 17 8 18 9 19 10 20 11
REMARK SMILES IDX 9 12 8 13 7 14 6 15 5 16 4 17 3 18 2 19 1 20
REMARK H PARENT
REMARK Flexibility Score: inf
ROOT
ATOM      1  C   UNL     1       4.127  14.954  12.694  1.00  0.00     0.000 C 
ENDROOT
BRANCH   1   2
ATOM      2  C   UNL     1       2.938  15.015  11.719  1.00  0.00     0.000 C 
BRANCH   2   3
ATOM      3  C   UNL     1       2.012  13.784  11.798  1.00  0.00     0.000 C 
BRANCH   3   4
ATOM      4  C   UNL     1       1.810  13.120  10.424  1.00  0.00     0.000 C 
BRANCH   4   5
ATOM      5  C   UNL     1       2.634  13.795   9.315  1.00  0.00     0.000 C 
BRANCH   5   6
ATOM      6  C   UNL     1       3.730  12.873   8.752  1.00  0.00     0.000 C 
BRANCH   6   7
ATOM      7  C   UNL     1       3.816  11.529   9.500  1.00  0.00     0.006 C 
BRANCH   7   8
ATOM      8  C   UNL     1       3.515  10.302   8.624  1.00  0.00     0.053 C 
BRANCH   8   9
ATOM      9  C   UNL     1       2.491   9.406   9.250  1.00  0.00     0.041 C 
ATOM     10  O   UNL     1       1.993   8.456   8.591  1.00  0.00    -0.550 OA
ATOM     11  O   UNL     1       2.063   9.640  10.551  1.00  0.00    -0.550 OA
ENDBRANCH   8   9
ENDBRANCH   7   8
ENDBRANCH   6   7
ENDBRANCH   5   6
ENDBRANCH   4   5
ENDBRANCH   3   4
ENDBRANCH   2   3
ENDBRANCH   1   2
BRANCH   1  12
ATOM     12  C   UNL     1       5.016  13.718  12.476  1.00  0.00     0.000 C 
BRANCH  12  13
ATOM     13  C   UNL     1       6.028  13.913  11.336  1.00  0.00    -0.000 C 
BRANCH  13  14
ATOM     14  C   UNL     1       6.967  12.708  11.169  1.00  0.00    -0.000 C 
BRANCH  14  15
ATOM     15  C   UNL     1       6.936  11.812  12.413  1.00  0.00    -0.000 C 
BRANCH  15  16
ATOM     16  C   UNL     1       8.333  11.687  13.038  1.00  0.00    -0.000 C 
BRANCH  16  17
ATOM     17  C   UNL     1       8.352  12.117  14.519  1.00  0.00    -0.000 C 
BRANCH  17  18
ATOM     18  C   UNL     1       7.165  11.580  15.343  1.00  0.00    -0.000 C 
BRANCH  18  19
ATOM     19  C   UNL     1       6.578  12.599  16.341  1.00  0.00    -0.003 C 
ATOM     20  C   UNL     1       5.121  12.948  16.039  1.00  0.00     0.004 C 
ENDBRANCH  18  19
ENDBRANCH  17  18
ENDBRANCH  16  17
ENDBRANCH  15  16
ENDBRANCH  14  15
ENDBRANCH  13  14
ENDBRANCH  12  13
ENDBRANCH   1  12
TORSDOF 16
ENDMDL
MODEL 3
REMARK VINA RESULT:    -3.823      3.172      5.420
REMARK INTER + INTRA:         -10.226
REMARK INTER:                  -7.699
REMARK INTRA:                  -2.528
REMARK UNBOUND:                -2.827
REMARK SMILES CCCCCCCCCCCCCCCCCC(=O)[O-]
REMARK SMILES IDX 10 1 11 2 12 3 13 4 14 5 15 6 16 7 17 8 18 9 19 10 20 11
REMARK SMILES IDX 9 12 8 13 7 14 6 15 5 16 4 17 3 18 2 19 1 20
REMARK H PARENT
REMARK Flexibility Score: inf
ROOT
ATOM      1  C   UNL     1       6.835  12.672  11.787  1.00  0.00     0.000 C 
ENDROOT
BRANCH   1   2
ATOM      2  C   UNL     1       6.394  11.253  11.389  1.00  0.00     0.000 C 
BRANCH   2   3
ATOM      3  C   UNL     1       6.597  10.941   9.892  1.00  0.00     0.000 C 
BRANCH   3   4
ATOM      4  C   UNL     1       5.280  10.550   9.197  1.00  0.00     0.000 C 
BRANCH   4   5
ATOM      5  C   UNL     1       4.057  10.713  10.114  1.00  0.00     0.000 C 
BRANCH   5   6
ATOM      6  C   UNL     1       2.739  10.351   9.407  1.00  0.00     0.000 C 
BRANCH   6   7
ATOM      7  C   UNL     1       1.589  10.087  10.397  1.00  0.00     0.006 C 
BRANCH   7   8
ATOM      8  C   UNL     1       1.926  10.429  11.858  1.00  0.00     0.053 C 
BRANCH   8   9
ATOM      9  C   UNL     1       0.767  11.058  12.567  1.00  0.00     0.041 C 
ATOM     10  O   UNL     1      -0.382  10.553  12.476  1.00  0.00    -0.550 OA
ATOM     11  O   UNL     1       0.951  12.222  13.304  1.00  0.00    -0.550 OA
ENDBRANCH   8   9
ENDBRANCH   7   8
ENDBRANCH   6   7
ENDBRANCH   5   6
ENDBRANCH   4   5
ENDBRANCH   3   4
ENDBRANCH   2   3
ENDBRANCH   1   2
BRANCH   1  12
ATOM     12  C   UNL     1       6.048  13.771  11.052  1.00  0.00     0.000 C 
BRANCH  12  13
ATOM     13  C   UNL     1       4.846  14.278  11.863  1.00  0.00    -0.000 C 
BRANCH  13  14
ATOM     14  C   UNL     1       3.502  13.818  11.279  1.00  0.00    -0.000 C 
BRANCH  14  15
ATOM     15  C   UNL     1       2.426  14.894  11.468  1.00  0.00    -0.000 C 
BRANCH  15  16
ATOM     16  C   UNL     1       1.798  15.289  10.123  1.00  0.00    -0.000 C 
BRANCH  16  17
ATOM     17  C   UNL     1       0.741  14.272   9.649  1.00  0.00    -0.000 C 
BRANCH  17  18
ATOM     18  C   UNL     1       1.155  13.473   8.397  1.00  0.00    -0.000 C 
BRANCH  18  19
ATOM     19  C   UNL     1       2.264  14.143   7.560  1.00  0.00    -0.003 C 
ATOM     20  C   UNL     1       3.552  13.319   7.522  1.00  0.00     0.004 C 
ENDBRANCH  18  19
ENDBRANCH  17  18
ENDBRANCH  16  17
ENDBRANCH  15  16
ENDBRANCH  14  15
ENDBRANCH  13  14
ENDBRANCH  12  13
ENDBRANCH   1  12
TORSDOF 16
ENDMDL
MODEL 4
REMARK VINA RESULT:    -3.806      1.899      6.193
REMARK INTER + INTRA:         -10.193
REMARK INTER:                  -7.961
REMARK INTRA:                  -2.232
REMARK UNBOUND:                -2.827
REMARK SMILES CCCCCCCCCCCCCCCCCC(=O)[O-]
REMARK SMILES IDX 10 1 11 2 12 3 13 4 14 5 15 6 16 7 17 8 18 9 19 10 20 11
REMARK SMILES IDX 9 12 8 13 7 14 6 15 5 16 4 17 3 18 2 19 1 20
REMARK H PARENT
REMARK Flexibility Score: inf
ROOT
ATOM      1  C   UNL     1       5.755  13.881  10.944  1.00  0.00     0.000 C 
ENDROOT
BRANCH   1   2
ATOM      2  C   UNL     1       4.508  13.651  11.815  1.00  0.00     0.000 C 
BRANCH   2   3
ATOM      3  C   UNL     1       3.760  14.951  12.176  1.00  0.00     0.000 C 
BRANCH   3   4
ATOM      4  C   UNL     1       2.410  15.067  11.445  1.00  0.00     0.000 C 
BRANCH   4   5
ATOM      5  C   UNL     1       2.160  13.898  10.478  1.00  0.00     0.000 C 
BRANCH   5   6
ATOM      6  C   UNL     1       2.184  14.338   9.003  1.00  0.00     0.000 C 
BRANCH   6   7
ATOM      7  C   UNL     1       3.217  13.557   8.169  1.00  0.00     0.006 C 
BRANCH   7   8
ATOM      8  C   UNL     1       2.898  12.061   8.015  1.00  0.00     0.053 C 
BRANCH   8   9
ATOM      9  C   UNL     1       3.883  11.201   8.746  1.00  0.00     0.041 C 
ATOM     10  O   UNL     1       3.550  10.626   9.816  1.00  0.00    -0.550 OA
ATOM     11  O   UNL     1       5.178  11.059   8.263  1.00  0.00    -0.550 OA
ENDBRANCH   8   9
ENDBRANCH   7   8
ENDBRANCH   6   7
ENDBRANCH   5   6
ENDBRANCH   4   5
ENDBRANCH   3   4
ENDBRANCH   2   3
ENDBRANCH   1   2
BRANCH   1  12
ATOM     12  C   UNL     1       6.910  12.926  11.289  1.00  0.00     0.000 C 
BRANCH  12  13
ATOM     13  C   UNL     1       6.429  11.493  11.566  1.00  0.00    -0.000 C 
BRANCH  13  14
ATOM     14  C   UNL     1       7.461  10.433  11.151  1.00  0.00    -0.000 C 
BRANCH  14  15
ATOM     15  C   UNL     1       8.634  11.076  10.402  1.00  0.00    -0.000 C 
BRANCH  15  16
ATOM     16  C   UNL     1       9.962  10.395  10.768  1.00  0.00    -0.000 C 
BRANCH  16  17
ATOM     17  C   UNL     1      10.386  10.686  12.222  1.00  0.00    -0.000 C 
BRANCH  17  18
ATOM     18  C   UNL     1      10.529  12.185  12.547  1.00  0.00    -0.000 C 
BRANCH  18  19
ATOM     19  C   UNL     1      10.125  12.561  13.987  1.00  0.00    -0.003 C 
ATOM     20  C   UNL     1       8.744  12.025  14.370  1.00  0.00     0.004 C 
ENDBRANCH  18  19
ENDBRANCH  17  18
ENDBRANCH  16  17
ENDBRANCH  15  16
ENDBRANCH  14  15
ENDBRANCH  13  14
ENDBRANCH  12  13
ENDBRANCH   1  12
TORSDOF 16
ENDMDL
MODEL 5
REMARK VINA RESULT:    -3.772      3.582      6.444
REMARK INTER + INTRA:         -10.128
REMARK INTER:                  -6.908
REMARK INTRA:                  -3.220
REMARK UNBOUND:                -2.827
REMARK SMILES CCCCCCCCCCCCCCCCCC(=O)[O-]
REMARK SMILES IDX 10 1 11 2 12 3 13 4 14 5 15 6 16 7 17 8 18 9 19 10 20 11
REMARK SMILES IDX 9 12 8 13 7 14 6 15 5 16 4 17 3 18 2 19 1 20
REMARK H PARENT
REMARK Flexibility Score: inf
ROOT
ATOM      1  C   UNL     1       3.231  12.413   7.813  1.00  0.00     0.000 C 
ENDROOT
BRANCH   1   2
ATOM      2  C   UNL     1       4.465  12.017   8.641  1.00  0.00     0.000 C 
BRANCH   2   3
ATOM      3  C   UNL     1       4.173  10.939   9.706  1.00  0.00     0.000 C 
BRANCH   3   4
ATOM      4  C   UNL     1       2.875  10.168   9.411  1.00  0.00     0.000 C 
BRANCH   4   5
ATOM      5  C   UNL     1       1.850  10.277  10.552  1.00  0.00     0.000 C 
BRANCH   5   6
ATOM      6  C   UNL     1       2.488  10.742  11.873  1.00  0.00     0.000 C 
BRANCH   6   7
ATOM      7  C   UNL     1       1.450  10.943  12.994  1.00  0.00     0.006 C 
BRANCH   7   8
ATOM      8  C   UNL     1      -0.010  10.872  12.518  1.00  0.00     0.053 C 
BRANCH   8   9
ATOM      9  C   UNL     1      -0.783  12.097  12.900  1.00  0.00     0.041 C 
ATOM     10  O   UNL     1      -1.803  12.434  12.244  1.00  0.00    -0.550 OA
ATOM     11  O   UNL     1      -0.359  12.884  13.964  1.00  0.00    -0.550 OA
ENDBRANCH   8   9
ENDBRANCH   7   8
ENDBRANCH   6   7
ENDBRANCH   5   6
ENDBRANCH   4   5
ENDBRANCH   3   4
ENDBRANCH   2   3
ENDBRANCH   1   2
BRANCH   1  12
ATOM     12  C   UNL     1       2.707  13.818   8.154  1.00  0.00     0.000 C 
BRANCH  12  13
ATOM     13  C   UNL     1       1.273  13.795   8.707  1.00  0.00    -0.000 C 
BRANCH  13  14
ATOM     14  C   UNL     1       1.229  13.902  10.238  1.00  0.00    -0.000 C 
BRANCH  14  15
ATOM     15  C   UNL     1       2.490  14.592  10.775  1.00  0.00    -0.000 C 
BRANCH  15  16
ATOM     16  C   UNL     1       2.573  14.476  12.305  1.00  0.00    -0.000 C 
BRANCH  16  17
ATOM     17  C   UNL     1       4.029  14.462  12.811  1.00  0.00    -0.000 C 
BRANCH  17  18
ATOM     18  C   UNL     1       5.064  14.075  11.737  1.00  0.00    -0.000 C 
BRANCH  18  19
ATOM     19  C   UNL     1       6.023  12.944  12.164  1.00  0.00    -0.003 C 
ATOM     20  C   UNL     1       7.188  12.761  11.190  1.00  0.00     0.004 C 
ENDBRANCH  18  19
ENDBRANCH  17  18
ENDBRANCH  16  17
ENDBRANCH  15  16
ENDBRANCH  14  15
ENDBRANCH  13  14
ENDBRANCH  12  13
ENDBRANCH   1  12
TORSDOF 16
ENDMDL
MODEL 6
REMARK VINA RESULT:    -3.730      1.677      3.454
REMARK INTER + INTRA:         -10.045
REMARK INTER:                  -7.890
REMARK INTRA:                  -2.155
REMARK UNBOUND:                -2.827
REMARK SMILES CCCCCCCCCCCCCCCCCC(=O)[O-]
REMARK SMILES IDX 10 1 11 2 12 3 13 4 14 5 15 6 16 7 17 8 18 9 19 10 20 11
REMARK SMILES IDX 9 12 8 13 7 14 6 15 5 16 4 17 3 18 2 19 1 20
REMARK H PARENT
REMARK Flexibility Score: inf
ROOT
ATOM      1  C   UNL     1       6.688  13.177  11.334  1.00  0.00     0.000 C 
ENDROOT
BRANCH   1   2
ATOM      2  C   UNL     1       6.581  12.426  12.672  1.00  0.00     0.000 C 
BRANCH   2   3
ATOM      3  C   UNL     1       7.886  11.715  13.086  1.00  0.00     0.000 C 
BRANCH   3   4
ATOM      4  C   UNL     1       8.948  11.755  11.972  1.00  0.00     0.000 C 
BRANCH   4   5
ATOM      5  C   UNL     1       9.229  10.366  11.375  1.00  0.00     0.000 C 
BRANCH   5   6
ATOM      6  C   UNL     1       8.156   9.933  10.360  1.00  0.00     0.000 C 
BRANCH   6   7
ATOM      7  C   UNL     1       8.235  10.723   9.040  1.00  0.00     0.006 C 
BRANCH   7   8
ATOM      8  C   UNL     1       7.012  10.544   8.126  1.00  0.00     0.053 C 
BRANCH   8   9
ATOM      9  C   UNL     1       6.689   9.099   7.901  1.00  0.00     0.041 C 
ATOM     10  O   UNL     1       7.454   8.379   7.208  1.00  0.00    -0.550 OA
ATOM     11  O   UNL     1       5.526   8.554   8.432  1.00  0.00    -0.550 OA
ENDBRANCH   8   9
ENDBRANCH   7   8
ENDBRANCH   6   7
ENDBRANCH   5   6
ENDBRANCH   4   5
ENDBRANCH   3   4
ENDBRANCH   2   3
ENDBRANCH   1   2
BRANCH   1  12
ATOM     12  C   UNL     1       5.389  13.907  10.952  1.00  0.00     0.000 C 
BRANCH  12  13
ATOM     13  C   UNL     1       4.563  14.323  12.179  1.00  0.00    -0.000 C 
BRANCH  13  14
ATOM     14  C   UNL     1       3.271  15.061  11.799  1.00  0.00    -0.000 C 
BRANCH  14  15
ATOM     15  C   UNL     1       2.304  14.128  11.061  1.00  0.00    -0.000 C 
BRANCH  15  16
ATOM     16  C   UNL     1       1.731  14.805   9.807  1.00  0.00    -0.000 C 
BRANCH  16  17
ATOM     17  C   UNL     1       1.893  13.933   8.546  1.00  0.00    -0.000 C 
BRANCH  17  18
ATOM     18  C   UNL     1       3.338  13.466   8.286  1.00  0.00    -0.000 C 
BRANCH  18  19
ATOM     19  C   UNL     1       3.485  11.942   8.102  1.00  0.00    -0.003 C 
ATOM     20  C   UNL     1       3.322  11.171   9.412  1.00  0.00     0.004 C 
ENDBRANCH  18  19
ENDBRANCH  17  18
ENDBRANCH  16  17
ENDBRANCH  15  16
ENDBRANCH  14  15
ENDBRANCH  13  14
ENDBRANCH  12  13
ENDBRANCH   1  12
TORSDOF 16
ENDMDL
MODEL 7
REMARK VINA RESULT:    -3.708      1.224      2.690
REMARK INTER + INTRA:         -10.003
REMARK INTER:                  -7.287
REMARK INTRA:                  -2.716
REMARK UNBOUND:                -2.827
REMARK SMILES CCCCCCCCCCCCCCCCCC(=O)[O-]
REMARK SMILES IDX 10 1 11 2 12 3 13 4 14 5 15 6 16 7 17 8 18 9 19 10 20 11
REMARK SMILES IDX 9 12 8 13 7 14 6 15 5 16 4 17 3 18 2 19 1 20
REMARK H PARENT
REMARK Flexibility Score: inf
ROOT
ATOM      1  C   UNL     1       2.295  10.846  12.019  1.00  0.00     0.000 C 
ENDROOT
BRANCH   1   2
ATOM      2  C   UNL     1       2.437  12.089  12.915  1.00  0.00     0.000 C 
BRANCH   2   3
ATOM      3  C   UNL     1       2.265  13.420  12.154  1.00  0.00     0.000 C 
BRANCH   3   4
ATOM      4  C   UNL     1       3.508  14.320  12.269  1.00  0.00     0.000 C 
BRANCH   4   5
ATOM      5  C   UNL     1       4.670  13.838  11.385  1.00  0.00     0.000 C 
BRANCH   5   6
ATOM      6  C   UNL     1       5.787  13.159  12.199  1.00  0.00     0.000 C 
BRANCH   6   7
ATOM      7  C   UNL     1       5.963  11.672  11.839  1.00  0.00     0.006 C 
BRANCH   7   8
ATOM      8  C   UNL     1       7.422  11.250  11.606  1.00  0.00     0.053 C 
BRANCH   8   9
ATOM      9  C   UNL     1       7.633  10.704  10.228  1.00  0.00     0.041 C 
ATOM     10  O   UNL     1       6.944   9.734   9.818  1.00  0.00    -0.550 OA
ATOM     11  O   UNL     1       8.615  11.246   9.406  1.00  0.00    -0.550 OA
ENDBRANCH   8   9
ENDBRANCH   7   8
ENDBRANCH   6   7
ENDBRANCH   5   6
ENDBRANCH   4   5
ENDBRANCH   3   4
ENDBRANCH   2   3
ENDBRANCH   1   2
BRANCH   1  12
ATOM     12  C   UNL     1       0.975  10.824  11.231  1.00  0.00     0.000 C 
BRANCH  12  13
ATOM     13  C   UNL     1       1.127  10.187   9.841  1.00  0.00    -0.000 C 
BRANCH  13  14
ATOM     14  C   UNL     1       2.561   9.709   9.565  1.00  0.00    -0.000 C 
BRANCH  14  15
ATOM     15  C   UNL     1       3.121  10.364   8.296  1.00  0.00    -0.000 C 
BRANCH  15  16
ATOM     16  C   UNL     1       4.098  11.497   8.645  1.00  0.00    -0.000 C 
BRANCH  16  17
ATOM     17  C   UNL     1       3.649  12.855   8.070  1.00  0.00    -0.000 C 
BRANCH  17  18
ATOM     18  C   UNL     1       2.194  13.232   8.413  1.00  0.00    -0.000 C 
BRANCH  18  19
ATOM     19  C   UNL     1       1.931  14.751   8.461  1.00  0.00    -0.003 C 
ATOM     20  C   UNL     1       0.677  15.107   9.260  1.00  0.00     0.004 C 
ENDBRANCH  18  19
ENDBRANCH  17  18
ENDBRANCH  16  17
ENDBRANCH  15  16
ENDBRANCH  14  15
ENDBRANCH  13  14
ENDBRANCH  12  13
ENDBRANCH   1  12
TORSDOF 16
ENDMDL
MODEL 8
REMARK VINA RESULT:    -3.704      1.735      2.306
REMARK INTER + INTRA:          -9.996
REMARK INTER:                  -7.570
REMARK INTRA:                  -2.426
REMARK UNBOUND:                -2.827
REMARK SMILES CCCCCCCCCCCCCCCCCC(=O)[O-]
REMARK SMILES IDX 10 1 11 2 12 3 13 4 14 5 15 6 16 7 17 8 18 9 19 10 20 11
REMARK SMILES IDX 9 12 8 13 7 14 6 15 5 16 4 17 3 18 2 19 1 20
REMARK H PARENT
REMARK Flexibility Score: inf
ROOT
ATOM      1  C   UNL     1       3.955  15.004  12.410  1.00  0.00     0.000 C 
ENDROOT
BRANCH   1   2
ATOM      2  C   UNL     1       4.889  13.782  12.441  1.00  0.00     0.000 C 
BRANCH   2   3
ATOM      3  C   UNL     1       5.793  13.665  11.196  1.00  0.00     0.000 C 
BRANCH   3   4
ATOM      4  C   UNL     1       7.002  12.745  11.440  1.00  0.00     0.000 C 
BRANCH   4   5
ATOM      5  C   UNL     1       6.925  11.441  10.629  1.00  0.00     0.000 C 
BRANCH   5   6
ATOM      6  C   UNL     1       8.031  10.442  11.014  1.00  0.00     0.000 C 
BRANCH   6   7
ATOM      7  C   UNL     1       8.218   9.332   9.962  1.00  0.00     0.006 C 
BRANCH   7   8
ATOM      8  C   UNL     1       6.954   9.020   9.145  1.00  0.00     0.053 C 
BRANCH   8   9
ATOM      9  C   UNL     1       7.153   9.283   7.684  1.00  0.00     0.041 C 
ATOM     10  O   UNL     1       7.103   8.336   6.857  1.00  0.00    -0.550 OA
ATOM     11  O   UNL     1       7.425  10.572   7.240  1.00  0.00    -0.550 OA
ENDBRANCH   8   9
ENDBRANCH   7   8
ENDBRANCH   6   7
ENDBRANCH   5   6
ENDBRANCH   4   5
ENDBRANCH   3   4
ENDBRANCH   2   3
ENDBRANCH   1   2
BRANCH   1  12
ATOM     12  C   UNL     1       2.671  14.755  11.603  1.00  0.00     0.000 C 
BRANCH  12  13
ATOM     13  C   UNL     1       2.003  13.417  11.953  1.00  0.00    -0.000 C 
BRANCH  13  14
ATOM     14  C   UNL     1       0.943  12.998  10.923  1.00  0.00    -0.000 C 
BRANCH  14  15
ATOM     15  C   UNL     1       1.271  11.622  10.330  1.00  0.00    -0.000 C 
BRANCH  15  16
ATOM     16  C   UNL     1       2.657  11.140  10.784  1.00  0.00    -0.000 C 
BRANCH  16  17
ATOM     17  C   UNL     1       3.641  10.998   9.606  1.00  0.00    -0.000 C 
BRANCH  17  18
ATOM     18  C   UNL     1       3.174  11.689   8.310  1.00  0.00    -0.000 C 
BRANCH  18  19
ATOM     19  C   UNL     1       3.655  13.147   8.163  1.00  0.00    -0.003 C 
ATOM     20  C   UNL     1       2.544  14.091   7.703  1.00  0.00     0.004 C 
ENDBRANCH  18  19
ENDBRANCH  17  18
ENDBRANCH  16  17
ENDBRANCH  15  16
ENDBRANCH  14  15
ENDBRANCH  13  14
ENDBRANCH  12  13
ENDBRANCH   1  12
TORSDOF 16
ENDMDL
MODEL 9
REMARK VINA RESULT:    -3.702      2.535      5.293
REMARK INTER + INTRA:          -9.992
REMARK INTER:                  -7.809
REMARK INTRA:                  -2.182
REMARK UNBOUND:                -2.827
REMARK SMILES CCCCCCCCCCCCCCCCCC(=O)[O-]
REMARK SMILES IDX 10 1 11 2 12 3 13 4 14 5 15 6 16 7 17 8 18 9 19 10 20 11
REMARK SMILES IDX 9 12 8 13 7 14 6 15 5 16 4 17 3 18 2 19 1 20
REMARK H PARENT
REMARK Flexibility Score: inf
ROOT
ATOM      1  C   UNL     1       8.601  11.833  11.628  1.00  0.00     0.000 C 
ENDROOT
BRANCH   1   2
ATOM      2  C   UNL     1       9.379  10.547  11.300  1.00  0.00     0.000 C 
BRANCH   2   3
ATOM      3  C   UNL     1       8.594   9.562  10.409  1.00  0.00     0.000 C 
BRANCH   3   4
ATOM      4  C   UNL     1       7.969  10.256   9.185  1.00  0.00     0.000 C 
BRANCH   4   5
ATOM      5  C   UNL     1       6.584   9.692   8.830  1.00  0.00     0.000 C 
BRANCH   5   6
ATOM      6  C   UNL     1       5.548  10.799   8.563  1.00  0.00     0.000 C 
BRANCH   6   7
ATOM      7  C   UNL     1       4.274  10.637   9.413  1.00  0.00     0.006 C 
BRANCH   7   8
ATOM      8  C   UNL     1       2.970  10.930   8.654  1.00  0.00     0.053 C 
BRANCH   8   9
ATOM      9  C   UNL     1       1.942   9.863   8.874  1.00  0.00     0.041 C 
ATOM     10  O   UNL     1       2.268   8.769   9.406  1.00  0.00    -0.550 OA
ATOM     11  O   UNL     1       0.630  10.065   8.464  1.00  0.00    -0.550 OA
ENDBRANCH   8   9
ENDBRANCH   7   8
ENDBRANCH   6   7
ENDBRANCH   5   6
ENDBRANCH   4   5
ENDBRANCH   3   4
ENDBRANCH   2   3
ENDBRANCH   1   2
BRANCH   1  12
ATOM     12  C   UNL     1       7.546  11.629  12.728  1.00  0.00     0.000 C 
BRANCH  12  13
ATOM     13  C   UNL     1       6.215  12.325  12.406  1.00  0.00    -0.000 C 
BRANCH  13  14
ATOM     14  C   UNL     1       6.347  13.358  11.277  1.00  0.00    -0.000 C 
BRANCH  14  15
ATOM     15  C   UNL     1       4.971  13.888  10.856  1.00  0.00    -0.000 C 
BRANCH  15  16
ATOM     16  C   UNL     1       4.304  14.664  12.001  1.00  0.00    -0.000 C 
BRANCH  16  17
ATOM     17  C   UNL     1       2.783  14.818  11.796  1.00  0.00    -0.000 C 
BRANCH  17  18
ATOM     18  C   UNL     1       2.219  13.978  10.633  1.00  0.00    -0.000 C 
BRANCH  18  19
ATOM     19  C   UNL     1       1.534  14.810   9.530  1.00  0.00    -0.003 C 
ATOM     20  C   UNL     1       1.534  16.308   9.834  1.00  0.00     0.004 C 
ENDBRANCH  18  19
ENDBRANCH  17  18
ENDBRANCH  16  17
ENDBRANCH  15  16
ENDBRANCH  14  15
ENDBRANCH  13  14
ENDBRANCH  12  13
ENDBRANCH   1  12
TORSDOF 16
ENDMDL
