MODEL 1
REMARK VINA RESULT:    -5.081      0.000      0.000
REMARK INTER + INTRA:          -8.747
REMARK INTER:                  -8.200
REMARK INTRA:                  -0.547
REMARK UNBOUND:                -0.547
REMARK SMILES CCCCCCCCCCCCO
REMARK SMILES IDX 7 1 6 2 5 3 4 4 3 5 2 6 1 7 8 8 9 9 10 10 11 11 12 12 13 13
REMARK H PARENT 13 14
REMARK Flexibility Score: inf
ROOT
ATOM      1  C   UNL     1       7.879   6.716  -4.446  1.00  0.00     0.000 C 
ENDROOT
BRANCH   1   2
ATOM      2  C   UNL     1       9.384   7.020  -4.412  1.00  0.00    -0.000 C 
BRANCH   2   3
ATOM      3  C   UNL     1      10.040   6.691  -5.762  1.00  0.00    -0.000 C 
BRANCH   3   4
ATOM      4  C   UNL     1       9.040   6.701  -6.932  1.00  0.00    -0.000 C 
BRANCH   4   5
ATOM      5  C   UNL     1       9.215   5.556  -7.946  1.00  0.00    -0.000 C 
BRANCH   5   6
ATOM      6  C   UNL     1       8.814   4.187  -7.377  1.00  0.00    -0.003 C 
ATOM      7  C   UNL     1       8.662   3.152  -8.489  1.00  0.00     0.004 C 
ENDBRANCH   5   6
ENDBRANCH   4   5
ENDBRANCH   3   4
ENDBRANCH   2   3
ENDBRANCH   1   2
BRANCH   1   8
ATOM      8  C   UNL     1       7.377   6.035  -3.160  1.00  0.00     0.000 C 
BRANCH   8   9
ATOM      9  C   UNL     1       6.753   4.640  -3.364  1.00  0.00     0.000 C 
BRANCH   9  10
ATOM     10  C   UNL     1       6.563   3.812  -2.078  1.00  0.00     0.002 C 
BRANCH  10  11
ATOM     11  C   UNL     1       6.263   4.637  -0.814  1.00  0.00     0.028 C 
BRANCH  11  12
ATOM     12  C   UNL     1       6.417   3.829   0.476  1.00  0.00     0.156 C 
BRANCH  12  13
ATOM     13  O   UNL     1       7.040   4.621   1.449  1.00  0.00    -0.396 OA
ATOM     14  H   UNL     1       8.001   4.376   1.430  1.00  0.00     0.210 HD
ENDBRANCH  12  13
ENDBRANCH  11  12
ENDBRANCH  10  11
ENDBRANCH   9  10
ENDBRANCH   8   9
ENDBRANCH   1   8
TORSDOF 11
ENDMDL
MODEL 2
REMARK VINA RESULT:    -5.075      2.797      6.545
REMARK INTER + INTRA:          -8.737
REMARK INTER:                  -8.119
REMARK INTRA:                  -0.617
REMARK UNBOUND:                -0.547
REMARK SMILES CCCCCCCCCCCCO
REMARK SMILES IDX 7 1 6 2 5 3 4 4 3 5 2 6 1 7 8 8 9 9 10 10 11 11 12 12 13 13
REMARK H PARENT 13 14
REMARK Flexibility Score: inf
ROOT
ATOM      1  C   UNL     1       8.037   7.255  -4.432  1.00  0.00     0.000 C 
ENDROOT
BRANCH   1   2
ATOM      2  C   UNL     1       7.334   6.683  -3.193  1.00  0.00    -0.000 C 
BRANCH   2   3
ATOM      3  C   UNL     1       7.060   5.181  -3.363  1.00  0.00    -0.000 C 
BRANCH   3   4
ATOM      4  C   UNL     1       6.741   4.475  -2.033  1.00  0.00    -0.000 C 
BRANCH   4   5
ATOM      5  C   UNL     1       6.494   5.416  -0.840  1.00  0.00    -0.000 C 
BRANCH   5   6
ATOM      6  C   UNL     1       6.941   4.814   0.499  1.00  0.00    -0.003 C 
ATOM      7  C   UNL     1       6.378   3.407   0.685  1.00  0.00     0.004 C 
ENDBRANCH   5   6
ENDBRANCH   4   5
ENDBRANCH   3   4
ENDBRANCH   2   3
ENDBRANCH   1   2
BRANCH   1   8
ATOM      8  C   UNL     1       9.510   6.820  -4.538  1.00  0.00     0.000 C 
BRANCH   8   9
ATOM      9  C   UNL     1      10.053   6.708  -5.977  1.00  0.00     0.000 C 
BRANCH   9  10
ATOM     10  C   UNL     1       9.049   6.174  -7.017  1.00  0.00     0.002 C 
BRANCH  10  11
ATOM     11  C   UNL     1       8.727   4.674  -6.897  1.00  0.00     0.028 C 
BRANCH  11  12
ATOM     12  C   UNL     1       8.798   3.940  -8.238  1.00  0.00     0.156 C 
BRANCH  12  13
ATOM     13  O   UNL     1       8.362   2.620  -8.068  1.00  0.00    -0.396 OA
ATOM     14  H   UNL     1       7.414   2.677  -7.780  1.00  0.00     0.210 HD
ENDBRANCH  12  13
ENDBRANCH  11  12
ENDBRANCH  10  11
ENDBRANCH   9  10
ENDBRANCH   8   9
ENDBRANCH   1   8
TORSDOF 11
ENDMDL
MODEL 3
REMARK VINA RESULT:    -4.478      1.135      2.110
REMARK INTER + INTRA:          -7.774
REMARK INTER:                  -7.256
REMARK INTRA:                  -0.518
REMARK UNBOUND:                -0.547
REMARK SMILES CCCCCCCCCCCCO
REMARK SMILES IDX 7 1 6 2 5 3 4 4 3 5 2 6 1 7 8 8 9 9 10 10 11 11 12 12 13 13
REMARK H PARENT 13 14
REMARK Flexibility Score: inf
ROOT
ATOM      1  C   UNL     1       8.791   6.367  -5.393  1.00  0.00     0.000 C 
ENDROOT
BRANCH   1   2
ATOM      2  C   UNL     1       9.218   7.003  -6.724  1.00  0.00    -0.000 C 
BRANCH   2   3
ATOM      3  C   UNL     1       9.246   5.956  -7.847  1.00  0.00    -0.000 C 
BRANCH   3   4
ATOM      4  C   UNL     1       8.767   4.568  -7.386  1.00  0.00    -0.000 C 
BRANCH   4   5
ATOM      5  C   UNL     1       9.085   3.415  -8.355  1.00  0.00    -0.000 C 
BRANCH   5   6
ATOM      6  C   UNL     1       8.399   3.576  -9.720  1.00  0.00    -0.003 C 
ATOM      7  C   UNL     1       9.364   3.261 -10.861  1.00  0.00     0.004 C 
ENDBRANCH   5   6
ENDBRANCH   4   5
ENDBRANCH   3   4
ENDBRANCH   2   3
ENDBRANCH   1   2
BRANCH   1   8
ATOM      8  C   UNL     1       8.390   7.410  -4.334  1.00  0.00     0.000 C 
BRANCH   8   9
ATOM      9  C   UNL     1       7.368   6.917  -3.290  1.00  0.00     0.000 C 
BRANCH   9  10
ATOM     10  C   UNL     1       7.060   5.407  -3.337  1.00  0.00     0.002 C 
BRANCH  10  11
ATOM     11  C   UNL     1       6.831   4.749  -1.965  1.00  0.00     0.028 C 
BRANCH  11  12
ATOM     12  C   UNL     1       6.568   5.765  -0.852  1.00  0.00     0.156 C 
BRANCH  12  13
ATOM     13  O   UNL     1       7.275   5.389   0.297  1.00  0.00    -0.396 OA
ATOM     14  H   UNL     1       7.193   6.147   0.932  1.00  0.00     0.210 HD
ENDBRANCH  12  13
ENDBRANCH  11  12
ENDBRANCH  10  11
ENDBRANCH   9  10
ENDBRANCH   8   9
ENDBRANCH   1   8
TORSDOF 11
ENDMDL
MODEL 4
REMARK VINA RESULT:    -4.455      3.197      6.828
REMARK INTER + INTRA:          -7.736
REMARK INTER:                  -7.346
REMARK INTRA:                  -0.390
REMARK UNBOUND:                -0.547
REMARK SMILES CCCCCCCCCCCCO
REMARK SMILES IDX 7 1 6 2 5 3 4 4 3 5 2 6 1 7 8 8 9 9 10 10 11 11 12 12 13 13
REMARK H PARENT 13 14
REMARK Flexibility Score: inf
ROOT
ATOM      1  C   UNL     1       8.386   6.145  -5.387  1.00  0.00     0.000 C 
ENDROOT
BRANCH   1   2
ATOM      2  C   UNL     1       8.513   6.851  -4.029  1.00  0.00    -0.000 C 
BRANCH   2   3
ATOM      3  C   UNL     1       7.282   6.576  -3.152  1.00  0.00    -0.000 C 
BRANCH   3   4
ATOM      4  C   UNL     1       6.861   5.096  -3.156  1.00  0.00    -0.000 C 
BRANCH   4   5
ATOM      5  C   UNL     1       7.105   4.347  -1.833  1.00  0.00    -0.000 C 
BRANCH   5   6
ATOM      6  C   UNL     1       6.506   5.069  -0.618  1.00  0.00    -0.003 C 
ATOM      7  C   UNL     1       6.663   4.234   0.651  1.00  0.00     0.004 C 
ENDBRANCH   5   6
ENDBRANCH   4   5
ENDBRANCH   3   4
ENDBRANCH   2   3
ENDBRANCH   1   2
BRANCH   1   8
ATOM      8  C   UNL     1       9.211   6.826  -6.494  1.00  0.00     0.000 C 
BRANCH   8   9
ATOM      9  C   UNL     1       9.182   6.112  -7.860  1.00  0.00     0.000 C 
BRANCH   9  10
ATOM     10  C   UNL     1       8.961   4.588  -7.797  1.00  0.00     0.002 C 
BRANCH  10  11
ATOM     11  C   UNL     1       8.990   3.871  -9.159  1.00  0.00     0.028 C 
BRANCH  11  12
ATOM     12  C   UNL     1       8.457   2.438  -9.090  1.00  0.00     0.156 C 
BRANCH  12  13
ATOM     13  O   UNL     1       7.139   2.411  -9.563  1.00  0.00    -0.396 OA
ATOM     14  H   UNL     1       7.178   2.001 -10.466  1.00  0.00     0.210 HD
ENDBRANCH  12  13
ENDBRANCH  11  12
ENDBRANCH  10  11
ENDBRANCH   9  10
ENDBRANCH   8   9
ENDBRANCH   1   8
TORSDOF 11
ENDMDL
MODEL 5
REMARK VINA RESULT:    -4.407      3.637      7.142
REMARK INTER + INTRA:          -7.660
REMARK INTER:                  -7.033
REMARK INTRA:                  -0.627
REMARK UNBOUND:                -0.547
REMARK SMILES CCCCCCCCCCCCO
REMARK SMILES IDX 7 1 6 2 5 3 4 4 3 5 2 6 1 7 8 8 9 9 10 10 11 11 12 12 13 13
REMARK H PARENT 13 14
REMARK Flexibility Score: inf
ROOT
ATOM      1  C   UNL     1       8.861   4.131  -7.403  1.00  0.00     0.000 C 
ENDROOT
BRANCH   1   2
ATOM      2  C   UNL     1       9.217   5.538  -7.906  1.00  0.00    -0.000 C 
BRANCH   2   3
ATOM      3  C   UNL     1       8.895   6.598  -6.842  1.00  0.00    -0.000 C 
BRANCH   3   4
ATOM      4  C   UNL     1       9.959   6.679  -5.734  1.00  0.00    -0.000 C 
BRANCH   4   5
ATOM      5  C   UNL     1       9.411   6.979  -4.327  1.00  0.00    -0.000 C 
BRANCH   5   6
ATOM      6  C   UNL     1       7.877   6.976  -4.270  1.00  0.00    -0.003 C 
ATOM      7  C   UNL     1       7.359   5.788  -3.461  1.00  0.00     0.004 C 
ENDBRANCH   5   6
ENDBRANCH   4   5
ENDBRANCH   3   4
ENDBRANCH   2   3
ENDBRANCH   1   2
BRANCH   1   8
ATOM      8  C   UNL     1       8.502   3.161  -8.543  1.00  0.00     0.000 C 
BRANCH   8   9
ATOM      9  C   UNL     1       9.172   3.472  -9.896  1.00  0.00     0.000 C 
BRANCH   9  10
ATOM     10  C   UNL     1       9.543   2.239 -10.743  1.00  0.00     0.002 C 
BRANCH  10  11
ATOM     11  C   UNL     1      10.458   1.220 -10.039  1.00  0.00     0.028 C 
BRANCH  11  12
ATOM     12  C   UNL     1       9.851  -0.184  -9.979  1.00  0.00     0.156 C 
BRANCH  12  13
ATOM     13  O   UNL     1       9.097  -0.313  -8.806  1.00  0.00    -0.396 OA
ATOM     14  H   UNL     1       8.451  -1.048  -8.973  1.00  0.00     0.210 HD
ENDBRANCH  12  13
ENDBRANCH  11  12
ENDBRANCH  10  11
ENDBRANCH   9  10
ENDBRANCH   8   9
ENDBRANCH   1   8
TORSDOF 11
ENDMDL
MODEL 6
REMARK VINA RESULT:    -4.143      5.309      6.965
REMARK INTER + INTRA:          -7.234
REMARK INTER:                  -6.753
REMARK INTRA:                  -0.481
REMARK UNBOUND:                -0.547
REMARK SMILES CCCCCCCCCCCCO
REMARK SMILES IDX 7 1 6 2 5 3 4 4 3 5 2 6 1 7 8 8 9 9 10 10 11 11 12 12 13 13
REMARK H PARENT 13 14
REMARK Flexibility Score: inf
ROOT
ATOM      1  C   UNL     1       4.588   8.973  -1.044  1.00  0.00     0.000 C 
ENDROOT
BRANCH   1   2
ATOM      2  C   UNL     1       6.025   9.319  -0.625  1.00  0.00    -0.000 C 
BRANCH   2   3
ATOM      3  C   UNL     1       6.990   8.180  -0.984  1.00  0.00    -0.000 C 
BRANCH   3   4
ATOM      4  C   UNL     1       6.277   6.830  -1.186  1.00  0.00    -0.000 C 
BRANCH   4   5
ATOM      5  C   UNL     1       6.671   5.731  -0.184  1.00  0.00    -0.000 C 
BRANCH   5   6
ATOM      6  C   UNL     1       6.718   4.333  -0.817  1.00  0.00    -0.003 C 
ATOM      7  C   UNL     1       6.533   4.409  -2.331  1.00  0.00     0.004 C 
ENDBRANCH   5   6
ENDBRANCH   4   5
ENDBRANCH   3   4
ENDBRANCH   2   3
ENDBRANCH   1   2
BRANCH   1   8
ATOM      8  C   UNL     1       4.027   9.934  -2.107  1.00  0.00     0.000 C 
BRANCH   8   9
ATOM      9  C   UNL     1       2.488   9.988  -2.189  1.00  0.00     0.000 C 
BRANCH   9  10
ATOM     10  C   UNL     1       1.751   8.911  -1.368  1.00  0.00     0.002 C 
BRANCH  10  11
ATOM     11  C   UNL     1       0.334   8.574  -1.864  1.00  0.00     0.028 C 
BRANCH  11  12
ATOM     12  C   UNL     1      -0.723   8.671  -0.761  1.00  0.00     0.156 C 
BRANCH  12  13
ATOM     13  O   UNL     1      -1.489   7.499  -0.748  1.00  0.00    -0.396 OA
ATOM     14  H   UNL     1      -0.895   6.786  -0.396  1.00  0.00     0.210 HD
ENDBRANCH  12  13
ENDBRANCH  11  12
ENDBRANCH  10  11
ENDBRANCH   9  10
ENDBRANCH   8   9
ENDBRANCH   1   8
TORSDOF 11
ENDMDL
MODEL 7
REMARK VINA RESULT:    -4.113      2.546      4.801
REMARK INTER + INTRA:          -7.185
REMARK INTER:                  -6.638
REMARK INTRA:                  -0.547
REMARK UNBOUND:                -0.547
REMARK SMILES CCCCCCCCCCCCO
REMARK SMILES IDX 7 1 6 2 5 3 4 4 3 5 2 6 1 7 8 8 9 9 10 10 11 11 12 12 13 13
REMARK H PARENT 13 14
REMARK Flexibility Score: inf
ROOT
ATOM      1  C   UNL     1       8.881   4.849  -7.105  1.00  0.00     0.000 C 
ENDROOT
BRANCH   1   2
ATOM      2  C   UNL     1       8.913   3.714  -8.141  1.00  0.00    -0.000 C 
BRANCH   2   3
ATOM      3  C   UNL     1       8.949   4.277  -9.569  1.00  0.00    -0.000 C 
BRANCH   3   4
ATOM      4  C   UNL     1       9.336   3.222 -10.620  1.00  0.00    -0.000 C 
BRANCH   4   5
ATOM      5  C   UNL     1       9.509   1.793 -10.074  1.00  0.00    -0.000 C 
BRANCH   5   6
ATOM      6  C   UNL     1      10.856   1.165 -10.456  1.00  0.00    -0.003 C 
ATOM      7  C   UNL     1      10.916  -0.304 -10.043  1.00  0.00     0.004 C 
ENDBRANCH   5   6
ENDBRANCH   4   5
ENDBRANCH   3   4
ENDBRANCH   2   3
ENDBRANCH   1   2
BRANCH   1   8
ATOM      8  C   UNL     1       9.229   6.221  -7.711  1.00  0.00     0.000 C 
BRANCH   8   9
ATOM      9  C   UNL     1       9.716   7.275  -6.696  1.00  0.00     0.000 C 
BRANCH   9  10
ATOM     10  C   UNL     1       9.888   6.764  -5.252  1.00  0.00     0.002 C 
BRANCH  10  11
ATOM     11  C   UNL     1       8.906   7.366  -4.230  1.00  0.00     0.028 C 
BRANCH  11  12
ATOM     12  C   UNL     1       7.683   6.480  -3.986  1.00  0.00     0.156 C 
BRANCH  12  13
ATOM     13  O   UNL     1       7.617   6.143  -2.628  1.00  0.00    -0.396 OA
ATOM     14  H   UNL     1       7.297   5.205  -2.592  1.00  0.00     0.210 HD
ENDBRANCH  12  13
ENDBRANCH  11  12
ENDBRANCH  10  11
ENDBRANCH   9  10
ENDBRANCH   8   9
ENDBRANCH   1   8
TORSDOF 11
ENDMDL
MODEL 8
REMARK VINA RESULT:    -4.101      4.977      8.134
REMARK INTER + INTRA:          -7.166
REMARK INTER:                  -6.685
REMARK INTRA:                  -0.481
REMARK UNBOUND:                -0.547
REMARK SMILES CCCCCCCCCCCCO
REMARK SMILES IDX 7 1 6 2 5 3 4 4 3 5 2 6 1 7 8 8 9 9 10 10 11 11 12 12 13 13
REMARK H PARENT 13 14
REMARK Flexibility Score: inf
ROOT
ATOM      1  C   UNL     1       9.457   1.691 -10.696  1.00  0.00     0.000 C 
ENDROOT
BRANCH   1   2
ATOM      2  C   UNL     1       9.532   3.186 -11.039  1.00  0.00    -0.000 C 
BRANCH   2   3
ATOM      3  C   UNL     1       8.840   4.031  -9.960  1.00  0.00    -0.000 C 
BRANCH   3   4
ATOM      4  C   UNL     1       8.613   3.260  -8.648  1.00  0.00    -0.000 C 
BRANCH   4   5
ATOM      5  C   UNL     1       8.772   4.096  -7.366  1.00  0.00    -0.000 C 
BRANCH   5   6
ATOM      6  C   UNL     1       9.093   5.570  -7.650  1.00  0.00    -0.003 C 
ATOM      7  C   UNL     1       9.414   6.322  -6.360  1.00  0.00     0.004 C 
ENDBRANCH   5   6
ENDBRANCH   4   5
ENDBRANCH   3   4
ENDBRANCH   2   3
ENDBRANCH   1   2
BRANCH   1   8
ATOM      8  C   UNL     1      10.844   1.030 -10.595  1.00  0.00     0.000 C 
BRANCH   8   9
ATOM      9  C   UNL     1      10.853  -0.498 -10.801  1.00  0.00     0.000 C 
BRANCH   9  10
ATOM     10  C   UNL     1      10.800  -1.333  -9.507  1.00  0.00     0.002 C 
BRANCH  10  11
ATOM     11  C   UNL     1       9.422  -1.383  -8.823  1.00  0.00     0.028 C 
BRANCH  11  12
ATOM     12  C   UNL     1       8.863  -2.803  -8.711  1.00  0.00     0.156 C 
BRANCH  12  13
ATOM     13  O   UNL     1       8.237  -2.960  -7.468  1.00  0.00    -0.396 OA
ATOM     14  H   UNL     1       8.194  -2.053  -7.065  1.00  0.00     0.210 HD
ENDBRANCH  12  13
ENDBRANCH  11  12
ENDBRANCH  10  11
ENDBRANCH   9  10
ENDBRANCH   8   9
ENDBRANCH   1   8
TORSDOF 11
ENDMDL
