MODEL 1
REMARK VINA RESULT:    -4.241      0.000      0.000
REMARK INTER + INTRA:          -5.166
REMARK INTER:                  -4.985
REMARK INTRA:                  -0.181
REMARK UNBOUND:                -0.181
REMARK SMILES COc1ccc(C=CC(=O)[O-])cc1
REMARK SMILES IDX 6 1 5 2 12 3 4 4 13 5 3 6 7 7 8 8 9 9 10 10 11 11 2 12 1 13
REMARK H PARENT
REMARK Flexibility Score: inf
ROOT
ATOM      1  C   UNL     1       0.012 -15.492  -6.839  1.00  0.00    -0.025 A 
ATOM      2  C   UNL     1      -0.278 -15.866  -8.166  1.00  0.00     0.012 A 
ATOM      3  C   UNL     1       0.726 -16.386  -6.025  1.00  0.00     0.012 A 
ATOM      4  C   UNL     1       0.116 -17.117  -8.652  1.00  0.00     0.047 A 
ATOM      5  C   UNL     1       1.119 -17.635  -6.512  1.00  0.00     0.047 A 
ATOM      6  C   UNL     1       0.817 -18.013  -7.825  1.00  0.00     0.118 A 
ENDROOT
BRANCH   1   7
ATOM      7  C   UNL     1      -0.375 -14.173  -6.279  1.00  0.00     0.010 C 
ATOM      8  C   UNL     1      -0.255 -13.848  -4.984  1.00  0.00     0.025 C 
BRANCH   8   9
ATOM      9  C   UNL     1      -0.642 -12.522  -4.477  1.00  0.00     0.064 C 
ATOM     10  O   UNL     1       0.250 -11.722  -4.089  1.00  0.00    -0.545 OA
ATOM     11  O   UNL     1      -1.976 -12.137  -4.417  1.00  0.00    -0.545 OA
ENDBRANCH   8   9
ENDBRANCH   1   7
BRANCH   6  12
ATOM     12  O   UNL     1       1.234 -19.278  -8.266  1.00  0.00    -0.497 OA
ATOM     13  C   UNL     1       2.020 -20.180  -7.494  1.00  0.00     0.278 C 
ENDBRANCH   6  12
TORSDOF 3
ENDMDL
MODEL 2
REMARK VINA RESULT:    -4.183      1.845      2.485
REMARK INTER + INTRA:          -5.097
REMARK INTER:                  -4.929
REMARK INTRA:                  -0.169
REMARK UNBOUND:                -0.181
REMARK SMILES COc1ccc(C=CC(=O)[O-])cc1
REMARK SMILES IDX 6 1 5 2 12 3 4 4 13 5 3 6 7 7 8 8 9 9 10 10 11 11 2 12 1 13
REMARK H PARENT
REMARK Flexibility Score: inf
ROOT
ATOM      1  C   UNL     1      -0.949 -15.164  -7.324  1.00  0.00    -0.025 A 
ATOM      2  C   UNL     1       0.085 -16.014  -7.764  1.00  0.00     0.012 A 
ATOM      3  C   UNL     1      -2.278 -15.501  -7.630  1.00  0.00     0.012 A 
ATOM      4  C   UNL     1      -0.208 -17.158  -8.513  1.00  0.00     0.047 A 
ATOM      5  C   UNL     1      -2.568 -16.644  -8.379  1.00  0.00     0.047 A 
ATOM      6  C   UNL     1      -1.540 -17.480  -8.828  1.00  0.00     0.118 A 
ENDROOT
BRANCH   1   7
ATOM      7  C   UNL     1      -0.692 -13.945  -6.519  1.00  0.00     0.010 C 
ATOM      8  C   UNL     1      -1.303 -13.675  -5.357  1.00  0.00     0.025 C 
BRANCH   8   9
ATOM      9  C   UNL     1      -1.006 -12.458  -4.586  1.00  0.00     0.064 C 
ATOM     10  O   UNL     1       0.191 -12.103  -4.424  1.00  0.00    -0.545 OA
ATOM     11  O   UNL     1      -2.025 -11.692  -4.032  1.00  0.00    -0.545 OA
ENDBRANCH   8   9
ENDBRANCH   1   7
BRANCH   6  12
ATOM     12  O   UNL     1      -1.885 -18.616  -9.577  1.00  0.00    -0.497 OA
ATOM     13  C   UNL     1      -2.869 -19.567  -9.187  1.00  0.00     0.278 C 
ENDBRANCH   6  12
TORSDOF 3
ENDMDL
MODEL 3
REMARK VINA RESULT:    -4.113      1.273      2.119
REMARK INTER + INTRA:          -5.016
REMARK INTER:                  -4.853
REMARK INTRA:                  -0.163
REMARK UNBOUND:                -0.181
REMARK SMILES COc1ccc(C=CC(=O)[O-])cc1
REMARK SMILES IDX 6 1 5 2 12 3 4 4 13 5 3 6 7 7 8 8 9 9 10 10 11 11 2 12 1 13
REMARK H PARENT
REMARK Flexibility Score: inf
ROOT
ATOM      1  C   UNL     1      -0.205 -14.343  -5.938  1.00  0.00    -0.025 A 
ATOM      2  C   UNL     1       0.545 -15.431  -5.448  1.00  0.00     0.012 A 
ATOM      3  C   UNL     1      -0.705 -14.403  -7.249  1.00  0.00     0.012 A 
ATOM      4  C   UNL     1       0.807 -16.537  -6.263  1.00  0.00     0.047 A 
ATOM      5  C   UNL     1      -0.442 -15.508  -8.062  1.00  0.00     0.047 A 
ATOM      6  C   UNL     1       0.315 -16.581  -7.581  1.00  0.00     0.118 A 
ENDROOT
BRANCH   1   7
ATOM      7  C   UNL     1      -0.519 -13.153  -5.110  1.00  0.00     0.010 C 
ATOM      8  C   UNL     1      -1.739 -12.881  -4.626  1.00  0.00     0.025 C 
BRANCH   8   9
ATOM      9  C   UNL     1      -2.000 -11.693  -3.799  1.00  0.00     0.064 C 
ATOM     10  O   UNL     1      -1.148 -11.333  -2.944  1.00  0.00    -0.545 OA
ATOM     11  O   UNL     1      -3.171 -10.961  -3.943  1.00  0.00    -0.545 OA
ENDBRANCH   8   9
ENDBRANCH   1   7
BRANCH   6  12
ATOM     12  O   UNL     1       0.551 -17.668  -8.437  1.00  0.00    -0.497 OA
ATOM     13  C   UNL     1       0.481 -19.033  -8.041  1.00  0.00     0.278 C 
ENDBRANCH   6  12
TORSDOF 3
ENDMDL
MODEL 4
REMARK VINA RESULT:    -4.097     10.424     11.793
REMARK INTER + INTRA:          -4.997
REMARK INTER:                  -4.828
REMARK INTRA:                  -0.169
REMARK UNBOUND:                -0.181
REMARK SMILES COc1ccc(C=CC(=O)[O-])cc1
REMARK SMILES IDX 6 1 5 2 12 3 4 4 13 5 3 6 7 7 8 8 9 9 10 10 11 11 2 12 1 13
REMARK H PARENT
REMARK Flexibility Score: inf
ROOT
ATOM      1  C   UNL     1      11.274 -18.052  -7.741  1.00  0.00    -0.025 A 
ATOM      2  C   UNL     1      10.639 -18.644  -8.852  1.00  0.00     0.012 A 
ATOM      3  C   UNL     1      12.595 -17.597  -7.882  1.00  0.00     0.012 A 
ATOM      4  C   UNL     1      11.323 -18.796 -10.062  1.00  0.00     0.047 A 
ATOM      5  C   UNL     1      13.277 -17.750  -9.091  1.00  0.00     0.047 A 
ATOM      6  C   UNL     1      12.651 -18.351 -10.189  1.00  0.00     0.118 A 
ENDROOT
BRANCH   1   7
ATOM      7  C   UNL     1      10.589 -17.858  -6.440  1.00  0.00     0.010 C 
ATOM      8  C   UNL     1      10.412 -16.663  -5.860  1.00  0.00     0.025 C 
BRANCH   8   9
ATOM      9  C   UNL     1       9.715 -16.519  -4.573  1.00  0.00     0.064 C 
ATOM     10  O   UNL     1      10.376 -16.562  -3.501  1.00  0.00    -0.545 OA
ATOM     11  O   UNL     1       8.339 -16.338  -4.518  1.00  0.00    -0.545 OA
ENDBRANCH   8   9
ENDBRANCH   1   7
BRANCH   6  12
ATOM     12  O   UNL     1      13.380 -18.482 -11.381  1.00  0.00    -0.497 OA
ATOM     13  C   UNL     1      14.798 -18.396 -11.470  1.00  0.00     0.278 C 
ENDBRANCH   6  12
TORSDOF 3
ENDMDL
MODEL 5
REMARK VINA RESULT:    -3.992      1.203      6.152
REMARK INTER + INTRA:          -4.874
REMARK INTER:                  -4.702
REMARK INTRA:                  -0.172
REMARK UNBOUND:                -0.181
REMARK SMILES COc1ccc(C=CC(=O)[O-])cc1
REMARK SMILES IDX 6 1 5 2 12 3 4 4 13 5 3 6 7 7 8 8 9 9 10 10 11 11 2 12 1 13
REMARK H PARENT
REMARK Flexibility Score: inf
ROOT
ATOM      1  C   UNL     1       0.095 -16.421  -7.488  1.00  0.00    -0.025 A 
ATOM      2  C   UNL     1      -0.909 -15.574  -7.999  1.00  0.00     0.012 A 
ATOM      3  C   UNL     1       0.740 -16.060  -6.294  1.00  0.00     0.012 A 
ATOM      4  C   UNL     1      -1.236 -14.384  -7.340  1.00  0.00     0.047 A 
ATOM      5  C   UNL     1       0.412 -14.872  -5.637  1.00  0.00     0.047 A 
ATOM      6  C   UNL     1      -0.574 -14.024  -6.153  1.00  0.00     0.118 A 
ENDROOT
BRANCH   1   7
ATOM      7  C   UNL     1       0.472 -17.697  -8.143  1.00  0.00     0.010 C 
ATOM      8  C   UNL     1       0.516 -18.877  -7.509  1.00  0.00     0.025 C 
BRANCH   8   9
ATOM      9  C   UNL     1       0.884 -20.120  -8.204  1.00  0.00     0.064 C 
ATOM     10  O   UNL     1       2.022 -20.624  -8.014  1.00  0.00    -0.545 OA
ATOM     11  O   UNL     1      -0.003 -20.749  -9.070  1.00  0.00    -0.545 OA
ENDBRANCH   8   9
ENDBRANCH   1   7
BRANCH   6  12
ATOM     12  O   UNL     1      -0.866 -12.841  -5.456  1.00  0.00    -0.497 OA
ATOM     13  C   UNL     1      -0.241 -12.450  -4.238  1.00  0.00     0.278 C 
ENDBRANCH   6  12
TORSDOF 3
ENDMDL
MODEL 6
REMARK VINA RESULT:    -3.976      2.510      3.752
REMARK INTER + INTRA:          -4.854
REMARK INTER:                  -4.690
REMARK INTRA:                  -0.164
REMARK UNBOUND:                -0.181
REMARK SMILES COc1ccc(C=CC(=O)[O-])cc1
REMARK SMILES IDX 6 1 5 2 12 3 4 4 13 5 3 6 7 7 8 8 9 9 10 10 11 11 2 12 1 13
REMARK H PARENT
REMARK Flexibility Score: inf
ROOT
ATOM      1  C   UNL     1       0.180 -18.572  -8.268  1.00  0.00    -0.025 A 
ATOM      2  C   UNL     1      -0.393 -19.804  -8.641  1.00  0.00     0.012 A 
ATOM      3  C   UNL     1       1.481 -18.565  -7.739  1.00  0.00     0.012 A 
ATOM      4  C   UNL     1       0.314 -20.998  -8.464  1.00  0.00     0.047 A 
ATOM      5  C   UNL     1       2.185 -19.758  -7.563  1.00  0.00     0.047 A 
ATOM      6  C   UNL     1       1.611 -20.982  -7.920  1.00  0.00     0.118 A 
ENDROOT
BRANCH   1   7
ATOM      7  C   UNL     1      -0.524 -17.278  -8.445  1.00  0.00     0.010 C 
ATOM      8  C   UNL     1      -0.848 -16.460  -7.434  1.00  0.00     0.025 C 
BRANCH   8   9
ATOM      9  C   UNL     1      -1.537 -15.180  -7.661  1.00  0.00     0.064 C 
ATOM     10  O   UNL     1      -2.578 -15.153  -8.368  1.00  0.00    -0.545 OA
ATOM     11  O   UNL     1      -1.057 -13.999  -7.108  1.00  0.00    -0.545 OA
ENDBRANCH   8   9
ENDBRANCH   1   7
BRANCH   6  12
ATOM     12  O   UNL     1       2.359 -22.153  -7.722  1.00  0.00    -0.497 OA
ATOM     13  C   UNL     1       2.108 -23.389  -8.382  1.00  0.00     0.278 C 
ENDBRANCH   6  12
TORSDOF 3
ENDMDL
MODEL 7
REMARK VINA RESULT:    -3.937     10.604     12.822
REMARK INTER + INTRA:          -4.808
REMARK INTER:                  -4.637
REMARK INTRA:                  -0.172
REMARK UNBOUND:                -0.181
REMARK SMILES COc1ccc(C=CC(=O)[O-])cc1
REMARK SMILES IDX 6 1 5 2 12 3 4 4 13 5 3 6 7 7 8 8 9 9 10 10 11 11 2 12 1 13
REMARK H PARENT
REMARK Flexibility Score: inf
ROOT
ATOM      1  C   UNL     1      11.758 -17.292  -6.900  1.00  0.00    -0.025 A 
ATOM      2  C   UNL     1      12.750 -16.495  -6.294  1.00  0.00     0.012 A 
ATOM      3  C   UNL     1      10.480 -17.336  -6.321  1.00  0.00     0.012 A 
ATOM      4  C   UNL     1      12.470 -15.782  -5.124  1.00  0.00     0.047 A 
ATOM      5  C   UNL     1      10.202 -16.623  -5.152  1.00  0.00     0.047 A 
ATOM      6  C   UNL     1      11.191 -15.843  -4.543  1.00  0.00     0.118 A 
ENDROOT
BRANCH   1   7
ATOM      7  C   UNL     1      12.002 -18.059  -8.146  1.00  0.00     0.010 C 
ATOM      8  C   UNL     1      11.045 -18.364  -9.034  1.00  0.00     0.025 C 
BRANCH   8   9
ATOM      9  C   UNL     1      11.338 -19.117 -10.264  1.00  0.00     0.064 C 
ATOM     10  O   UNL     1      10.812 -20.248 -10.438  1.00  0.00    -0.545 OA
ATOM     11  O   UNL     1      12.186 -18.603 -11.236  1.00  0.00    -0.545 OA
ENDBRANCH   8   9
ENDBRANCH   1   7
BRANCH   6  12
ATOM     12  O   UNL     1      10.861 -15.147  -3.370  1.00  0.00    -0.497 OA
ATOM     13  C   UNL     1      11.354 -13.853  -3.038  1.00  0.00     0.278 C 
ENDBRANCH   6  12
TORSDOF 3
ENDMDL
MODEL 8
REMARK VINA RESULT:    -3.930      2.610      4.041
REMARK INTER + INTRA:          -4.801
REMARK INTER:                  -4.629
REMARK INTRA:                  -0.171
REMARK UNBOUND:                -0.181
REMARK SMILES COc1ccc(C=CC(=O)[O-])cc1
REMARK SMILES IDX 6 1 5 2 12 3 4 4 13 5 3 6 7 7 8 8 9 9 10 10 11 11 2 12 1 13
REMARK H PARENT
REMARK Flexibility Score: inf
ROOT
ATOM      1  C   UNL     1       0.145 -18.768  -8.250  1.00  0.00    -0.025 A 
ATOM      2  C   UNL     1       1.420 -18.730  -7.650  1.00  0.00     0.012 A 
ATOM      3  C   UNL     1      -0.352 -20.001  -8.702  1.00  0.00     0.012 A 
ATOM      4  C   UNL     1       2.183 -19.896  -7.533  1.00  0.00     0.047 A 
ATOM      5  C   UNL     1       0.412 -21.164  -8.585  1.00  0.00     0.047 A 
ATOM      6  C   UNL     1       1.683 -21.124  -8.003  1.00  0.00     0.118 A 
ENDROOT
BRANCH   1   7
ATOM      7  C   UNL     1      -0.708 -17.562  -8.388  1.00  0.00     0.010 C 
ATOM      8  C   UNL     1      -0.550 -16.449  -7.659  1.00  0.00     0.025 C 
BRANCH   8   9
ATOM      9  C   UNL     1      -1.414 -15.272  -7.840  1.00  0.00     0.064 C 
ATOM     10  O   UNL     1      -2.509 -15.394  -8.449  1.00  0.00    -0.545 OA
ATOM     11  O   UNL     1      -1.041 -14.026  -7.351  1.00  0.00    -0.545 OA
ENDBRANCH   8   9
ENDBRANCH   1   7
BRANCH   6  12
ATOM     12  O   UNL     1       2.411 -22.320  -7.909  1.00  0.00    -0.497 OA
ATOM     13  C   UNL     1       2.014 -23.552  -8.503  1.00  0.00     0.278 C 
ENDBRANCH   6  12
TORSDOF 3
ENDMDL
MODEL 9
REMARK VINA RESULT:    -3.885      1.618      6.486
REMARK INTER + INTRA:          -4.748
REMARK INTER:                  -4.584
REMARK INTRA:                  -0.164
REMARK UNBOUND:                -0.181
REMARK SMILES COc1ccc(C=CC(=O)[O-])cc1
REMARK SMILES IDX 6 1 5 2 12 3 4 4 13 5 3 6 7 7 8 8 9 9 10 10 11 11 2 12 1 13
REMARK H PARENT
REMARK Flexibility Score: inf
ROOT
ATOM      1  C   UNL     1       0.868 -17.506  -7.451  1.00  0.00    -0.025 A 
ATOM      2  C   UNL     1       0.017 -16.864  -8.374  1.00  0.00     0.012 A 
ATOM      3  C   UNL     1       1.143 -16.869  -6.230  1.00  0.00     0.012 A 
ATOM      4  C   UNL     1      -0.521 -15.606  -8.086  1.00  0.00     0.047 A 
ATOM      5  C   UNL     1       0.606 -15.612  -5.945  1.00  0.00     0.047 A 
ATOM      6  C   UNL     1      -0.227 -14.969  -6.866  1.00  0.00     0.118 A 
ENDROOT
BRANCH   1   7
ATOM      7  C   UNL     1       1.454 -18.845  -7.704  1.00  0.00     0.010 C 
ATOM      8  C   UNL     1       0.745 -19.905  -8.114  1.00  0.00     0.025 C 
BRANCH   8   9
ATOM      9  C   UNL     1       1.373 -21.212  -8.364  1.00  0.00     0.064 C 
ATOM     10  O   UNL     1       1.004 -21.899  -9.352  1.00  0.00    -0.545 OA
ATOM     11  O   UNL     1       2.367 -21.702  -7.526  1.00  0.00    -0.545 OA
ENDBRANCH   8   9
ENDBRANCH   1   7
BRANCH   6  12
ATOM     12  O   UNL     1      -0.741 -13.706  -6.532  1.00  0.00    -0.497 OA
ATOM     13  C   UNL     1      -0.788 -13.182  -5.209  1.00  0.00     0.278 C 
ENDBRANCH   6  12
TORSDOF 3
ENDMDL
