MODEL 1
REMARK VINA RESULT:    -3.154      0.000      0.000
REMARK INTER + INTRA:          -5.339
REMARK INTER:                  -4.813
REMARK INTRA:                  -0.525
REMARK UNBOUND:                -0.525
REMARK SMILES CC1=CCC[C@@H](C)C(=O)C[C@@H](C(C)C)C(=O)C1
REMARK SMILES IDX 8 1 9 2 6 3 7 4 5 5 4 6 3 7 2 8 1 9 10 11 11 12 15 13 16 14
REMARK SMILES IDX 17 15 12 17 13 18 14 19
REMARK H PARENT
REMARK Flexibility Score: 70.00
ROOT
ATOM      1  C   UNL     1      13.752  11.216  27.667  1.00  0.00     0.136 C 
ATOM      2  O   UNL     1      13.417  11.446  28.820  1.00  0.00    -0.299 OA
ENDROOT
BRANCH   1   3
ATOM      3  C   UNL     1      12.696  10.999  26.602  1.00  0.00     0.053 C 
ATOM      4  C   UNL     1      11.549  11.990  26.818  1.00  0.00     0.016 C 
BRANCH   3   5
ATOM      5  C   UNL     1      12.155   9.549  26.596  1.00  0.00     0.015 C 
BRANCH   5   6
ATOM      6  C   UNL     1      12.665   8.701  25.422  1.00  0.00     0.028 C 
BRANCH   6   7
ATOM      7  C   UNL     1      13.648   7.653  25.887  1.00  0.00    -0.028 C 
ATOM      8  C   UNL     1      14.965   7.634  25.579  1.00  0.00    -0.070 CG0
ATOM      9  C   UNL     1      15.808   6.514  26.133  1.00  0.00     0.039 C 
ATOM     10  G   UNL     1      15.624   8.694  24.715  1.00  0.00     0.000 G0
ENDBRANCH   6   7
ENDBRANCH   5   6
ENDBRANCH   3   5
ENDBRANCH   1   3
BRANCH   1  11
ATOM     11  C   UNL     1      15.221  11.210  27.313  1.00  0.00     0.087 C 
BRANCH  11  12
ATOM     12  C   UNL     1      15.500  11.132  25.789  1.00  0.00     0.066 C 
BRANCH  12  13
ATOM     13  C   UNL     1      16.270   9.856  25.455  1.00  0.00     0.140 C 
ATOM     14  O   UNL     1      17.458   9.797  25.736  1.00  0.00    -0.299 OA
BRANCH  13  15
ATOM     15  C   UNL     1      15.658   8.690  24.703  1.00  0.00     0.106 CG0
ATOM     16  G   UNL     1      14.984   7.659  25.590  1.00  0.00     0.000 G0
ENDBRANCH  13  15
ENDBRANCH  12  13
BRANCH  12  17
ATOM     17  C   UNL     1      16.288  12.386  25.287  1.00  0.00    -0.006 C 
ATOM     18  C   UNL     1      15.454  13.218  24.297  1.00  0.00     0.008 C 
ATOM     19  C   UNL     1      16.732  13.296  26.448  1.00  0.00     0.008 C 
ENDBRANCH  12  17
ENDBRANCH  11  12
ENDBRANCH   1  11
TORSDOF 1
ENDMDL
MODEL 2
REMARK VINA RESULT:    -3.125      2.177      4.693
REMARK INTER + INTRA:          -5.295
REMARK INTER:                  -4.888
REMARK INTRA:                  -0.407
REMARK UNBOUND:                -0.525
REMARK SMILES CC1=CCC[C@@H](C)C(=O)C[C@@H](C(C)C)C(=O)C1
REMARK SMILES IDX 8 1 9 2 6 3 7 4 5 5 4 6 3 7 2 8 1 9 10 11 11 12 15 13 16 14
REMARK SMILES IDX 17 15 12 17 13 18 14 19
REMARK H PARENT
REMARK Flexibility Score: 70.00
ROOT
ATOM      1  C   UNL     1      16.122  12.649  26.785  1.00  0.00     0.136 C 
ATOM      2  O   UNL     1      16.653  13.355  27.630  1.00  0.00    -0.299 OA
ENDROOT
BRANCH   1   3
ATOM      3  C   UNL     1      16.122  13.080  25.333  1.00  0.00     0.053 C 
ATOM      4  C   UNL     1      17.505  13.624  24.965  1.00  0.00     0.016 C 
BRANCH   3   5
ATOM      5  C   UNL     1      15.035  14.140  25.033  1.00  0.00     0.015 C 
BRANCH   5   6
ATOM      6  C   UNL     1      13.768  13.565  24.384  1.00  0.00     0.028 C 
BRANCH   6   7
ATOM      7  C   UNL     1      12.617  13.527  25.361  1.00  0.00    -0.028 C 
ATOM      8  C   UNL     1      11.991  12.404  25.779  1.00  0.00    -0.070 CG0
ATOM      9  C   UNL     1      10.860  12.547  26.766  1.00  0.00     0.039 C 
ATOM     10  G   UNL     1      12.386  11.016  25.308  1.00  0.00     0.000 G0
ENDBRANCH   6   7
ENDBRANCH   5   6
ENDBRANCH   3   5
ENDBRANCH   1   3
BRANCH   1  11
ATOM     11  C   UNL     1      15.524  11.325  27.200  1.00  0.00     0.087 C 
BRANCH  11  12
ATOM     12  C   UNL     1      14.926  10.509  26.024  1.00  0.00     0.066 C 
BRANCH  12  13
ATOM     13  C   UNL     1      13.420  10.336  26.209  1.00  0.00     0.140 C 
ATOM     14  O   UNL     1      13.019   9.557  27.061  1.00  0.00    -0.299 OA
BRANCH  13  15
ATOM     15  C   UNL     1      12.392  11.012  25.322  1.00  0.00     0.106 CG0
ATOM     16  G   UNL     1      11.995  12.405  25.774  1.00  0.00     0.000 G0
ENDBRANCH  13  15
ENDBRANCH  12  13
BRANCH  12  17
ATOM     17  C   UNL     1      15.617   9.114  25.887  1.00  0.00    -0.006 C 
ATOM     18  C   UNL     1      15.033   8.305  24.714  1.00  0.00     0.008 C 
ATOM     19  C   UNL     1      17.141   9.236  25.693  1.00  0.00     0.008 C 
ENDBRANCH  12  17
ENDBRANCH  11  12
ENDBRANCH   1  11
TORSDOF 1
ENDMDL
MODEL 3
REMARK VINA RESULT:    -3.079      3.082      5.165
REMARK INTER + INTRA:          -5.225
REMARK INTER:                  -4.875
REMARK INTRA:                  -0.350
REMARK UNBOUND:                -0.525
REMARK SMILES CC1=CCC[C@@H](C)C(=O)C[C@@H](C(C)C)C(=O)C1
REMARK SMILES IDX 8 1 9 2 6 3 7 4 5 5 4 6 3 7 2 8 1 9 10 11 11 12 15 13 16 14
REMARK SMILES IDX 17 15 12 17 13 18 14 19
REMARK H PARENT
REMARK Flexibility Score: 70.00
ROOT
ATOM      1  C   UNL     1      15.097  15.140  25.115  1.00  0.00     0.136 C 
ATOM      2  O   UNL     1      14.525  16.217  25.023  1.00  0.00    -0.299 OA
ENDROOT
BRANCH   1   3
ATOM      3  C   UNL     1      16.456  15.062  25.781  1.00  0.00     0.053 C 
ATOM      4  C   UNL     1      17.308  14.006  25.071  1.00  0.00     0.016 C 
BRANCH   3   5
ATOM      5  C   UNL     1      16.354  14.738  27.290  1.00  0.00     0.015 C 
BRANCH   5   6
ATOM      6  C   UNL     1      16.851  13.332  27.659  1.00  0.00     0.028 C 
BRANCH   6   7
ATOM      7  C   UNL     1      15.840  12.596  28.505  1.00  0.00    -0.028 C 
ATOM      8  C   UNL     1      14.865  11.793  28.025  1.00  0.00    -0.070 CG0
ATOM      9  C   UNL     1      13.941  11.128  29.014  1.00  0.00     0.039 C 
ATOM     10  G   UNL     1      14.672  11.525  26.543  1.00  0.00     0.000 G0
ENDBRANCH   6   7
ENDBRANCH   5   6
ENDBRANCH   3   5
ENDBRANCH   1   3
BRANCH   1  11
ATOM     11  C   UNL     1      14.407  13.894  24.614  1.00  0.00     0.087 C 
BRANCH  11  12
ATOM     12  C   UNL     1      13.169  13.480  25.454  1.00  0.00     0.066 C 
BRANCH  12  13
ATOM     13  C   UNL     1      13.334  12.054  25.973  1.00  0.00     0.140 C 
ATOM     14  O   UNL     1      12.351  11.329  26.022  1.00  0.00    -0.299 OA
BRANCH  13  15
ATOM     15  C   UNL     1      14.640  11.518  26.527  1.00  0.00     0.106 CG0
ATOM     16  G   UNL     1      14.859  11.803  28.002  1.00  0.00     0.000 G0
ENDBRANCH  13  15
ENDBRANCH  12  13
BRANCH  12  17
ATOM     17  C   UNL     1      11.849  13.605  24.626  1.00  0.00    -0.006 C 
ATOM     18  C   UNL     1      11.249  15.019  24.729  1.00  0.00     0.008 C 
ATOM     19  C   UNL     1      12.061  13.264  23.139  1.00  0.00     0.008 C 
ENDBRANCH  12  17
ENDBRANCH  11  12
ENDBRANCH   1  11
TORSDOF 1
ENDMDL
MODEL 4
REMARK VINA RESULT:    -3.037      2.405      4.843
REMARK INTER + INTRA:          -5.160
REMARK INTER:                  -4.964
REMARK INTRA:                  -0.195
REMARK UNBOUND:                -0.525
REMARK SMILES CC1=CCC[C@@H](C)C(=O)C[C@@H](C(C)C)C(=O)C1
REMARK SMILES IDX 8 1 9 2 6 3 7 4 5 5 4 6 3 7 2 8 1 9 10 11 11 12 15 13 16 14
REMARK SMILES IDX 17 15 12 17 13 18 14 19
REMARK H PARENT
REMARK Flexibility Score: 70.00
ROOT
ATOM      1  C   UNL     1      13.784  11.306  28.407  1.00  0.00     0.136 C 
ATOM      2  O   UNL     1      12.959  12.164  28.128  1.00  0.00    -0.299 OA
ENDROOT
BRANCH   1   3
ATOM      3  C   UNL     1      14.491  11.345  29.746  1.00  0.00     0.053 C 
ATOM      4  C   UNL     1      13.464  11.160  30.867  1.00  0.00     0.016 C 
BRANCH   3   5
ATOM      5  C   UNL     1      15.279  12.660  29.958  1.00  0.00     0.015 C 
BRANCH   5   6
ATOM      6  C   UNL     1      16.453  12.844  28.985  1.00  0.00     0.028 C 
BRANCH   6   7
ATOM      7  C   UNL     1      16.202  13.987  28.030  1.00  0.00    -0.028 C 
ATOM      8  C   UNL     1      16.255  13.898  26.682  1.00  0.00    -0.070 CG0
ATOM      9  C   UNL     1      15.971  15.140  25.876  1.00  0.00     0.039 C 
ATOM     10  G   UNL     1      16.573  12.604  25.954  1.00  0.00     0.000 G0
ENDBRANCH   6   7
ENDBRANCH   5   6
ENDBRANCH   3   5
ENDBRANCH   1   3
BRANCH   1  11
ATOM     11  C   UNL     1      14.041  10.184  27.428  1.00  0.00     0.087 C 
BRANCH  11  12
ATOM     12  C   UNL     1      15.385  10.312  26.663  1.00  0.00     0.066 C 
BRANCH  12  13
ATOM     13  C   UNL     1      15.421  11.615  25.869  1.00  0.00     0.140 C 
ATOM     14  O   UNL     1      14.523  11.843  25.071  1.00  0.00    -0.299 OA
BRANCH  13  15
ATOM     15  C   UNL     1      16.569  12.604  25.947  1.00  0.00     0.106 CG0
ATOM     16  G   UNL     1      16.247  13.878  26.706  1.00  0.00     0.000 G0
ENDBRANCH  13  15
ENDBRANCH  12  13
BRANCH  12  17
ATOM     17  C   UNL     1      15.621   9.093  25.713  1.00  0.00    -0.006 C 
ATOM     18  C   UNL     1      17.117   8.759  25.583  1.00  0.00     0.008 C 
ATOM     19  C   UNL     1      14.871   7.834  26.187  1.00  0.00     0.008 C 
ENDBRANCH  12  17
ENDBRANCH  11  12
ENDBRANCH   1  11
TORSDOF 1
ENDMDL
MODEL 5
REMARK VINA RESULT:    -3.032      2.426      3.951
REMARK INTER + INTRA:          -5.152
REMARK INTER:                  -5.047
REMARK INTRA:                  -0.105
REMARK UNBOUND:                -0.525
REMARK SMILES CC1=CCC[C@@H](C)C(=O)C[C@@H](C(C)C)C(=O)C1
REMARK SMILES IDX 8 1 9 2 6 3 7 4 5 5 4 6 3 7 2 8 1 9 10 11 11 12 15 13 16 14
REMARK SMILES IDX 17 15 12 17 13 18 14 19
REMARK H PARENT
REMARK Flexibility Score: 70.00
ROOT
ATOM      1  C   UNL     1      15.602  10.244  26.347  1.00  0.00     0.136 C 
ATOM      2  O   UNL     1      15.594  10.552  27.530  1.00  0.00    -0.299 OA
ENDROOT
BRANCH   1   3
ATOM      3  C   UNL     1      15.472   8.789  25.945  1.00  0.00     0.053 C 
ATOM      4  C   UNL     1      16.714   8.369  25.153  1.00  0.00     0.016 C 
BRANCH   3   5
ATOM      5  C   UNL     1      14.194   8.518  25.116  1.00  0.00     0.015 C 
BRANCH   5   6
ATOM      6  C   UNL     1      12.895   8.931  25.823  1.00  0.00     0.028 C 
BRANCH   6   7
ATOM      7  C   UNL     1      11.950   9.630  24.875  1.00  0.00    -0.028 C 
ATOM      8  C   UNL     1      11.724  10.963  24.848  1.00  0.00    -0.070 CG0
ATOM      9  C   UNL     1      10.749  11.497  23.830  1.00  0.00     0.039 C 
ATOM     10  G   UNL     1      12.417  11.936  25.786  1.00  0.00     0.000 G0
ENDBRANCH   6   7
ENDBRANCH   5   6
ENDBRANCH   3   5
ENDBRANCH   1   3
BRANCH   1  11
ATOM     11  C   UNL     1      15.681  11.332  25.302  1.00  0.00     0.087 C 
BRANCH  11  12
ATOM     12  C   UNL     1      15.000  12.660  25.726  1.00  0.00     0.066 C 
BRANCH  12  13
ATOM     13  C   UNL     1      13.575  12.723  25.181  1.00  0.00     0.140 C 
ATOM     14  O   UNL     1      13.331  13.491  24.262  1.00  0.00    -0.299 OA
BRANCH  13  15
ATOM     15  C   UNL     1      12.420  11.950  25.788  1.00  0.00     0.106 CG0
ATOM     16  G   UNL     1      11.749  10.977  24.835  1.00  0.00     0.000 G0
ENDBRANCH  13  15
ENDBRANCH  12  13
BRANCH  12  17
ATOM     17  C   UNL     1      15.819  13.901  25.242  1.00  0.00    -0.006 C 
ATOM     18  C   UNL     1      15.881  14.994  26.324  1.00  0.00     0.008 C 
ATOM     19  C   UNL     1      17.256  13.526  24.833  1.00  0.00     0.008 C 
ENDBRANCH  12  17
ENDBRANCH  11  12
ENDBRANCH   1  11
TORSDOF 1
ENDMDL
MODEL 6
REMARK VINA RESULT:    -2.921      9.347     10.515
REMARK INTER + INTRA:          -4.983
REMARK INTER:                  -4.516
REMARK INTRA:                  -0.467
REMARK UNBOUND:                -0.525
REMARK SMILES CC1=CCC[C@@H](C)C(=O)C[C@@H](C(C)C)C(=O)C1
REMARK SMILES IDX 8 1 9 2 6 3 7 4 5 5 4 6 3 7 2 8 1 9 10 11 11 12 15 13 16 14
REMARK SMILES IDX 17 15 12 17 13 18 14 19
REMARK H PARENT
REMARK Flexibility Score: 70.00
ROOT
ATOM      1  C   UNL     1      13.349   3.449  20.089  1.00  0.00     0.136 C 
ATOM      2  O   UNL     1      12.990   3.790  21.207  1.00  0.00    -0.299 OA
ENDROOT
BRANCH   1   3
ATOM      3  C   UNL     1      12.745   2.219  19.445  1.00  0.00     0.053 C 
ATOM      4  C   UNL     1      11.217   2.311  19.511  1.00  0.00     0.016 C 
BRANCH   3   5
ATOM      5  C   UNL     1      13.229   0.908  20.109  1.00  0.00     0.015 C 
BRANCH   5   6
ATOM      6  C   UNL     1      14.384   0.223  19.363  1.00  0.00     0.028 C 
BRANCH   6   7
ATOM      7  C   UNL     1      15.691   0.391  20.100  1.00  0.00    -0.028 C 
ATOM      8  C   UNL     1      16.766   1.061  19.629  1.00  0.00    -0.070 CG0
ATOM      9  C   UNL     1      17.994   1.137  20.500  1.00  0.00     0.039 C 
ATOM     10  G   UNL     1      16.782   1.746  18.274  1.00  0.00     0.000 G0
ENDBRANCH   6   7
ENDBRANCH   5   6
ENDBRANCH   3   5
ENDBRANCH   1   3
BRANCH   1  11
ATOM     11  C   UNL     1      14.351   4.301  19.345  1.00  0.00     0.087 C 
BRANCH  11  12
ATOM     12  C   UNL     1      14.917   3.631  18.065  1.00  0.00     0.066 C 
BRANCH  12  13
ATOM     13  C   UNL     1      16.365   3.201  18.288  1.00  0.00     0.140 C 
ATOM     14  O   UNL     1      17.223   4.064  18.404  1.00  0.00    -0.299 OA
BRANCH  13  15
ATOM     15  C   UNL     1      16.812   1.752  18.275  1.00  0.00     0.106 CG0
ATOM     16  G   UNL     1      16.774   1.074  19.632  1.00  0.00     0.000 G0
ENDBRANCH  13  15
ENDBRANCH  12  13
BRANCH  12  17
ATOM     17  C   UNL     1      14.819   4.584  16.830  1.00  0.00    -0.006 C 
ATOM     18  C   UNL     1      14.210   3.870  15.611  1.00  0.00     0.008 C 
ATOM     19  C   UNL     1      13.987   5.844  17.133  1.00  0.00     0.008 C 
ENDBRANCH  12  17
ENDBRANCH  11  12
ENDBRANCH   1  11
TORSDOF 1
ENDMDL
MODEL 7
REMARK VINA RESULT:    -2.860      2.406      4.852
REMARK INTER + INTRA:          -4.890
REMARK INTER:                  -4.509
REMARK INTRA:                  -0.381
REMARK UNBOUND:                -0.525
REMARK SMILES CC1=CCC[C@@H](C)C(=O)C[C@@H](C(C)C)C(=O)C1
REMARK SMILES IDX 8 1 9 2 6 3 7 4 5 5 4 6 3 7 2 8 1 9 10 11 11 12 15 13 16 14
REMARK SMILES IDX 17 15 12 17 13 18 14 19
REMARK H PARENT
REMARK Flexibility Score: 70.00
ROOT
ATOM      1  C   UNL     1      13.848  10.332  27.108  1.00  0.00     0.136 C 
ATOM      2  O   UNL     1      13.584   9.762  28.157  1.00  0.00    -0.299 OA
ENDROOT
BRANCH   1   3
ATOM      3  C   UNL     1      14.645   9.614  26.038  1.00  0.00     0.053 C 
ATOM      4  C   UNL     1      14.452   8.102  26.191  1.00  0.00     0.016 C 
BRANCH   3   5
ATOM      5  C   UNL     1      16.150   9.967  26.089  1.00  0.00     0.015 C 
BRANCH   5   6
ATOM      6  C   UNL     1      16.603  10.920  24.973  1.00  0.00     0.028 C 
BRANCH   6   7
ATOM      7  C   UNL     1      16.886  12.302  25.511  1.00  0.00    -0.028 C 
ATOM      8  C   UNL     1      16.176  13.412  25.210  1.00  0.00    -0.070 CG0
ATOM      9  C   UNL     1      16.593  14.716  25.842  1.00  0.00     0.039 C 
ATOM     10  G   UNL     1      14.976  13.396  24.279  1.00  0.00     0.000 G0
ENDBRANCH   6   7
ENDBRANCH   5   6
ENDBRANCH   3   5
ENDBRANCH   1   3
BRANCH   1  11
ATOM     11  C   UNL     1      13.319  11.728  26.874  1.00  0.00     0.087 C 
BRANCH  11  12
ATOM     12  C   UNL     1      12.969  12.027  25.392  1.00  0.00     0.066 C 
BRANCH  12  13
ATOM     13  C   UNL     1      13.621  13.334  24.947  1.00  0.00     0.140 C 
ATOM     14  O   UNL     1      12.995  14.376  25.075  1.00  0.00    -0.299 OA
BRANCH  13  15
ATOM     15  C   UNL     1      14.973  13.396  24.262  1.00  0.00     0.106 CG0
ATOM     16  G   UNL     1      16.156  13.408  25.213  1.00  0.00     0.000 G0
ENDBRANCH  13  15
ENDBRANCH  12  13
BRANCH  12  17
ATOM     17  C   UNL     1      11.422  12.092  25.172  1.00  0.00    -0.006 C 
ATOM     18  C   UNL     1      10.860  10.735  24.712  1.00  0.00     0.008 C 
ATOM     19  C   UNL     1      10.672  12.534  26.443  1.00  0.00     0.008 C 
ENDBRANCH  12  17
ENDBRANCH  11  12
ENDBRANCH   1  11
TORSDOF 1
ENDMDL
MODEL 8
REMARK VINA RESULT:    -2.839      1.986      2.699
REMARK INTER + INTRA:          -4.858
REMARK INTER:                  -4.623
REMARK INTRA:                  -0.235
REMARK UNBOUND:                -0.525
REMARK SMILES CC1=CCC[C@@H](C)C(=O)C[C@@H](C(C)C)C(=O)C1
REMARK SMILES IDX 8 1 9 2 6 3 7 4 5 5 4 6 3 7 2 8 1 9 10 11 11 12 15 13 16 14
REMARK SMILES IDX 17 15 12 17 13 18 14 19
REMARK H PARENT
REMARK Flexibility Score: 70.00
ROOT
ATOM      1  C   UNL     1      11.935  10.864  25.610  1.00  0.00     0.136 C 
ATOM      2  O   UNL     1      11.346  11.159  24.580  1.00  0.00    -0.299 OA
ENDROOT
BRANCH   1   3
ATOM      3  C   UNL     1      11.705   9.510  26.250  1.00  0.00     0.053 C 
ATOM      4  C   UNL     1      11.925   9.619  27.762  1.00  0.00     0.016 C 
BRANCH   3   5
ATOM      5  C   UNL     1      12.622   8.414  25.655  1.00  0.00     0.015 C 
BRANCH   5   6
ATOM      6  C   UNL     1      13.941   8.226  26.419  1.00  0.00     0.028 C 
BRANCH   6   7
ATOM      7  C   UNL     1      15.133   8.393  25.508  1.00  0.00    -0.028 C 
ATOM      8  C   UNL     1      15.920   9.491  25.454  1.00  0.00    -0.070 CG0
ATOM      9  C   UNL     1      17.077   9.489  24.487  1.00  0.00     0.039 C 
ATOM     10  G   UNL     1      15.695  10.710  26.330  1.00  0.00     0.000 G0
ENDBRANCH   6   7
ENDBRANCH   5   6
ENDBRANCH   3   5
ENDBRANCH   1   3
BRANCH   1  11
ATOM     11  C   UNL     1      12.929  11.838  26.196  1.00  0.00     0.087 C 
BRANCH  11  12
ATOM     12  C   UNL     1      13.952  12.387  25.166  1.00  0.00     0.066 C 
BRANCH  12  13
ATOM     13  C   UNL     1      15.370  11.978  25.557  1.00  0.00     0.140 C 
ATOM     14  O   UNL     1      16.306  12.662  25.172  1.00  0.00    -0.299 OA
BRANCH  13  15
ATOM     15  C   UNL     1      15.685  10.706  26.321  1.00  0.00     0.106 CG0
ATOM     16  G   UNL     1      15.905   9.488  25.442  1.00  0.00     0.000 G0
ENDBRANCH  13  15
ENDBRANCH  12  13
BRANCH  12  17
ATOM     17  C   UNL     1      13.854  13.942  25.037  1.00  0.00    -0.006 C 
ATOM     18  C   UNL     1      12.764  14.359  24.033  1.00  0.00     0.008 C 
ATOM     19  C   UNL     1      13.568  14.621  26.389  1.00  0.00     0.008 C 
ENDBRANCH  12  17
ENDBRANCH  11  12
ENDBRANCH   1  11
TORSDOF 1
ENDMDL
MODEL 9
REMARK VINA RESULT:    -2.771      2.790      4.792
REMARK INTER + INTRA:          -4.754
REMARK INTER:                  -4.234
REMARK INTRA:                  -0.520
REMARK UNBOUND:                -0.525
REMARK SMILES CC1=CCC[C@@H](C)C(=O)C[C@@H](C(C)C)C(=O)C1
REMARK SMILES IDX 8 1 9 2 6 3 7 4 5 5 4 6 3 7 2 8 1 9 10 11 11 12 15 13 16 14
REMARK SMILES IDX 17 15 12 17 13 18 14 19
REMARK H PARENT
REMARK Flexibility Score: 70.00
ROOT
ATOM      1  C   UNL     1      15.450  13.286  24.885  1.00  0.00     0.136 C 
ATOM      2  O   UNL     1      16.438  12.935  24.254  1.00  0.00    -0.299 OA
ENDROOT
BRANCH   1   3
ATOM      3  C   UNL     1      15.576  13.626  26.356  1.00  0.00     0.053 C 
ATOM      4  C   UNL     1      16.744  14.596  26.554  1.00  0.00     0.016 C 
BRANCH   3   5
ATOM      5  C   UNL     1      15.772  12.368  27.236  1.00  0.00     0.015 C 
BRANCH   5   6
ATOM      6  C   UNL     1      14.467  11.814  27.827  1.00  0.00     0.028 C 
BRANCH   6   7
ATOM      7  C   UNL     1      13.933  10.668  27.001  1.00  0.00    -0.028 C 
ATOM      8  C   UNL     1      12.745  10.665  26.355  1.00  0.00    -0.070 CG0
ATOM      9  C   UNL     1      12.367   9.436  25.569  1.00  0.00     0.039 C 
ATOM     10  G   UNL     1      11.791  11.846  26.379  1.00  0.00     0.000 G0
ENDBRANCH   6   7
ENDBRANCH   5   6
ENDBRANCH   3   5
ENDBRANCH   1   3
BRANCH   1  11
ATOM     11  C   UNL     1      14.130  13.431  24.166  1.00  0.00     0.087 C 
BRANCH  11  12
ATOM     12  C   UNL     1      12.962  13.883  25.082  1.00  0.00     0.066 C 
BRANCH  12  13
ATOM     13  C   UNL     1      11.906  12.784  25.176  1.00  0.00     0.140 C 
ATOM     14  O   UNL     1      11.068  12.697  24.291  1.00  0.00    -0.299 OA
BRANCH  13  15
ATOM     15  C   UNL     1      11.782  11.853  26.367  1.00  0.00     0.106 CG0
ATOM     16  G   UNL     1      12.745  10.679  26.345  1.00  0.00     0.000 G0
ENDBRANCH  13  15
ENDBRANCH  12  13
BRANCH  12  17
ATOM     17  C   UNL     1      12.316  15.212  24.571  1.00  0.00    -0.006 C 
ATOM     18  C   UNL     1      11.771  16.060  25.734  1.00  0.00     0.008 C 
ATOM     19  C   UNL     1      13.308  16.065  23.758  1.00  0.00     0.008 C 
ENDBRANCH  12  17
ENDBRANCH  11  12
ENDBRANCH   1  11
TORSDOF 1
ENDMDL
