MODEL 1
REMARK VINA RESULT:    -4.290      0.000      0.000
REMARK INTER + INTRA:         -11.939
REMARK INTER:                  -9.307
REMARK INTRA:                  -2.632
REMARK UNBOUND:                -2.632
REMARK SMILES CCCCCCCCCCCCCCCCCCCCCC(=O)[O-]
REMARK SMILES IDX 12 1 11 2 10 3 9 4 8 5 7 6 6 7 5 8 4 9 3 10 2 11 1 12 13 13
REMARK SMILES IDX 14 14 15 15 16 16 17 17 18 18 19 19 20 20 21 21 22 22 23 23
REMARK SMILES IDX 24 24
REMARK H PARENT
REMARK Flexibility Score: inf
ROOT
ATOM      1  C   UNL     1      77.948  81.697  78.670  1.00  0.00     0.000 C 
ENDROOT
BRANCH   1   2
ATOM      2  C   UNL     1      76.505  81.794  78.138  1.00  0.00     0.000 C 
BRANCH   2   3
ATOM      3  C   UNL     1      75.415  81.346  79.125  1.00  0.00     0.000 C 
BRANCH   3   4
ATOM      4  C   UNL     1      75.772  80.112  79.979  1.00  0.00    -0.000 C 
BRANCH   4   5
ATOM      5  C   UNL     1      75.590  78.767  79.242  1.00  0.00    -0.000 C 
BRANCH   5   6
ATOM      6  C   UNL     1      74.110  78.443  78.971  1.00  0.00    -0.000 C 
BRANCH   6   7
ATOM      7  C   UNL     1      73.849  77.990  77.523  1.00  0.00    -0.000 C 
BRANCH   7   8
ATOM      8  C   UNL     1      72.979  78.944  76.680  1.00  0.00    -0.000 C 
BRANCH   8   9
ATOM      9  C   UNL     1      73.697  80.200  76.156  1.00  0.00    -0.000 C 
BRANCH   9  10
ATOM     10  C   UNL     1      72.731  81.289  75.668  1.00  0.00    -0.000 C 
BRANCH  10  11
ATOM     11  C   UNL     1      72.188  82.106  76.846  1.00  0.00    -0.003 C 
ATOM     12  C   UNL     1      70.662  82.117  76.854  1.00  0.00     0.004 C 
ENDBRANCH  10  11
ENDBRANCH   9  10
ENDBRANCH   8   9
ENDBRANCH   7   8
ENDBRANCH   6   7
ENDBRANCH   5   6
ENDBRANCH   4   5
ENDBRANCH   3   4
ENDBRANCH   2   3
ENDBRANCH   1   2
BRANCH   1  13
ATOM     13  C   UNL     1      78.855  80.768  77.838  1.00  0.00     0.000 C 
BRANCH  13  14
ATOM     14  C   UNL     1      80.134  80.370  78.589  1.00  0.00     0.000 C 
BRANCH  14  15
ATOM     15  C   UNL     1      81.324  81.225  78.136  1.00  0.00     0.000 C 
BRANCH  15  16
ATOM     16  C   UNL     1      81.801  80.812  76.735  1.00  0.00     0.000 C 
BRANCH  16  17
ATOM     17  C   UNL     1      82.159  82.021  75.857  1.00  0.00     0.000 C 
BRANCH  17  18
ATOM     18  C   UNL     1      81.004  83.027  75.741  1.00  0.00     0.000 C 
BRANCH  18  19
ATOM     19  C   UNL     1      79.864  82.459  74.882  1.00  0.00     0.000 C 
BRANCH  19  20
ATOM     20  C   UNL     1      78.749  83.484  74.620  1.00  0.00     0.006 C 
BRANCH  20  21
ATOM     21  C   UNL     1      77.350  82.942  74.955  1.00  0.00     0.053 C 
BRANCH  21  22
ATOM     22  C   UNL     1      76.362  84.059  75.096  1.00  0.00     0.041 C 
ATOM     23  O   UNL     1      76.708  85.244  74.848  1.00  0.00    -0.550 OA
ATOM     24  O   UNL     1      75.075  83.801  75.555  1.00  0.00    -0.550 OA
ENDBRANCH  21  22
ENDBRANCH  20  21
ENDBRANCH  19  20
ENDBRANCH  18  19
ENDBRANCH  17  18
ENDBRANCH  16  17
ENDBRANCH  15  16
ENDBRANCH  14  15
ENDBRANCH  13  14
ENDBRANCH   1  13
TORSDOF 20
ENDMDL
MODEL 2
REMARK VINA RESULT:    -4.217      1.859      5.825
REMARK INTER + INTRA:         -11.779
REMARK INTER:                  -8.071
REMARK INTRA:                  -3.709
REMARK UNBOUND:                -2.632
REMARK SMILES CCCCCCCCCCCCCCCCCCCCCC(=O)[O-]
REMARK SMILES IDX 12 1 11 2 10 3 9 4 8 5 7 6 6 7 5 8 4 9 3 10 2 11 1 12 13 13
REMARK SMILES IDX 14 14 15 15 16 16 17 17 18 18 19 19 20 20 21 21 22 22 23 23
REMARK SMILES IDX 24 24
REMARK H PARENT
REMARK Flexibility Score: inf
ROOT
ATOM      1  C   UNL     1      76.199  80.299  79.704  1.00  0.00     0.000 C 
ENDROOT
BRANCH   1   2
ATOM      2  C   UNL     1      75.645  78.939  80.171  1.00  0.00     0.000 C 
BRANCH   2   3
ATOM      3  C   UNL     1      76.390  77.710  79.625  1.00  0.00     0.000 C 
BRANCH   3   4
ATOM      4  C   UNL     1      77.928  77.787  79.707  1.00  0.00    -0.000 C 
BRANCH   4   5
ATOM      5  C   UNL     1      78.647  77.406  78.394  1.00  0.00    -0.000 C 
BRANCH   5   6
ATOM      6  C   UNL     1      77.806  77.739  77.149  1.00  0.00    -0.000 C 
BRANCH   6   7
ATOM      7  C   UNL     1      78.488  78.758  76.218  1.00  0.00    -0.000 C 
BRANCH   7   8
ATOM      8  C   UNL     1      78.304  80.238  76.613  1.00  0.00    -0.000 C 
BRANCH   8   9
ATOM      9  C   UNL     1      79.577  80.954  77.096  1.00  0.00    -0.000 C 
BRANCH   9  10
ATOM     10  C   UNL     1      79.670  81.058  78.626  1.00  0.00    -0.000 C 
BRANCH  10  11
ATOM     11  C   UNL     1      81.116  80.869  79.099  1.00  0.00    -0.003 C 
ATOM     12  C   UNL     1      81.393  79.413  79.460  1.00  0.00     0.004 C 
ENDBRANCH  10  11
ENDBRANCH   9  10
ENDBRANCH   8   9
ENDBRANCH   7   8
ENDBRANCH   6   7
ENDBRANCH   5   6
ENDBRANCH   4   5
ENDBRANCH   3   4
ENDBRANCH   2   3
ENDBRANCH   1   2
BRANCH   1  13
ATOM     13  C   UNL     1      75.351  80.970  78.604  1.00  0.00     0.000 C 
BRANCH  13  14
ATOM     14  C   UNL     1      74.334  80.004  77.977  1.00  0.00     0.000 C 
BRANCH  14  15
ATOM     15  C   UNL     1      74.647  79.765  76.495  1.00  0.00     0.000 C 
BRANCH  15  16
ATOM     16  C   UNL     1      73.378  79.382  75.716  1.00  0.00     0.000 C 
BRANCH  16  17
ATOM     17  C   UNL     1      73.012  80.422  74.645  1.00  0.00     0.000 C 
BRANCH  17  18
ATOM     18  C   UNL     1      74.136  81.441  74.406  1.00  0.00     0.000 C 
BRANCH  18  19
ATOM     19  C   UNL     1      73.697  82.853  74.823  1.00  0.00     0.000 C 
BRANCH  19  20
ATOM     20  C   UNL     1      74.776  83.599  75.625  1.00  0.00     0.006 C 
BRANCH  20  21
ATOM     21  C   UNL     1      76.188  83.041  75.387  1.00  0.00     0.053 C 
BRANCH  21  22
ATOM     22  C   UNL     1      77.115  84.113  74.906  1.00  0.00     0.041 C 
ATOM     23  O   UNL     1      76.707  85.300  74.799  1.00  0.00    -0.550 OA
ATOM     24  O   UNL     1      78.413  83.796  74.520  1.00  0.00    -0.550 OA
ENDBRANCH  21  22
ENDBRANCH  20  21
ENDBRANCH  19  20
ENDBRANCH  18  19
ENDBRANCH  17  18
ENDBRANCH  16  17
ENDBRANCH  15  16
ENDBRANCH  14  15
ENDBRANCH  13  14
ENDBRANCH   1  13
TORSDOF 20
ENDMDL
MODEL 3
REMARK VINA RESULT:    -4.193      1.721      3.646
REMARK INTER + INTRA:         -11.728
REMARK INTER:                  -7.777
REMARK INTRA:                  -3.951
REMARK UNBOUND:                -2.632
REMARK SMILES CCCCCCCCCCCCCCCCCCCCCC(=O)[O-]
REMARK SMILES IDX 12 1 11 2 10 3 9 4 8 5 7 6 6 7 5 8 4 9 3 10 2 11 1 12 13 13
REMARK SMILES IDX 14 14 15 15 16 16 17 17 18 18 19 19 20 20 21 21 22 22 23 23
REMARK SMILES IDX 24 24
REMARK H PARENT
REMARK Flexibility Score: inf
ROOT
ATOM      1  C   UNL     1      76.525  78.541  80.210  1.00  0.00     0.000 C 
ENDROOT
BRANCH   1   2
ATOM      2  C   UNL     1      76.264  77.816  78.875  1.00  0.00     0.000 C 
BRANCH   2   3
ATOM      3  C   UNL     1      77.353  78.008  77.807  1.00  0.00     0.000 C 
BRANCH   3   4
ATOM      4  C   UNL     1      76.830  78.251  76.376  1.00  0.00    -0.000 C 
BRANCH   4   5
ATOM      5  C   UNL     1      75.316  77.992  76.210  1.00  0.00    -0.000 C 
BRANCH   5   6
ATOM      6  C   UNL     1      74.605  79.133  75.460  1.00  0.00    -0.000 C 
BRANCH   6   7
ATOM      7  C   UNL     1      75.578  80.211  74.947  1.00  0.00    -0.000 C 
BRANCH   7   8
ATOM      8  C   UNL     1      74.929  81.346  74.127  1.00  0.00    -0.000 C 
BRANCH   8   9
ATOM      9  C   UNL     1      74.822  82.701  74.849  1.00  0.00    -0.000 C 
BRANCH   9  10
ATOM     10  C   UNL     1      73.380  83.070  75.228  1.00  0.00    -0.000 C 
BRANCH  10  11
ATOM     11  C   UNL     1      72.979  82.411  76.553  1.00  0.00    -0.003 C 
ATOM     12  C   UNL     1      71.791  81.472  76.366  1.00  0.00     0.004 C 
ENDBRANCH  10  11
ENDBRANCH   9  10
ENDBRANCH   8   9
ENDBRANCH   7   8
ENDBRANCH   6   7
ENDBRANCH   5   6
ENDBRANCH   4   5
ENDBRANCH   3   4
ENDBRANCH   2   3
ENDBRANCH   1   2
BRANCH   1  13
ATOM     13  C   UNL     1      75.687  79.823  80.394  1.00  0.00     0.000 C 
BRANCH  13  14
ATOM     14  C   UNL     1      75.137  80.359  79.063  1.00  0.00     0.000 C 
BRANCH  14  15
ATOM     15  C   UNL     1      75.633  81.787  78.802  1.00  0.00     0.000 C 
BRANCH  15  16
ATOM     16  C   UNL     1      76.793  81.794  77.795  1.00  0.00     0.000 C 
BRANCH  16  17
ATOM     17  C   UNL     1      78.161  81.623  78.475  1.00  0.00     0.000 C 
BRANCH  17  18
ATOM     18  C   UNL     1      79.219  81.033  77.529  1.00  0.00     0.000 C 
BRANCH  18  19
ATOM     19  C   UNL     1      80.331  82.052  77.243  1.00  0.00     0.000 C 
BRANCH  19  20
ATOM     20  C   UNL     1      80.437  82.416  75.753  1.00  0.00     0.006 C 
BRANCH  20  21
ATOM     21  C   UNL     1      79.343  81.755  74.899  1.00  0.00     0.053 C 
BRANCH  21  22
ATOM     22  C   UNL     1      78.564  82.781  74.137  1.00  0.00     0.041 C 
ATOM     23  O   UNL     1      78.168  82.534  72.967  1.00  0.00    -0.550 OA
ATOM     24  O   UNL     1      78.322  84.033  74.693  1.00  0.00    -0.550 OA
ENDBRANCH  21  22
ENDBRANCH  20  21
ENDBRANCH  19  20
ENDBRANCH  18  19
ENDBRANCH  17  18
ENDBRANCH  16  17
ENDBRANCH  15  16
ENDBRANCH  14  15
ENDBRANCH  13  14
ENDBRANCH   1  13
TORSDOF 20
ENDMDL
MODEL 4
REMARK VINA RESULT:    -4.130      1.776      3.812
REMARK INTER + INTRA:         -11.591
REMARK INTER:                  -7.674
REMARK INTRA:                  -3.917
REMARK UNBOUND:                -2.632
REMARK SMILES CCCCCCCCCCCCCCCCCCCCCC(=O)[O-]
REMARK SMILES IDX 12 1 11 2 10 3 9 4 8 5 7 6 6 7 5 8 4 9 3 10 2 11 1 12 13 13
REMARK SMILES IDX 14 14 15 15 16 16 17 17 18 18 19 19 20 20 21 21 22 22 23 23
REMARK SMILES IDX 24 24
REMARK H PARENT
REMARK Flexibility Score: inf
ROOT
ATOM      1  C   UNL     1      74.503  80.873  78.078  1.00  0.00     0.000 C 
ENDROOT
BRANCH   1   2
ATOM      2  C   UNL     1      74.048  79.449  77.704  1.00  0.00     0.000 C 
BRANCH   2   3
ATOM      3  C   UNL     1      73.120  79.361  76.482  1.00  0.00     0.000 C 
BRANCH   3   4
ATOM      4  C   UNL     1      73.828  79.070  75.142  1.00  0.00    -0.000 C 
BRANCH   4   5
ATOM      5  C   UNL     1      75.369  79.023  75.245  1.00  0.00    -0.000 C 
BRANCH   5   6
ATOM      6  C   UNL     1      76.038  80.236  74.573  1.00  0.00    -0.000 C 
BRANCH   6   7
ATOM      7  C   UNL     1      75.029  81.317  74.143  1.00  0.00    -0.000 C 
BRANCH   7   8
ATOM      8  C   UNL     1      75.035  82.601  74.997  1.00  0.00    -0.000 C 
BRANCH   8   9
ATOM      9  C   UNL     1      73.654  83.232  75.247  1.00  0.00    -0.000 C 
BRANCH   9  10
ATOM     10  C   UNL     1      72.511  82.479  74.550  1.00  0.00    -0.000 C 
BRANCH  10  11
ATOM     11  C   UNL     1      71.254  82.462  75.429  1.00  0.00    -0.003 C 
ATOM     12  C   UNL     1      71.607  82.655  76.901  1.00  0.00     0.004 C 
ENDBRANCH  10  11
ENDBRANCH   9  10
ENDBRANCH   8   9
ENDBRANCH   7   8
ENDBRANCH   6   7
ENDBRANCH   5   6
ENDBRANCH   4   5
ENDBRANCH   3   4
ENDBRANCH   2   3
ENDBRANCH   1   2
BRANCH   1  13
ATOM     13  C   UNL     1      75.692  80.907  79.061  1.00  0.00     0.000 C 
BRANCH  13  14
ATOM     14  C   UNL     1      75.752  79.656  79.951  1.00  0.00     0.000 C 
BRANCH  14  15
ATOM     15  C   UNL     1      77.125  78.979  79.851  1.00  0.00     0.000 C 
BRANCH  15  16
ATOM     16  C   UNL     1      77.418  78.532  78.410  1.00  0.00     0.000 C 
BRANCH  16  17
ATOM     17  C   UNL     1      78.792  79.011  77.915  1.00  0.00     0.000 C 
BRANCH  17  18
ATOM     18  C   UNL     1      78.684  80.160  76.901  1.00  0.00     0.000 C 
BRANCH  18  19
ATOM     19  C   UNL     1      79.123  81.491  77.530  1.00  0.00     0.000 C 
BRANCH  19  20
ATOM     20  C   UNL     1      79.620  82.506  76.488  1.00  0.00     0.006 C 
BRANCH  20  21
ATOM     21  C   UNL     1      79.534  81.974  75.048  1.00  0.00     0.053 C 
BRANCH  21  22
ATOM     22  C   UNL     1      78.712  82.883  74.188  1.00  0.00     0.041 C 
ATOM     23  O   UNL     1      78.340  84.003  74.627  1.00  0.00    -0.550 OA
ATOM     24  O   UNL     1      78.306  82.472  72.923  1.00  0.00    -0.550 OA
ENDBRANCH  21  22
ENDBRANCH  20  21
ENDBRANCH  19  20
ENDBRANCH  18  19
ENDBRANCH  17  18
ENDBRANCH  16  17
ENDBRANCH  15  16
ENDBRANCH  14  15
ENDBRANCH  13  14
ENDBRANCH   1  13
TORSDOF 20
ENDMDL
MODEL 5
REMARK VINA RESULT:    -4.075      1.472      2.981
REMARK INTER + INTRA:         -11.472
REMARK INTER:                  -8.457
REMARK INTRA:                  -3.015
REMARK UNBOUND:                -2.632
REMARK SMILES CCCCCCCCCCCCCCCCCCCCCC(=O)[O-]
REMARK SMILES IDX 12 1 11 2 10 3 9 4 8 5 7 6 6 7 5 8 4 9 3 10 2 11 1 12 13 13
REMARK SMILES IDX 14 14 15 15 16 16 17 17 18 18 19 19 20 20 21 21 22 22 23 23
REMARK SMILES IDX 24 24
REMARK H PARENT
REMARK Flexibility Score: inf
ROOT
ATOM      1  C   UNL     1      77.137  78.355  80.028  1.00  0.00     0.000 C 
ENDROOT
BRANCH   1   2
ATOM      2  C   UNL     1      76.206  79.577  80.144  1.00  0.00     0.000 C 
BRANCH   2   3
ATOM      3  C   UNL     1      74.807  79.391  79.535  1.00  0.00     0.000 C 
BRANCH   3   4
ATOM      4  C   UNL     1      74.553  80.172  78.229  1.00  0.00    -0.000 C 
BRANCH   4   5
ATOM      5  C   UNL     1      75.218  81.566  78.193  1.00  0.00    -0.000 C 
BRANCH   5   6
ATOM      6  C   UNL     1      75.897  81.856  76.842  1.00  0.00    -0.000 C 
BRANCH   6   7
ATOM      7  C   UNL     1      75.676  83.300  76.356  1.00  0.00    -0.000 C 
BRANCH   7   8
ATOM      8  C   UNL     1      74.392  83.528  75.533  1.00  0.00    -0.000 C 
BRANCH   8   9
ATOM      9  C   UNL     1      73.912  82.318  74.712  1.00  0.00    -0.000 C 
BRANCH   9  10
ATOM     10  C   UNL     1      72.455  81.931  75.002  1.00  0.00    -0.000 C 
BRANCH  10  11
ATOM     11  C   UNL     1      71.976  82.555  76.318  1.00  0.00    -0.003 C 
ATOM     12  C   UNL     1      70.672  81.918  76.789  1.00  0.00     0.004 C 
ENDBRANCH  10  11
ENDBRANCH   9  10
ENDBRANCH   8   9
ENDBRANCH   7   8
ENDBRANCH   6   7
ENDBRANCH   5   6
ENDBRANCH   4   5
ENDBRANCH   3   4
ENDBRANCH   2   3
ENDBRANCH   1   2
BRANCH   1  13
ATOM     13  C   UNL     1      77.575  78.044  78.582  1.00  0.00     0.000 C 
BRANCH  13  14
ATOM     14  C   UNL     1      78.982  78.575  78.267  1.00  0.00     0.000 C 
BRANCH  14  15
ATOM     15  C   UNL     1      78.907  79.908  77.512  1.00  0.00     0.000 C 
BRANCH  15  16
ATOM     16  C   UNL     1      79.419  81.066  78.383  1.00  0.00     0.000 C 
BRANCH  16  17
ATOM     17  C   UNL     1      80.943  81.243  78.285  1.00  0.00     0.000 C 
BRANCH  17  18
ATOM     18  C   UNL     1      81.483  80.933  76.881  1.00  0.00     0.000 C 
BRANCH  18  19
ATOM     19  C   UNL     1      81.915  82.219  76.161  1.00  0.00     0.000 C 
BRANCH  19  20
ATOM     20  C   UNL     1      80.731  82.983  75.545  1.00  0.00     0.006 C 
BRANCH  20  21
ATOM     21  C   UNL     1      79.893  82.115  74.593  1.00  0.00     0.053 C 
BRANCH  21  22
ATOM     22  C   UNL     1      78.606  82.795  74.240  1.00  0.00     0.041 C 
ATOM     23  O   UNL     1      78.418  83.998  74.561  1.00  0.00    -0.550 OA
ATOM     24  O   UNL     1      77.591  82.087  73.606  1.00  0.00    -0.550 OA
ENDBRANCH  21  22
ENDBRANCH  20  21
ENDBRANCH  19  20
ENDBRANCH  18  19
ENDBRANCH  17  18
ENDBRANCH  16  17
ENDBRANCH  15  16
ENDBRANCH  14  15
ENDBRANCH  13  14
ENDBRANCH   1  13
TORSDOF 20
ENDMDL
MODEL 6
REMARK VINA RESULT:    -4.040      2.086      6.165
REMARK INTER + INTRA:         -11.395
REMARK INTER:                  -7.754
REMARK INTRA:                  -3.641
REMARK UNBOUND:                -2.632
REMARK SMILES CCCCCCCCCCCCCCCCCCCCCC(=O)[O-]
REMARK SMILES IDX 12 1 11 2 10 3 9 4 8 5 7 6 6 7 5 8 4 9 3 10 2 11 1 12 13 13
REMARK SMILES IDX 14 14 15 15 16 16 17 17 18 18 19 19 20 20 21 21 22 22 23 23
REMARK SMILES IDX 24 24
REMARK H PARENT
REMARK Flexibility Score: inf
ROOT
ATOM      1  C   UNL     1      75.032  78.995  76.415  1.00  0.00     0.000 C 
ENDROOT
BRANCH   1   2
ATOM      2  C   UNL     1      76.503  78.592  76.634  1.00  0.00     0.000 C 
BRANCH   2   3
ATOM      3  C   UNL     1      77.528  79.396  75.817  1.00  0.00     0.000 C 
BRANCH   3   4
ATOM      4  C   UNL     1      78.887  79.621  76.511  1.00  0.00    -0.000 C 
BRANCH   4   5
ATOM      5  C   UNL     1      78.848  80.676  77.639  1.00  0.00    -0.000 C 
BRANCH   5   6
ATOM      6  C   UNL     1      80.122  81.538  77.677  1.00  0.00    -0.000 C 
BRANCH   6   7
ATOM      7  C   UNL     1      81.097  81.222  76.528  1.00  0.00    -0.000 C 
BRANCH   7   8
ATOM      8  C   UNL     1      81.053  82.204  75.339  1.00  0.00    -0.000 C 
BRANCH   8   9
ATOM      9  C   UNL     1      80.034  83.349  75.468  1.00  0.00    -0.000 C 
BRANCH   9  10
ATOM     10  C   UNL     1      78.876  83.244  74.463  1.00  0.00    -0.000 C 
BRANCH  10  11
ATOM     11  C   UNL     1      79.177  82.186  73.394  1.00  0.00    -0.003 C 
ATOM     12  C   UNL     1      77.925  81.388  73.040  1.00  0.00     0.004 C 
ENDBRANCH  10  11
ENDBRANCH   9  10
ENDBRANCH   8   9
ENDBRANCH   7   8
ENDBRANCH   6   7
ENDBRANCH   5   6
ENDBRANCH   4   5
ENDBRANCH   3   4
ENDBRANCH   2   3
ENDBRANCH   1   2
BRANCH   1  13
ATOM     13  C   UNL     1      74.338  79.524  77.687  1.00  0.00     0.000 C 
BRANCH  13  14
ATOM     14  C   UNL     1      75.342  79.999  78.749  1.00  0.00     0.000 C 
BRANCH  14  15
ATOM     15  C   UNL     1      75.444  81.529  78.761  1.00  0.00     0.000 C 
BRANCH  15  16
ATOM     16  C   UNL     1      74.796  82.136  77.506  1.00  0.00     0.000 C 
BRANCH  16  17
ATOM     17  C   UNL     1      75.836  82.710  76.529  1.00  0.00     0.000 C 
BRANCH  17  18
ATOM     18  C   UNL     1      75.271  82.894  75.112  1.00  0.00     0.000 C 
BRANCH  18  19
ATOM     19  C   UNL     1      73.972  82.096  74.930  1.00  0.00     0.000 C 
BRANCH  19  20
ATOM     20  C   UNL     1      72.764  82.991  74.606  1.00  0.00     0.006 C 
BRANCH  20  21
ATOM     21  C   UNL     1      71.420  82.314  74.914  1.00  0.00     0.053 C 
BRANCH  21  22
ATOM     22  C   UNL     1      71.279  82.041  76.380  1.00  0.00     0.041 C 
ATOM     23  O   UNL     1      71.374  82.984  77.210  1.00  0.00    -0.550 OA
ATOM     24  O   UNL     1      71.101  80.740  76.836  1.00  0.00    -0.550 OA
ENDBRANCH  21  22
ENDBRANCH  20  21
ENDBRANCH  19  20
ENDBRANCH  18  19
ENDBRANCH  17  18
ENDBRANCH  16  17
ENDBRANCH  15  16
ENDBRANCH  14  15
ENDBRANCH  13  14
ENDBRANCH   1  13
TORSDOF 20
ENDMDL
MODEL 7
REMARK VINA RESULT:    -4.003      2.285      6.060
REMARK INTER + INTRA:         -11.317
REMARK INTER:                  -7.555
REMARK INTRA:                  -3.762
REMARK UNBOUND:                -2.632
REMARK SMILES CCCCCCCCCCCCCCCCCCCCCC(=O)[O-]
REMARK SMILES IDX 12 1 11 2 10 3 9 4 8 5 7 6 6 7 5 8 4 9 3 10 2 11 1 12 13 13
REMARK SMILES IDX 14 14 15 15 16 16 17 17 18 18 19 19 20 20 21 21 22 22 23 23
REMARK SMILES IDX 24 24
REMARK H PARENT
REMARK Flexibility Score: inf
ROOT
ATOM      1  C   UNL     1      79.385  79.891  78.371  1.00  0.00     0.000 C 
ENDROOT
BRANCH   1   2
ATOM      2  C   UNL     1      79.334  81.225  77.600  1.00  0.00     0.000 C 
BRANCH   2   3
ATOM      3  C   UNL     1      80.701  81.784  77.175  1.00  0.00     0.000 C 
BRANCH   3   4
ATOM      4  C   UNL     1      80.784  82.267  75.712  1.00  0.00    -0.000 C 
BRANCH   4   5
ATOM      5  C   UNL     1      80.012  83.578  75.440  1.00  0.00    -0.000 C 
BRANCH   5   6
ATOM      6  C   UNL     1      78.691  83.334  74.688  1.00  0.00    -0.000 C 
BRANCH   6   7
ATOM      7  C   UNL     1      78.743  82.101  73.767  1.00  0.00    -0.000 C 
BRANCH   7   8
ATOM      8  C   UNL     1      77.726  80.990  74.098  1.00  0.00    -0.000 C 
BRANCH   8   9
ATOM      9  C   UNL     1      78.170  79.562  73.735  1.00  0.00    -0.000 C 
BRANCH   9  10
ATOM     10  C   UNL     1      79.696  79.386  73.735  1.00  0.00    -0.000 C 
BRANCH  10  11
ATOM     11  C   UNL     1      80.159  78.643  74.994  1.00  0.00    -0.003 C 
ATOM     12  C   UNL     1      79.112  77.634  75.456  1.00  0.00     0.004 C 
ENDBRANCH  10  11
ENDBRANCH   9  10
ENDBRANCH   8   9
ENDBRANCH   7   8
ENDBRANCH   6   7
ENDBRANCH   5   6
ENDBRANCH   4   5
ENDBRANCH   3   4
ENDBRANCH   2   3
ENDBRANCH   1   2
BRANCH   1  13
ATOM     13  C   UNL     1      78.002  79.392  78.838  1.00  0.00     0.000 C 
BRANCH  13  14
ATOM     14  C   UNL     1      76.851  80.011  78.031  1.00  0.00     0.000 C 
BRANCH  14  15
ATOM     15  C   UNL     1      75.878  80.758  78.950  1.00  0.00     0.000 C 
BRANCH  15  16
ATOM     16  C   UNL     1      75.408  82.073  78.308  1.00  0.00     0.000 C 
BRANCH  16  17
ATOM     17  C   UNL     1      75.935  82.246  76.874  1.00  0.00     0.000 C 
BRANCH  17  18
ATOM     18  C   UNL     1      75.385  83.509  76.194  1.00  0.00     0.000 C 
BRANCH  18  19
ATOM     19  C   UNL     1      74.809  83.180  74.808  1.00  0.00     0.000 C 
BRANCH  19  20
ATOM     20  C   UNL     1      73.727  82.089  74.858  1.00  0.00     0.006 C 
BRANCH  20  21
ATOM     21  C   UNL     1      72.353  82.630  75.283  1.00  0.00     0.053 C 
BRANCH  21  22
ATOM     22  C   UNL     1      71.997  82.166  76.661  1.00  0.00     0.041 C 
ATOM     23  O   UNL     1      71.401  82.942  77.456  1.00  0.00    -0.550 OA
ATOM     24  O   UNL     1      72.371  80.898  77.092  1.00  0.00    -0.550 OA
ENDBRANCH  21  22
ENDBRANCH  20  21
ENDBRANCH  19  20
ENDBRANCH  18  19
ENDBRANCH  17  18
ENDBRANCH  16  17
ENDBRANCH  15  16
ENDBRANCH  14  15
ENDBRANCH  13  14
ENDBRANCH   1  13
TORSDOF 20
ENDMDL
MODEL 8
REMARK VINA RESULT:    -3.980      2.325      6.253
REMARK INTER + INTRA:         -11.266
REMARK INTER:                  -7.101
REMARK INTRA:                  -4.165
REMARK UNBOUND:                -2.632
REMARK SMILES CCCCCCCCCCCCCCCCCCCCCC(=O)[O-]
REMARK SMILES IDX 12 1 11 2 10 3 9 4 8 5 7 6 6 7 5 8 4 9 3 10 2 11 1 12 13 13
REMARK SMILES IDX 14 14 15 15 16 16 17 17 18 18 19 19 20 20 21 21 22 22 23 23
REMARK SMILES IDX 24 24
REMARK H PARENT
REMARK Flexibility Score: inf
ROOT
ATOM      1  C   UNL     1      80.157  81.352  77.625  1.00  0.00     0.000 C 
ENDROOT
BRANCH   1   2
ATOM      2  C   UNL     1      81.070  81.419  76.385  1.00  0.00     0.000 C 
BRANCH   2   3
ATOM      3  C   UNL     1      81.085  82.775  75.659  1.00  0.00     0.000 C 
BRANCH   3   4
ATOM      4  C   UNL     1      79.706  83.450  75.507  1.00  0.00    -0.000 C 
BRANCH   4   5
ATOM      5  C   UNL     1      78.886  82.936  74.303  1.00  0.00    -0.000 C 
BRANCH   5   6
ATOM      6  C   UNL     1      77.405  82.711  74.656  1.00  0.00    -0.000 C 
BRANCH   6   7
ATOM      7  C   UNL     1      77.017  81.222  74.702  1.00  0.00    -0.000 C 
BRANCH   7   8
ATOM      8  C   UNL     1      77.696  80.332  73.642  1.00  0.00    -0.000 C 
BRANCH   8   9
ATOM      9  C   UNL     1      78.485  79.133  74.196  1.00  0.00    -0.000 C 
BRANCH   9  10
ATOM     10  C   UNL     1      79.986  79.197  73.876  1.00  0.00    -0.000 C 
BRANCH  10  11
ATOM     11  C   UNL     1      80.218  79.707  72.449  1.00  0.00    -0.003 C 
ATOM     12  C   UNL     1      81.213  80.863  72.430  1.00  0.00     0.004 C 
ENDBRANCH  10  11
ENDBRANCH   9  10
ENDBRANCH   8   9
ENDBRANCH   7   8
ENDBRANCH   6   7
ENDBRANCH   5   6
ENDBRANCH   4   5
ENDBRANCH   3   4
ENDBRANCH   2   3
ENDBRANCH   1   2
BRANCH   1  13
ATOM     13  C   UNL     1      79.335  80.050  77.719  1.00  0.00     0.000 C 
BRANCH  13  14
ATOM     14  C   UNL     1      77.892  80.301  78.186  1.00  0.00     0.000 C 
BRANCH  14  15
ATOM     15  C   UNL     1      77.626  81.801  78.360  1.00  0.00     0.000 C 
BRANCH  15  16
ATOM     16  C   UNL     1      76.142  82.130  78.135  1.00  0.00     0.000 C 
BRANCH  16  17
ATOM     17  C   UNL     1      75.274  80.867  78.013  1.00  0.00     0.000 C 
BRANCH  17  18
ATOM     18  C   UNL     1      74.065  81.072  77.087  1.00  0.00     0.000 C 
BRANCH  18  19
ATOM     19  C   UNL     1      73.872  82.559  76.756  1.00  0.00     0.000 C 
BRANCH  19  20
ATOM     20  C   UNL     1      73.678  82.813  75.252  1.00  0.00     0.006 C 
BRANCH  20  21
ATOM     21  C   UNL     1      72.817  81.738  74.571  1.00  0.00     0.053 C 
BRANCH  21  22
ATOM     22  C   UNL     1      71.411  82.216  74.383  1.00  0.00     0.041 C 
ATOM     23  O   UNL     1      71.129  82.992  73.432  1.00  0.00    -0.550 OA
ATOM     24  O   UNL     1      70.421  81.853  75.289  1.00  0.00    -0.550 OA
ENDBRANCH  21  22
ENDBRANCH  20  21
ENDBRANCH  19  20
ENDBRANCH  18  19
ENDBRANCH  17  18
ENDBRANCH  16  17
ENDBRANCH  15  16
ENDBRANCH  14  15
ENDBRANCH  13  14
ENDBRANCH   1  13
TORSDOF 20
ENDMDL
MODEL 9
REMARK VINA RESULT:    -3.968      1.907      6.569
REMARK INTER + INTRA:         -11.239
REMARK INTER:                  -7.515
REMARK INTRA:                  -3.724
REMARK UNBOUND:                -2.632
REMARK SMILES CCCCCCCCCCCCCCCCCCCCCC(=O)[O-]
REMARK SMILES IDX 12 1 11 2 10 3 9 4 8 5 7 6 6 7 5 8 4 9 3 10 2 11 1 12 13 13
REMARK SMILES IDX 14 14 15 15 16 16 17 17 18 18 19 19 20 20 21 21 22 22 23 23
REMARK SMILES IDX 24 24
REMARK H PARENT
REMARK Flexibility Score: inf
ROOT
ATOM      1  C   UNL     1      78.040  77.397  80.487  1.00  0.00     0.000 C 
ENDROOT
BRANCH   1   2
ATOM      2  C   UNL     1      77.710  77.312  78.984  1.00  0.00     0.000 C 
BRANCH   2   3
ATOM      3  C   UNL     1      78.340  78.414  78.116  1.00  0.00     0.000 C 
BRANCH   3   4
ATOM      4  C   UNL     1      78.757  79.689  78.878  1.00  0.00    -0.000 C 
BRANCH   4   5
ATOM      5  C   UNL     1      78.825  80.954  77.992  1.00  0.00    -0.000 C 
BRANCH   5   6
ATOM      6  C   UNL     1      79.600  80.711  76.684  1.00  0.00    -0.000 C 
BRANCH   6   7
ATOM      7  C   UNL     1      80.445  81.923  76.253  1.00  0.00    -0.000 C 
BRANCH   7   8
ATOM      8  C   UNL     1      81.851  82.003  76.883  1.00  0.00    -0.000 C 
BRANCH   8   9
ATOM      9  C   UNL     1      82.413  80.671  77.410  1.00  0.00    -0.000 C 
BRANCH   9  10
ATOM     10  C   UNL     1      82.788  80.720  78.898  1.00  0.00    -0.000 C 
BRANCH  10  11
ATOM     11  C   UNL     1      82.224  79.505  79.643  1.00  0.00    -0.003 C 
ATOM     12  C   UNL     1      82.097  78.299  78.717  1.00  0.00     0.004 C 
ENDBRANCH  10  11
ENDBRANCH   9  10
ENDBRANCH   8   9
ENDBRANCH   7   8
ENDBRANCH   6   7
ENDBRANCH   5   6
ENDBRANCH   4   5
ENDBRANCH   3   4
ENDBRANCH   2   3
ENDBRANCH   1   2
BRANCH   1  13
ATOM     13  C   UNL     1      76.797  77.550  81.387  1.00  0.00     0.000 C 
BRANCH  13  14
ATOM     14  C   UNL     1      75.582  78.094  80.621  1.00  0.00     0.000 C 
BRANCH  14  15
ATOM     15  C   UNL     1      75.309  79.556  80.994  1.00  0.00     0.000 C 
BRANCH  15  16
ATOM     16  C   UNL     1      75.588  80.491  79.807  1.00  0.00     0.000 C 
BRANCH  16  17
ATOM     17  C   UNL     1      74.879  80.034  78.521  1.00  0.00     0.000 C 
BRANCH  17  18
ATOM     18  C   UNL     1      74.984  81.070  77.392  1.00  0.00     0.000 C 
BRANCH  18  19
ATOM     19  C   UNL     1      75.652  80.463  76.149  1.00  0.00     0.000 C 
BRANCH  19  20
ATOM     20  C   UNL     1      76.254  81.527  75.217  1.00  0.00     0.006 C 
BRANCH  20  21
ATOM     21  C   UNL     1      76.644  82.816  75.957  1.00  0.00     0.053 C 
BRANCH  21  22
ATOM     22  C   UNL     1      77.061  83.884  74.993  1.00  0.00     0.041 C 
ATOM     23  O   UNL     1      78.073  83.716  74.263  1.00  0.00    -0.550 OA
ATOM     24  O   UNL     1      76.367  85.088  74.940  1.00  0.00    -0.550 OA
ENDBRANCH  21  22
ENDBRANCH  20  21
ENDBRANCH  19  20
ENDBRANCH  18  19
ENDBRANCH  17  18
ENDBRANCH  16  17
ENDBRANCH  15  16
ENDBRANCH  14  15
ENDBRANCH  13  14
ENDBRANCH   1  13
TORSDOF 20
ENDMDL
