MODEL 1
REMARK VINA RESULT:    -3.762      0.000      0.000
REMARK INTER + INTRA:          -5.648
REMARK INTER:                  -5.082
REMARK INTRA:                  -0.566
REMARK UNBOUND:                -0.566
REMARK SMILES [NH3+]CCCC[C@@H]([NH3+])C(=O)[O-]
REMARK SMILES IDX 4 1 3 2 2 3 1 4 5 8 6 9 7 10 8 14 9 15 10 16
REMARK H PARENT 1 5 1 6 1 7 7 11 7 12 7 13
REMARK Flexibility Score: inf
ROOT
ATOM      1  C   UNL     1     -26.008  87.831  86.912  1.00  0.00     0.012 C 
ENDROOT
BRANCH   1   2
ATOM      2  C   UNL     1     -24.976  87.428  85.850  1.00  0.00     0.061 C 
BRANCH   2   3
ATOM      3  C   UNL     1     -23.551  87.880  86.209  1.00  0.00     0.258 C 
BRANCH   3   4
ATOM      4  N   UNL     1     -23.146  89.074  85.465  1.00  0.00    -0.358 N 
ATOM      5  H   UNL     1     -23.967  89.495  84.977  1.00  0.00     0.344 HD
ATOM      6  H   UNL     1     -22.440  88.802  84.743  1.00  0.00     0.344 HD
ATOM      7  H   UNL     1     -22.713  89.777  86.108  1.00  0.00     0.344 HD
ENDBRANCH   3   4
ENDBRANCH   2   3
ENDBRANCH   1   2
BRANCH   1   8
ATOM      8  C   UNL     1     -26.979  88.888  86.358  1.00  0.00     0.072 C 
BRANCH   8   9
ATOM      9  C   UNL     1     -26.594  90.347  86.699  1.00  0.00     0.227 C 
BRANCH   9  10
ATOM     10  N   UNL     1     -25.644  90.422  87.819  1.00  0.00    -0.350 N 
ATOM     11  H   UNL     1     -25.874  91.211  88.464  1.00  0.00     0.345 HD
ATOM     12  H   UNL     1     -25.675  89.528  88.361  1.00  0.00     0.345 HD
ATOM     13  H   UNL     1     -24.672  90.548  87.453  1.00  0.00     0.345 HD
ENDBRANCH   9  10
BRANCH   9  14
ATOM     14  C   UNL     1     -26.082  91.083  85.486  1.00  0.00     0.099 C 
ATOM     15  O   UNL     1     -25.913  92.332  85.510  1.00  0.00    -0.544 OA
ATOM     16  O   UNL     1     -25.745  90.371  84.342  1.00  0.00    -0.544 OA
ENDBRANCH   9  14
ENDBRANCH   8   9
ENDBRANCH   1   8
TORSDOF 7
ENDMDL
MODEL 2
REMARK VINA RESULT:    -3.740     11.098     12.136
REMARK INTER + INTRA:          -5.618
REMARK INTER:                  -5.100
REMARK INTRA:                  -0.518
REMARK UNBOUND:                -0.566
REMARK SMILES [NH3+]CCCC[C@@H]([NH3+])C(=O)[O-]
REMARK SMILES IDX 4 1 3 2 2 3 1 4 5 8 6 9 7 10 8 14 9 15 10 16
REMARK H PARENT 1 5 1 6 1 7 7 11 7 12 7 13
REMARK Flexibility Score: inf
ROOT
ATOM      1  C   UNL     1     -25.993  86.327  74.645  1.00  0.00     0.012 C 
ENDROOT
BRANCH   1   2
ATOM      2  C   UNL     1     -24.960  86.667  75.728  1.00  0.00     0.061 C 
BRANCH   2   3
ATOM      3  C   UNL     1     -23.559  86.128  75.400  1.00  0.00     0.258 C 
BRANCH   3   4
ATOM      4  N   UNL     1     -23.262  84.885  76.115  1.00  0.00    -0.358 N 
ATOM      5  H   UNL     1     -23.676  84.068  75.613  1.00  0.00     0.344 HD
ATOM      6  H   UNL     1     -23.689  84.932  77.069  1.00  0.00     0.344 HD
ATOM      7  H   UNL     1     -22.229  84.758  76.216  1.00  0.00     0.344 HD
ENDBRANCH   3   4
ENDBRANCH   2   3
ENDBRANCH   1   2
BRANCH   1   8
ATOM      8  C   UNL     1     -27.055  85.354  75.189  1.00  0.00     0.072 C 
BRANCH   8   9
ATOM      9  C   UNL     1     -26.749  83.862  74.920  1.00  0.00     0.227 C 
BRANCH   9  10
ATOM     10  N   UNL     1     -25.832  83.680  73.786  1.00  0.00    -0.350 N 
ATOM     11  H   UNL     1     -25.671  82.668  73.581  1.00  0.00     0.345 HD
ATOM     12  H   UNL     1     -26.238  84.132  72.934  1.00  0.00     0.345 HD
ATOM     13  H   UNL     1     -24.915  84.139  73.992  1.00  0.00     0.345 HD
ENDBRANCH   9  10
BRANCH   9  14
ATOM     14  C   UNL     1     -26.243  83.168  76.160  1.00  0.00     0.099 C 
ATOM     15  O   UNL     1     -26.065  83.806  77.233  1.00  0.00    -0.544 OA
ATOM     16  O   UNL     1     -26.015  81.798  76.136  1.00  0.00    -0.544 OA
ENDBRANCH   9  14
ENDBRANCH   8   9
ENDBRANCH   1   8
TORSDOF 7
ENDMDL
MODEL 3
REMARK VINA RESULT:    -3.648     11.691     12.643
REMARK INTER + INTRA:          -5.494
REMARK INTER:                  -5.389
REMARK INTRA:                  -0.105
REMARK UNBOUND:                -0.566
REMARK SMILES [NH3+]CCCC[C@@H]([NH3+])C(=O)[O-]
REMARK SMILES IDX 4 1 3 2 2 3 1 4 5 8 6 9 7 10 8 14 9 15 10 16
REMARK H PARENT 1 5 1 6 1 7 7 11 7 12 7 13
REMARK Flexibility Score: inf
ROOT
ATOM      1  C   UNL     1     -26.600  83.392  75.042  1.00  0.00     0.012 C 
ENDROOT
BRANCH   1   2
ATOM      2  C   UNL     1     -26.777  82.458  73.836  1.00  0.00     0.061 C 
BRANCH   2   3
ATOM      3  C   UNL     1     -25.688  82.656  72.770  1.00  0.00     0.258 C 
BRANCH   3   4
ATOM      4  N   UNL     1     -25.455  81.443  71.984  1.00  0.00    -0.358 N 
ATOM      5  H   UNL     1     -24.493  81.075  72.158  1.00  0.00     0.344 HD
ATOM      6  H   UNL     1     -25.538  81.674  70.968  1.00  0.00     0.344 HD
ATOM      7  H   UNL     1     -26.166  80.712  72.221  1.00  0.00     0.344 HD
ENDBRANCH   3   4
ENDBRANCH   2   3
ENDBRANCH   1   2
BRANCH   1   8
ATOM      8  C   UNL     1     -25.590  84.509  74.725  1.00  0.00     0.072 C 
BRANCH   8   9
ATOM      9  C   UNL     1     -24.896  85.111  75.970  1.00  0.00     0.227 C 
BRANCH   9  10
ATOM     10  N   UNL     1     -23.718  84.331  76.378  1.00  0.00    -0.350 N 
ATOM     11  H   UNL     1     -23.892  83.814  77.269  1.00  0.00     0.345 HD
ATOM     12  H   UNL     1     -23.484  83.638  75.631  1.00  0.00     0.345 HD
ATOM     13  H   UNL     1     -22.897  84.966  76.503  1.00  0.00     0.345 HD
ENDBRANCH   9  10
BRANCH   9  14
ATOM     14  C   UNL     1     -24.554  86.565  75.765  1.00  0.00     0.099 C 
ATOM     15  O   UNL     1     -23.532  86.905  75.110  1.00  0.00    -0.544 OA
ATOM     16  O   UNL     1     -25.402  87.547  76.262  1.00  0.00    -0.544 OA
ENDBRANCH   9  14
ENDBRANCH   8   9
ENDBRANCH   1   8
TORSDOF 7
ENDMDL
MODEL 4
REMARK VINA RESULT:    -3.599      2.294      3.935
REMARK INTER + INTRA:          -5.428
REMARK INTER:                  -5.144
REMARK INTRA:                  -0.284
REMARK UNBOUND:                -0.566
REMARK SMILES [NH3+]CCCC[C@@H]([NH3+])C(=O)[O-]
REMARK SMILES IDX 4 1 3 2 2 3 1 4 5 8 6 9 7 10 8 14 9 15 10 16
REMARK H PARENT 1 5 1 6 1 7 7 11 7 12 7 13
REMARK Flexibility Score: inf
ROOT
ATOM      1  C   UNL     1     -26.009  91.464  86.020  1.00  0.00     0.012 C 
ENDROOT
BRANCH   1   2
ATOM      2  C   UNL     1     -26.596  91.596  87.433  1.00  0.00     0.061 C 
BRANCH   2   3
ATOM      3  C   UNL     1     -25.587  91.221  88.530  1.00  0.00     0.258 C 
BRANCH   3   4
ATOM      4  N   UNL     1     -25.053  92.399  89.217  1.00  0.00    -0.358 N 
ATOM      5  H   UNL     1     -24.380  92.112  89.961  1.00  0.00     0.344 HD
ATOM      6  H   UNL     1     -25.842  92.915  89.670  1.00  0.00     0.344 HD
ATOM      7  H   UNL     1     -24.583  93.038  88.534  1.00  0.00     0.344 HD
ENDBRANCH   3   4
ENDBRANCH   2   3
ENDBRANCH   1   2
BRANCH   1   8
ATOM      8  C   UNL     1     -26.339  90.087  85.417  1.00  0.00     0.072 C 
BRANCH   8   9
ATOM      9  C   UNL     1     -25.113  89.163  85.232  1.00  0.00     0.227 C 
BRANCH   9  10
ATOM     10  N   UNL     1     -23.856  89.921  85.141  1.00  0.00    -0.350 N 
ATOM     11  H   UNL     1     -23.594  90.339  86.062  1.00  0.00     0.345 HD
ATOM     12  H   UNL     1     -23.087  89.283  84.834  1.00  0.00     0.345 HD
ATOM     13  H   UNL     1     -23.951  90.683  84.432  1.00  0.00     0.345 HD
ENDBRANCH   9  10
BRANCH   9  14
ATOM     14  C   UNL     1     -25.048  88.107  86.306  1.00  0.00     0.099 C 
ATOM     15  O   UNL     1     -26.035  87.886  87.059  1.00  0.00    -0.544 OA
ATOM     16  O   UNL     1     -23.903  87.332  86.440  1.00  0.00    -0.544 OA
ENDBRANCH   9  14
ENDBRANCH   8   9
ENDBRANCH   1   8
TORSDOF 7
ENDMDL
MODEL 5
REMARK VINA RESULT:    -3.589      2.879      4.382
REMARK INTER + INTRA:          -5.413
REMARK INTER:                  -5.292
REMARK INTRA:                  -0.121
REMARK UNBOUND:                -0.566
REMARK SMILES [NH3+]CCCC[C@@H]([NH3+])C(=O)[O-]
REMARK SMILES IDX 4 1 3 2 2 3 1 4 5 8 6 9 7 10 8 14 9 15 10 16
REMARK H PARENT 1 5 1 6 1 7 7 11 7 12 7 13
REMARK Flexibility Score: inf
ROOT
ATOM      1  C   UNL     1     -26.963  89.197  86.561  1.00  0.00     0.012 C 
ENDROOT
BRANCH   1   2
ATOM      2  C   UNL     1     -25.941  90.339  86.647  1.00  0.00     0.061 C 
BRANCH   2   3
ATOM      3  C   UNL     1     -26.466  91.545  87.443  1.00  0.00     0.258 C 
BRANCH   3   4
ATOM      4  N   UNL     1     -25.497  92.020  88.432  1.00  0.00    -0.358 N 
ATOM      5  H   UNL     1     -24.828  92.691  87.993  1.00  0.00     0.344 HD
ATOM      6  H   UNL     1     -24.951  91.203  88.793  1.00  0.00     0.344 HD
ATOM      7  H   UNL     1     -25.987  92.476  89.235  1.00  0.00     0.344 HD
ENDBRANCH   3   4
ENDBRANCH   2   3
ENDBRANCH   1   2
BRANCH   1   8
ATOM      8  C   UNL     1     -26.293  87.840  86.845  1.00  0.00     0.072 C 
BRANCH   8   9
ATOM      9  C   UNL     1     -25.515  87.251  85.644  1.00  0.00     0.227 C 
BRANCH   9  10
ATOM     10  N   UNL     1     -24.138  86.884  86.004  1.00  0.00    -0.350 N 
ATOM     11  H   UNL     1     -23.544  86.748  85.155  1.00  0.00     0.345 HD
ATOM     12  H   UNL     1     -23.716  87.644  86.587  1.00  0.00     0.345 HD
ATOM     13  H   UNL     1     -24.139  86.003  86.567  1.00  0.00     0.345 HD
ENDBRANCH   9  10
BRANCH   9  14
ATOM     14  C   UNL     1     -26.253  86.094  85.020  1.00  0.00     0.099 C 
ATOM     15  O   UNL     1     -25.630  85.177  84.418  1.00  0.00    -0.544 OA
ATOM     16  O   UNL     1     -27.633  86.008  85.150  1.00  0.00    -0.544 OA
ENDBRANCH   9  14
ENDBRANCH   8   9
ENDBRANCH   1   8
TORSDOF 7
ENDMDL
MODEL 6
REMARK VINA RESULT:    -3.486     10.829     11.665
REMARK INTER + INTRA:          -5.275
REMARK INTER:                  -4.810
REMARK INTRA:                  -0.466
REMARK UNBOUND:                -0.566
REMARK SMILES [NH3+]CCCC[C@@H]([NH3+])C(=O)[O-]
REMARK SMILES IDX 4 1 3 2 2 3 1 4 5 8 6 9 7 10 8 14 9 15 10 16
REMARK H PARENT 1 5 1 6 1 7 7 11 7 12 7 13
REMARK Flexibility Score: inf
ROOT
ATOM      1  C   UNL     1     -27.850  85.152  75.267  1.00  0.00     0.012 C 
ENDROOT
BRANCH   1   2
ATOM      2  C   UNL     1     -27.887  83.672  75.674  1.00  0.00     0.061 C 
BRANCH   2   3
ATOM      3  C   UNL     1     -27.031  82.784  74.756  1.00  0.00     0.258 C 
BRANCH   3   4
ATOM      4  N   UNL     1     -25.852  82.253  75.443  1.00  0.00    -0.358 N 
ATOM      5  H   UNL     1     -25.217  83.030  75.732  1.00  0.00     0.344 HD
ATOM      6  H   UNL     1     -25.328  81.629  74.787  1.00  0.00     0.344 HD
ATOM      7  H   UNL     1     -26.137  81.694  76.281  1.00  0.00     0.344 HD
ENDBRANCH   3   4
ENDBRANCH   2   3
ENDBRANCH   1   2
BRANCH   1   8
ATOM      8  C   UNL     1     -26.949  85.959  76.218  1.00  0.00     0.072 C 
BRANCH   8   9
ATOM      9  C   UNL     1     -25.836  86.766  75.509  1.00  0.00     0.227 C 
BRANCH   9  10
ATOM     10  N   UNL     1     -25.754  88.148  76.005  1.00  0.00    -0.350 N 
ATOM     11  H   UNL     1     -25.323  88.784  75.296  1.00  0.00     0.345 HD
ATOM     12  H   UNL     1     -26.715  88.497  76.225  1.00  0.00     0.345 HD
ATOM     13  H   UNL     1     -25.187  88.178  76.883  1.00  0.00     0.345 HD
ENDBRANCH   9  10
BRANCH   9  14
ATOM     14  C   UNL     1     -24.503  86.066  75.594  1.00  0.00     0.099 C 
ATOM     15  O   UNL     1     -23.447  86.635  75.207  1.00  0.00    -0.544 OA
ATOM     16  O   UNL     1     -24.428  84.795  76.149  1.00  0.00    -0.544 OA
ENDBRANCH   9  14
ENDBRANCH   8   9
ENDBRANCH   1   8
TORSDOF 7
ENDMDL
MODEL 7
REMARK VINA RESULT:    -3.486      2.277      3.785
REMARK INTER + INTRA:          -5.274
REMARK INTER:                  -4.824
REMARK INTRA:                  -0.450
REMARK UNBOUND:                -0.566
REMARK SMILES [NH3+]CCCC[C@@H]([NH3+])C(=O)[O-]
REMARK SMILES IDX 4 1 3 2 2 3 1 4 5 8 6 9 7 10 8 14 9 15 10 16
REMARK H PARENT 1 5 1 6 1 7 7 11 7 12 7 13
REMARK Flexibility Score: inf
ROOT
ATOM      1  C   UNL     1     -27.780  89.172  86.263  1.00  0.00     0.012 C 
ENDROOT
BRANCH   1   2
ATOM      2  C   UNL     1     -27.721  90.659  85.889  1.00  0.00     0.061 C 
BRANCH   2   3
ATOM      3  C   UNL     1     -26.998  91.508  86.947  1.00  0.00     0.258 C 
BRANCH   3   4
ATOM      4  N   UNL     1     -25.602  91.767  86.589  1.00  0.00    -0.358 N 
ATOM      5  H   UNL     1     -25.070  90.870  86.523  1.00  0.00     0.344 HD
ATOM      6  H   UNL     1     -25.162  92.353  87.336  1.00  0.00     0.344 HD
ATOM      7  H   UNL     1     -25.546  92.283  85.681  1.00  0.00     0.344 HD
ENDBRANCH   3   4
ENDBRANCH   2   3
ENDBRANCH   1   2
BRANCH   1   8
ATOM      8  C   UNL     1     -26.917  88.332  85.305  1.00  0.00     0.072 C 
BRANCH   8   9
ATOM      9  C   UNL     1     -25.889  87.416  86.010  1.00  0.00     0.227 C 
BRANCH   9  10
ATOM     10  N   UNL     1     -25.933  86.038  85.499  1.00  0.00    -0.350 N 
ATOM     11  H   UNL     1     -25.344  85.928  84.643  1.00  0.00     0.345 HD
ATOM     12  H   UNL     1     -25.578  85.383  86.234  1.00  0.00     0.345 HD
ATOM     13  H   UNL     1     -26.919  85.773  85.275  1.00  0.00     0.345 HD
ENDBRANCH   9  10
BRANCH   9  14
ATOM     14  C   UNL     1     -24.496  87.990  85.941  1.00  0.00     0.099 C 
ATOM     15  O   UNL     1     -24.304  89.184  85.586  1.00  0.00    -0.544 OA
ATOM     16  O   UNL     1     -23.411  87.209  86.319  1.00  0.00    -0.544 OA
ENDBRANCH   9  14
ENDBRANCH   8   9
ENDBRANCH   1   8
TORSDOF 7
ENDMDL
MODEL 8
REMARK VINA RESULT:    -3.457      1.897      2.297
REMARK INTER + INTRA:          -5.236
REMARK INTER:                  -4.727
REMARK INTRA:                  -0.509
REMARK UNBOUND:                -0.566
REMARK SMILES [NH3+]CCCC[C@@H]([NH3+])C(=O)[O-]
REMARK SMILES IDX 4 1 3 2 2 3 1 4 5 8 6 9 7 10 8 14 9 15 10 16
REMARK H PARENT 1 5 1 6 1 7 7 11 7 12 7 13
REMARK Flexibility Score: inf
ROOT
ATOM      1  C   UNL     1     -27.762  88.110  85.350  1.00  0.00     0.012 C 
ENDROOT
BRANCH   1   2
ATOM      2  C   UNL     1     -27.549  86.597  85.197  1.00  0.00     0.061 C 
BRANCH   2   3
ATOM      3  C   UNL     1     -26.316  86.257  84.343  1.00  0.00     0.258 C 
BRANCH   3   4
ATOM      4  N   UNL     1     -25.125  86.023  85.161  1.00  0.00    -0.358 N 
ATOM      5  H   UNL     1     -24.325  86.597  84.812  1.00  0.00     0.344 HD
ATOM      6  H   UNL     1     -24.858  85.014  85.092  1.00  0.00     0.344 HD
ATOM      7  H   UNL     1     -25.318  86.250  86.164  1.00  0.00     0.344 HD
ENDBRANCH   3   4
ENDBRANCH   2   3
ENDBRANCH   1   2
BRANCH   1   8
ATOM      8  C   UNL     1     -27.103  88.627  86.641  1.00  0.00     0.072 C 
BRANCH   8   9
ATOM      9  C   UNL     1     -26.318  89.949  86.469  1.00  0.00     0.227 C 
BRANCH   9  10
ATOM     10  N   UNL     1     -25.689  90.387  87.723  1.00  0.00    -0.350 N 
ATOM     11  H   UNL     1     -26.397  90.748  88.402  1.00  0.00     0.345 HD
ATOM     12  H   UNL     1     -25.188  89.580  88.162  1.00  0.00     0.345 HD
ATOM     13  H   UNL     1     -24.987  91.138  87.527  1.00  0.00     0.345 HD
ENDBRANCH   9  10
BRANCH   9  14
ATOM     14  C   UNL     1     -25.315  89.857  85.347  1.00  0.00     0.099 C 
ATOM     15  O   UNL     1     -25.358  90.654  84.371  1.00  0.00    -0.544 OA
ATOM     16  O   UNL     1     -24.298  88.912  85.411  1.00  0.00    -0.544 OA
ENDBRANCH   9  14
ENDBRANCH   8   9
ENDBRANCH   1   8
TORSDOF 7
ENDMDL
MODEL 9
REMARK VINA RESULT:    -3.401      6.387      7.864
REMARK INTER + INTRA:          -5.160
REMARK INTER:                  -4.662
REMARK INTRA:                  -0.498
REMARK UNBOUND:                -0.566
REMARK SMILES [NH3+]CCCC[C@@H]([NH3+])C(=O)[O-]
REMARK SMILES IDX 4 1 3 2 2 3 1 4 5 8 6 9 7 10 8 14 9 15 10 16
REMARK H PARENT 1 5 1 6 1 7 7 11 7 12 7 13
REMARK Flexibility Score: inf
ROOT
ATOM      1  C   UNL     1     -23.598  95.340  81.812  1.00  0.00     0.012 C 
ENDROOT
BRANCH   1   2
ATOM      2  C   UNL     1     -22.733  94.670  82.889  1.00  0.00     0.061 C 
BRANCH   2   3
ATOM      3  C   UNL     1     -23.245  93.273  83.274  1.00  0.00     0.258 C 
BRANCH   3   4
ATOM      4  N   UNL     1     -22.324  92.212  82.861  1.00  0.00    -0.358 N 
ATOM      5  H   UNL     1     -21.749  91.892  83.673  1.00  0.00     0.344 HD
ATOM      6  H   UNL     1     -21.677  92.589  82.130  1.00  0.00     0.344 HD
ATOM      7  H   UNL     1     -22.853  91.405  82.456  1.00  0.00     0.344 HD
ENDBRANCH   3   4
ENDBRANCH   2   3
ENDBRANCH   1   2
BRANCH   1   8
ATOM      8  C   UNL     1     -22.868  95.358  80.457  1.00  0.00     0.072 C 
BRANCH   8   9
ATOM      9  C   UNL     1     -23.698  94.793  79.279  1.00  0.00     0.227 C 
BRANCH   9  10
ATOM     10  N   UNL     1     -22.943  94.798  78.018  1.00  0.00    -0.350 N 
ATOM     11  H   UNL     1     -21.978  94.417  78.146  1.00  0.00     0.345 HD
ATOM     12  H   UNL     1     -23.442  94.209  77.311  1.00  0.00     0.345 HD
ATOM     13  H   UNL     1     -22.881  95.773  77.644  1.00  0.00     0.345 HD
ENDBRANCH   9  10
BRANCH   9  14
ATOM     14  C   UNL     1     -24.245  93.424  79.594  1.00  0.00     0.099 C 
ATOM     15  O   UNL     1     -25.486  93.202  79.577  1.00  0.00    -0.544 OA
ATOM     16  O   UNL     1     -23.370  92.377  79.857  1.00  0.00    -0.544 OA
ENDBRANCH   9  14
ENDBRANCH   8   9
ENDBRANCH   1   8
TORSDOF 7
ENDMDL
