MODEL 1
REMARK VINA RESULT:    -3.478      0.000      0.000
REMARK INTER + INTRA:          -5.578
REMARK INTER:                  -5.308
REMARK INTRA:                  -0.270
REMARK UNBOUND:                -0.270
REMARK SMILES CC1=CCC[C@H](C)C(=O)C[C@H](C(C)C)C(=O)C1
REMARK SMILES IDX 8 1 9 2 6 3 7 4 5 5 4 6 3 7 2 8 1 9 10 11 11 12 15 13 16 14
REMARK SMILES IDX 17 15 12 17 13 18 14 19
REMARK H PARENT
REMARK Flexibility Score: 70.00
ROOT
ATOM      1  C   UNL     1      50.569  24.729  21.023  1.00  0.00     0.136 C 
ATOM      2  O   UNL     1      51.624  24.303  21.469  1.00  0.00    -0.299 OA
ENDROOT
BRANCH   1   3
ATOM      3  C   UNL     1      49.968  24.108  19.771  1.00  0.00     0.053 C 
ATOM      4  C   UNL     1      50.910  24.286  18.571  1.00  0.00     0.016 C 
BRANCH   3   5
ATOM      5  C   UNL     1      49.646  22.611  20.000  1.00  0.00     0.015 C 
BRANCH   5   6
ATOM      6  C   UNL     1      48.783  22.382  21.259  1.00  0.00     0.028 C 
BRANCH   6   7
ATOM      7  C   UNL     1      47.321  22.621  20.974  1.00  0.00    -0.028 C 
ATOM      8  C   UNL     1      46.605  23.668  21.448  1.00  0.00    -0.070 CG0
ATOM      9  C   UNL     1      45.137  23.732  21.111  1.00  0.00     0.039 C 
ATOM     10  G   UNL     1      47.217  24.772  22.299  1.00  0.00     0.000 G0
ENDBRANCH   6   7
ENDBRANCH   5   6
ENDBRANCH   3   5
ENDBRANCH   1   3
BRANCH   1  11
ATOM     11  C   UNL     1      49.867  25.858  21.742  1.00  0.00     0.087 C 
BRANCH  11  12
ATOM     12  C   UNL     1      48.687  26.484  20.943  1.00  0.00     0.066 C 
BRANCH  12  13
ATOM     13  C   UNL     1      47.354  26.082  21.558  1.00  0.00     0.140 C 
ATOM     14  O   UNL     1      46.373  26.797  21.400  1.00  0.00    -0.299 OA
BRANCH  13  15
ATOM     15  C   UNL     1      47.210  24.779  22.303  1.00  0.00     0.106 CG0
ATOM     16  G   UNL     1      46.620  23.679  21.432  1.00  0.00     0.000 G0
ENDBRANCH  13  15
ENDBRANCH  12  13
BRANCH  12  17
ATOM     17  C   UNL     1      48.782  28.035  20.747  1.00  0.00    -0.006 C 
ATOM     18  C   UNL     1      49.941  28.665  21.541  1.00  0.00     0.008 C 
ATOM     19  C   UNL     1      48.955  28.388  19.257  1.00  0.00     0.008 C 
ENDBRANCH  12  17
ENDBRANCH  11  12
ENDBRANCH   1  11
TORSDOF 1
ENDMDL
MODEL 2
REMARK VINA RESULT:    -3.441      1.769      2.806
REMARK INTER + INTRA:          -5.521
REMARK INTER:                  -5.468
REMARK INTRA:                  -0.053
REMARK UNBOUND:                -0.270
REMARK SMILES CC1=CCC[C@H](C)C(=O)C[C@H](C(C)C)C(=O)C1
REMARK SMILES IDX 8 1 9 2 6 3 7 4 5 5 4 6 3 7 2 8 1 9 10 11 11 12 15 13 16 14
REMARK SMILES IDX 17 15 12 17 13 18 14 19
REMARK H PARENT
REMARK Flexibility Score: 70.00
ROOT
ATOM      1  C   UNL     1      48.718  22.868  20.599  1.00  0.00     0.136 C 
ATOM      2  O   UNL     1      49.753  22.870  19.950  1.00  0.00    -0.299 OA
ENDROOT
BRANCH   1   3
ATOM      3  C   UNL     1      47.587  21.922  20.222  1.00  0.00     0.053 C 
ATOM      4  C   UNL     1      48.047  20.459  20.320  1.00  0.00     0.016 C 
BRANCH   3   5
ATOM      5  C   UNL     1      46.344  22.169  21.111  1.00  0.00     0.015 C 
BRANCH   5   6
ATOM      6  C   UNL     1      45.362  23.178  20.481  1.00  0.00     0.028 C 
BRANCH   6   7
ATOM      7  C   UNL     1      44.562  23.900  21.538  1.00  0.00    -0.028 C 
ATOM      8  C   UNL     1      44.813  25.160  21.965  1.00  0.00    -0.070 CG0
ATOM      9  C   UNL     1      43.949  25.718  23.068  1.00  0.00     0.039 C 
ATOM     10  G   UNL     1      45.919  26.028  21.383  1.00  0.00     0.000 G0
ENDBRANCH   6   7
ENDBRANCH   5   6
ENDBRANCH   3   5
ENDBRANCH   1   3
BRANCH   1  11
ATOM     11  C   UNL     1      48.587  23.796  21.785  1.00  0.00     0.087 C 
BRANCH  11  12
ATOM     12  C   UNL     1      48.425  25.296  21.403  1.00  0.00     0.066 C 
BRANCH  12  13
ATOM     13  C   UNL     1      47.222  25.900  22.114  1.00  0.00     0.140 C 
ATOM     14  O   UNL     1      47.338  26.307  23.263  1.00  0.00    -0.299 OA
BRANCH  13  15
ATOM     15  C   UNL     1      45.905  26.063  21.399  1.00  0.00     0.106 CG0
ATOM     16  G   UNL     1      44.826  25.150  21.963  1.00  0.00     0.000 G0
ENDBRANCH  13  15
ENDBRANCH  12  13
BRANCH  12  17
ATOM     17  C   UNL     1      49.710  26.166  21.615  1.00  0.00    -0.006 C 
ATOM     18  C   UNL     1      50.940  25.325  22.002  1.00  0.00     0.008 C 
ATOM     19  C   UNL     1      50.042  26.969  20.343  1.00  0.00     0.008 C 
ENDBRANCH  12  17
ENDBRANCH  11  12
ENDBRANCH   1  11
TORSDOF 1
ENDMDL
MODEL 3
REMARK VINA RESULT:    -3.285      1.889      4.184
REMARK INTER + INTRA:          -5.284
REMARK INTER:                  -5.273
REMARK INTRA:                  -0.011
REMARK UNBOUND:                -0.270
REMARK SMILES CC1=CCC[C@H](C)C(=O)C[C@H](C(C)C)C(=O)C1
REMARK SMILES IDX 8 1 9 2 6 3 7 4 5 5 4 6 3 7 2 8 1 9 10 11 11 12 15 13 16 14
REMARK SMILES IDX 17 15 12 17 13 18 14 19
REMARK H PARENT
REMARK Flexibility Score: 70.00
ROOT
ATOM      1  C   UNL     1      47.863  22.275  20.962  1.00  0.00     0.136 C 
ATOM      2  O   UNL     1      48.056  21.122  20.608  1.00  0.00    -0.299 OA
ENDROOT
BRANCH   1   3
ATOM      3  C   UNL     1      46.470  22.878  20.857  1.00  0.00     0.053 C 
ATOM      4  C   UNL     1      45.404  21.774  20.784  1.00  0.00     0.016 C 
BRANCH   3   5
ATOM      5  C   UNL     1      46.194  23.832  22.046  1.00  0.00     0.015 C 
BRANCH   5   6
ATOM      6  C   UNL     1      45.926  25.281  21.587  1.00  0.00     0.028 C 
BRANCH   6   7
ATOM      7  C   UNL     1      46.512  26.280  22.553  1.00  0.00    -0.028 C 
ATOM      8  C   UNL     1      47.720  26.875  22.407  1.00  0.00    -0.070 CG0
ATOM      9  C   UNL     1      48.181  27.814  23.493  1.00  0.00     0.039 C 
ATOM     10  G   UNL     1      48.622  26.636  21.204  1.00  0.00     0.000 G0
ENDBRANCH   6   7
ENDBRANCH   5   6
ENDBRANCH   3   5
ENDBRANCH   1   3
BRANCH   1  11
ATOM     11  C   UNL     1      49.015  23.079  21.520  1.00  0.00     0.087 C 
BRANCH  11  12
ATOM     12  C   UNL     1      49.479  24.248  20.602  1.00  0.00     0.066 C 
BRANCH  12  13
ATOM     13  C   UNL     1      49.597  25.538  21.402  1.00  0.00     0.140 C 
ATOM     14  O   UNL     1      50.527  25.682  22.185  1.00  0.00    -0.299 OA
BRANCH  13  15
ATOM     15  C   UNL     1      48.621  26.668  21.193  1.00  0.00     0.106 CG0
ATOM     16  G   UNL     1      47.734  26.894  22.409  1.00  0.00     0.000 G0
ENDBRANCH  13  15
ENDBRANCH  12  13
BRANCH  12  17
ATOM     17  C   UNL     1      50.783  23.958  19.786  1.00  0.00    -0.006 C 
ATOM     18  C   UNL     1      50.653  22.726  18.873  1.00  0.00     0.008 C 
ATOM     19  C   UNL     1      51.168  25.174  18.921  1.00  0.00     0.008 C 
ENDBRANCH  12  17
ENDBRANCH  11  12
ENDBRANCH   1  11
TORSDOF 1
ENDMDL
MODEL 4
REMARK VINA RESULT:    -3.197      1.630      2.160
REMARK INTER + INTRA:          -5.149
REMARK INTER:                  -5.070
REMARK INTRA:                  -0.079
REMARK UNBOUND:                -0.270
REMARK SMILES CC1=CCC[C@H](C)C(=O)C[C@H](C(C)C)C(=O)C1
REMARK SMILES IDX 8 1 9 2 6 3 7 4 5 5 4 6 3 7 2 8 1 9 10 11 11 12 15 13 16 14
REMARK SMILES IDX 17 15 12 17 13 18 14 19
REMARK H PARENT
REMARK Flexibility Score: 70.00
ROOT
ATOM      1  C   UNL     1      50.819  25.329  19.244  1.00  0.00     0.136 C 
ATOM      2  O   UNL     1      50.810  25.207  18.029  1.00  0.00    -0.299 OA
ENDROOT
BRANCH   1   3
ATOM      3  C   UNL     1      51.029  24.107  20.128  1.00  0.00     0.053 C 
ATOM      4  C   UNL     1      51.635  24.512  21.479  1.00  0.00     0.016 C 
BRANCH   3   5
ATOM      5  C   UNL     1      49.699  23.341  20.329  1.00  0.00     0.015 C 
BRANCH   5   6
ATOM      6  C   UNL     1      49.111  23.544  21.741  1.00  0.00     0.028 C 
BRANCH   6   7
ATOM      7  C   UNL     1      47.723  24.131  21.680  1.00  0.00    -0.028 C 
ATOM      8  C   UNL     1      47.443  25.453  21.753  1.00  0.00    -0.070 CG0
ATOM      9  C   UNL     1      45.994  25.872  21.728  1.00  0.00     0.039 C 
ATOM     10  G   UNL     1      48.519  26.524  21.857  1.00  0.00     0.000 G0
ENDBRANCH   6   7
ENDBRANCH   5   6
ENDBRANCH   3   5
ENDBRANCH   1   3
BRANCH   1  11
ATOM     11  C   UNL     1      50.642  26.702  19.851  1.00  0.00     0.087 C 
BRANCH  11  12
ATOM     12  C   UNL     1      49.294  27.389  19.487  1.00  0.00     0.066 C 
BRANCH  12  13
ATOM     13  C   UNL     1      48.423  27.541  20.726  1.00  0.00     0.140 C 
ATOM     14  O   UNL     1      47.611  28.455  20.788  1.00  0.00    -0.299 OA
BRANCH  13  15
ATOM     15  C   UNL     1      48.499  26.540  21.851  1.00  0.00     0.106 CG0
ATOM     16  G   UNL     1      47.425  25.467  21.742  1.00  0.00     0.000 G0
ENDBRANCH  13  15
ENDBRANCH  12  13
BRANCH  12  17
ATOM     17  C   UNL     1      49.439  28.745  18.719  1.00  0.00    -0.006 C 
ATOM     18  C   UNL     1      50.415  29.717  19.407  1.00  0.00     0.008 C 
ATOM     19  C   UNL     1      49.915  28.507  17.274  1.00  0.00     0.008 C 
ENDBRANCH  12  17
ENDBRANCH  11  12
ENDBRANCH   1  11
TORSDOF 1
ENDMDL
MODEL 5
REMARK VINA RESULT:    -3.082      2.637      5.035
REMARK INTER + INTRA:          -4.974
REMARK INTER:                  -5.421
REMARK INTRA:                   0.447
REMARK UNBOUND:                -0.270
REMARK SMILES CC1=CCC[C@H](C)C(=O)C[C@H](C(C)C)C(=O)C1
REMARK SMILES IDX 8 1 9 2 6 3 7 4 5 5 4 6 3 7 2 8 1 9 10 11 11 12 15 13 16 14
REMARK SMILES IDX 17 15 12 17 13 18 14 19
REMARK H PARENT
REMARK Flexibility Score: 70.00
ROOT
ATOM      1  C   UNL     1      45.403  22.034  20.592  1.00  0.00     0.136 C 
ATOM      2  O   UNL     1      44.621  21.130  20.343  1.00  0.00    -0.299 OA
ENDROOT
BRANCH   1   3
ATOM      3  C   UNL     1      46.806  21.711  21.083  1.00  0.00     0.053 C 
ATOM      4  C   UNL     1      47.241  20.317  20.606  1.00  0.00     0.016 C 
BRANCH   3   5
ATOM      5  C   UNL     1      47.814  22.790  20.617  1.00  0.00     0.015 C 
BRANCH   5   6
ATOM      6  C   UNL     1      48.374  23.618  21.793  1.00  0.00     0.028 C 
BRANCH   6   7
ATOM      7  C   UNL     1      48.342  25.096  21.489  1.00  0.00    -0.028 C 
ATOM      8  C   UNL     1      47.357  25.940  21.879  1.00  0.00    -0.070 CG0
ATOM      9  C   UNL     1      47.451  27.382  21.448  1.00  0.00     0.039 C 
ATOM     10  G   UNL     1      46.172  25.497  22.725  1.00  0.00     0.000 G0
ENDBRANCH   6   7
ENDBRANCH   5   6
ENDBRANCH   3   5
ENDBRANCH   1   3
BRANCH   1  11
ATOM     11  C   UNL     1      44.965  23.466  20.386  1.00  0.00     0.087 C 
BRANCH  11  12
ATOM     12  C   UNL     1      44.247  24.095  21.616  1.00  0.00     0.066 C 
BRANCH  12  13
ATOM     13  C   UNL     1      44.874  25.436  21.970  1.00  0.00     0.140 C 
ATOM     14  O   UNL     1      44.297  26.473  21.669  1.00  0.00    -0.299 OA
BRANCH  13  15
ATOM     15  C   UNL     1      46.164  25.504  22.747  1.00  0.00     0.106 CG0
ATOM     16  G   UNL     1      47.341  25.916  21.874  1.00  0.00     0.000 G0
ENDBRANCH  13  15
ENDBRANCH  12  13
BRANCH  12  17
ATOM     17  C   UNL     1      42.692  24.209  21.475  1.00  0.00    -0.006 C 
ATOM     18  C   UNL     1      42.009  22.841  21.297  1.00  0.00     0.008 C 
ATOM     19  C   UNL     1      42.082  24.909  22.704  1.00  0.00     0.008 C 
ENDBRANCH  12  17
ENDBRANCH  11  12
ENDBRANCH   1  11
TORSDOF 1
ENDMDL
MODEL 6
REMARK VINA RESULT:    -3.055      2.019      4.021
REMARK INTER + INTRA:          -4.933
REMARK INTER:                  -5.157
REMARK INTRA:                   0.224
REMARK UNBOUND:                -0.270
REMARK SMILES CC1=CCC[C@H](C)C(=O)C[C@H](C(C)C)C(=O)C1
REMARK SMILES IDX 8 1 9 2 6 3 7 4 5 5 4 6 3 7 2 8 1 9 10 11 11 12 15 13 16 14
REMARK SMILES IDX 17 15 12 17 13 18 14 19
REMARK H PARENT
REMARK Flexibility Score: 70.00
ROOT
ATOM      1  C   UNL     1      46.747  22.775  21.049  1.00  0.00     0.136 C 
ATOM      2  O   UNL     1      45.735  22.091  21.097  1.00  0.00    -0.299 OA
ENDROOT
BRANCH   1   3
ATOM      3  C   UNL     1      48.115  22.111  21.110  1.00  0.00     0.053 C 
ATOM      4  C   UNL     1      47.996  20.598  20.872  1.00  0.00     0.016 C 
BRANCH   3   5
ATOM      5  C   UNL     1      49.084  22.754  20.088  1.00  0.00     0.015 C 
BRANCH   5   6
ATOM      6  C   UNL     1      50.309  23.402  20.767  1.00  0.00     0.028 C 
BRANCH   6   7
ATOM      7  C   UNL     1      50.670  24.713  20.114  1.00  0.00    -0.028 C 
ATOM      8  C   UNL     1      50.315  25.931  20.587  1.00  0.00    -0.070 CG0
ATOM      9  C   UNL     1      50.713  27.145  19.785  1.00  0.00     0.039 C 
ATOM     10  G   UNL     1      49.538  26.124  21.882  1.00  0.00     0.000 G0
ENDBRANCH   6   7
ENDBRANCH   5   6
ENDBRANCH   3   5
ENDBRANCH   1   3
BRANCH   1  11
ATOM     11  C   UNL     1      46.619  24.274  20.910  1.00  0.00     0.087 C 
BRANCH  11  12
ATOM     12  C   UNL     1      47.153  25.075  22.133  1.00  0.00     0.066 C 
BRANCH  12  13
ATOM     13  C   UNL     1      48.050  26.215  21.673  1.00  0.00     0.140 C 
ATOM     14  O   UNL     1      47.550  27.218  21.180  1.00  0.00    -0.299 OA
BRANCH  13  15
ATOM     15  C   UNL     1      49.543  26.155  21.878  1.00  0.00     0.106 CG0
ATOM     16  G   UNL     1      50.294  25.930  20.573  1.00  0.00     0.000 G0
ENDBRANCH  13  15
ENDBRANCH  12  13
BRANCH  12  17
ATOM     17  C   UNL     1      46.044  25.579  23.117  1.00  0.00    -0.006 C 
ATOM     18  C   UNL     1      46.583  26.575  24.160  1.00  0.00     0.008 C 
ATOM     19  C   UNL     1      44.892  26.249  22.344  1.00  0.00     0.008 C 
ENDBRANCH  12  17
ENDBRANCH  11  12
ENDBRANCH   1  11
TORSDOF 1
ENDMDL
MODEL 7
REMARK VINA RESULT:    -2.959      3.655      6.441
REMARK INTER + INTRA:          -4.786
REMARK INTER:                  -4.850
REMARK INTRA:                   0.064
REMARK UNBOUND:                -0.270
REMARK SMILES CC1=CCC[C@H](C)C(=O)C[C@H](C(C)C)C(=O)C1
REMARK SMILES IDX 8 1 9 2 6 3 7 4 5 5 4 6 3 7 2 8 1 9 10 11 11 12 15 13 16 14
REMARK SMILES IDX 17 15 12 17 13 18 14 19
REMARK H PARENT
REMARK Flexibility Score: 70.00
ROOT
ATOM      1  C   UNL     1      50.463  28.287  19.585  1.00  0.00     0.136 C 
ATOM      2  O   UNL     1      50.531  28.731  20.722  1.00  0.00    -0.299 OA
ENDROOT
BRANCH   1   3
ATOM      3  C   UNL     1      49.488  28.897  18.589  1.00  0.00     0.053 C 
ATOM      4  C   UNL     1      48.563  29.907  19.284  1.00  0.00     0.016 C 
BRANCH   3   5
ATOM      5  C   UNL     1      50.247  29.564  17.416  1.00  0.00     0.015 C 
BRANCH   5   6
ATOM      6  C   UNL     1      49.894  28.931  16.053  1.00  0.00     0.028 C 
BRANCH   6   7
ATOM      7  C   UNL     1      51.089  28.241  15.442  1.00  0.00    -0.028 C 
ATOM      8  C   UNL     1      51.342  26.914  15.534  1.00  0.00    -0.070 CG0
ATOM      9  C   UNL     1      52.610  26.390  14.909  1.00  0.00     0.039 C 
ATOM     10  G   UNL     1      50.407  25.939  16.236  1.00  0.00     0.000 G0
ENDBRANCH   6   7
ENDBRANCH   5   6
ENDBRANCH   3   5
ENDBRANCH   1   3
BRANCH   1  11
ATOM     11  C   UNL     1      51.370  27.147  19.183  1.00  0.00     0.087 C 
BRANCH  11  12
ATOM     12  C   UNL     1      50.620  25.823  18.855  1.00  0.00     0.066 C 
BRANCH  12  13
ATOM     13  C   UNL     1      51.015  25.315  17.475  1.00  0.00     0.140 C 
ATOM     14  O   UNL     1      51.796  24.378  17.375  1.00  0.00    -0.299 OA
BRANCH  13  15
ATOM     15  C   UNL     1      50.405  25.909  16.230  1.00  0.00     0.106 CG0
ATOM     16  G   UNL     1      51.332  26.911  15.557  1.00  0.00     0.000 G0
ENDBRANCH  13  15
ENDBRANCH  12  13
BRANCH  12  17
ATOM     17  C   UNL     1      50.767  24.704  19.940  1.00  0.00    -0.006 C 
ATOM     18  C   UNL     1      50.449  25.208  21.360  1.00  0.00     0.008 C 
ATOM     19  C   UNL     1      49.847  23.510  19.622  1.00  0.00     0.008 C 
ENDBRANCH  12  17
ENDBRANCH  11  12
ENDBRANCH   1  11
TORSDOF 1
ENDMDL
MODEL 8
REMARK VINA RESULT:    -2.921      3.359      5.801
REMARK INTER + INTRA:          -4.729
REMARK INTER:                  -4.789
REMARK INTRA:                   0.060
REMARK UNBOUND:                -0.270
REMARK SMILES CC1=CCC[C@H](C)C(=O)C[C@H](C(C)C)C(=O)C1
REMARK SMILES IDX 8 1 9 2 6 3 7 4 5 5 4 6 3 7 2 8 1 9 10 11 11 12 15 13 16 14
REMARK SMILES IDX 17 15 12 17 13 18 14 19
REMARK H PARENT
REMARK Flexibility Score: 70.00
ROOT
ATOM      1  C   UNL     1      51.587  26.096  16.916  1.00  0.00     0.136 C 
ATOM      2  O   UNL     1      52.184  25.135  16.455  1.00  0.00    -0.299 OA
ENDROOT
BRANCH   1   3
ATOM      3  C   UNL     1      52.054  27.507  16.589  1.00  0.00     0.053 C 
ATOM      4  C   UNL     1      53.542  27.512  16.207  1.00  0.00     0.016 C 
BRANCH   3   5
ATOM      5  C   UNL     1      51.194  28.123  15.459  1.00  0.00     0.015 C 
BRANCH   5   6
ATOM      6  C   UNL     1      50.075  29.035  16.003  1.00  0.00     0.028 C 
BRANCH   6   7
ATOM      7  C   UNL     1      50.503  29.736  17.268  1.00  0.00    -0.028 C 
ATOM      8  C   UNL     1      50.040  29.441  18.506  1.00  0.00    -0.070 CG0
ATOM      9  C   UNL     1      50.533  30.273  19.663  1.00  0.00     0.039 C 
ATOM     10  G   UNL     1      49.052  28.315  18.775  1.00  0.00     0.000 G0
ENDBRANCH   6   7
ENDBRANCH   5   6
ENDBRANCH   3   5
ENDBRANCH   1   3
BRANCH   1  11
ATOM     11  C   UNL     1      50.376  25.864  17.790  1.00  0.00     0.087 C 
BRANCH  11  12
ATOM     12  C   UNL     1      50.595  26.224  19.288  1.00  0.00     0.066 C 
BRANCH  12  13
ATOM     13  C   UNL     1      49.587  27.274  19.736  1.00  0.00     0.140 C 
ATOM     14  O   UNL     1      49.245  27.323  20.910  1.00  0.00    -0.299 OA
BRANCH  13  15
ATOM     15  C   UNL     1      49.054  28.296  18.764  1.00  0.00     0.106 CG0
ATOM     16  G   UNL     1      50.044  29.425  18.516  1.00  0.00     0.000 G0
ENDBRANCH  13  15
ENDBRANCH  12  13
BRANCH  12  17
ATOM     17  C   UNL     1      50.611  24.996  20.259  1.00  0.00    -0.006 C 
ATOM     18  C   UNL     1      50.918  23.671  19.537  1.00  0.00     0.008 C 
ATOM     19  C   UNL     1      51.649  25.199  21.380  1.00  0.00     0.008 C 
ENDBRANCH  12  17
ENDBRANCH  11  12
ENDBRANCH   1  11
TORSDOF 1
ENDMDL
MODEL 9
REMARK VINA RESULT:    -2.805      3.060      4.647
REMARK INTER + INTRA:          -4.550
REMARK INTER:                  -4.594
REMARK INTRA:                   0.044
REMARK UNBOUND:                -0.270
REMARK SMILES CC1=CCC[C@H](C)C(=O)C[C@H](C(C)C)C(=O)C1
REMARK SMILES IDX 8 1 9 2 6 3 7 4 5 5 4 6 3 7 2 8 1 9 10 11 11 12 15 13 16 14
REMARK SMILES IDX 17 15 12 17 13 18 14 19
REMARK H PARENT
REMARK Flexibility Score: 70.00
ROOT
ATOM      1  C   UNL     1      46.137  24.157  21.482  1.00  0.00     0.136 C 
ATOM      2  O   UNL     1      47.286  23.744  21.519  1.00  0.00    -0.299 OA
ENDROOT
BRANCH   1   3
ATOM      3  C   UNL     1      45.091  23.419  20.658  1.00  0.00     0.053 C 
ATOM      4  C   UNL     1      45.472  21.940  20.497  1.00  0.00     0.016 C 
BRANCH   3   5
ATOM      5  C   UNL     1      43.689  23.560  21.298  1.00  0.00     0.015 C 
BRANCH   5   6
ATOM      6  C   UNL     1      42.749  24.454  20.463  1.00  0.00     0.028 C 
BRANCH   6   7
ATOM      7  C   UNL     1      42.003  25.433  21.336  1.00  0.00    -0.028 C 
ATOM      8  C   UNL     1      42.340  26.735  21.494  1.00  0.00    -0.070 CG0
ATOM      9  C   UNL     1      41.519  27.568  22.445  1.00  0.00     0.039 C 
ATOM     10  G   UNL     1      43.503  27.385  20.758  1.00  0.00     0.000 G0
ENDBRANCH   6   7
ENDBRANCH   5   6
ENDBRANCH   3   5
ENDBRANCH   1   3
BRANCH   1  11
ATOM     11  C   UNL     1      45.769  25.390  22.275  1.00  0.00     0.087 C 
BRANCH  11  12
ATOM     12  C   UNL     1      45.957  26.726  21.500  1.00  0.00     0.066 C 
BRANCH  12  13
ATOM     13  C   UNL     1      44.718  27.600  21.635  1.00  0.00     0.140 C 
ATOM     14  O   UNL     1      44.715  28.527  22.434  1.00  0.00    -0.299 OA
BRANCH  13  15
ATOM     15  C   UNL     1      43.517  27.379  20.750  1.00  0.00     0.106 CG0
ATOM     16  G   UNL     1      42.361  26.732  21.500  1.00  0.00     0.000 G0
ENDBRANCH  13  15
ENDBRANCH  12  13
BRANCH  12  17
ATOM     17  C   UNL     1      47.258  27.516  21.868  1.00  0.00    -0.006 C 
ATOM     18  C   UNL     1      47.572  27.476  23.374  1.00  0.00     0.008 C 
ATOM     19  C   UNL     1      48.471  26.962  21.096  1.00  0.00     0.008 C 
ENDBRANCH  12  17
ENDBRANCH  11  12
ENDBRANCH   1  11
TORSDOF 1
ENDMDL
