MODEL 1
REMARK VINA RESULT:    -4.605      0.000      0.000
REMARK INTER + INTRA:          -5.941
REMARK INTER:                  -5.682
REMARK INTRA:                  -0.258
REMARK UNBOUND:                -0.258
REMARK SMILES CCCCC=CC(C)=O
REMARK SMILES IDX 4 1 3 2 2 3 1 4 5 5 6 6 7 7 9 8 8 9
REMARK H PARENT
REMARK Flexibility Score: inf
ROOT
ATOM      1  C   UNL     1     -13.029 -33.916  32.489  1.00  0.00     0.027 C 
ENDROOT
BRANCH   1   2
ATOM      2  C   UNL     1     -14.301 -33.391  31.812  1.00  0.00     0.004 C 
BRANCH   2   3
ATOM      3  C   UNL     1     -15.197 -32.660  32.819  1.00  0.00    -0.003 C 
ATOM      4  C   UNL     1     -16.168 -33.625  33.495  1.00  0.00     0.004 C 
ENDBRANCH   2   3
ENDBRANCH   1   2
BRANCH   1   5
ATOM      5  C   UNL     1     -12.672 -35.286  31.988  1.00  0.00    -0.023 C 
ATOM      6  C   UNL     1     -13.612 -36.208  31.749  1.00  0.00     0.042 C 
BRANCH   6   7
ATOM      7  C   UNL     1     -13.310 -37.563  31.244  1.00  0.00     0.152 C 
ATOM      8  O   UNL     1     -13.769 -37.905  30.121  1.00  0.00    -0.295 OA
ATOM      9  C   UNL     1     -12.481 -38.544  32.018  1.00  0.00     0.093 C 
ENDBRANCH   6   7
ENDBRANCH   1   5
TORSDOF 4
ENDMDL
MODEL 2
REMARK VINA RESULT:    -4.262      3.394      3.757
REMARK INTER + INTRA:          -5.516
REMARK INTER:                  -5.371
REMARK INTRA:                  -0.146
REMARK UNBOUND:                -0.258
REMARK SMILES CCCCC=CC(C)=O
REMARK SMILES IDX 4 1 3 2 2 3 1 4 5 5 6 6 7 7 9 8 8 9
REMARK H PARENT
REMARK Flexibility Score: inf
ROOT
ATOM      1  C   UNL     1     -12.480 -34.001  31.144  1.00  0.00     0.027 C 
ENDROOT
BRANCH   1   2
ATOM      2  C   UNL     1     -13.673 -34.237  32.080  1.00  0.00     0.004 C 
BRANCH   2   3
ATOM      3  C   UNL     1     -14.695 -33.101  31.963  1.00  0.00    -0.003 C 
ATOM      4  C   UNL     1     -15.181 -32.652  33.338  1.00  0.00     0.004 C 
ENDBRANCH   2   3
ENDBRANCH   1   2
BRANCH   1   5
ATOM      5  C   UNL     1     -12.774 -34.489  29.755  1.00  0.00    -0.023 C 
ATOM      6  C   UNL     1     -12.450 -33.764  28.678  1.00  0.00     0.042 C 
BRANCH   6   7
ATOM      7  C   UNL     1     -12.707 -34.208  27.293  1.00  0.00     0.152 C 
ATOM      8  O   UNL     1     -13.829 -33.959  26.778  1.00  0.00    -0.295 OA
ATOM      9  C   UNL     1     -11.684 -34.945  26.481  1.00  0.00     0.093 C 
ENDBRANCH   6   7
ENDBRANCH   1   5
TORSDOF 4
ENDMDL
MODEL 3
REMARK VINA RESULT:    -4.251      2.238      4.813
REMARK INTER + INTRA:          -5.503
REMARK INTER:                  -5.319
REMARK INTRA:                  -0.185
REMARK UNBOUND:                -0.258
REMARK SMILES CCCCC=CC(C)=O
REMARK SMILES IDX 4 1 3 2 2 3 1 4 5 5 6 6 7 7 9 8 8 9
REMARK H PARENT
REMARK Flexibility Score: inf
ROOT
ATOM      1  C   UNL     1     -12.380 -35.722  31.464  1.00  0.00     0.027 C 
ENDROOT
BRANCH   1   2
ATOM      2  C   UNL     1     -12.829 -36.575  30.271  1.00  0.00     0.004 C 
BRANCH   2   3
ATOM      3  C   UNL     1     -13.278 -37.967  30.728  1.00  0.00    -0.003 C 
ATOM      4  C   UNL     1     -12.502 -38.419  31.962  1.00  0.00     0.004 C 
ENDBRANCH   2   3
ENDBRANCH   1   2
BRANCH   1   5
ATOM      5  C   UNL     1     -13.509 -34.883  31.988  1.00  0.00    -0.023 C 
ATOM      6  C   UNL     1     -13.763 -33.666  31.492  1.00  0.00     0.042 C 
BRANCH   6   7
ATOM      7  C   UNL     1     -14.869 -32.811  31.966  1.00  0.00     0.152 C 
ATOM      8  O   UNL     1     -15.364 -31.967  31.171  1.00  0.00    -0.295 OA
ATOM      9  C   UNL     1     -15.422 -32.908  33.357  1.00  0.00     0.093 C 
ENDBRANCH   6   7
ENDBRANCH   1   5
TORSDOF 4
ENDMDL
MODEL 4
REMARK VINA RESULT:    -4.250      2.672      3.211
REMARK INTER + INTRA:          -5.502
REMARK INTER:                  -5.303
REMARK INTRA:                  -0.199
REMARK UNBOUND:                -0.258
REMARK SMILES CCCCC=CC(C)=O
REMARK SMILES IDX 4 1 3 2 2 3 1 4 5 5 6 6 7 7 9 8 8 9
REMARK H PARENT
REMARK Flexibility Score: inf
ROOT
ATOM      1  C   UNL     1     -13.782 -33.872  32.068  1.00  0.00     0.027 C 
ENDROOT
BRANCH   1   2
ATOM      2  C   UNL     1     -14.799 -32.770  31.745  1.00  0.00     0.004 C 
BRANCH   2   3
ATOM      3  C   UNL     1     -15.820 -32.615  32.877  1.00  0.00    -0.003 C 
ATOM      4  C   UNL     1     -16.116 -33.957  33.540  1.00  0.00     0.004 C 
ENDBRANCH   2   3
ENDBRANCH   1   2
BRANCH   1   5
ATOM      5  C   UNL     1     -13.250 -34.505  30.815  1.00  0.00    -0.023 C 
ATOM      6  C   UNL     1     -13.040 -33.788  29.705  1.00  0.00     0.042 C 
BRANCH   6   7
ATOM      7  C   UNL     1     -12.506 -34.365  28.455  1.00  0.00     0.152 C 
ATOM      8  O   UNL     1     -11.393 -34.953  28.488  1.00  0.00    -0.295 OA
ATOM      9  C   UNL     1     -13.240 -34.273  27.150  1.00  0.00     0.093 C 
ENDBRANCH   6   7
ENDBRANCH   1   5
TORSDOF 4
ENDMDL
MODEL 5
REMARK VINA RESULT:    -4.248      1.684      1.824
REMARK INTER + INTRA:          -5.500
REMARK INTER:                  -5.266
REMARK INTRA:                  -0.234
REMARK UNBOUND:                -0.258
REMARK SMILES CCCCC=CC(C)=O
REMARK SMILES IDX 4 1 3 2 2 3 1 4 5 5 6 6 7 7 9 8 8 9
REMARK H PARENT
REMARK Flexibility Score: inf
ROOT
ATOM      1  C   UNL     1     -13.392 -33.929  32.390  1.00  0.00     0.027 C 
ENDROOT
BRANCH   1   2
ATOM      2  C   UNL     1     -14.457 -33.087  31.675  1.00  0.00     0.004 C 
BRANCH   2   3
ATOM      3  C   UNL     1     -15.528 -32.605  32.660  1.00  0.00    -0.003 C 
ATOM      4  C   UNL     1     -16.096 -33.768  33.469  1.00  0.00     0.004 C 
ENDBRANCH   2   3
ENDBRANCH   1   2
BRANCH   1   5
ATOM      5  C   UNL     1     -12.852 -35.002  31.489  1.00  0.00    -0.023 C 
ATOM      6  C   UNL     1     -13.237 -35.099  30.211  1.00  0.00     0.042 C 
BRANCH   6   7
ATOM      7  C   UNL     1     -12.724 -36.129  29.285  1.00  0.00     0.152 C 
ATOM      8  O   UNL     1     -11.938 -35.776  28.365  1.00  0.00    -0.295 OA
ATOM      9  C   UNL     1     -13.106 -37.575  29.398  1.00  0.00     0.093 C 
ENDBRANCH   6   7
ENDBRANCH   1   5
TORSDOF 4
ENDMDL
MODEL 6
REMARK VINA RESULT:    -4.170      3.038      4.810
REMARK INTER + INTRA:          -5.403
REMARK INTER:                  -5.142
REMARK INTRA:                  -0.261
REMARK UNBOUND:                -0.258
REMARK SMILES CCCCC=CC(C)=O
REMARK SMILES IDX 4 1 3 2 2 3 1 4 5 5 6 6 7 7 9 8 8 9
REMARK H PARENT
REMARK Flexibility Score: inf
ROOT
ATOM      1  C   UNL     1     -12.747 -34.904  30.697  1.00  0.00     0.027 C 
ENDROOT
BRANCH   1   2
ATOM      2  C   UNL     1     -12.944 -33.815  29.635  1.00  0.00     0.004 C 
BRANCH   2   3
ATOM      3  C   UNL     1     -11.610 -33.437  28.982  1.00  0.00    -0.003 C 
ATOM      4  C   UNL     1     -10.482 -33.409  30.009  1.00  0.00     0.004 C 
ENDBRANCH   2   3
ENDBRANCH   1   2
BRANCH   1   5
ATOM      5  C   UNL     1     -13.521 -34.592  31.945  1.00  0.00    -0.023 C 
ATOM      6  C   UNL     1     -14.253 -33.476  32.053  1.00  0.00     0.042 C 
BRANCH   6   7
ATOM      7  C   UNL     1     -15.040 -33.135  33.255  1.00  0.00     0.152 C 
ATOM      8  O   UNL     1     -14.523 -32.378  34.119  1.00  0.00    -0.295 OA
ATOM      9  C   UNL     1     -16.427 -33.657  33.482  1.00  0.00     0.093 C 
ENDBRANCH   6   7
ENDBRANCH   1   5
TORSDOF 4
ENDMDL
MODEL 7
REMARK VINA RESULT:    -4.114      3.798      4.859
REMARK INTER + INTRA:          -5.334
REMARK INTER:                  -5.167
REMARK INTRA:                  -0.167
REMARK UNBOUND:                -0.258
REMARK SMILES CCCCC=CC(C)=O
REMARK SMILES IDX 4 1 3 2 2 3 1 4 5 5 6 6 7 7 9 8 8 9
REMARK H PARENT
REMARK Flexibility Score: inf
ROOT
ATOM      1  C   UNL     1     -13.357 -33.015  28.465  1.00  0.00     0.027 C 
ENDROOT
BRANCH   1   2
ATOM      2  C   UNL     1     -13.393 -33.894  27.209  1.00  0.00     0.004 C 
BRANCH   2   3
ATOM      3  C   UNL     1     -12.269 -34.935  27.235  1.00  0.00    -0.003 C 
ATOM      4  C   UNL     1     -11.476 -34.923  25.931  1.00  0.00     0.004 C 
ENDBRANCH   2   3
ENDBRANCH   1   2
BRANCH   1   5
ATOM      5  C   UNL     1     -12.635 -33.701  29.589  1.00  0.00    -0.023 C 
ATOM      6  C   UNL     1     -13.301 -34.279  30.596  1.00  0.00     0.042 C 
BRANCH   6   7
ATOM      7  C   UNL     1     -12.635 -34.976  31.715  1.00  0.00     0.152 C 
ATOM      8  O   UNL     1     -11.939 -34.300  32.519  1.00  0.00    -0.295 OA
ATOM      9  C   UNL     1     -12.756 -36.456  31.926  1.00  0.00     0.093 C 
ENDBRANCH   6   7
ENDBRANCH   1   5
TORSDOF 4
ENDMDL
MODEL 8
REMARK VINA RESULT:    -4.091      3.399      4.526
REMARK INTER + INTRA:          -5.306
REMARK INTER:                  -5.100
REMARK INTRA:                  -0.206
REMARK UNBOUND:                -0.258
REMARK SMILES CCCCC=CC(C)=O
REMARK SMILES IDX 4 1 3 2 2 3 1 4 5 5 6 6 7 7 9 8 8 9
REMARK H PARENT
REMARK Flexibility Score: inf
ROOT
ATOM      1  C   UNL     1     -12.838 -34.359  31.083  1.00  0.00     0.027 C 
ENDROOT
BRANCH   1   2
ATOM      2  C   UNL     1     -13.442 -35.438  31.990  1.00  0.00     0.004 C 
BRANCH   2   3
ATOM      3  C   UNL     1     -13.321 -36.825  31.349  1.00  0.00    -0.003 C 
ATOM      4  C   UNL     1     -12.228 -37.650  32.023  1.00  0.00     0.004 C 
ENDBRANCH   2   3
ENDBRANCH   1   2
BRANCH   1   5
ATOM      5  C   UNL     1     -12.862 -34.783  29.642  1.00  0.00    -0.023 C 
ATOM      6  C   UNL     1     -12.898 -33.885  28.651  1.00  0.00     0.042 C 
BRANCH   6   7
ATOM      7  C   UNL     1     -12.910 -34.254  27.221  1.00  0.00     0.152 C 
ATOM      8  O   UNL     1     -13.950 -34.027  26.548  1.00  0.00    -0.295 OA
ATOM      9  C   UNL     1     -11.732 -34.890  26.545  1.00  0.00     0.093 C 
ENDBRANCH   6   7
ENDBRANCH   1   5
TORSDOF 4
ENDMDL
MODEL 9
REMARK VINA RESULT:    -4.034      3.506      5.026
REMARK INTER + INTRA:          -5.236
REMARK INTER:                  -4.983
REMARK INTRA:                  -0.253
REMARK UNBOUND:                -0.258
REMARK SMILES CCCCC=CC(C)=O
REMARK SMILES IDX 4 1 3 2 2 3 1 4 5 5 6 6 7 7 9 8 8 9
REMARK H PARENT
REMARK Flexibility Score: inf
ROOT
ATOM      1  C   UNL     1     -11.170 -33.800  28.974  1.00  0.00     0.027 C 
ENDROOT
BRANCH   1   2
ATOM      2  C   UNL     1     -11.572 -35.046  28.175  1.00  0.00     0.004 C 
BRANCH   2   3
ATOM      3  C   UNL     1     -11.995 -34.672  26.750  1.00  0.00    -0.003 C 
ATOM      4  C   UNL     1     -13.455 -34.231  26.706  1.00  0.00     0.004 C 
ENDBRANCH   2   3
ENDBRANCH   1   2
BRANCH   1   5
ATOM      5  C   UNL     1     -11.898 -33.736  30.285  1.00  0.00    -0.023 C 
ATOM      6  C   UNL     1     -13.228 -33.871  30.352  1.00  0.00     0.042 C 
BRANCH   6   7
ATOM      7  C   UNL     1     -13.986 -33.828  31.619  1.00  0.00     0.152 C 
ATOM      8  O   UNL     1     -13.881 -34.796  32.418  1.00  0.00    -0.295 OA
ATOM      9  C   UNL     1     -14.874 -32.676  31.985  1.00  0.00     0.093 C 
ENDBRANCH   6   7
ENDBRANCH   1   5
TORSDOF 4
ENDMDL
