MODEL 1
REMARK VINA RESULT:    -5.298      0.000      0.000
REMARK INTER + INTRA:          -8.514
REMARK INTER:                  -7.466
REMARK INTRA:                  -1.048
REMARK UNBOUND:                -1.048
REMARK SMILES CC(=O)OCC[C@@H](C)CCC=C(C)C
REMARK SMILES IDX 8 1 7 2 9 3 10 4 11 5 12 6 13 7 14 8 6 9 5 10 4 11 2 12 3 13
REMARK SMILES IDX 1 14
REMARK H PARENT
REMARK Flexibility Score: inf
ROOT
ATOM      1  C   UNL     1       1.738  29.755  69.698  1.00  0.00     0.008 C 
ATOM      2  C   UNL     1       3.027  29.062  69.231  1.00  0.00    -0.011 C 
ENDROOT
BRANCH   2   3
ATOM      3  C   UNL     1       3.242  29.234  67.704  1.00  0.00     0.007 C 
BRANCH   3   4
ATOM      4  C   UNL     1       4.131  30.429  67.315  1.00  0.00     0.027 C 
BRANCH   4   5
ATOM      5  C   UNL     1       3.289  31.579  66.823  1.00  0.00    -0.028 C 
ATOM      6  C   UNL     1       3.176  32.767  67.461  1.00  0.00    -0.080 C 
ATOM      7  C   UNL     1       3.956  33.081  68.713  1.00  0.00     0.039 C 
ATOM      8  C   UNL     1       2.281  33.839  66.894  1.00  0.00     0.039 C 
ENDBRANCH   4   5
ENDBRANCH   3   4
ENDBRANCH   2   3
BRANCH   2   9
ATOM      9  C   UNL     1       4.227  29.523  70.095  1.00  0.00     0.045 C 
BRANCH   9  10
ATOM     10  C   UNL     1       3.819  30.308  71.352  1.00  0.00     0.233 C 
BRANCH  10  11
ATOM     11  O   UNL     1       4.242  29.645  72.542  1.00  0.00    -0.466 OA
BRANCH  11  12
ATOM     12  C   UNL     1       3.966  28.300  72.815  1.00  0.00     0.302 C 
ATOM     13  O   UNL     1       2.778  27.886  72.892  1.00  0.00    -0.253 OA
ATOM     14  C   UNL     1       5.094  27.339  72.974  1.00  0.00     0.139 C 
ENDBRANCH  11  12
ENDBRANCH  10  11
ENDBRANCH   9  10
ENDBRANCH   2   9
TORSDOF 7
ENDMDL
MODEL 2
REMARK VINA RESULT:    -5.241      1.736      2.650
REMARK INTER + INTRA:          -8.434
REMARK INTER:                  -7.366
REMARK INTRA:                  -1.067
REMARK UNBOUND:                -1.048
REMARK SMILES CC(=O)OCC[C@@H](C)CCC=C(C)C
REMARK SMILES IDX 8 1 7 2 9 3 10 4 11 5 12 6 13 7 14 8 6 9 5 10 4 11 2 12 3 13
REMARK SMILES IDX 1 14
REMARK H PARENT
REMARK Flexibility Score: inf
ROOT
ATOM      1  C   UNL     1       3.982  30.186  67.638  1.00  0.00     0.008 C 
ATOM      2  C   UNL     1       4.269  31.226  68.731  1.00  0.00    -0.011 C 
ENDROOT
BRANCH   2   3
ATOM      3  C   UNL     1       4.382  32.655  68.138  1.00  0.00     0.007 C 
BRANCH   3   4
ATOM      4  C   UNL     1       3.050  33.422  68.061  1.00  0.00     0.027 C 
BRANCH   4   5
ATOM      5  C   UNL     1       2.536  33.452  66.644  1.00  0.00    -0.028 C 
ATOM      6  C   UNL     1       1.516  32.689  66.188  1.00  0.00    -0.080 C 
ATOM      7  C   UNL     1       0.736  31.770  67.095  1.00  0.00     0.039 C 
ATOM      8  C   UNL     1       1.102  32.777  64.742  1.00  0.00     0.039 C 
ENDBRANCH   4   5
ENDBRANCH   3   4
ENDBRANCH   2   3
BRANCH   2   9
ATOM      9  C   UNL     1       3.236  31.097  69.877  1.00  0.00     0.045 C 
BRANCH   9  10
ATOM     10  C   UNL     1       2.579  29.710  69.966  1.00  0.00     0.233 C 
BRANCH  10  11
ATOM     11  O   UNL     1       3.135  28.934  71.025  1.00  0.00    -0.466 OA
BRANCH  11  12
ATOM     12  C   UNL     1       3.784  27.710  70.826  1.00  0.00     0.302 C 
ATOM     13  O   UNL     1       3.193  26.620  71.055  1.00  0.00    -0.253 OA
ATOM     14  C   UNL     1       5.176  27.696  70.295  1.00  0.00     0.139 C 
ENDBRANCH  11  12
ENDBRANCH  10  11
ENDBRANCH   9  10
ENDBRANCH   2   9
TORSDOF 7
ENDMDL
MODEL 3
REMARK VINA RESULT:    -5.235      1.000      1.211
REMARK INTER + INTRA:          -8.425
REMARK INTER:                  -7.411
REMARK INTRA:                  -1.014
REMARK UNBOUND:                -1.048
REMARK SMILES CC(=O)OCC[C@@H](C)CCC=C(C)C
REMARK SMILES IDX 8 1 7 2 9 3 10 4 11 5 12 6 13 7 14 8 6 9 5 10 4 11 2 12 3 13
REMARK SMILES IDX 1 14
REMARK H PARENT
REMARK Flexibility Score: inf
ROOT
ATOM      1  C   UNL     1       1.876  29.605  69.547  1.00  0.00     0.008 C 
ATOM      2  C   UNL     1       3.352  29.316  69.231  1.00  0.00    -0.011 C 
ENDROOT
BRANCH   2   3
ATOM      3  C   UNL     1       3.635  29.410  67.709  1.00  0.00     0.007 C 
BRANCH   3   4
ATOM      4  C   UNL     1       4.277  30.734  67.259  1.00  0.00     0.027 C 
BRANCH   4   5
ATOM      5  C   UNL     1       3.226  31.688  66.750  1.00  0.00    -0.028 C 
ATOM      6  C   UNL     1       2.981  32.906  67.285  1.00  0.00    -0.080 C 
ATOM      7  C   UNL     1       3.805  33.463  68.420  1.00  0.00     0.039 C 
ATOM      8  C   UNL     1       1.885  33.768  66.715  1.00  0.00     0.039 C 
ENDBRANCH   4   5
ENDBRANCH   3   4
ENDBRANCH   2   3
BRANCH   2   9
ATOM      9  C   UNL     1       4.271  30.207  70.102  1.00  0.00     0.045 C 
BRANCH   9  10
ATOM     10  C   UNL     1       5.542  29.495  70.591  1.00  0.00     0.233 C 
BRANCH  10  11
ATOM     11  O   UNL     1       5.231  28.417  71.473  1.00  0.00    -0.466 OA
BRANCH  11  12
ATOM     12  C   UNL     1       4.465  28.568  72.634  1.00  0.00     0.302 C 
ATOM     13  O   UNL     1       4.837  29.339  73.560  1.00  0.00    -0.253 OA
ATOM     14  C   UNL     1       3.171  27.840  72.758  1.00  0.00     0.139 C 
ENDBRANCH  11  12
ENDBRANCH  10  11
ENDBRANCH   9  10
ENDBRANCH   2   9
TORSDOF 7
ENDMDL
MODEL 4
REMARK VINA RESULT:    -5.233      1.709      2.270
REMARK INTER + INTRA:          -8.422
REMARK INTER:                  -7.385
REMARK INTRA:                  -1.036
REMARK UNBOUND:                -1.048
REMARK SMILES CC(=O)OCC[C@@H](C)CCC=C(C)C
REMARK SMILES IDX 8 1 7 2 9 3 10 4 11 5 12 6 13 7 14 8 6 9 5 10 4 11 2 12 3 13
REMARK SMILES IDX 1 14
REMARK H PARENT
REMARK Flexibility Score: inf
ROOT
ATOM      1  C   UNL     1       3.103  31.107  70.437  1.00  0.00     0.008 C 
ATOM      2  C   UNL     1       2.880  29.639  70.041  1.00  0.00    -0.011 C 
ENDROOT
BRANCH   2   3
ATOM      3  C   UNL     1       1.608  29.473  69.170  1.00  0.00     0.007 C 
BRANCH   3   4
ATOM      4  C   UNL     1       1.876  29.376  67.658  1.00  0.00     0.027 C 
BRANCH   4   5
ATOM      5  C   UNL     1       1.416  30.628  66.956  1.00  0.00    -0.028 C 
ATOM      6  C   UNL     1       2.229  31.658  66.626  1.00  0.00    -0.080 C 
ATOM      7  C   UNL     1       3.717  31.615  66.872  1.00  0.00     0.039 C 
ATOM      8  C   UNL     1       1.658  32.877  65.950  1.00  0.00     0.039 C 
ENDBRANCH   4   5
ENDBRANCH   3   4
ENDBRANCH   2   3
BRANCH   2   9
ATOM      9  C   UNL     1       4.164  29.056  69.402  1.00  0.00     0.045 C 
BRANCH   9  10
ATOM     10  C   UNL     1       4.891  28.036  70.293  1.00  0.00     0.233 C 
BRANCH  10  11
ATOM     11  O   UNL     1       5.995  28.630  70.975  1.00  0.00    -0.466 OA
BRANCH  11  12
ATOM     12  C   UNL     1       5.875  29.298  72.199  1.00  0.00     0.302 C 
ATOM     13  O   UNL     1       6.246  30.497  72.321  1.00  0.00    -0.253 OA
ATOM     14  C   UNL     1       5.261  28.595  73.360  1.00  0.00     0.139 C 
ENDBRANCH  11  12
ENDBRANCH  10  11
ENDBRANCH   9  10
ENDBRANCH   2   9
TORSDOF 7
ENDMDL
MODEL 5
REMARK VINA RESULT:    -5.212      2.824      5.661
REMARK INTER + INTRA:          -8.393
REMARK INTER:                  -7.334
REMARK INTRA:                  -1.059
REMARK UNBOUND:                -1.048
REMARK SMILES CC(=O)OCC[C@@H](C)CCC=C(C)C
REMARK SMILES IDX 8 1 7 2 9 3 10 4 11 5 12 6 13 7 14 8 6 9 5 10 4 11 2 12 3 13
REMARK SMILES IDX 1 14
REMARK H PARENT
REMARK Flexibility Score: inf
ROOT
ATOM      1  C   UNL     1       3.659  31.556  69.712  1.00  0.00     0.008 C 
ATOM      2  C   UNL     1       4.293  30.573  68.717  1.00  0.00    -0.011 C 
ENDROOT
BRANCH   2   3
ATOM      3  C   UNL     1       3.815  29.120  68.973  1.00  0.00     0.007 C 
BRANCH   3   4
ATOM      4  C   UNL     1       2.917  28.951  70.211  1.00  0.00     0.027 C 
BRANCH   4   5
ATOM      5  C   UNL     1       3.473  27.893  71.130  1.00  0.00    -0.028 C 
ATOM      6  C   UNL     1       4.083  28.153  72.309  1.00  0.00    -0.080 C 
ATOM      7  C   UNL     1       4.200  29.554  72.859  1.00  0.00     0.039 C 
ATOM      8  C   UNL     1       4.629  27.019  73.137  1.00  0.00     0.039 C 
ENDBRANCH   4   5
ENDBRANCH   3   4
ENDBRANCH   2   3
BRANCH   2   9
ATOM      9  C   UNL     1       4.074  31.064  67.265  1.00  0.00     0.045 C 
BRANCH   9  10
ATOM     10  C   UNL     1       2.936  32.088  67.122  1.00  0.00     0.233 C 
BRANCH  10  11
ATOM     11  O   UNL     1       1.760  31.490  66.580  1.00  0.00    -0.466 OA
BRANCH  11  12
ATOM     12  C   UNL     1       0.876  30.707  67.330  1.00  0.00     0.302 C 
ATOM     13  O   UNL     1       0.842  29.455  67.191  1.00  0.00    -0.253 OA
ATOM     14  C   UNL     1      -0.006  31.360  68.339  1.00  0.00     0.139 C 
ENDBRANCH  11  12
ENDBRANCH  10  11
ENDBRANCH   9  10
ENDBRANCH   2   9
TORSDOF 7
ENDMDL
MODEL 6
REMARK VINA RESULT:    -5.182      2.250      3.797
REMARK INTER + INTRA:          -8.351
REMARK INTER:                  -7.022
REMARK INTRA:                  -1.329
REMARK UNBOUND:                -1.048
REMARK SMILES CC(=O)OCC[C@@H](C)CCC=C(C)C
REMARK SMILES IDX 8 1 7 2 9 3 10 4 11 5 12 6 13 7 14 8 6 9 5 10 4 11 2 12 3 13
REMARK SMILES IDX 1 14
REMARK H PARENT
REMARK Flexibility Score: inf
ROOT
ATOM      1  C   UNL     1       4.380  30.638  67.241  1.00  0.00     0.008 C 
ATOM      2  C   UNL     1       4.562  30.876  68.748  1.00  0.00    -0.011 C 
ENDROOT
BRANCH   2   3
ATOM      3  C   UNL     1       3.894  32.202  69.197  1.00  0.00     0.007 C 
BRANCH   3   4
ATOM      4  C   UNL     1       3.642  33.208  68.061  1.00  0.00     0.027 C 
BRANCH   4   5
ATOM      5  C   UNL     1       2.179  33.564  67.981  1.00  0.00    -0.028 C 
ATOM      6  C   UNL     1       1.420  33.414  66.871  1.00  0.00    -0.080 C 
ATOM      7  C   UNL     1       1.962  32.797  65.606  1.00  0.00     0.039 C 
ATOM      8  C   UNL     1      -0.028  33.831  66.893  1.00  0.00     0.039 C 
ENDBRANCH   4   5
ENDBRANCH   3   4
ENDBRANCH   2   3
BRANCH   2   9
ATOM      9  C   UNL     1       4.099  29.633  69.546  1.00  0.00     0.045 C 
BRANCH   9  10
ATOM     10  C   UNL     1       2.790  29.846  70.322  1.00  0.00     0.233 C 
BRANCH  10  11
ATOM     11  O   UNL     1       1.674  29.289  69.629  1.00  0.00    -0.466 OA
BRANCH  11  12
ATOM     12  C   UNL     1       0.880  30.017  68.736  1.00  0.00     0.302 C 
ATOM     13  O   UNL     1       0.170  30.978  69.136  1.00  0.00    -0.253 OA
ATOM     14  C   UNL     1       0.909  29.676  67.285  1.00  0.00     0.139 C 
ENDBRANCH  11  12
ENDBRANCH  10  11
ENDBRANCH   9  10
ENDBRANCH   2   9
TORSDOF 7
ENDMDL
MODEL 7
REMARK VINA RESULT:    -5.149      1.814      2.939
REMARK INTER + INTRA:          -8.304
REMARK INTER:                  -7.337
REMARK INTRA:                  -0.967
REMARK UNBOUND:                -1.048
REMARK SMILES CC(=O)OCC[C@@H](C)CCC=C(C)C
REMARK SMILES IDX 8 1 7 2 9 3 10 4 11 5 12 6 13 7 14 8 6 9 5 10 4 11 2 12 3 13
REMARK SMILES IDX 1 14
REMARK H PARENT
REMARK Flexibility Score: inf
ROOT
ATOM      1  C   UNL     1       4.078  30.405  67.568  1.00  0.00     0.008 C 
ATOM      2  C   UNL     1       4.262  31.458  68.673  1.00  0.00    -0.011 C 
ENDROOT
BRANCH   2   3
ATOM      3  C   UNL     1       4.231  32.897  68.095  1.00  0.00     0.007 C 
BRANCH   3   4
ATOM      4  C   UNL     1       2.828  33.521  68.007  1.00  0.00     0.027 C 
BRANCH   4   5
ATOM      5  C   UNL     1       2.337  33.524  66.581  1.00  0.00    -0.028 C 
ATOM      6  C   UNL     1       1.389  32.685  66.101  1.00  0.00    -0.080 C 
ATOM      7  C   UNL     1       0.671  31.697  66.986  1.00  0.00     0.039 C 
ATOM      8  C   UNL     1       0.993  32.755  64.649  1.00  0.00     0.039 C 
ENDBRANCH   4   5
ENDBRANCH   3   4
ENDBRANCH   2   3
BRANCH   2   9
ATOM      9  C   UNL     1       3.248  31.214  69.818  1.00  0.00     0.045 C 
BRANCH   9  10
ATOM     10  C   UNL     1       3.352  29.817  70.450  1.00  0.00     0.233 C 
BRANCH  10  11
ATOM     11  O   UNL     1       4.551  29.674  71.210  1.00  0.00    -0.466 OA
BRANCH  11  12
ATOM     12  C   UNL     1       5.619  28.858  70.818  1.00  0.00     0.302 C 
ATOM     13  O   UNL     1       6.810  29.258  70.920  1.00  0.00    -0.253 OA
ATOM     14  C   UNL     1       5.343  27.483  70.315  1.00  0.00     0.139 C 
ENDBRANCH  11  12
ENDBRANCH  10  11
ENDBRANCH   9  10
ENDBRANCH   2   9
TORSDOF 7
ENDMDL
MODEL 8
REMARK VINA RESULT:    -5.138      2.647      6.227
REMARK INTER + INTRA:          -8.289
REMARK INTER:                  -7.339
REMARK INTRA:                  -0.949
REMARK UNBOUND:                -1.048
REMARK SMILES CC(=O)OCC[C@@H](C)CCC=C(C)C
REMARK SMILES IDX 8 1 7 2 9 3 10 4 11 5 12 6 13 7 14 8 6 9 5 10 4 11 2 12 3 13
REMARK SMILES IDX 1 14
REMARK H PARENT
REMARK Flexibility Score: inf
ROOT
ATOM      1  C   UNL     1       3.449  30.833  70.879  1.00  0.00     0.008 C 
ATOM      2  C   UNL     1       4.479  30.245  69.901  1.00  0.00    -0.011 C 
ENDROOT
BRANCH   2   3
ATOM      3  C   UNL     1       5.819  29.927  70.613  1.00  0.00     0.007 C 
BRANCH   3   4
ATOM      4  C   UNL     1       5.737  29.900  72.149  1.00  0.00     0.027 C 
BRANCH   4   5
ATOM      5  C   UNL     1       6.208  28.571  72.683  1.00  0.00    -0.028 C 
ATOM      6  C   UNL     1       5.385  27.544  73.001  1.00  0.00    -0.080 C 
ATOM      7  C   UNL     1       3.895  27.612  72.776  1.00  0.00     0.039 C 
ATOM      8  C   UNL     1       5.961  26.267  73.556  1.00  0.00     0.039 C 
ENDBRANCH   4   5
ENDBRANCH   3   4
ENDBRANCH   2   3
BRANCH   2   9
ATOM      9  C   UNL     1       3.867  29.044  69.138  1.00  0.00     0.045 C 
BRANCH   9  10
ATOM     10  C   UNL     1       3.650  29.309  67.639  1.00  0.00     0.233 C 
BRANCH  10  11
ATOM     11  O   UNL     1       2.374  29.896  67.391  1.00  0.00    -0.466 OA
BRANCH  11  12
ATOM     12  C   UNL     1       2.207  31.173  66.844  1.00  0.00     0.302 C 
ATOM     13  O   UNL     1       1.082  31.555  66.421  1.00  0.00    -0.253 OA
ATOM     14  C   UNL     1       3.366  32.109  66.800  1.00  0.00     0.139 C 
ENDBRANCH  11  12
ENDBRANCH  10  11
ENDBRANCH   9  10
ENDBRANCH   2   9
TORSDOF 7
ENDMDL
MODEL 9
REMARK VINA RESULT:    -5.076      2.863      5.750
REMARK INTER + INTRA:          -8.201
REMARK INTER:                  -7.161
REMARK INTRA:                  -1.040
REMARK UNBOUND:                -1.048
REMARK SMILES CC(=O)OCC[C@@H](C)CCC=C(C)C
REMARK SMILES IDX 8 1 7 2 9 3 10 4 11 5 12 6 13 7 14 8 6 9 5 10 4 11 2 12 3 13
REMARK SMILES IDX 1 14
REMARK H PARENT
REMARK Flexibility Score: inf
ROOT
ATOM      1  C   UNL     1       2.513  29.021  68.770  1.00  0.00     0.008 C 
ATOM      2  C   UNL     1       1.983  30.103  69.723  1.00  0.00    -0.011 C 
ENDROOT
BRANCH   2   3
ATOM      3  C   UNL     1       3.143  30.858  70.424  1.00  0.00     0.007 C 
BRANCH   3   4
ATOM      4  C   UNL     1       4.550  30.407  69.996  1.00  0.00     0.027 C 
BRANCH   4   5
ATOM      5  C   UNL     1       5.357  29.976  71.195  1.00  0.00    -0.028 C 
ATOM      6  C   UNL     1       5.685  28.692  71.470  1.00  0.00    -0.080 C 
ATOM      7  C   UNL     1       5.326  27.557  70.543  1.00  0.00     0.039 C 
ATOM      8  C   UNL     1       6.471  28.370  72.714  1.00  0.00     0.039 C 
ENDBRANCH   4   5
ENDBRANCH   3   4
ENDBRANCH   2   3
BRANCH   2   9
ATOM      9  C   UNL     1       0.983  31.025  68.984  1.00  0.00     0.045 C 
BRANCH   9  10
ATOM     10  C   UNL     1       0.979  30.838  67.459  1.00  0.00     0.233 C 
BRANCH  10  11
ATOM     11  O   UNL     1       1.598  31.939  66.795  1.00  0.00    -0.466 OA
BRANCH  11  12
ATOM     12  C   UNL     1       2.916  32.343  67.037  1.00  0.00     0.302 C 
ATOM     13  O   UNL     1       3.889  31.623  66.686  1.00  0.00    -0.253 OA
ATOM     14  C   UNL     1       3.171  33.663  67.681  1.00  0.00     0.139 C 
ENDBRANCH  11  12
ENDBRANCH  10  11
ENDBRANCH   9  10
ENDBRANCH   2   9
TORSDOF 7
ENDMDL
