MODEL 1
REMARK VINA RESULT:    -4.539      0.000      0.000
REMARK INTER + INTRA:          -6.686
REMARK INTER:                  -6.131
REMARK INTRA:                  -0.555
REMARK UNBOUND:                -0.555
REMARK SMILES CC(=O)CCC=C(C)CCC=C(C)C
REMARK SMILES IDX 7 1 6 2 8 3 9 4 10 5 11 6 13 7 12 8 14 9 5 10 4 11 2 12 3 13
REMARK SMILES IDX 1 14
REMARK H PARENT
REMARK Flexibility Score: inf
ROOT
ATOM      1  C   UNL     1     -18.923  -3.498   9.310  1.00  0.00    -0.077 C 
ATOM      2  C   UNL     1     -17.684  -3.072   9.643  1.00  0.00    -0.028 C 
ATOM      3  C   UNL     1     -20.101  -2.555   9.236  1.00  0.00     0.039 C 
ENDROOT
BRANCH   1   4
ATOM      4  C   UNL     1     -19.132  -4.960   8.981  1.00  0.00     0.034 C 
BRANCH   4   5
ATOM      5  C   UNL     1     -19.329  -5.158   7.475  1.00  0.00     0.032 C 
BRANCH   5   6
ATOM      6  C   UNL     1     -18.022  -4.999   6.739  1.00  0.00    -0.028 C 
ATOM      7  C   UNL     1     -16.299  -5.489   5.055  1.00  0.00     0.039 C 
ATOM      8  C   UNL     1     -17.657  -5.733   5.664  1.00  0.00    -0.080 C 
ATOM      9  C   UNL     1     -18.572  -6.767   5.052  1.00  0.00     0.039 C 
ENDBRANCH   5   6
ENDBRANCH   4   5
ENDBRANCH   1   4
BRANCH   2  10
ATOM     10  C   UNL     1     -17.342  -1.654  10.037  1.00  0.00     0.035 C 
BRANCH  10  11
ATOM     11  C   UNL     1     -17.185  -1.511  11.557  1.00  0.00     0.079 C 
BRANCH  11  12
ATOM     12  C   UNL     1     -17.519  -0.116  12.022  1.00  0.00     0.130 C 
ATOM     13  O   UNL     1     -16.807   0.428  12.852  1.00  0.00    -0.300 OA
ATOM     14  C   UNL     1     -18.710   0.620  11.484  1.00  0.00     0.087 C 
ENDBRANCH  11  12
ENDBRANCH  10  11
ENDBRANCH   2  10
TORSDOF 6
ENDMDL
MODEL 2
REMARK VINA RESULT:    -4.531      3.246      4.903
REMARK INTER + INTRA:          -6.676
REMARK INTER:                  -5.449
REMARK INTRA:                  -1.226
REMARK UNBOUND:                -0.555
REMARK SMILES CC(=O)CCC=C(C)CCC=C(C)C
REMARK SMILES IDX 7 1 6 2 8 3 9 4 10 5 11 6 13 7 12 8 14 9 5 10 4 11 2 12 3 13
REMARK SMILES IDX 1 14
REMARK H PARENT
REMARK Flexibility Score: inf
ROOT
ATOM      1  C   UNL     1     -17.647  -0.752  10.921  1.00  0.00    -0.077 C 
ATOM      2  C   UNL     1     -18.523   0.240  10.645  1.00  0.00    -0.028 C 
ATOM      3  C   UNL     1     -16.957  -0.859  12.261  1.00  0.00     0.039 C 
ENDROOT
BRANCH   1   4
ATOM      4  C   UNL     1     -17.366  -1.797   9.865  1.00  0.00     0.034 C 
BRANCH   4   5
ATOM      5  C   UNL     1     -18.127  -3.093  10.163  1.00  0.00     0.032 C 
BRANCH   5   6
ATOM      6  C   UNL     1     -19.491  -3.073   9.520  1.00  0.00    -0.028 C 
ATOM      7  C   UNL     1     -21.940  -2.894   9.414  1.00  0.00     0.039 C 
ATOM      8  C   UNL     1     -20.645  -2.844  10.185  1.00  0.00    -0.080 C 
ATOM      9  C   UNL     1     -20.670  -2.525  11.661  1.00  0.00     0.039 C 
ENDBRANCH   5   6
ENDBRANCH   4   5
ENDBRANCH   1   4
BRANCH   2  10
ATOM     10  C   UNL     1     -18.863   1.372  11.587  1.00  0.00     0.035 C 
BRANCH  10  11
ATOM     11  C   UNL     1     -20.209   2.017  11.235  1.00  0.00     0.079 C 
BRANCH  11  12
ATOM     12  C   UNL     1     -21.367   1.137  11.630  1.00  0.00     0.130 C 
ATOM     13  O   UNL     1     -21.499   0.802  12.798  1.00  0.00    -0.300 OA
ATOM     14  C   UNL     1     -22.366   0.661  10.617  1.00  0.00     0.087 C 
ENDBRANCH  11  12
ENDBRANCH  10  11
ENDBRANCH   2  10
TORSDOF 6
ENDMDL
MODEL 3
REMARK VINA RESULT:    -4.493      2.394      3.866
REMARK INTER + INTRA:          -6.624
REMARK INTER:                  -5.682
REMARK INTRA:                  -0.941
REMARK UNBOUND:                -0.555
REMARK SMILES CC(=O)CCC=C(C)CCC=C(C)C
REMARK SMILES IDX 7 1 6 2 8 3 9 4 10 5 11 6 13 7 12 8 14 9 5 10 4 11 2 12 3 13
REMARK SMILES IDX 1 14
REMARK H PARENT
REMARK Flexibility Score: inf
ROOT
ATOM      1  C   UNL     1     -17.734  -1.182  10.642  1.00  0.00    -0.077 C 
ATOM      2  C   UNL     1     -18.738  -0.379  10.224  1.00  0.00    -0.028 C 
ATOM      3  C   UNL     1     -16.971  -0.911  11.918  1.00  0.00     0.039 C 
ENDROOT
BRANCH   1   4
ATOM      4  C   UNL     1     -17.378  -2.401   9.820  1.00  0.00     0.034 C 
BRANCH   4   5
ATOM      5  C   UNL     1     -18.456  -3.482   9.952  1.00  0.00     0.032 C 
BRANCH   5   6
ATOM      6  C   UNL     1     -18.763  -4.098   8.611  1.00  0.00    -0.028 C 
ATOM      7  C   UNL     1     -20.039  -4.517   6.551  1.00  0.00     0.039 C 
ATOM      8  C   UNL     1     -19.841  -3.788   7.856  1.00  0.00    -0.080 C 
ATOM      9  C   UNL     1     -20.832  -2.727   8.274  1.00  0.00     0.039 C 
ENDBRANCH   5   6
ENDBRANCH   4   5
ENDBRANCH   1   4
BRANCH   2  10
ATOM     10  C   UNL     1     -19.167   0.891  10.920  1.00  0.00     0.035 C 
BRANCH  10  11
ATOM     11  C   UNL     1     -20.314   0.637  11.907  1.00  0.00     0.079 C 
BRANCH  11  12
ATOM     12  C   UNL     1     -21.239  -0.448  11.417  1.00  0.00     0.130 C 
ATOM     13  O   UNL     1     -22.036  -0.202  10.524  1.00  0.00    -0.300 OA
ATOM     14  C   UNL     1     -21.202  -1.827  12.005  1.00  0.00     0.087 C 
ENDBRANCH  11  12
ENDBRANCH  10  11
ENDBRANCH   2  10
TORSDOF 6
ENDMDL
MODEL 4
REMARK VINA RESULT:    -4.480      3.879      7.451
REMARK INTER + INTRA:          -6.606
REMARK INTER:                  -6.216
REMARK INTRA:                  -0.390
REMARK UNBOUND:                -0.555
REMARK SMILES CC(=O)CCC=C(C)CCC=C(C)C
REMARK SMILES IDX 7 1 6 2 8 3 9 4 10 5 11 6 13 7 12 8 14 9 5 10 4 11 2 12 3 13
REMARK SMILES IDX 1 14
REMARK H PARENT
REMARK Flexibility Score: inf
ROOT
ATOM      1  C   UNL     1     -19.243  -4.963   8.652  1.00  0.00    -0.077 C 
ATOM      2  C   UNL     1     -20.190  -5.910   8.837  1.00  0.00    -0.028 C 
ATOM      3  C   UNL     1     -18.426  -4.885   7.384  1.00  0.00     0.039 C 
ENDROOT
BRANCH   1   4
ATOM      4  C   UNL     1     -19.009  -3.938   9.740  1.00  0.00     0.034 C 
BRANCH   4   5
ATOM      5  C   UNL     1     -17.852  -3.004   9.371  1.00  0.00     0.032 C 
BRANCH   5   6
ATOM      6  C   UNL     1     -17.269  -2.362  10.604  1.00  0.00    -0.028 C 
ATOM      7  C   UNL     1     -16.896  -0.599  12.276  1.00  0.00     0.039 C 
ATOM      8  C   UNL     1     -17.592  -1.126  11.047  1.00  0.00    -0.080 C 
ATOM      9  C   UNL     1     -18.634  -0.276  10.360  1.00  0.00     0.039 C 
ENDBRANCH   5   6
ENDBRANCH   4   5
ENDBRANCH   1   4
BRANCH   2  10
ATOM     10  C   UNL     1     -20.497  -7.019   7.857  1.00  0.00     0.035 C 
BRANCH  10  11
ATOM     11  C   UNL     1     -20.708  -8.361   8.569  1.00  0.00     0.079 C 
BRANCH  11  12
ATOM     12  C   UNL     1     -20.499  -9.525   7.635  1.00  0.00     0.130 C 
ATOM     13  O   UNL     1     -19.545 -10.270   7.804  1.00  0.00    -0.300 OA
ATOM     14  C   UNL     1     -21.440  -9.789   6.497  1.00  0.00     0.087 C 
ENDBRANCH  11  12
ENDBRANCH  10  11
ENDBRANCH   2  10
TORSDOF 6
ENDMDL
MODEL 5
REMARK VINA RESULT:    -4.456      3.100      6.793
REMARK INTER + INTRA:          -6.574
REMARK INTER:                  -5.782
REMARK INTRA:                  -0.792
REMARK UNBOUND:                -0.555
REMARK SMILES CC(=O)CCC=C(C)CCC=C(C)C
REMARK SMILES IDX 7 1 6 2 8 3 9 4 10 5 11 6 13 7 12 8 14 9 5 10 4 11 2 12 3 13
REMARK SMILES IDX 1 14
REMARK H PARENT
REMARK Flexibility Score: inf
ROOT
ATOM      1  C   UNL     1     -19.088  -3.901   8.822  1.00  0.00    -0.077 C 
ATOM      2  C   UNL     1     -18.531  -4.604   7.810  1.00  0.00    -0.028 C 
ATOM      3  C   UNL     1     -20.536  -3.470   8.795  1.00  0.00     0.039 C 
ENDROOT
BRANCH   1   4
ATOM      4  C   UNL     1     -18.241  -3.555  10.027  1.00  0.00     0.034 C 
BRANCH   4   5
ATOM      5  C   UNL     1     -17.400  -2.303   9.761  1.00  0.00     0.032 C 
BRANCH   5   6
ATOM      6  C   UNL     1     -18.160  -1.057  10.139  1.00  0.00    -0.028 C 
ATOM      7  C   UNL     1     -18.850   0.831  11.555  1.00  0.00     0.039 C 
ATOM      8  C   UNL     1     -17.988  -0.378  11.296  1.00  0.00    -0.080 C 
ATOM      9  C   UNL     1     -16.952  -0.786  12.317  1.00  0.00     0.039 C 
ENDBRANCH   5   6
ENDBRANCH   4   5
ENDBRANCH   1   4
BRANCH   2  10
ATOM     10  C   UNL     1     -19.244  -4.978   6.532  1.00  0.00     0.035 C 
BRANCH  10  11
ATOM     11  C   UNL     1     -19.518  -6.486   6.456  1.00  0.00     0.079 C 
BRANCH  11  12
ATOM     12  C   UNL     1     -20.684  -6.883   7.325  1.00  0.00     0.130 C 
ATOM     13  O   UNL     1     -21.816  -6.559   6.999  1.00  0.00    -0.300 OA
ATOM     14  C   UNL     1     -20.484  -7.670   8.586  1.00  0.00     0.087 C 
ENDBRANCH  11  12
ENDBRANCH  10  11
ENDBRANCH   2  10
TORSDOF 6
ENDMDL
MODEL 6
REMARK VINA RESULT:    -4.445      2.930      6.537
REMARK INTER + INTRA:          -6.559
REMARK INTER:                  -5.529
REMARK INTRA:                  -1.030
REMARK UNBOUND:                -0.555
REMARK SMILES CC(=O)CCC=C(C)CCC=C(C)C
REMARK SMILES IDX 7 1 6 2 8 3 9 4 10 5 11 6 13 7 12 8 14 9 5 10 4 11 2 12 3 13
REMARK SMILES IDX 1 14
REMARK H PARENT
REMARK Flexibility Score: inf
ROOT
ATOM      1  C   UNL     1     -17.938  -0.480  11.169  1.00  0.00    -0.077 C 
ATOM      2  C   UNL     1     -18.103  -1.223  10.051  1.00  0.00    -0.028 C 
ATOM      3  C   UNL     1     -16.963  -0.874  12.254  1.00  0.00     0.039 C 
ENDROOT
BRANCH   1   4
ATOM      4  C   UNL     1     -18.737   0.794  11.328  1.00  0.00     0.034 C 
BRANCH   4   5
ATOM      5  C   UNL     1     -20.121   0.654  10.685  1.00  0.00     0.032 C 
BRANCH   5   6
ATOM      6  C   UNL     1     -21.183   0.461  11.739  1.00  0.00    -0.028 C 
ATOM      7  C   UNL     1     -22.804  -0.767  13.119  1.00  0.00     0.039 C 
ATOM      8  C   UNL     1     -21.720  -0.734  12.072  1.00  0.00    -0.080 C 
ATOM      9  C   UNL     1     -21.253  -2.025  11.443  1.00  0.00     0.039 C 
ENDBRANCH   5   6
ENDBRANCH   4   5
ENDBRANCH   1   4
BRANCH   2  10
ATOM     10  C   UNL     1     -17.406  -2.536   9.782  1.00  0.00     0.035 C 
BRANCH  10  11
ATOM     11  C   UNL     1     -18.388  -3.715   9.815  1.00  0.00     0.079 C 
BRANCH  11  12
ATOM     12  C   UNL     1     -18.896  -4.054   8.437  1.00  0.00     0.130 C 
ATOM     13  O   UNL     1     -18.156  -4.616   7.644  1.00  0.00    -0.300 OA
ATOM     14  C   UNL     1     -20.296  -3.716   8.018  1.00  0.00     0.087 C 
ENDBRANCH  11  12
ENDBRANCH  10  11
ENDBRANCH   2  10
TORSDOF 6
ENDMDL
MODEL 7
REMARK VINA RESULT:    -4.427      3.758      7.109
REMARK INTER + INTRA:          -6.534
REMARK INTER:                  -5.678
REMARK INTRA:                  -0.856
REMARK UNBOUND:                -0.555
REMARK SMILES CC(=O)CCC=C(C)CCC=C(C)C
REMARK SMILES IDX 7 1 6 2 8 3 9 4 10 5 11 6 13 7 12 8 14 9 5 10 4 11 2 12 3 13
REMARK SMILES IDX 1 14
REMARK H PARENT
REMARK Flexibility Score: inf
ROOT
ATOM      1  C   UNL     1     -19.230  -4.318   8.684  1.00  0.00    -0.077 C 
ATOM      2  C   UNL     1     -19.288  -5.598   9.114  1.00  0.00    -0.028 C 
ATOM      3  C   UNL     1     -20.431  -3.619   8.090  1.00  0.00     0.039 C 
ENDROOT
BRANCH   1   4
ATOM      4  C   UNL     1     -17.931  -3.555   8.824  1.00  0.00     0.034 C 
BRANCH   4   5
ATOM      5  C   UNL     1     -17.770  -3.007  10.245  1.00  0.00     0.032 C 
BRANCH   5   6
ATOM      6  C   UNL     1     -18.295  -1.596  10.337  1.00  0.00    -0.028 C 
ATOM      7  C   UNL     1     -19.874   0.197  10.915  1.00  0.00     0.039 C 
ATOM      8  C   UNL     1     -19.458  -1.252  10.936  1.00  0.00    -0.080 C 
ATOM      9  C   UNL     1     -20.331  -2.268  11.633  1.00  0.00     0.039 C 
ENDBRANCH   5   6
ENDBRANCH   4   5
ENDBRANCH   1   4
BRANCH   2  10
ATOM     10  C   UNL     1     -20.503  -6.490   8.995  1.00  0.00     0.035 C 
BRANCH  10  11
ATOM     11  C   UNL     1     -20.359  -7.493   7.844  1.00  0.00     0.079 C 
BRANCH  11  12
ATOM     12  C   UNL     1     -20.786  -8.878   8.257  1.00  0.00     0.130 C 
ATOM     13  O   UNL     1     -21.743  -9.015   9.005  1.00  0.00    -0.300 OA
ATOM     14  C   UNL     1     -20.060 -10.096   7.768  1.00  0.00     0.087 C 
ENDBRANCH  11  12
ENDBRANCH  10  11
ENDBRANCH   2  10
TORSDOF 6
ENDMDL
MODEL 8
REMARK VINA RESULT:    -4.396     17.796     18.957
REMARK INTER + INTRA:          -6.493
REMARK INTER:                  -5.612
REMARK INTRA:                  -0.882
REMARK UNBOUND:                -0.555
REMARK SMILES CC(=O)CCC=C(C)CCC=C(C)C
REMARK SMILES IDX 7 1 6 2 8 3 9 4 10 5 11 6 13 7 12 8 14 9 5 10 4 11 2 12 3 13
REMARK SMILES IDX 1 14
REMARK H PARENT
REMARK Flexibility Score: inf
ROOT
ATOM      1  C   UNL     1      -4.912 -12.488  18.905  1.00  0.00    -0.077 C 
ATOM      2  C   UNL     1      -3.948 -13.433  18.987  1.00  0.00    -0.028 C 
ATOM      3  C   UNL     1      -6.376 -12.822  19.074  1.00  0.00     0.039 C 
ENDROOT
BRANCH   1   4
ATOM      4  C   UNL     1      -4.510 -11.051  18.659  1.00  0.00     0.034 C 
BRANCH   4   5
ATOM      5  C   UNL     1      -4.032 -10.857  17.216  1.00  0.00     0.032 C 
BRANCH   5   6
ATOM      6  C   UNL     1      -4.822  -9.770  16.532  1.00  0.00    -0.028 C 
ATOM      7  C   UNL     1      -5.929  -8.607  14.671  1.00  0.00     0.039 C 
ATOM      8  C   UNL     1      -5.170  -9.786  15.226  1.00  0.00    -0.080 C 
ATOM      9  C   UNL     1      -4.837 -10.950  14.322  1.00  0.00     0.039 C 
ENDBRANCH   5   6
ENDBRANCH   4   5
ENDBRANCH   1   4
BRANCH   2  10
ATOM     10  C   UNL     1      -4.208 -14.909  19.183  1.00  0.00     0.035 C 
BRANCH  10  11
ATOM     11  C   UNL     1      -3.880 -15.715  17.920  1.00  0.00     0.079 C 
BRANCH  11  12
ATOM     12  C   UNL     1      -4.926 -15.525  16.851  1.00  0.00     0.130 C 
ATOM     13  O   UNL     1      -5.952 -16.187  16.888  1.00  0.00    -0.300 OA
ATOM     14  C   UNL     1      -4.734 -14.535  15.740  1.00  0.00     0.087 C 
ENDBRANCH  11  12
ENDBRANCH  10  11
ENDBRANCH   2  10
TORSDOF 6
ENDMDL
MODEL 9
REMARK VINA RESULT:    -4.363      1.930      2.927
REMARK INTER + INTRA:          -6.449
REMARK INTER:                  -5.445
REMARK INTRA:                  -1.004
REMARK UNBOUND:                -0.555
REMARK SMILES CC(=O)CCC=C(C)CCC=C(C)C
REMARK SMILES IDX 7 1 6 2 8 3 9 4 10 5 11 6 13 7 12 8 14 9 5 10 4 11 2 12 3 13
REMARK SMILES IDX 1 14
REMARK H PARENT
REMARK Flexibility Score: inf
ROOT
ATOM      1  C   UNL     1     -18.224  -2.613  10.100  1.00  0.00    -0.077 C 
ATOM      2  C   UNL     1     -19.514  -2.711  10.493  1.00  0.00    -0.028 C 
ATOM      3  C   UNL     1     -17.259  -1.654  10.757  1.00  0.00     0.039 C 
ENDROOT
BRANCH   1   4
ATOM      4  C   UNL     1     -17.727  -3.506   8.985  1.00  0.00     0.034 C 
BRANCH   4   5
ATOM      5  C   UNL     1     -18.721  -4.639   8.709  1.00  0.00     0.032 C 
BRANCH   5   6
ATOM      6  C   UNL     1     -18.878  -4.864   7.226  1.00  0.00    -0.028 C 
ATOM      7  C   UNL     1     -19.919  -4.675   5.007  1.00  0.00     0.039 C 
ATOM      8  C   UNL     1     -19.866  -4.329   6.474  1.00  0.00    -0.080 C 
ATOM      9  C   UNL     1     -20.896  -3.389   7.055  1.00  0.00     0.039 C 
ENDBRANCH   5   6
ENDBRANCH   4   5
ENDBRANCH   1   4
BRANCH   2  10
ATOM     10  C   UNL     1     -20.154  -1.853  11.559  1.00  0.00     0.035 C 
BRANCH  10  11
ATOM     11  C   UNL     1     -21.025  -0.748  10.949  1.00  0.00     0.079 C 
BRANCH  11  12
ATOM     12  C   UNL     1     -20.323   0.586  10.964  1.00  0.00     0.130 C 
ATOM     13  O   UNL     1     -20.321   1.254  11.988  1.00  0.00    -0.300 OA
ATOM     14  C   UNL     1     -19.625   1.113   9.746  1.00  0.00     0.087 C 
ENDBRANCH  11  12
ENDBRANCH  10  11
ENDBRANCH   2  10
TORSDOF 6
ENDMDL
