MODEL 1
REMARK VINA RESULT:    -2.859      0.000      0.000
REMARK INTER + INTRA:          -7.284
REMARK INTER:                  -5.533
REMARK INTRA:                  -1.751
REMARK UNBOUND:                -1.751
REMARK SMILES CCCCCCCCCCCCCCCCCC(=O)[O-]
REMARK SMILES IDX 10 1 11 2 12 3 13 4 14 5 15 6 16 7 17 8 18 9 19 10 20 11
REMARK SMILES IDX 9 12 8 13 7 14 6 15 5 16 4 17 3 18 2 19 1 20
REMARK H PARENT
REMARK Flexibility Score: inf
ROOT
ATOM      1  C   UNL     1      -9.444   8.128   6.547  1.00  0.00     0.000 C 
ENDROOT
BRANCH   1   2
ATOM      2  C   UNL     1      -9.706   8.778   5.175  1.00  0.00     0.000 C 
BRANCH   2   3
ATOM      3  C   UNL     1      -9.623   7.771   4.015  1.00  0.00     0.000 C 
BRANCH   3   4
ATOM      4  C   UNL     1      -8.294   7.882   3.238  1.00  0.00     0.000 C 
BRANCH   4   5
ATOM      5  C   UNL     1      -7.520   9.179   3.525  1.00  0.00     0.000 C 
BRANCH   5   6
ATOM      6  C   UNL     1      -7.483  10.125   2.314  1.00  0.00     0.000 C 
BRANCH   6   7
ATOM      7  C   UNL     1      -8.678   9.939   1.366  1.00  0.00     0.006 C 
BRANCH   7   8
ATOM      8  C   UNL     1      -8.298   9.881  -0.125  1.00  0.00     0.053 C 
BRANCH   8   9
ATOM      9  C   UNL     1      -9.127   8.900  -0.894  1.00  0.00     0.041 C 
ATOM     10  O   UNL     1      -9.187   8.967  -2.151  1.00  0.00    -0.550 OA
ATOM     11  O   UNL     1      -9.866   7.934  -0.223  1.00  0.00    -0.550 OA
ENDBRANCH   8   9
ENDBRANCH   7   8
ENDBRANCH   6   7
ENDBRANCH   5   6
ENDBRANCH   4   5
ENDBRANCH   3   4
ENDBRANCH   2   3
ENDBRANCH   1   2
BRANCH   1  12
ATOM     12  C   UNL     1      -7.955   8.026   6.928  1.00  0.00     0.000 C 
BRANCH  12  13
ATOM     13  C   UNL     1      -7.603   8.869   8.166  1.00  0.00    -0.000 C 
BRANCH  13  14
ATOM     14  C   UNL     1      -6.079   9.013   8.370  1.00  0.00    -0.000 C 
BRANCH  14  15
ATOM     15  C   UNL     1      -5.483   7.992   9.358  1.00  0.00    -0.000 C 
BRANCH  15  16
ATOM     16  C   UNL     1      -5.268   6.577   8.789  1.00  0.00    -0.000 C 
BRANCH  16  17
ATOM     17  C   UNL     1      -5.918   5.444   9.604  1.00  0.00    -0.000 C 
BRANCH  17  18
ATOM     18  C   UNL     1      -7.344   5.111   9.133  1.00  0.00    -0.000 C 
BRANCH  18  19
ATOM     19  C   UNL     1      -8.420   5.719  10.044  1.00  0.00    -0.003 C 
ATOM     20  C   UNL     1      -9.806   5.724   9.408  1.00  0.00     0.004 C 
ENDBRANCH  18  19
ENDBRANCH  17  18
ENDBRANCH  16  17
ENDBRANCH  15  16
ENDBRANCH  14  15
ENDBRANCH  13  14
ENDBRANCH  12  13
ENDBRANCH   1  12
TORSDOF 16
ENDMDL
MODEL 2
REMARK VINA RESULT:    -2.709      1.193      2.801
REMARK INTER + INTRA:          -6.994
REMARK INTER:                  -5.634
REMARK INTRA:                  -1.361
REMARK UNBOUND:                -1.751
REMARK SMILES CCCCCCCCCCCCCCCCCC(=O)[O-]
REMARK SMILES IDX 10 1 11 2 12 3 13 4 14 5 15 6 16 7 17 8 18 9 19 10 20 11
REMARK SMILES IDX 9 12 8 13 7 14 6 15 5 16 4 17 3 18 2 19 1 20
REMARK H PARENT
REMARK Flexibility Score: inf
ROOT
ATOM      1  C   UNL     1      -8.452   7.487   6.642  1.00  0.00     0.000 C 
ENDROOT
BRANCH   1   2
ATOM      2  C   UNL     1      -8.248   8.903   6.072  1.00  0.00     0.000 C 
BRANCH   2   3
ATOM      3  C   UNL     1      -9.515   9.461   5.400  1.00  0.00     0.000 C 
BRANCH   3   4
ATOM      4  C   UNL     1      -9.288   9.796   3.911  1.00  0.00     0.000 C 
BRANCH   4   5
ATOM      5  C   UNL     1      -8.986   8.563   3.042  1.00  0.00     0.000 C 
BRANCH   5   6
ATOM      6  C   UNL     1      -8.109   8.899   1.826  1.00  0.00     0.000 C 
BRANCH   6   7
ATOM      7  C   UNL     1      -8.608  10.123   1.041  1.00  0.00     0.006 C 
BRANCH   7   8
ATOM      8  C   UNL     1      -9.827   9.842   0.143  1.00  0.00     0.053 C 
BRANCH   8   9
ATOM      9  C   UNL     1      -9.474   9.045  -1.076  1.00  0.00     0.041 C 
ATOM     10  O   UNL     1      -8.950   9.609  -2.073  1.00  0.00    -0.550 OA
ATOM     11  O   UNL     1      -9.759   7.687  -1.127  1.00  0.00    -0.550 OA
ENDBRANCH   8   9
ENDBRANCH   7   8
ENDBRANCH   6   7
ENDBRANCH   5   6
ENDBRANCH   4   5
ENDBRANCH   3   4
ENDBRANCH   2   3
ENDBRANCH   1   2
BRANCH   1  12
ATOM     12  C   UNL     1      -9.923   7.116   6.911  1.00  0.00     0.000 C 
BRANCH  12  13
ATOM     13  C   UNL     1     -10.125   6.456   8.286  1.00  0.00    -0.000 C 
BRANCH  13  14
ATOM     14  C   UNL     1      -9.931   4.925   8.243  1.00  0.00    -0.000 C 
BRANCH  14  15
ATOM     15  C   UNL     1      -9.459   4.318   9.578  1.00  0.00    -0.000 C 
BRANCH  15  16
ATOM     16  C   UNL     1      -8.058   3.679   9.549  1.00  0.00    -0.000 C 
BRANCH  16  17
ATOM     17  C   UNL     1      -6.919   4.593  10.039  1.00  0.00    -0.000 C 
BRANCH  17  18
ATOM     18  C   UNL     1      -6.491   5.631   8.987  1.00  0.00    -0.000 C 
BRANCH  18  19
ATOM     19  C   UNL     1      -5.344   6.525   9.478  1.00  0.00    -0.003 C 
ATOM     20  C   UNL     1      -5.250   7.844   8.718  1.00  0.00     0.004 C 
ENDBRANCH  18  19
ENDBRANCH  17  18
ENDBRANCH  16  17
ENDBRANCH  15  16
ENDBRANCH  14  15
ENDBRANCH  13  14
ENDBRANCH  12  13
ENDBRANCH   1  12
TORSDOF 16
ENDMDL
MODEL 3
REMARK VINA RESULT:    -2.153      3.336      8.211
REMARK INTER + INTRA:          -5.918
REMARK INTER:                  -5.490
REMARK INTRA:                  -0.428
REMARK UNBOUND:                -1.751
REMARK SMILES CCCCCCCCCCCCCCCCCC(=O)[O-]
REMARK SMILES IDX 10 1 11 2 12 3 13 4 14 5 15 6 16 7 17 8 18 9 19 10 20 11
REMARK SMILES IDX 9 12 8 13 7 14 6 15 5 16 4 17 3 18 2 19 1 20
REMARK H PARENT
REMARK Flexibility Score: inf
ROOT
ATOM      1  C   UNL     1      -8.583   7.341   5.351  1.00  0.00     0.000 C 
ENDROOT
BRANCH   1   2
ATOM      2  C   UNL     1      -8.158   6.302   6.406  1.00  0.00     0.000 C 
BRANCH   2   3
ATOM      3  C   UNL     1      -8.907   6.468   7.739  1.00  0.00     0.000 C 
BRANCH   3   4
ATOM      4  C   UNL     1      -8.849   5.192   8.605  1.00  0.00     0.000 C 
BRANCH   4   5
ATOM      5  C   UNL     1      -8.186   5.408   9.976  1.00  0.00     0.000 C 
BRANCH   5   6
ATOM      6  C   UNL     1      -7.186   6.575   9.970  1.00  0.00     0.000 C 
BRANCH   6   7
ATOM      7  C   UNL     1      -5.882   6.250   9.224  1.00  0.00     0.006 C 
BRANCH   7   8
ATOM      8  C   UNL     1      -4.794   7.332   9.355  1.00  0.00     0.053 C 
BRANCH   8   9
ATOM      9  C   UNL     1      -5.089   8.548   8.531  1.00  0.00     0.041 C 
ATOM     10  O   UNL     1      -4.190   9.406   8.323  1.00  0.00    -0.550 OA
ATOM     11  O   UNL     1      -6.365   8.754   8.024  1.00  0.00    -0.550 OA
ENDBRANCH   8   9
ENDBRANCH   7   8
ENDBRANCH   6   7
ENDBRANCH   5   6
ENDBRANCH   4   5
ENDBRANCH   3   4
ENDBRANCH   2   3
ENDBRANCH   1   2
BRANCH   1  12
ATOM     12  C   UNL     1      -9.844   8.144   5.723  1.00  0.00     0.000 C 
BRANCH  12  13
ATOM     13  C   UNL     1      -9.661   9.658   5.520  1.00  0.00    -0.000 C 
BRANCH  13  14
ATOM     14  C   UNL     1     -10.090  10.123   4.112  1.00  0.00    -0.000 C 
BRANCH  14  15
ATOM     15  C   UNL     1      -9.651   9.173   2.980  1.00  0.00    -0.000 C 
BRANCH  15  16
ATOM     16  C   UNL     1      -8.239   9.428   2.421  1.00  0.00    -0.000 C 
BRANCH  16  17
ATOM     17  C   UNL     1      -8.090   9.194   0.906  1.00  0.00    -0.000 C 
BRANCH  17  18
ATOM     18  C   UNL     1      -9.296   9.710   0.100  1.00  0.00    -0.000 C 
BRANCH  18  19
ATOM     19  C   UNL     1      -9.241   9.283  -1.374  1.00  0.00    -0.003 C 
ATOM     20  C   UNL     1     -10.125   8.077  -1.677  1.00  0.00     0.004 C 
ENDBRANCH  18  19
ENDBRANCH  17  18
ENDBRANCH  16  17
ENDBRANCH  15  16
ENDBRANCH  14  15
ENDBRANCH  13  14
ENDBRANCH  12  13
ENDBRANCH   1  12
TORSDOF 16
ENDMDL
MODEL 4
REMARK VINA RESULT:    -2.153      1.428      2.653
REMARK INTER + INTRA:          -5.918
REMARK INTER:                  -4.589
REMARK INTRA:                  -1.329
REMARK UNBOUND:                -1.751
REMARK SMILES CCCCCCCCCCCCCCCCCC(=O)[O-]
REMARK SMILES IDX 10 1 11 2 12 3 13 4 14 5 15 6 16 7 17 8 18 9 19 10 20 11
REMARK SMILES IDX 9 12 8 13 7 14 6 15 5 16 4 17 3 18 2 19 1 20
REMARK H PARENT
REMARK Flexibility Score: inf
ROOT
ATOM      1  C   UNL     1      -8.065   7.420   5.905  1.00  0.00     0.000 C 
ENDROOT
BRANCH   1   2
ATOM      2  C   UNL     1      -8.744   8.645   6.546  1.00  0.00     0.000 C 
BRANCH   2   3
ATOM      3  C   UNL     1     -10.124   8.945   5.937  1.00  0.00     0.000 C 
BRANCH   3   4
ATOM      4  C   UNL     1     -10.123   8.824   4.398  1.00  0.00     0.000 C 
BRANCH   4   5
ATOM      5  C   UNL     1      -9.727  10.125   3.679  1.00  0.00     0.000 C 
BRANCH   5   6
ATOM      6  C   UNL     1      -9.976  10.061   2.164  1.00  0.00     0.000 C 
BRANCH   6   7
ATOM      7  C   UNL     1      -9.427   8.780   1.515  1.00  0.00     0.006 C 
BRANCH   7   8
ATOM      8  C   UNL     1      -8.609   9.023   0.233  1.00  0.00     0.053 C 
BRANCH   8   9
ATOM      9  C   UNL     1      -9.406   8.789  -1.013  1.00  0.00     0.041 C 
ATOM     10  O   UNL     1      -9.903   9.762  -1.641  1.00  0.00    -0.550 OA
ATOM     11  O   UNL     1      -9.635   7.494  -1.462  1.00  0.00    -0.550 OA
ENDBRANCH   8   9
ENDBRANCH   7   8
ENDBRANCH   6   7
ENDBRANCH   5   6
ENDBRANCH   4   5
ENDBRANCH   3   4
ENDBRANCH   2   3
ENDBRANCH   1   2
BRANCH   1  12
ATOM     12  C   UNL     1      -8.652   6.065   6.346  1.00  0.00     0.000 C 
BRANCH  12  13
ATOM     13  C   UNL     1      -9.256   6.115   7.760  1.00  0.00    -0.000 C 
BRANCH  13  14
ATOM     14  C   UNL     1      -8.213   5.825   8.861  1.00  0.00    -0.000 C 
BRANCH  14  15
ATOM     15  C   UNL     1      -6.778   5.645   8.329  1.00  0.00    -0.000 C 
BRANCH  15  16
ATOM     16  C   UNL     1      -5.670   6.247   9.212  1.00  0.00    -0.000 C 
BRANCH  16  17
ATOM     17  C   UNL     1      -4.733   7.235   8.493  1.00  0.00    -0.000 C 
BRANCH  17  18
ATOM     18  C   UNL     1      -4.869   8.676   9.016  1.00  0.00    -0.000 C 
BRANCH  18  19
ATOM     19  C   UNL     1      -6.142   8.879   9.849  1.00  0.00    -0.003 C 
ATOM     20  C   UNL     1      -6.951  10.097   9.412  1.00  0.00     0.004 C 
ENDBRANCH  18  19
ENDBRANCH  17  18
ENDBRANCH  16  17
ENDBRANCH  15  16
ENDBRANCH  14  15
ENDBRANCH  13  14
ENDBRANCH  12  13
ENDBRANCH   1  12
TORSDOF 16
ENDMDL
MODEL 5
REMARK VINA RESULT:    -1.972      2.614      4.069
REMARK INTER + INTRA:          -5.567
REMARK INTER:                  -4.525
REMARK INTRA:                  -1.042
REMARK UNBOUND:                -1.751
REMARK SMILES CCCCCCCCCCCCCCCCCC(=O)[O-]
REMARK SMILES IDX 10 1 11 2 12 3 13 4 14 5 15 6 16 7 17 8 18 9 19 10 20 11
REMARK SMILES IDX 9 12 8 13 7 14 6 15 5 16 4 17 3 18 2 19 1 20
REMARK H PARENT
REMARK Flexibility Score: inf
ROOT
ATOM      1  C   UNL     1      -9.102   5.809   5.489  1.00  0.00     0.000 C 
ENDROOT
BRANCH   1   2
ATOM      2  C   UNL     1     -10.103   6.632   4.657  1.00  0.00     0.000 C 
BRANCH   2   3
ATOM      3  C   UNL     1      -9.636   6.843   3.206  1.00  0.00     0.000 C 
BRANCH   3   4
ATOM      4  C   UNL     1     -10.124   8.187   2.624  1.00  0.00     0.000 C 
BRANCH   4   5
ATOM      5  C   UNL     1      -9.671   8.432   1.175  1.00  0.00     0.000 C 
BRANCH   5   6
ATOM      6  C   UNL     1      -8.396   9.286   1.093  1.00  0.00     0.000 C 
BRANCH   6   7
ATOM      7  C   UNL     1      -8.148  10.125   2.357  1.00  0.00     0.006 C 
BRANCH   7   8
ATOM      8  C   UNL     1      -6.984   9.620   3.230  1.00  0.00     0.053 C 
BRANCH   8   9
ATOM      9  C   UNL     1      -7.284   9.705   4.696  1.00  0.00     0.041 C 
ATOM     10  O   UNL     1      -8.477   9.724   5.099  1.00  0.00    -0.550 OA
ATOM     11  O   UNL     1      -6.247   9.803   5.615  1.00  0.00    -0.550 OA
ENDBRANCH   8   9
ENDBRANCH   7   8
ENDBRANCH   6   7
ENDBRANCH   5   6
ENDBRANCH   4   5
ENDBRANCH   3   4
ENDBRANCH   2   3
ENDBRANCH   1   2
BRANCH   1  12
ATOM     12  C   UNL     1      -9.540   5.561   6.946  1.00  0.00     0.000 C 
BRANCH  12  13
ATOM     13  C   UNL     1      -8.553   6.152   7.968  1.00  0.00    -0.000 C 
BRANCH  13  14
ATOM     14  C   UNL     1      -7.528   5.113   8.471  1.00  0.00    -0.000 C 
BRANCH  14  15
ATOM     15  C   UNL     1      -6.802   5.529   9.765  1.00  0.00    -0.000 C 
BRANCH  15  16
ATOM     16  C   UNL     1      -5.267   5.608   9.659  1.00  0.00    -0.000 C 
BRANCH  16  17
ATOM     17  C   UNL     1      -4.656   6.953  10.094  1.00  0.00    -0.000 C 
BRANCH  17  18
ATOM     18  C   UNL     1      -4.849   8.063   9.045  1.00  0.00    -0.000 C 
BRANCH  18  19
ATOM     19  C   UNL     1      -4.984   9.454   9.683  1.00  0.00    -0.003 C 
ATOM     20  C   UNL     1      -3.637  10.125   9.936  1.00  0.00     0.004 C 
ENDBRANCH  18  19
ENDBRANCH  17  18
ENDBRANCH  16  17
ENDBRANCH  15  16
ENDBRANCH  14  15
ENDBRANCH  13  14
ENDBRANCH  12  13
ENDBRANCH   1  12
TORSDOF 16
ENDMDL
MODEL 6
REMARK VINA RESULT:    -1.905      1.703      2.694
REMARK INTER + INTRA:          -5.437
REMARK INTER:                  -4.447
REMARK INTRA:                  -0.990
REMARK UNBOUND:                -1.751
REMARK SMILES CCCCCCCCCCCCCCCCCC(=O)[O-]
REMARK SMILES IDX 10 1 11 2 12 3 13 4 14 5 15 6 16 7 17 8 18 9 19 10 20 11
REMARK SMILES IDX 9 12 8 13 7 14 6 15 5 16 4 17 3 18 2 19 1 20
REMARK H PARENT
REMARK Flexibility Score: inf
ROOT
ATOM      1  C   UNL     1      -9.159   7.632   5.351  1.00  0.00     0.000 C 
ENDROOT
BRANCH   1   2
ATOM      2  C   UNL     1      -8.320   7.477   4.069  1.00  0.00     0.000 C 
BRANCH   2   3
ATOM      3  C   UNL     1      -7.441   8.707   3.782  1.00  0.00     0.000 C 
BRANCH   3   4
ATOM      4  C   UNL     1      -8.060   9.631   2.711  1.00  0.00     0.000 C 
BRANCH   4   5
ATOM      5  C   UNL     1      -9.594   9.544   2.635  1.00  0.00     0.000 C 
BRANCH   5   6
ATOM      6  C   UNL     1     -10.125   9.733   1.205  1.00  0.00     0.000 C 
BRANCH   6   7
ATOM      7  C   UNL     1      -9.527   8.734   0.201  1.00  0.00     0.006 C 
BRANCH   7   8
ATOM      8  C   UNL     1     -10.043   8.903  -1.240  1.00  0.00     0.053 C 
BRANCH   8   9
ATOM      9  C   UNL     1      -9.125   9.728  -2.088  1.00  0.00     0.041 C 
ATOM     10  O   UNL     1      -9.453  10.036  -3.265  1.00  0.00    -0.550 OA
ATOM     11  O   UNL     1      -7.889  10.125  -1.595  1.00  0.00    -0.550 OA
ENDBRANCH   8   9
ENDBRANCH   7   8
ENDBRANCH   6   7
ENDBRANCH   5   6
ENDBRANCH   4   5
ENDBRANCH   3   4
ENDBRANCH   2   3
ENDBRANCH   1   2
BRANCH   1  12
ATOM     12  C   UNL     1      -8.705   8.780   6.273  1.00  0.00     0.000 C 
BRANCH  12  13
ATOM     13  C   UNL     1      -9.337   8.700   7.673  1.00  0.00    -0.000 C 
BRANCH  13  14
ATOM     14  C   UNL     1      -8.281   8.628   8.796  1.00  0.00    -0.000 C 
BRANCH  14  15
ATOM     15  C   UNL     1      -7.375   9.873   8.881  1.00  0.00    -0.000 C 
BRANCH  15  16
ATOM     16  C   UNL     1      -6.334   9.850  10.016  1.00  0.00    -0.000 C 
BRANCH  16  17
ATOM     17  C   UNL     1      -5.491   8.564  10.097  1.00  0.00    -0.000 C 
BRANCH  17  18
ATOM     18  C   UNL     1      -4.919   8.138   8.733  1.00  0.00    -0.000 C 
BRANCH  18  19
ATOM     19  C   UNL     1      -4.931   6.614   8.543  1.00  0.00    -0.003 C 
ATOM     20  C   UNL     1      -5.283   5.859   9.821  1.00  0.00     0.004 C 
ENDBRANCH  18  19
ENDBRANCH  17  18
ENDBRANCH  16  17
ENDBRANCH  15  16
ENDBRANCH  14  15
ENDBRANCH  13  14
ENDBRANCH  12  13
ENDBRANCH   1  12
TORSDOF 16
ENDMDL
MODEL 7
REMARK VINA RESULT:    -1.493      1.282      2.689
REMARK INTER + INTRA:          -4.640
REMARK INTER:                  -4.690
REMARK INTRA:                   0.050
REMARK UNBOUND:                -1.751
REMARK SMILES CCCCCCCCCCCCCCCCCC(=O)[O-]
REMARK SMILES IDX 10 1 11 2 12 3 13 4 14 5 15 6 16 7 17 8 18 9 19 10 20 11
REMARK SMILES IDX 9 12 8 13 7 14 6 15 5 16 4 17 3 18 2 19 1 20
REMARK H PARENT
REMARK Flexibility Score: inf
ROOT
ATOM      1  C   UNL     1      -6.202   9.389   7.931  1.00  0.00     0.000 C 
ENDROOT
BRANCH   1   2
ATOM      2  C   UNL     1      -7.643   8.860   7.803  1.00  0.00     0.000 C 
BRANCH   2   3
ATOM      3  C   UNL     1      -8.640   9.952   7.377  1.00  0.00     0.000 C 
BRANCH   3   4
ATOM      4  C   UNL     1      -8.697  10.124   5.843  1.00  0.00     0.000 C 
BRANCH   4   5
ATOM      5  C   UNL     1      -8.253   8.873   5.066  1.00  0.00     0.000 C 
BRANCH   5   6
ATOM      6  C   UNL     1      -8.882   8.795   3.667  1.00  0.00     0.000 C 
BRANCH   6   7
ATOM      7  C   UNL     1      -7.976   9.368   2.564  1.00  0.00     0.006 C 
BRANCH   7   8
ATOM      8  C   UNL     1      -8.733  10.116   1.451  1.00  0.00     0.053 C 
BRANCH   8   9
ATOM      9  C   UNL     1      -8.810   9.331   0.178  1.00  0.00     0.041 C 
ATOM     10  O   UNL     1      -7.999   9.562  -0.759  1.00  0.00    -0.550 OA
ATOM     11  O   UNL     1      -9.799   8.372   0.008  1.00  0.00    -0.550 OA
ENDBRANCH   8   9
ENDBRANCH   7   8
ENDBRANCH   6   7
ENDBRANCH   5   6
ENDBRANCH   4   5
ENDBRANCH   3   4
ENDBRANCH   2   3
ENDBRANCH   1   2
BRANCH   1  12
ATOM     12  C   UNL     1      -5.175   8.331   8.379  1.00  0.00     0.000 C 
BRANCH  12  13
ATOM     13  C   UNL     1      -5.836   7.099   9.022  1.00  0.00    -0.000 C 
BRANCH  13  14
ATOM     14  C   UNL     1      -6.971   7.478   9.997  1.00  0.00    -0.000 C 
BRANCH  14  15
ATOM     15  C   UNL     1      -8.068   6.403  10.125  1.00  0.00    -0.000 C 
BRANCH  15  16
ATOM     16  C   UNL     1      -7.579   4.948  10.002  1.00  0.00    -0.000 C 
BRANCH  16  17
ATOM     17  C   UNL     1      -8.463   4.038   9.130  1.00  0.00    -0.000 C 
BRANCH  17  18
ATOM     18  C   UNL     1      -9.761   4.727   8.672  1.00  0.00    -0.000 C 
BRANCH  18  19
ATOM     19  C   UNL     1      -9.601   5.434   7.318  1.00  0.00    -0.003 C 
ATOM     20  C   UNL     1     -10.122   6.869   7.332  1.00  0.00     0.004 C 
ENDBRANCH  18  19
ENDBRANCH  17  18
ENDBRANCH  16  17
ENDBRANCH  15  16
ENDBRANCH  14  15
ENDBRANCH  13  14
ENDBRANCH  12  13
ENDBRANCH   1  12
TORSDOF 16
ENDMDL
