MODEL 1
REMARK VINA RESULT:    -5.235      0.000      0.000
REMARK INTER + INTRA:          -6.412
REMARK INTER:                  -6.153
REMARK INTRA:                  -0.260
REMARK UNBOUND:                -0.260
REMARK SMILES O=c1c(O)c(-c2ccc(O)cc2)oc2cc(O)cc(O)c12
REMARK SMILES IDX 5 1 3 2 2 3 1 4 21 5 19 6 18 7 16 8 15 9 14 10 13 11 6 12
REMARK SMILES IDX 7 13 8 14 9 15 12 16 11 17 10 18 4 20 20 22 17 24
REMARK H PARENT 10 19 4 21 20 23 17 25
REMARK Flexibility Score: inf
ROOT
ATOM      1  C   UNL     1      -6.043  -5.359  -1.115  1.00  0.00     0.180 A 
ATOM      2  C   UNL     1      -6.700  -5.598   0.107  1.00  0.00     0.208 A 
ATOM      3  C   UNL     1      -7.729  -6.551   0.148  1.00  0.00     0.238 A 
ATOM      4  O   UNL     1      -8.332  -6.767   1.234  1.00  0.00    -0.285 OA
ATOM      5  C   UNL     1      -8.070  -7.261  -1.022  1.00  0.00     0.111 A 
ATOM      6  C   UNL     1      -9.092  -8.240  -1.064  1.00  0.00     0.134 A 
ATOM      7  C   UNL     1      -9.365  -8.909  -2.267  1.00  0.00     0.093 A 
ATOM      8  C   UNL     1      -8.638  -8.620  -3.424  1.00  0.00     0.123 A 
ATOM      9  C   UNL     1      -7.627  -7.653  -3.389  1.00  0.00     0.094 A 
ATOM     10  C   UNL     1      -7.341  -6.974  -2.201  1.00  0.00     0.146 A 
ATOM     11  O   UNL     1      -6.381  -6.058  -2.195  1.00  0.00    -0.452 OA
ENDROOT
BRANCH   1  12
ATOM     12  C   UNL     1      -4.961  -4.356  -1.244  1.00  0.00     0.021 A 
ATOM     13  C   UNL     1      -3.657  -4.691  -0.843  1.00  0.00     0.016 A 
ATOM     14  C   UNL     1      -2.616  -3.768  -0.976  1.00  0.00     0.047 A 
ATOM     15  C   UNL     1      -2.860  -2.505  -1.524  1.00  0.00     0.115 A 
ATOM     16  C   UNL     1      -5.197  -3.091  -1.814  1.00  0.00     0.016 A 
ATOM     17  C   UNL     1      -4.153  -2.170  -1.946  1.00  0.00     0.047 A 
BRANCH  15  18
ATOM     18  O   UNL     1      -1.813  -1.595  -1.650  1.00  0.00    -0.508 OA
ATOM     19  H   UNL     1      -1.083  -1.720  -2.341  1.00  0.00     0.293 HD
ENDBRANCH  15  18
ENDBRANCH   1  12
BRANCH   2  20
ATOM     20  O   UNL     1      -6.310  -4.918   1.264  1.00  0.00    -0.502 OA
ATOM     21  H   UNL     1      -6.338  -3.908   1.333  1.00  0.00     0.293 HD
ENDBRANCH   2  20
BRANCH   6  22
ATOM     22  O   UNL     1      -9.835  -8.552   0.075  1.00  0.00    -0.507 OA
ATOM     23  H   UNL     1      -9.712  -8.046   0.945  1.00  0.00     0.293 HD
ENDBRANCH   6  22
BRANCH   8  24
ATOM     24  O   UNL     1      -8.928  -9.299  -4.605  1.00  0.00    -0.508 OA
ATOM     25  H   UNL     1      -8.877  -8.841  -5.506  1.00  0.00     0.293 HD
ENDBRANCH   8  24
TORSDOF 5
ENDMDL
MODEL 2
REMARK VINA RESULT:    -5.060      1.731      7.006
REMARK INTER + INTRA:          -6.207
REMARK INTER:                  -6.010
REMARK INTRA:                  -0.197
REMARK UNBOUND:                -0.260
REMARK SMILES O=c1c(O)c(-c2ccc(O)cc2)oc2cc(O)cc(O)c12
REMARK SMILES IDX 5 1 3 2 2 3 1 4 21 5 19 6 18 7 16 8 15 9 14 10 13 11 6 12
REMARK SMILES IDX 7 13 8 14 9 15 12 16 11 17 10 18 4 20 20 22 17 24
REMARK H PARENT 10 19 4 21 20 23 17 25
REMARK Flexibility Score: inf
ROOT
ATOM      1  C   UNL     1      -6.234  -5.343  -1.681  1.00  0.00     0.180 A 
ATOM      2  C   UNL     1      -6.646  -4.275  -2.501  1.00  0.00     0.208 A 
ATOM      3  C   UNL     1      -5.826  -3.140  -2.600  1.00  0.00     0.238 A 
ATOM      4  O   UNL     1      -6.190  -2.173  -3.322  1.00  0.00    -0.285 OA
ATOM      5  C   UNL     1      -4.603  -3.100  -1.898  1.00  0.00     0.111 A 
ATOM      6  C   UNL     1      -3.718  -1.996  -1.948  1.00  0.00     0.134 A 
ATOM      7  C   UNL     1      -2.514  -2.037  -1.227  1.00  0.00     0.093 A 
ATOM      8  C   UNL     1      -2.180  -3.156  -0.462  1.00  0.00     0.123 A 
ATOM      9  C   UNL     1      -3.051  -4.250  -0.409  1.00  0.00     0.094 A 
ATOM     10  C   UNL     1      -4.256  -4.228  -1.117  1.00  0.00     0.146 A 
ATOM     11  O   UNL     1      -5.066  -5.277  -1.046  1.00  0.00    -0.452 OA
ENDROOT
BRANCH   1  12
ATOM     12  C   UNL     1      -7.052  -6.565  -1.510  1.00  0.00     0.021 A 
ATOM     13  C   UNL     1      -7.738  -6.774  -0.302  1.00  0.00     0.016 A 
ATOM     14  C   UNL     1      -8.534  -7.910  -0.127  1.00  0.00     0.047 A 
ATOM     15  C   UNL     1      -8.666  -8.843  -1.159  1.00  0.00     0.115 A 
ATOM     16  C   UNL     1      -7.205  -7.498  -2.553  1.00  0.00     0.016 A 
ATOM     17  C   UNL     1      -8.002  -8.633  -2.374  1.00  0.00     0.047 A 
BRANCH  15  18
ATOM     18  O   UNL     1      -9.462  -9.970  -0.970  1.00  0.00    -0.508 OA
ATOM     19  H   UNL     1      -9.163 -10.888  -1.281  1.00  0.00     0.293 HD
ENDBRANCH  15  18
ENDBRANCH   1  12
BRANCH   2  20
ATOM     20  O   UNL     1      -7.838  -4.360  -3.225  1.00  0.00    -0.502 OA
ATOM     21  H   UNL     1      -8.589  -4.988  -2.962  1.00  0.00     0.293 HD
ENDBRANCH   2  20
BRANCH   6  22
ATOM     22  O   UNL     1      -4.024  -0.864  -2.704  1.00  0.00    -0.507 OA
ATOM     23  H   UNL     1      -3.755  -0.786  -3.678  1.00  0.00     0.293 HD
ENDBRANCH   6  22
BRANCH   8  24
ATOM     24  O   UNL     1      -0.979  -3.172   0.243  1.00  0.00    -0.508 OA
ATOM     25  H   UNL     1      -0.406  -4.005   0.296  1.00  0.00     0.293 HD
ENDBRANCH   8  24
TORSDOF 5
ENDMDL
MODEL 3
REMARK VINA RESULT:    -4.979      1.722      7.022
REMARK INTER + INTRA:          -6.112
REMARK INTER:                  -5.839
REMARK INTRA:                  -0.273
REMARK UNBOUND:                -0.260
REMARK SMILES O=c1c(O)c(-c2ccc(O)cc2)oc2cc(O)cc(O)c12
REMARK SMILES IDX 5 1 3 2 2 3 1 4 21 5 19 6 18 7 16 8 15 9 14 10 13 11 6 12
REMARK SMILES IDX 7 13 8 14 9 15 12 16 11 17 10 18 4 20 20 22 17 24
REMARK H PARENT 10 19 4 21 20 23 17 25
REMARK Flexibility Score: inf
ROOT
ATOM      1  C   UNL     1      -5.984  -5.161  -1.516  1.00  0.00     0.180 A 
ATOM      2  C   UNL     1      -6.409  -3.998  -2.186  1.00  0.00     0.208 A 
ATOM      3  C   UNL     1      -5.533  -2.904  -2.268  1.00  0.00     0.238 A 
ATOM      4  O   UNL     1      -5.906  -1.853  -2.856  1.00  0.00    -0.285 OA
ATOM      5  C   UNL     1      -4.245  -2.998  -1.701  1.00  0.00     0.111 A 
ATOM      6  C   UNL     1      -3.300  -1.944  -1.745  1.00  0.00     0.134 A 
ATOM      7  C   UNL     1      -2.035  -2.119  -1.163  1.00  0.00     0.093 A 
ATOM      8  C   UNL     1      -1.696  -3.324  -0.544  1.00  0.00     0.123 A 
ATOM      9  C   UNL     1      -2.625  -4.369  -0.498  1.00  0.00     0.094 A 
ATOM     10  C   UNL     1      -3.892  -4.214  -1.068  1.00  0.00     0.146 A 
ATOM     11  O   UNL     1      -4.757  -5.219  -1.006  1.00  0.00    -0.452 OA
ENDROOT
BRANCH   1  12
ATOM     12  C   UNL     1      -6.856  -6.348  -1.370  1.00  0.00     0.021 A 
ATOM     13  C   UNL     1      -6.927  -7.287  -2.413  1.00  0.00     0.016 A 
ATOM     14  C   UNL     1      -7.728  -8.426  -2.288  1.00  0.00     0.047 A 
ATOM     15  C   UNL     1      -8.455  -8.650  -1.115  1.00  0.00     0.115 A 
ATOM     16  C   UNL     1      -7.574  -6.590  -0.184  1.00  0.00     0.016 A 
ATOM     17  C   UNL     1      -8.373  -7.731  -0.061  1.00  0.00     0.047 A 
BRANCH  15  18
ATOM     18  O   UNL     1      -9.248  -9.789  -1.004  1.00  0.00    -0.508 OA
ATOM     19  H   UNL     1     -10.041  -9.824  -0.374  1.00  0.00     0.293 HD
ENDBRANCH  15  18
ENDBRANCH   1  12
BRANCH   2  20
ATOM     20  O   UNL     1      -7.672  -3.948  -2.782  1.00  0.00    -0.502 OA
ATOM     21  H   UNL     1      -8.379  -4.653  -2.614  1.00  0.00     0.293 HD
ENDBRANCH   2  20
BRANCH   6  22
ATOM     22  O   UNL     1      -3.609  -0.729  -2.357  1.00  0.00    -0.507 OA
ATOM     23  H   UNL     1      -2.963   0.052  -2.345  1.00  0.00     0.293 HD
ENDBRANCH   6  22
BRANCH   8  24
ATOM     24  O   UNL     1      -0.433  -3.473   0.024  1.00  0.00    -0.508 OA
ATOM     25  H   UNL     1      -0.185  -4.297   0.557  1.00  0.00     0.293 HD
ENDBRANCH   8  24
TORSDOF 5
ENDMDL
MODEL 4
REMARK VINA RESULT:    -4.928     13.211     15.245
REMARK INTER + INTRA:          -6.052
REMARK INTER:                  -5.767
REMARK INTRA:                  -0.285
REMARK UNBOUND:                -0.260
REMARK SMILES O=c1c(O)c(-c2ccc(O)cc2)oc2cc(O)cc(O)c12
REMARK SMILES IDX 5 1 3 2 2 3 1 4 21 5 19 6 18 7 16 8 15 9 14 10 13 11 6 12
REMARK SMILES IDX 7 13 8 14 9 15 12 16 11 17 10 18 4 20 20 22 17 24
REMARK H PARENT 10 19 4 21 20 23 17 25
REMARK Flexibility Score: inf
ROOT
ATOM      1  C   UNL     1       6.572  -3.780  -5.051  1.00  0.00     0.180 A 
ATOM      2  C   UNL     1       5.579  -3.205  -5.867  1.00  0.00     0.208 A 
ATOM      3  C   UNL     1       5.356  -1.821  -5.789  1.00  0.00     0.238 A 
ATOM      4  O   UNL     1       4.462  -1.296  -6.507  1.00  0.00    -0.285 OA
ATOM      5  C   UNL     1       6.139  -1.036  -4.917  1.00  0.00     0.111 A 
ATOM      6  C   UNL     1       5.981   0.365  -4.784  1.00  0.00     0.134 A 
ATOM      7  C   UNL     1       6.806   1.077  -3.900  1.00  0.00     0.093 A 
ATOM      8  C   UNL     1       7.784   0.418  -3.152  1.00  0.00     0.123 A 
ATOM      9  C   UNL     1       7.945  -0.966  -3.280  1.00  0.00     0.094 A 
ATOM     10  C   UNL     1       7.131  -1.694  -4.152  1.00  0.00     0.146 A 
ATOM     11  O   UNL     1       7.302  -3.006  -4.252  1.00  0.00    -0.452 OA
ENDROOT
BRANCH   1  12
ATOM     12  C   UNL     1       6.854  -5.234  -5.061  1.00  0.00     0.021 A 
ATOM     13  C   UNL     1       6.078  -6.093  -4.266  1.00  0.00     0.016 A 
ATOM     14  C   UNL     1       6.312  -7.472  -4.276  1.00  0.00     0.047 A 
ATOM     15  C   UNL     1       7.312  -8.010  -5.092  1.00  0.00     0.115 A 
ATOM     16  C   UNL     1       7.845  -5.783  -5.895  1.00  0.00     0.016 A 
ATOM     17  C   UNL     1       8.076  -7.162  -5.904  1.00  0.00     0.047 A 
BRANCH  15  18
ATOM     18  O   UNL     1       7.535  -9.385  -5.091  1.00  0.00    -0.508 OA
ATOM     19  H   UNL     1       7.855  -9.869  -4.261  1.00  0.00     0.293 HD
ENDBRANCH  15  18
ENDBRANCH   1  12
BRANCH   2  20
ATOM     20  O   UNL     1       4.851  -3.997  -6.758  1.00  0.00    -0.502 OA
ATOM     21  H   UNL     1       4.111  -4.616  -6.452  1.00  0.00     0.293 HD
ENDBRANCH   2  20
BRANCH   6  22
ATOM     22  O   UNL     1       5.013   1.051  -5.518  1.00  0.00    -0.507 OA
ATOM     23  H   UNL     1       4.028   0.997  -5.282  1.00  0.00     0.293 HD
ENDBRANCH   6  22
BRANCH   8  24
ATOM     24  O   UNL     1       8.591   1.148  -2.282  1.00  0.00    -0.508 OA
ATOM     25  H   UNL     1       8.837   0.796  -1.365  1.00  0.00     0.293 HD
ENDBRANCH   8  24
TORSDOF 5
ENDMDL
MODEL 5
REMARK VINA RESULT:    -4.831      2.231      3.548
REMARK INTER + INTRA:          -5.937
REMARK INTER:                  -5.652
REMARK INTRA:                  -0.285
REMARK UNBOUND:                -0.260
REMARK SMILES O=c1c(O)c(-c2ccc(O)cc2)oc2cc(O)cc(O)c12
REMARK SMILES IDX 5 1 3 2 2 3 1 4 21 5 19 6 18 7 16 8 15 9 14 10 13 11 6 12
REMARK SMILES IDX 7 13 8 14 9 15 12 16 11 17 10 18 4 20 20 22 17 24
REMARK H PARENT 10 19 4 21 20 23 17 25
REMARK Flexibility Score: inf
ROOT
ATOM      1  C   UNL     1      -4.764  -4.441  -1.315  1.00  0.00     0.180 A 
ATOM      2  C   UNL     1      -5.316  -3.398  -2.084  1.00  0.00     0.208 A 
ATOM      3  C   UNL     1      -6.361  -3.692  -2.974  1.00  0.00     0.238 A 
ATOM      4  O   UNL     1      -6.855  -2.768  -3.677  1.00  0.00    -0.285 OA
ATOM      5  C   UNL     1      -6.850  -5.011  -3.065  1.00  0.00     0.111 A 
ATOM      6  C   UNL     1      -7.903  -5.389  -3.933  1.00  0.00     0.134 A 
ATOM      7  C   UNL     1      -8.338  -6.723  -3.958  1.00  0.00     0.093 A 
ATOM      8  C   UNL     1      -7.745  -7.682  -3.135  1.00  0.00     0.123 A 
ATOM      9  C   UNL     1      -6.704  -7.314  -2.275  1.00  0.00     0.094 A 
ATOM     10  C   UNL     1      -6.254  -5.992  -2.236  1.00  0.00     0.146 A 
ATOM     11  O   UNL     1      -5.261  -5.671  -1.415  1.00  0.00    -0.452 OA
ENDROOT
BRANCH   1  12
ATOM     12  C   UNL     1      -3.648  -4.215  -0.369  1.00  0.00     0.021 A 
ATOM     13  C   UNL     1      -3.928  -3.813   0.948  1.00  0.00     0.016 A 
ATOM     14  C   UNL     1      -2.890  -3.615   1.864  1.00  0.00     0.047 A 
ATOM     15  C   UNL     1      -1.563  -3.832   1.482  1.00  0.00     0.115 A 
ATOM     16  C   UNL     1      -2.312  -4.451  -0.742  1.00  0.00     0.016 A 
ATOM     17  C   UNL     1      -1.277  -4.253   0.177  1.00  0.00     0.047 A 
BRANCH  15  18
ATOM     18  O   UNL     1      -0.540  -3.630   2.405  1.00  0.00    -0.508 OA
ATOM     19  H   UNL     1      -0.684  -3.081   3.244  1.00  0.00     0.293 HD
ENDBRANCH  15  18
ENDBRANCH   1  12
BRANCH   2  20
ATOM     20  O   UNL     1      -4.847  -2.090  -1.940  1.00  0.00    -0.502 OA
ATOM     21  H   UNL     1      -4.300  -1.795  -1.140  1.00  0.00     0.293 HD
ENDBRANCH   2  20
BRANCH   6  22
ATOM     22  O   UNL     1      -8.516  -4.454  -4.767  1.00  0.00    -0.507 OA
ATOM     23  H   UNL     1      -8.887  -4.712  -5.675  1.00  0.00     0.293 HD
ENDBRANCH   6  22
BRANCH   8  24
ATOM     24  O   UNL     1      -8.197  -8.999  -3.178  1.00  0.00    -0.508 OA
ATOM     25  H   UNL     1      -7.809  -9.713  -2.575  1.00  0.00     0.293 HD
ENDBRANCH   8  24
TORSDOF 5
ENDMDL
MODEL 6
REMARK VINA RESULT:    -4.698      1.738      2.966
REMARK INTER + INTRA:          -5.781
REMARK INTER:                  -5.518
REMARK INTRA:                  -0.263
REMARK UNBOUND:                -0.260
REMARK SMILES O=c1c(O)c(-c2ccc(O)cc2)oc2cc(O)cc(O)c12
REMARK SMILES IDX 5 1 3 2 2 3 1 4 21 5 19 6 18 7 16 8 15 9 14 10 13 11 6 12
REMARK SMILES IDX 7 13 8 14 9 15 12 16 11 17 10 18 4 20 20 22 17 24
REMARK H PARENT 10 19 4 21 20 23 17 25
REMARK Flexibility Score: inf
ROOT
ATOM      1  C   UNL     1      -5.981  -4.994  -1.547  1.00  0.00     0.180 A 
ATOM      2  C   UNL     1      -6.538  -4.575  -2.770  1.00  0.00     0.208 A 
ATOM      3  C   UNL     1      -7.499  -5.388  -3.391  1.00  0.00     0.238 A 
ATOM      4  O   UNL     1      -7.998  -5.029  -4.492  1.00  0.00    -0.285 OA
ATOM      5  C   UNL     1      -7.901  -6.590  -2.772  1.00  0.00     0.111 A 
ATOM      6  C   UNL     1      -8.867  -7.463  -3.329  1.00  0.00     0.134 A 
ATOM      7  C   UNL     1      -9.218  -8.638  -2.647  1.00  0.00     0.093 A 
ATOM      8  C   UNL     1      -8.628  -8.954  -1.421  1.00  0.00     0.123 A 
ATOM      9  C   UNL     1      -7.673  -8.095  -0.866  1.00  0.00     0.094 A 
ATOM     10  C   UNL     1      -7.306  -6.922  -1.531  1.00  0.00     0.146 A 
ATOM     11  O   UNL     1      -6.395  -6.127  -0.985  1.00  0.00    -0.452 OA
ENDROOT
BRANCH   1  12
ATOM     12  C   UNL     1      -4.948  -4.202  -0.840  1.00  0.00     0.021 A 
ATOM     13  C   UNL     1      -5.338  -3.114  -0.042  1.00  0.00     0.016 A 
ATOM     14  C   UNL     1      -4.382  -2.365   0.651  1.00  0.00     0.047 A 
ATOM     15  C   UNL     1      -3.028  -2.704   0.569  1.00  0.00     0.115 A 
ATOM     16  C   UNL     1      -3.586  -4.550  -0.903  1.00  0.00     0.016 A 
ATOM     17  C   UNL     1      -2.633  -3.800  -0.208  1.00  0.00     0.047 A 
BRANCH  15  18
ATOM     18  O   UNL     1      -2.087  -1.949   1.264  1.00  0.00    -0.508 OA
ATOM     19  H   UNL     1      -2.193  -0.948   1.383  1.00  0.00     0.293 HD
ENDBRANCH  15  18
ENDBRANCH   1  12
BRANCH   2  20
ATOM     20  O   UNL     1      -6.160  -3.356  -3.338  1.00  0.00    -0.502 OA
ATOM     21  H   UNL     1      -6.690  -2.504  -3.195  1.00  0.00     0.293 HD
ENDBRANCH   2  20
BRANCH   6  22
ATOM     22  O   UNL     1      -9.475  -7.175  -4.552  1.00  0.00    -0.507 OA
ATOM     23  H   UNL     1      -8.943  -6.827  -5.342  1.00  0.00     0.293 HD
ENDBRANCH   6  22
BRANCH   8  24
ATOM     24  O   UNL     1      -8.996 -10.125  -0.763  1.00  0.00    -0.508 OA
ATOM     25  H   UNL     1      -9.134 -10.994  -1.265  1.00  0.00     0.293 HD
ENDBRANCH   8  24
TORSDOF 5
ENDMDL
MODEL 7
REMARK VINA RESULT:    -4.678      2.452      7.519
REMARK INTER + INTRA:          -5.758
REMARK INTER:                  -5.463
REMARK INTRA:                  -0.295
REMARK UNBOUND:                -0.260
REMARK SMILES O=c1c(O)c(-c2ccc(O)cc2)oc2cc(O)cc(O)c12
REMARK SMILES IDX 5 1 3 2 2 3 1 4 21 5 19 6 18 7 16 8 15 9 14 10 13 11 6 12
REMARK SMILES IDX 7 13 8 14 9 15 12 16 11 17 10 18 4 20 20 22 17 24
REMARK H PARENT 10 19 4 21 20 23 17 25
REMARK Flexibility Score: inf
ROOT
ATOM      1  C   UNL     1      -3.793  -4.235  -1.053  1.00  0.00     0.180 A 
ATOM      2  C   UNL     1      -3.521  -2.888  -1.363  1.00  0.00     0.208 A 
ATOM      3  C   UNL     1      -2.184  -2.465  -1.438  1.00  0.00     0.238 A 
ATOM      4  O   UNL     1      -1.929  -1.260  -1.704  1.00  0.00    -0.285 OA
ATOM      5  C   UNL     1      -1.146  -3.396  -1.225  1.00  0.00     0.111 A 
ATOM      6  C   UNL     1       0.226  -3.053  -1.287  1.00  0.00     0.134 A 
ATOM      7  C   UNL     1       1.201  -4.039  -1.071  1.00  0.00     0.093 A 
ATOM      8  C   UNL     1       0.831  -5.358  -0.797  1.00  0.00     0.123 A 
ATOM      9  C   UNL     1      -0.523  -5.703  -0.734  1.00  0.00     0.094 A 
ATOM     10  C   UNL     1      -1.510  -4.734  -0.943  1.00  0.00     0.146 A 
ATOM     11  O   UNL     1      -2.787  -5.087  -0.873  1.00  0.00    -0.452 OA
ENDROOT
BRANCH   1  12
ATOM     12  C   UNL     1      -5.175  -4.752  -0.937  1.00  0.00     0.021 A 
ATOM     13  C   UNL     1      -5.759  -5.415  -2.028  1.00  0.00     0.016 A 
ATOM     14  C   UNL     1      -7.055  -5.931  -1.933  1.00  0.00     0.047 A 
ATOM     15  C   UNL     1      -7.777  -5.804  -0.742  1.00  0.00     0.115 A 
ATOM     16  C   UNL     1      -5.899  -4.645   0.265  1.00  0.00     0.016 A 
ATOM     17  C   UNL     1      -7.194  -5.163   0.358  1.00  0.00     0.047 A 
BRANCH  15  18
ATOM     18  O   UNL     1      -9.067  -6.322  -0.662  1.00  0.00    -0.508 OA
ATOM     19  H   UNL     1      -9.790  -6.050  -1.319  1.00  0.00     0.293 HD
ENDBRANCH  15  18
ENDBRANCH   1  12
BRANCH   2  20
ATOM     20  O   UNL     1      -4.567  -1.997  -1.618  1.00  0.00    -0.502 OA
ATOM     21  H   UNL     1      -4.999  -1.916  -2.531  1.00  0.00     0.293 HD
ENDBRANCH   2  20
BRANCH   6  22
ATOM     22  O   UNL     1       0.627  -1.744  -1.560  1.00  0.00    -0.507 OA
ATOM     23  H   UNL     1       1.471  -1.544  -2.085  1.00  0.00     0.293 HD
ENDBRANCH   6  22
BRANCH   8  24
ATOM     24  O   UNL     1       1.818  -6.318  -0.588  1.00  0.00    -0.508 OA
ATOM     25  H   UNL     1       1.715  -7.266  -0.928  1.00  0.00     0.293 HD
ENDBRANCH   8  24
TORSDOF 5
ENDMDL
MODEL 8
REMARK VINA RESULT:    -4.670      4.573      7.896
REMARK INTER + INTRA:          -5.748
REMARK INTER:                  -5.471
REMARK INTRA:                  -0.278
REMARK UNBOUND:                -0.260
REMARK SMILES O=c1c(O)c(-c2ccc(O)cc2)oc2cc(O)cc(O)c12
REMARK SMILES IDX 5 1 3 2 2 3 1 4 21 5 19 6 18 7 16 8 15 9 14 10 13 11 6 12
REMARK SMILES IDX 7 13 8 14 9 15 12 16 11 17 10 18 4 20 20 22 17 24
REMARK H PARENT 10 19 4 21 20 23 17 25
REMARK Flexibility Score: inf
ROOT
ATOM      1  C   UNL     1      -1.234  -4.611  -0.740  1.00  0.00     0.180 A 
ATOM      2  C   UNL     1      -0.812  -4.919   0.568  1.00  0.00     0.208 A 
ATOM      3  C   UNL     1       0.399  -5.608   0.745  1.00  0.00     0.238 A 
ATOM      4  O   UNL     1       0.782  -5.899   1.910  1.00  0.00    -0.285 OA
ATOM      5  C   UNL     1       1.174  -5.957  -0.381  1.00  0.00     0.111 A 
ATOM      6  C   UNL     1       2.407  -6.647  -0.288  1.00  0.00     0.134 A 
ATOM      7  C   UNL     1       3.123  -6.950  -1.456  1.00  0.00     0.093 A 
ATOM      8  C   UNL     1       2.634  -6.577  -2.709  1.00  0.00     0.123 A 
ATOM      9  C   UNL     1       1.416  -5.895  -2.807  1.00  0.00     0.094 A 
ATOM     10  C   UNL     1       0.685  -5.586  -1.656  1.00  0.00     0.146 A 
ATOM     11  O   UNL     1      -0.470  -4.943  -1.777  1.00  0.00    -0.452 OA
ENDROOT
BRANCH   1  12
ATOM     12  C   UNL     1      -2.507  -3.905  -1.009  1.00  0.00     0.021 A 
ATOM     13  C   UNL     1      -2.484  -2.538  -1.335  1.00  0.00     0.016 A 
ATOM     14  C   UNL     1      -3.672  -1.856  -1.614  1.00  0.00     0.047 A 
ATOM     15  C   UNL     1      -4.895  -2.533  -1.588  1.00  0.00     0.115 A 
ATOM     16  C   UNL     1      -3.739  -4.585  -1.004  1.00  0.00     0.016 A 
ATOM     17  C   UNL     1      -4.925  -3.900  -1.285  1.00  0.00     0.047 A 
BRANCH  15  18
ATOM     18  O   UNL     1      -6.070  -1.841  -1.868  1.00  0.00    -0.508 OA
ATOM     19  H   UNL     1      -6.149  -0.843  -1.707  1.00  0.00     0.293 HD
ENDBRANCH  15  18
ENDBRANCH   1  12
BRANCH   2  20
ATOM     20  O   UNL     1      -1.573  -4.519   1.669  1.00  0.00    -0.502 OA
ATOM     21  H   UNL     1      -1.708  -5.112   2.479  1.00  0.00     0.293 HD
ENDBRANCH   2  20
BRANCH   6  22
ATOM     22  O   UNL     1       2.923  -7.032   0.950  1.00  0.00    -0.507 OA
ATOM     23  H   UNL     1       2.722  -7.942   1.350  1.00  0.00     0.293 HD
ENDBRANCH   6  22
BRANCH   8  24
ATOM     24  O   UNL     1       3.365  -6.889  -3.853  1.00  0.00    -0.508 OA
ATOM     25  H   UNL     1       4.179  -6.352  -4.125  1.00  0.00     0.293 HD
ENDBRANCH   8  24
TORSDOF 5
ENDMDL
MODEL 9
REMARK VINA RESULT:    -4.624      2.030      6.501
REMARK INTER + INTRA:          -5.695
REMARK INTER:                  -5.406
REMARK INTRA:                  -0.289
REMARK UNBOUND:                -0.260
REMARK SMILES O=c1c(O)c(-c2ccc(O)cc2)oc2cc(O)cc(O)c12
REMARK SMILES IDX 5 1 3 2 2 3 1 4 21 5 19 6 18 7 16 8 15 9 14 10 13 11 6 12
REMARK SMILES IDX 7 13 8 14 9 15 12 16 11 17 10 18 4 20 20 22 17 24
REMARK H PARENT 10 19 4 21 20 23 17 25
REMARK Flexibility Score: inf
ROOT
ATOM      1  C   UNL     1      -5.694  -5.277  -1.181  1.00  0.00     0.180 A 
ATOM      2  C   UNL     1      -6.248  -4.656  -0.044  1.00  0.00     0.208 A 
ATOM      3  C   UNL     1      -5.398  -3.963   0.832  1.00  0.00     0.238 A 
ATOM      4  O   UNL     1      -5.881  -3.412   1.858  1.00  0.00    -0.285 OA
ATOM      5  C   UNL     1      -4.018  -3.883   0.548  1.00  0.00     0.111 A 
ATOM      6  C   UNL     1      -3.096  -3.200   1.376  1.00  0.00     0.134 A 
ATOM      7  C   UNL     1      -1.739  -3.159   1.020  1.00  0.00     0.093 A 
ATOM      8  C   UNL     1      -1.289  -3.784  -0.145  1.00  0.00     0.123 A 
ATOM      9  C   UNL     1      -2.196  -4.461  -0.967  1.00  0.00     0.094 A 
ATOM     10  C   UNL     1      -3.552  -4.516  -0.629  1.00  0.00     0.146 A 
ATOM     11  O   UNL     1      -4.391  -5.169  -1.424  1.00  0.00    -0.452 OA
ENDROOT
BRANCH   1  12
ATOM     12  C   UNL     1      -6.521  -6.043  -2.140  1.00  0.00     0.021 A 
ATOM     13  C   UNL     1      -6.713  -7.420  -1.942  1.00  0.00     0.016 A 
ATOM     14  C   UNL     1      -7.508  -8.159  -2.824  1.00  0.00     0.047 A 
ATOM     15  C   UNL     1      -8.132  -7.529  -3.904  1.00  0.00     0.115 A 
ATOM     16  C   UNL     1      -7.168  -5.411  -3.218  1.00  0.00     0.016 A 
ATOM     17  C   UNL     1      -7.963  -6.153  -4.098  1.00  0.00     0.047 A 
BRANCH  15  18
ATOM     18  O   UNL     1      -8.921  -8.278  -4.775  1.00  0.00    -0.508 OA
ATOM     19  H   UNL     1      -8.738  -9.261  -4.943  1.00  0.00     0.293 HD
ENDBRANCH  15  18
ENDBRANCH   1  12
BRANCH   2  20
ATOM     20  O   UNL     1      -7.625  -4.708   0.188  1.00  0.00    -0.502 OA
ATOM     21  H   UNL     1      -8.115  -3.984   0.699  1.00  0.00     0.293 HD
ENDBRANCH   2  20
BRANCH   6  22
ATOM     22  O   UNL     1      -3.515  -2.565   2.546  1.00  0.00    -0.507 OA
ATOM     23  H   UNL     1      -3.177  -1.644   2.802  1.00  0.00     0.293 HD
ENDBRANCH   6  22
BRANCH   8  24
ATOM     24  O   UNL     1       0.063  -3.728  -0.476  1.00  0.00    -0.508 OA
ATOM     25  H   UNL     1       0.428  -3.011  -1.090  1.00  0.00     0.293 HD
ENDBRANCH   8  24
TORSDOF 5
ENDMDL
