MODEL 1
REMARK VINA RESULT:    -4.242      0.000      0.000
REMARK INTER + INTRA:          -6.844
REMARK INTER:                  -6.475
REMARK INTRA:                  -0.369
REMARK UNBOUND:                -0.369
REMARK SMILES O=C([O-])CCCCCCCCC(=O)[O-]
REMARK SMILES IDX 7 1 6 2 5 3 4 4 2 5 1 6 3 7 8 8 9 9 10 10 11 11 12 12 13 13
REMARK SMILES IDX 14 14
REMARK H PARENT
REMARK Flexibility Score: inf
ROOT
ATOM      1  C   UNL     1      46.152  -3.819  83.879  1.00  0.00     0.000 C 
ENDROOT
BRANCH   1   2
ATOM      2  C   UNL     1      45.399  -5.007  83.259  1.00  0.00     0.000 C 
BRANCH   2   3
ATOM      3  C   UNL     1      44.417  -5.665  84.240  1.00  0.00     0.006 C 
BRANCH   3   4
ATOM      4  C   UNL     1      43.034  -5.830  83.602  1.00  0.00     0.053 C 
BRANCH   4   5
ATOM      5  C   UNL     1      42.419  -7.130  84.011  1.00  0.00     0.041 C 
ATOM      6  O   UNL     1      41.875  -7.873  83.152  1.00  0.00    -0.550 OA
ATOM      7  O   UNL     1      42.489  -7.547  85.334  1.00  0.00    -0.550 OA
ENDBRANCH   4   5
ENDBRANCH   3   4
ENDBRANCH   2   3
ENDBRANCH   1   2
BRANCH   1   8
ATOM      8  C   UNL     1      45.359  -3.143  85.011  1.00  0.00     0.000 C 
BRANCH   8   9
ATOM      9  C   UNL     1      45.989  -1.814  85.460  1.00  0.00     0.000 C 
BRANCH   9  10
ATOM     10  C   UNL     1      47.363  -1.561  84.815  1.00  0.00     0.006 C 
BRANCH  10  11
ATOM     11  C   UNL     1      48.343  -0.889  85.786  1.00  0.00     0.053 C 
BRANCH  11  12
ATOM     12  C   UNL     1      49.245   0.079  85.085  1.00  0.00     0.041 C 
ATOM     13  O   UNL     1      50.222   0.590  85.695  1.00  0.00    -0.550 OA
ATOM     14  O   UNL     1      48.991   0.439  83.769  1.00  0.00    -0.550 OA
ENDBRANCH  11  12
ENDBRANCH  10  11
ENDBRANCH   9  10
ENDBRANCH   8   9
ENDBRANCH   1   8
TORSDOF 9
ENDMDL
MODEL 2
REMARK VINA RESULT:    -4.173      1.902      2.274
REMARK INTER + INTRA:          -6.737
REMARK INTER:                  -6.313
REMARK INTRA:                  -0.424
REMARK UNBOUND:                -0.369
REMARK SMILES O=C([O-])CCCCCCCCC(=O)[O-]
REMARK SMILES IDX 7 1 6 2 5 3 4 4 2 5 1 6 3 7 8 8 9 9 10 10 11 11 12 12 13 13
REMARK SMILES IDX 14 14
REMARK H PARENT
REMARK Flexibility Score: inf
ROOT
ATOM      1  C   UNL     1      46.026  -4.198  83.827  1.00  0.00     0.000 C 
ENDROOT
BRANCH   1   2
ATOM      2  C   UNL     1      45.009  -5.350  83.833  1.00  0.00     0.000 C 
BRANCH   2   3
ATOM      3  C   UNL     1      43.781  -5.053  84.707  1.00  0.00     0.006 C 
BRANCH   3   4
ATOM      4  C   UNL     1      42.500  -5.574  84.048  1.00  0.00     0.053 C 
BRANCH   4   5
ATOM      5  C   UNL     1      42.420  -7.064  84.160  1.00  0.00     0.041 C 
ATOM      6  O   UNL     1      42.599  -7.627  85.272  1.00  0.00    -0.550 OA
ATOM      7  O   UNL     1      42.097  -7.828  83.046  1.00  0.00    -0.550 OA
ENDBRANCH   4   5
ENDBRANCH   3   4
ENDBRANCH   2   3
ENDBRANCH   1   2
BRANCH   1   8
ATOM      8  C   UNL     1      45.700  -3.115  84.871  1.00  0.00     0.000 C 
BRANCH   8   9
ATOM      9  C   UNL     1      46.757  -2.000  84.914  1.00  0.00     0.000 C 
BRANCH   9  10
ATOM     10  C   UNL     1      47.857  -2.183  83.854  1.00  0.00     0.006 C 
BRANCH  10  11
ATOM     11  C   UNL     1      48.219  -0.862  83.163  1.00  0.00     0.053 C 
BRANCH  11  12
ATOM     12  C   UNL     1      48.526  -1.061  81.710  1.00  0.00     0.041 C 
ATOM     13  O   UNL     1      49.325  -1.965  81.348  1.00  0.00    -0.550 OA
ATOM     14  O   UNL     1      47.951  -0.230  80.758  1.00  0.00    -0.550 OA
ENDBRANCH  11  12
ENDBRANCH  10  11
ENDBRANCH   9  10
ENDBRANCH   8   9
ENDBRANCH   1   8
TORSDOF 9
ENDMDL
MODEL 3
REMARK VINA RESULT:    -4.050      3.352      4.004
REMARK INTER + INTRA:          -6.550
REMARK INTER:                  -6.189
REMARK INTRA:                  -0.362
REMARK UNBOUND:                -0.369
REMARK SMILES O=C([O-])CCCCCCCCC(=O)[O-]
REMARK SMILES IDX 7 1 6 2 5 3 4 4 2 5 1 6 3 7 8 8 9 9 10 10 11 11 12 12 13 13
REMARK SMILES IDX 14 14
REMARK H PARENT
REMARK Flexibility Score: inf
ROOT
ATOM      1  C   UNL     1      46.301  -3.346  84.249  1.00  0.00     0.000 C 
ENDROOT
BRANCH   1   2
ATOM      2  C   UNL     1      45.725  -4.368  83.256  1.00  0.00     0.000 C 
BRANCH   2   3
ATOM      3  C   UNL     1      45.040  -5.553  83.955  1.00  0.00     0.006 C 
BRANCH   3   4
ATOM      4  C   UNL     1      43.538  -5.569  83.660  1.00  0.00     0.053 C 
BRANCH   4   5
ATOM      5  C   UNL     1      42.916  -6.830  84.171  1.00  0.00     0.041 C 
ATOM      6  O   UNL     1      42.086  -7.460  83.464  1.00  0.00    -0.550 OA
ATOM      7  O   UNL     1      43.290  -7.338  85.408  1.00  0.00    -0.550 OA
ENDBRANCH   4   5
ENDBRANCH   3   4
ENDBRANCH   2   3
ENDBRANCH   1   2
BRANCH   1   8
ATOM      8  C   UNL     1      47.385  -2.454  83.617  1.00  0.00     0.000 C 
BRANCH   8   9
ATOM      9  C   UNL     1      47.062  -2.074  82.163  1.00  0.00     0.000 C 
BRANCH   9  10
ATOM     10  C   UNL     1      48.278  -2.209  81.230  1.00  0.00     0.006 C 
BRANCH  10  11
ATOM     11  C   UNL     1      48.023  -3.200  80.087  1.00  0.00     0.053 C 
BRANCH  11  12
ATOM     12  C   UNL     1      49.274  -3.499  79.320  1.00  0.00     0.041 C 
ATOM     13  O   UNL     1      49.707  -4.680  79.247  1.00  0.00    -0.550 OA
ATOM     14  O   UNL     1      49.978  -2.470  78.709  1.00  0.00    -0.550 OA
ENDBRANCH  11  12
ENDBRANCH  10  11
ENDBRANCH   9  10
ENDBRANCH   8   9
ENDBRANCH   1   8
TORSDOF 9
ENDMDL
MODEL 4
REMARK VINA RESULT:    -4.025     11.269     14.067
REMARK INTER + INTRA:          -6.513
REMARK INTER:                  -6.104
REMARK INTRA:                  -0.408
REMARK UNBOUND:                -0.369
REMARK SMILES O=C([O-])CCCCCCCCC(=O)[O-]
REMARK SMILES IDX 7 1 6 2 5 3 4 4 2 5 1 6 3 7 8 8 9 9 10 10 11 11 12 12 13 13
REMARK SMILES IDX 14 14
REMARK H PARENT
REMARK Flexibility Score: inf
ROOT
ATOM      1  C   UNL     1      48.749  -2.799  73.424  1.00  0.00     0.000 C 
ENDROOT
BRANCH   1   2
ATOM      2  C   UNL     1      49.144  -1.423  72.866  1.00  0.00     0.000 C 
BRANCH   2   3
ATOM      3  C   UNL     1      50.282  -1.504  71.837  1.00  0.00     0.006 C 
BRANCH   3   4
ATOM      4  C   UNL     1      51.386  -0.493  72.162  1.00  0.00     0.053 C 
BRANCH   4   5
ATOM      5  C   UNL     1      52.722  -1.166  72.193  1.00  0.00     0.041 C 
ATOM      6  O   UNL     1      53.670  -0.728  71.489  1.00  0.00    -0.550 OA
ATOM      7  O   UNL     1      52.936  -2.248  73.037  1.00  0.00    -0.550 OA
ENDBRANCH   4   5
ENDBRANCH   3   4
ENDBRANCH   2   3
ENDBRANCH   1   2
BRANCH   1   8
ATOM      8  C   UNL     1      49.234  -3.959  72.536  1.00  0.00     0.000 C 
BRANCH   8   9
ATOM      9  C   UNL     1      48.286  -5.169  72.578  1.00  0.00     0.000 C 
BRANCH   9  10
ATOM     10  C   UNL     1      47.209  -5.043  73.669  1.00  0.00     0.006 C 
BRANCH  10  11
ATOM     11  C   UNL     1      46.188  -6.186  73.609  1.00  0.00     0.053 C 
BRANCH  11  12
ATOM     12  C   UNL     1      44.881  -5.798  74.230  1.00  0.00     0.041 C 
ATOM     13  O   UNL     1      44.811  -4.793  74.985  1.00  0.00    -0.550 OA
ATOM     14  O   UNL     1      43.746  -6.563  73.996  1.00  0.00    -0.550 OA
ENDBRANCH  11  12
ENDBRANCH  10  11
ENDBRANCH   9  10
ENDBRANCH   8   9
ENDBRANCH   1   8
TORSDOF 9
ENDMDL
MODEL 5
REMARK VINA RESULT:    -3.999     12.457     14.023
REMARK INTER + INTRA:          -6.472
REMARK INTER:                  -5.997
REMARK INTRA:                  -0.475
REMARK UNBOUND:                -0.369
REMARK SMILES O=C([O-])CCCCCCCCC(=O)[O-]
REMARK SMILES IDX 7 1 6 2 5 3 4 4 2 5 1 6 3 7 8 8 9 9 10 10 11 11 12 12 13 13
REMARK SMILES IDX 14 14
REMARK H PARENT
REMARK Flexibility Score: inf
ROOT
ATOM      1  C   UNL     1      52.425  -0.643  71.897  1.00  0.00     0.000 C 
ENDROOT
BRANCH   1   2
ATOM      2  C   UNL     1      53.618  -1.538  72.269  1.00  0.00     0.000 C 
BRANCH   2   3
ATOM      3  C   UNL     1      53.220  -3.010  72.457  1.00  0.00     0.006 C 
BRANCH   3   4
ATOM      4  C   UNL     1      53.652  -3.522  73.834  1.00  0.00     0.053 C 
BRANCH   4   5
ATOM      5  C   UNL     1      54.515  -4.736  73.695  1.00  0.00     0.041 C 
ATOM      6  O   UNL     1      54.117  -5.850  74.127  1.00  0.00    -0.550 OA
ATOM      7  O   UNL     1      55.738  -4.649  73.042  1.00  0.00    -0.550 OA
ENDBRANCH   4   5
ENDBRANCH   3   4
ENDBRANCH   2   3
ENDBRANCH   1   2
BRANCH   1   8
ATOM      8  C   UNL     1      51.124  -1.070  72.599  1.00  0.00     0.000 C 
BRANCH   8   9
ATOM      9  C   UNL     1      49.981  -1.343  71.607  1.00  0.00     0.000 C 
BRANCH   9  10
ATOM     10  C   UNL     1      48.639  -0.751  72.070  1.00  0.00     0.006 C 
BRANCH  10  11
ATOM     11  C   UNL     1      48.666  -0.341  73.548  1.00  0.00     0.053 C 
BRANCH  11  12
ATOM     12  C   UNL     1      48.260   1.088  73.736  1.00  0.00     0.041 C 
ATOM     13  O   UNL     1      49.065   2.017  73.462  1.00  0.00    -0.550 OA
ATOM     14  O   UNL     1      47.003   1.394  74.241  1.00  0.00    -0.550 OA
ENDBRANCH  11  12
ENDBRANCH  10  11
ENDBRANCH   9  10
ENDBRANCH   8   9
ENDBRANCH   1   8
TORSDOF 9
ENDMDL
MODEL 6
REMARK VINA RESULT:    -3.991     11.339     12.112
REMARK INTER + INTRA:          -6.460
REMARK INTER:                  -6.122
REMARK INTRA:                  -0.338
REMARK UNBOUND:                -0.369
REMARK SMILES O=C([O-])CCCCCCCCC(=O)[O-]
REMARK SMILES IDX 7 1 6 2 5 3 4 4 2 5 1 6 3 7 8 8 9 9 10 10 11 11 12 12 13 13
REMARK SMILES IDX 14 14
REMARK H PARENT
REMARK Flexibility Score: inf
ROOT
ATOM      1  C   UNL     1      47.991  -4.214  73.027  1.00  0.00     0.000 C 
ENDROOT
BRANCH   1   2
ATOM      2  C   UNL     1      47.951  -5.645  72.467  1.00  0.00     0.000 C 
BRANCH   2   3
ATOM      3  C   UNL     1      46.648  -6.381  72.813  1.00  0.00     0.006 C 
BRANCH   3   4
ATOM      4  C   UNL     1      45.919  -5.691  73.969  1.00  0.00     0.053 C 
BRANCH   4   5
ATOM      5  C   UNL     1      44.518  -6.201  74.086  1.00  0.00     0.041 C 
ATOM      6  O   UNL     1      44.301  -7.433  74.233  1.00  0.00    -0.550 OA
ATOM      7  O   UNL     1      43.451  -5.311  74.084  1.00  0.00    -0.550 OA
ENDBRANCH   4   5
ENDBRANCH   3   4
ENDBRANCH   2   3
ENDBRANCH   1   2
BRANCH   1   8
ATOM      8  C   UNL     1      49.277  -3.462  72.639  1.00  0.00     0.000 C 
BRANCH   8   9
ATOM      9  C   UNL     1      49.074  -1.939  72.580  1.00  0.00     0.000 C 
BRANCH   9  10
ATOM     10  C   UNL     1      50.114  -1.236  71.690  1.00  0.00     0.006 C 
BRANCH  10  11
ATOM     11  C   UNL     1      51.277  -0.657  72.506  1.00  0.00     0.053 C 
BRANCH  11  12
ATOM     12  C   UNL     1      52.574  -1.331  72.183  1.00  0.00     0.041 C 
ATOM     13  O   UNL     1      52.807  -2.495  72.605  1.00  0.00    -0.550 OA
ATOM     14  O   UNL     1      53.539  -0.664  71.439  1.00  0.00    -0.550 OA
ENDBRANCH  11  12
ENDBRANCH  10  11
ENDBRANCH   9  10
ENDBRANCH   8   9
ENDBRANCH   1   8
TORSDOF 9
ENDMDL
MODEL 7
REMARK VINA RESULT:    -3.960     11.963     12.711
REMARK INTER + INTRA:          -6.413
REMARK INTER:                  -5.988
REMARK INTRA:                  -0.425
REMARK UNBOUND:                -0.369
REMARK SMILES O=C([O-])CCCCCCCCC(=O)[O-]
REMARK SMILES IDX 7 1 6 2 5 3 4 4 2 5 1 6 3 7 8 8 9 9 10 10 11 11 12 12 13 13
REMARK SMILES IDX 14 14
REMARK H PARENT
REMARK Flexibility Score: inf
ROOT
ATOM      1  C   UNL     1      48.738  -2.687  73.442  1.00  0.00     0.000 C 
ENDROOT
BRANCH   1   2
ATOM      2  C   UNL     1      48.600  -3.995  72.646  1.00  0.00     0.000 C 
BRANCH   2   3
ATOM      3  C   UNL     1      47.633  -4.991  73.304  1.00  0.00     0.006 C 
BRANCH   3   4
ATOM      4  C   UNL     1      47.228  -6.092  72.320  1.00  0.00     0.053 C 
BRANCH   4   5
ATOM      5  C   UNL     1      48.052  -7.321  72.537  1.00  0.00     0.041 C 
ATOM      6  O   UNL     1      48.282  -8.108  71.582  1.00  0.00    -0.550 OA
ATOM      7  O   UNL     1      48.610  -7.572  73.785  1.00  0.00    -0.550 OA
ENDBRANCH   4   5
ENDBRANCH   3   4
ENDBRANCH   2   3
ENDBRANCH   1   2
BRANCH   1   8
ATOM      8  C   UNL     1      48.964  -1.464  72.536  1.00  0.00     0.000 C 
BRANCH   8   9
ATOM      9  C   UNL     1      50.276  -1.553  71.740  1.00  0.00     0.000 C 
BRANCH   9  10
ATOM     10  C   UNL     1      51.368  -0.619  72.289  1.00  0.00     0.006 C 
BRANCH  10  11
ATOM     11  C   UNL     1      52.776  -1.200  72.098  1.00  0.00     0.053 C 
BRANCH  11  12
ATOM     12  C   UNL     1      53.021  -2.372  72.998  1.00  0.00     0.041 C 
ATOM     13  O   UNL     1      52.504  -2.409  74.146  1.00  0.00    -0.550 OA
ATOM     14  O   UNL     1      53.843  -3.410  72.580  1.00  0.00    -0.550 OA
ENDBRANCH  11  12
ENDBRANCH  10  11
ENDBRANCH   9  10
ENDBRANCH   8   9
ENDBRANCH   1   8
TORSDOF 9
ENDMDL
MODEL 8
REMARK VINA RESULT:    -3.935     11.532     13.382
REMARK INTER + INTRA:          -6.374
REMARK INTER:                  -5.396
REMARK INTRA:                  -0.978
REMARK UNBOUND:                -0.369
REMARK SMILES O=C([O-])CCCCCCCCC(=O)[O-]
REMARK SMILES IDX 7 1 6 2 5 3 4 4 2 5 1 6 3 7 8 8 9 9 10 10 11 11 12 12 13 13
REMARK SMILES IDX 14 14
REMARK H PARENT
REMARK Flexibility Score: inf
ROOT
ATOM      1  C   UNL     1      49.966  -1.489  71.665  1.00  0.00     0.000 C 
ENDROOT
BRANCH   1   2
ATOM      2  C   UNL     1      50.083  -2.930  72.186  1.00  0.00     0.000 C 
BRANCH   2   3
ATOM      3  C   UNL     1      51.449  -3.222  72.825  1.00  0.00     0.006 C 
BRANCH   3   4
ATOM      4  C   UNL     1      52.245  -1.929  73.028  1.00  0.00     0.053 C 
BRANCH   4   5
ATOM      5  C   UNL     1      53.544  -1.991  72.289  1.00  0.00     0.041 C 
ATOM      6  O   UNL     1      54.242  -3.039  72.319  1.00  0.00    -0.550 OA
ATOM      7  O   UNL     1      53.962  -0.909  71.526  1.00  0.00    -0.550 OA
ENDBRANCH   4   5
ENDBRANCH   3   4
ENDBRANCH   2   3
ENDBRANCH   1   2
BRANCH   1   8
ATOM      8  C   UNL     1      48.685  -0.787  72.150  1.00  0.00     0.000 C 
BRANCH   8   9
ATOM      9  C   UNL     1      48.940   0.150  73.341  1.00  0.00     0.000 C 
BRANCH   9  10
ATOM     10  C   UNL     1      48.344  -0.383  74.655  1.00  0.00     0.006 C 
BRANCH  10  11
ATOM     11  C   UNL     1      49.352  -1.222  75.451  1.00  0.00     0.053 C 
BRANCH  11  12
ATOM     12  C   UNL     1      48.830  -2.595  75.739  1.00  0.00     0.041 C 
ATOM     13  O   UNL     1      47.594  -2.783  75.901  1.00  0.00    -0.550 OA
ATOM     14  O   UNL     1      49.709  -3.663  75.858  1.00  0.00    -0.550 OA
ENDBRANCH  11  12
ENDBRANCH  10  11
ENDBRANCH   9  10
ENDBRANCH   8   9
ENDBRANCH   1   8
TORSDOF 9
ENDMDL
MODEL 9
REMARK VINA RESULT:    -3.906     11.271     13.086
REMARK INTER + INTRA:          -6.331
REMARK INTER:                  -5.579
REMARK INTRA:                  -0.752
REMARK UNBOUND:                -0.369
REMARK SMILES O=C([O-])CCCCCCCCC(=O)[O-]
REMARK SMILES IDX 7 1 6 2 5 3 4 4 2 5 1 6 3 7 8 8 9 9 10 10 11 11 12 12 13 13
REMARK SMILES IDX 14 14
REMARK H PARENT
REMARK Flexibility Score: inf
ROOT
ATOM      1  C   UNL     1      48.705  -0.499  72.267  1.00  0.00     0.000 C 
ENDROOT
BRANCH   1   2
ATOM      2  C   UNL     1      49.928  -1.256  71.727  1.00  0.00     0.000 C 
BRANCH   2   3
ATOM      3  C   UNL     1      51.256  -0.694  72.257  1.00  0.00     0.006 C 
BRANCH   3   4
ATOM      4  C   UNL     1      52.125  -1.809  72.846  1.00  0.00     0.053 C 
BRANCH   4   5
ATOM      5  C   UNL     1      53.453  -1.859  72.158  1.00  0.00     0.041 C 
ATOM      6  O   UNL     1      53.876  -0.858  71.522  1.00  0.00    -0.550 OA
ATOM      7  O   UNL     1      54.248  -2.993  72.263  1.00  0.00    -0.550 OA
ENDBRANCH   4   5
ENDBRANCH   3   4
ENDBRANCH   2   3
ENDBRANCH   1   2
BRANCH   1   8
ATOM      8  C   UNL     1      49.014   0.280  73.558  1.00  0.00     0.000 C 
BRANCH   8   9
ATOM      9  C   UNL     1      48.123  -0.152  74.734  1.00  0.00     0.000 C 
BRANCH   9  10
ATOM     10  C   UNL     1      48.929  -0.753  75.899  1.00  0.00     0.006 C 
BRANCH  10  11
ATOM     11  C   UNL     1      49.634  -2.057  75.504  1.00  0.00     0.053 C 
BRANCH  11  12
ATOM     12  C   UNL     1      50.556  -2.540  76.581  1.00  0.00     0.041 C 
ATOM     13  O   UNL     1      50.886  -3.755  76.635  1.00  0.00    -0.550 OA
ATOM     14  O   UNL     1      51.030  -1.655  77.540  1.00  0.00    -0.550 OA
ENDBRANCH  11  12
ENDBRANCH  10  11
ENDBRANCH   9  10
ENDBRANCH   8   9
ENDBRANCH   1   8
TORSDOF 9
ENDMDL
