MODEL 1
REMARK VINA RESULT:    -5.875      0.000      0.000
REMARK INTER + INTRA:          -7.564
REMARK INTER:                  -7.077
REMARK INTRA:                  -0.487
REMARK UNBOUND:                -0.487
REMARK SMILES Oc1cc(O)c2c(c1)O[C@@H](c1ccc(O)c(O)c1)[C@H](O)C2
REMARK SMILES IDX 21 1 19 2 10 3 9 4 7 5 8 6 2 7 3 8 4 9 6 10 20 11 11 13
REMARK SMILES IDX 18 14 12 15 16 16 13 17 14 18 17 19 15 21 5 23 1 25
REMARK H PARENT 20 12 17 20 15 22 5 24 1 26
REMARK Flexibility Score: inf
ROOT
ATOM      1  C   UNL     1      -2.498 -16.679  -6.621  1.00  0.00     0.079 C 
ATOM      2  C   UNL     1      -2.181 -16.800  -8.124  1.00  0.00     0.164 C 
ATOM      3  C   UNL     1      -0.700 -16.465  -8.399  1.00  0.00     0.232 C 
ATOM      4  O   UNL     1      -0.345 -15.204  -7.821  1.00  0.00    -0.482 OA
ATOM      5  C   UNL     1      -0.950 -14.688  -6.666  1.00  0.00     0.131 A 
ATOM      6  C   UNL     1      -0.480 -13.486  -6.129  1.00  0.00     0.093 A 
ATOM      7  C   UNL     1      -1.060 -12.956  -4.970  1.00  0.00     0.122 A 
ATOM      8  C   UNL     1      -2.109 -13.636  -4.345  1.00  0.00     0.092 A 
ATOM      9  C   UNL     1      -2.591 -14.841  -4.875  1.00  0.00     0.126 A 
ATOM     10  C   UNL     1      -2.024 -15.364  -6.053  1.00  0.00     0.039 A 
ENDROOT
BRANCH   2  11
ATOM     11  O   UNL     1      -2.992 -15.915  -8.854  1.00  0.00    -0.389 OA
ATOM     12  H   UNL     1      -2.426 -15.535  -9.576  1.00  0.00     0.211 HD
ENDBRANCH   2  11
BRANCH   3  13
ATOM     13  C   UNL     1       0.225 -17.574  -7.929  1.00  0.00    -0.001 A 
ATOM     14  C   UNL     1       1.272 -17.264  -7.044  1.00  0.00     0.057 A 
ATOM     15  C   UNL     1       0.099 -18.897  -8.396  1.00  0.00     0.012 A 
ATOM     16  C   UNL     1       2.164 -18.253  -6.615  1.00  0.00     0.157 A 
ATOM     17  C   UNL     1       0.988 -19.886  -7.969  1.00  0.00     0.050 A 
ATOM     18  C   UNL     1       2.021 -19.571  -7.077  1.00  0.00     0.157 A 
BRANCH  16  19
ATOM     19  O   UNL     1       3.186 -17.906  -5.732  1.00  0.00    -0.504 OA
ATOM     20  H   UNL     1       3.945 -18.539  -5.512  1.00  0.00     0.293 HD
ENDBRANCH  16  19
BRANCH  18  21
ATOM     21  O   UNL     1       2.907 -20.561  -6.652  1.00  0.00    -0.504 OA
ATOM     22  H   UNL     1       2.716 -21.128  -5.834  1.00  0.00     0.293 HD
ENDBRANCH  18  21
ENDBRANCH   3  13
BRANCH   9  23
ATOM     23  O   UNL     1      -3.627 -15.520  -4.234  1.00  0.00    -0.507 OA
ATOM     24  H   UNL     1      -4.159 -15.092  -3.487  1.00  0.00     0.293 HD
ENDBRANCH   9  23
BRANCH   7  25
ATOM     25  O   UNL     1      -0.596 -11.760  -4.427  1.00  0.00    -0.508 OA
ATOM     26  H   UNL     1      -1.230 -11.006  -4.189  1.00  0.00     0.293 HD
ENDBRANCH   7  25
TORSDOF 6
ENDMDL
MODEL 2
REMARK VINA RESULT:    -5.502     11.325     13.823
REMARK INTER + INTRA:          -7.115
REMARK INTER:                  -6.634
REMARK INTRA:                  -0.481
REMARK UNBOUND:                -0.487
REMARK SMILES Oc1cc(O)c2c(c1)O[C@@H](c1ccc(O)c(O)c1)[C@H](O)C2
REMARK SMILES IDX 21 1 19 2 10 3 9 4 7 5 8 6 2 7 3 8 4 9 6 10 20 11 11 13
REMARK SMILES IDX 18 14 12 15 16 16 13 17 14 18 17 19 15 21 5 23 1 25
REMARK H PARENT 20 12 17 20 15 22 5 24 1 26
REMARK Flexibility Score: inf
ROOT
ATOM      1  C   UNL     1      10.730 -18.402  -7.325  1.00  0.00     0.079 C 
ATOM      2  C   UNL     1      11.320 -18.935  -6.006  1.00  0.00     0.164 C 
ATOM      3  C   UNL     1      12.583 -18.142  -5.611  1.00  0.00     0.232 C 
ATOM      4  O   UNL     1      13.516 -18.093  -6.697  1.00  0.00    -0.482 OA
ATOM      5  C   UNL     1      13.132 -18.123  -8.044  1.00  0.00     0.131 A 
ATOM      6  C   UNL     1      14.109 -17.987  -9.035  1.00  0.00     0.093 A 
ATOM      7  C   UNL     1      13.749 -18.001 -10.388  1.00  0.00     0.122 A 
ATOM      8  C   UNL     1      12.407 -18.147 -10.748  1.00  0.00     0.092 A 
ATOM      9  C   UNL     1      11.418 -18.286  -9.764  1.00  0.00     0.126 A 
ATOM     10  C   UNL     1      11.780 -18.294  -8.404  1.00  0.00     0.039 A 
ENDROOT
BRANCH   2  11
ATOM     11  O   UNL     1      11.659 -20.291  -6.150  1.00  0.00    -0.389 OA
ATOM     12  H   UNL     1      12.019 -20.592  -5.275  1.00  0.00     0.211 HD
ENDBRANCH   2  11
BRANCH   3  13
ATOM     13  C   UNL     1      12.241 -16.752  -5.106  1.00  0.00    -0.001 A 
ATOM     14  C   UNL     1      11.066 -16.565  -4.357  1.00  0.00     0.057 A 
ATOM     15  C   UNL     1      13.037 -15.631  -5.411  1.00  0.00     0.012 A 
ATOM     16  C   UNL     1      10.700 -15.293  -3.902  1.00  0.00     0.157 A 
ATOM     17  C   UNL     1      12.675 -14.361  -4.959  1.00  0.00     0.050 A 
ATOM     18  C   UNL     1      11.509 -14.185  -4.202  1.00  0.00     0.157 A 
BRANCH  16  19
ATOM     19  O   UNL     1       9.530 -15.151  -3.157  1.00  0.00    -0.504 OA
ATOM     20  H   UNL     1       9.196 -14.246  -2.848  1.00  0.00     0.293 HD
ENDBRANCH  16  19
BRANCH  18  21
ATOM     21  O   UNL     1      11.150 -12.915  -3.752  1.00  0.00    -0.504 OA
ATOM     22  H   UNL     1      11.096 -12.124  -4.383  1.00  0.00     0.293 HD
ENDBRANCH  18  21
ENDBRANCH   3  13
BRANCH   9  23
ATOM     23  O   UNL     1      10.079 -18.413 -10.134  1.00  0.00    -0.507 OA
ATOM     24  H   UNL     1       9.342 -17.937  -9.628  1.00  0.00     0.293 HD
ENDBRANCH   9  23
BRANCH   7  25
ATOM     25  O   UNL     1      14.716 -17.865 -11.381  1.00  0.00    -0.508 OA
ATOM     26  H   UNL     1      14.776 -17.029 -11.952  1.00  0.00     0.293 HD
ENDBRANCH   7  25
TORSDOF 6
ENDMDL
MODEL 3
REMARK VINA RESULT:    -5.462      2.332      3.147
REMARK INTER + INTRA:          -7.066
REMARK INTER:                  -6.557
REMARK INTRA:                  -0.509
REMARK UNBOUND:                -0.487
REMARK SMILES Oc1cc(O)c2c(c1)O[C@@H](c1ccc(O)c(O)c1)[C@H](O)C2
REMARK SMILES IDX 21 1 19 2 10 3 9 4 7 5 8 6 2 7 3 8 4 9 6 10 20 11 11 13
REMARK SMILES IDX 18 14 12 15 16 16 13 17 14 18 17 19 15 21 5 23 1 25
REMARK H PARENT 20 12 17 20 15 22 5 24 1 26
REMARK Flexibility Score: inf
ROOT
ATOM      1  C   UNL     1      -1.202 -16.359  -8.444  1.00  0.00     0.079 C 
ATOM      2  C   UNL     1       0.034 -17.029  -9.076  1.00  0.00     0.164 C 
ATOM      3  C   UNL     1       0.866 -17.763  -8.005  1.00  0.00     0.232 C 
ATOM      4  O   UNL     1       1.164 -16.896  -6.905  1.00  0.00    -0.482 OA
ATOM      5  C   UNL     1       0.328 -15.844  -6.505  1.00  0.00     0.131 A 
ATOM      6  C   UNL     1       0.661 -15.102  -5.368  1.00  0.00     0.093 A 
ATOM      7  C   UNL     1      -0.165 -14.055  -4.941  1.00  0.00     0.122 A 
ATOM      8  C   UNL     1      -1.329 -13.754  -5.654  1.00  0.00     0.092 A 
ATOM      9  C   UNL     1      -1.673 -14.489  -6.797  1.00  0.00     0.126 A 
ATOM     10  C   UNL     1      -0.833 -15.528  -7.240  1.00  0.00     0.039 A 
ENDROOT
BRANCH   2  11
ATOM     11  O   UNL     1       0.839 -16.056  -9.692  1.00  0.00    -0.389 OA
ATOM     12  H   UNL     1       1.571 -16.539 -10.157  1.00  0.00     0.211 HD
ENDBRANCH   2  11
BRANCH   3  13
ATOM     13  C   UNL     1       0.188 -19.040  -7.542  1.00  0.00    -0.001 A 
ATOM     14  C   UNL     1      -0.250 -19.970  -8.500  1.00  0.00     0.057 A 
ATOM     15  C   UNL     1      -0.066 -19.297  -6.181  1.00  0.00     0.012 A 
ATOM     16  C   UNL     1      -0.908 -21.143  -8.113  1.00  0.00     0.157 A 
ATOM     17  C   UNL     1      -0.722 -20.467  -5.791  1.00  0.00     0.050 A 
ATOM     18  C   UNL     1      -1.144 -21.394  -6.752  1.00  0.00     0.157 A 
BRANCH  16  19
ATOM     19  O   UNL     1      -1.321 -22.043  -9.095  1.00  0.00    -0.504 OA
ATOM     20  H   UNL     1      -0.934 -22.034 -10.031  1.00  0.00     0.293 HD
ENDBRANCH  16  19
BRANCH  18  21
ATOM     21  O   UNL     1      -1.799 -22.562  -6.359  1.00  0.00    -0.504 OA
ATOM     22  H   UNL     1      -2.508 -22.993  -6.941  1.00  0.00     0.293 HD
ENDBRANCH  18  21
ENDBRANCH   3  13
BRANCH   9  23
ATOM     23  O   UNL     1      -2.846 -14.192  -7.489  1.00  0.00    -0.507 OA
ATOM     24  H   UNL     1      -3.737 -14.590  -7.219  1.00  0.00     0.293 HD
ENDBRANCH   9  23
BRANCH   7  25
ATOM     25  O   UNL     1       0.159 -13.312  -3.809  1.00  0.00    -0.508 OA
ATOM     26  H   UNL     1       1.120 -13.197  -3.507  1.00  0.00     0.293 HD
ENDBRANCH   7  25
TORSDOF 6
ENDMDL
MODEL 4
REMARK VINA RESULT:    -5.456      1.812      5.978
REMARK INTER + INTRA:          -7.060
REMARK INTER:                  -6.548
REMARK INTRA:                  -0.512
REMARK UNBOUND:                -0.487
REMARK SMILES Oc1cc(O)c2c(c1)O[C@@H](c1ccc(O)c(O)c1)[C@H](O)C2
REMARK SMILES IDX 21 1 19 2 10 3 9 4 7 5 8 6 2 7 3 8 4 9 6 10 20 11 11 13
REMARK SMILES IDX 18 14 12 15 16 16 13 17 14 18 17 19 15 21 5 23 1 25
REMARK H PARENT 20 12 17 20 15 22 5 24 1 26
REMARK Flexibility Score: inf
ROOT
ATOM      1  C   UNL     1       0.536 -17.120  -7.804  1.00  0.00     0.079 C 
ATOM      2  C   UNL     1       0.331 -15.752  -8.483  1.00  0.00     0.164 C 
ATOM      3  C   UNL     1      -1.116 -15.254  -8.286  1.00  0.00     0.232 C 
ATOM      4  O   UNL     1      -2.059 -16.257  -8.683  1.00  0.00    -0.482 OA
ATOM      5  C   UNL     1      -1.802 -17.632  -8.602  1.00  0.00     0.131 A 
ATOM      6  C   UNL     1      -2.814 -18.536  -8.935  1.00  0.00     0.093 A 
ATOM      7  C   UNL     1      -2.586 -19.915  -8.850  1.00  0.00     0.122 A 
ATOM      8  C   UNL     1      -1.341 -20.388  -8.425  1.00  0.00     0.092 A 
ATOM      9  C   UNL     1      -0.316 -19.491  -8.091  1.00  0.00     0.126 A 
ATOM     10  C   UNL     1      -0.537 -18.105  -8.196  1.00  0.00     0.039 A 
ENDROOT
BRANCH   2  11
ATOM     11  O   UNL     1       0.594 -15.859  -9.859  1.00  0.00    -0.389 OA
ATOM     12  H   UNL     1       0.118 -16.670 -10.180  1.00  0.00     0.211 HD
ENDBRANCH   2  11
BRANCH   3  13
ATOM     13  C   UNL     1      -1.363 -14.788  -6.863  1.00  0.00    -0.001 A 
ATOM     14  C   UNL     1      -0.477 -13.865  -6.281  1.00  0.00     0.057 A 
ATOM     15  C   UNL     1      -2.424 -15.292  -6.087  1.00  0.00     0.012 A 
ATOM     16  C   UNL     1      -0.653 -13.436  -4.961  1.00  0.00     0.157 A 
ATOM     17  C   UNL     1      -2.603 -14.866  -4.769  1.00  0.00     0.050 A 
ATOM     18  C   UNL     1      -1.722 -13.936  -4.201  1.00  0.00     0.157 A 
BRANCH  16  19
ATOM     19  O   UNL     1       0.244 -12.514  -4.422  1.00  0.00    -0.504 OA
ATOM     20  H   UNL     1       0.172 -11.521  -4.607  1.00  0.00     0.293 HD
ENDBRANCH  16  19
BRANCH  18  21
ATOM     21  O   UNL     1      -1.904 -13.512  -2.885  1.00  0.00    -0.504 OA
ATOM     22  H   UNL     1      -1.180 -13.628  -2.185  1.00  0.00     0.293 HD
ENDBRANCH  18  21
ENDBRANCH   3  13
BRANCH   9  23
ATOM     23  O   UNL     1       0.916 -19.973  -7.651  1.00  0.00    -0.507 OA
ATOM     24  H   UNL     1       1.563 -20.431  -8.283  1.00  0.00     0.293 HD
ENDBRANCH   9  23
BRANCH   7  25
ATOM     25  O   UNL     1      -3.590 -20.823  -9.178  1.00  0.00    -0.508 OA
ATOM     26  H   UNL     1      -3.447 -21.541  -9.879  1.00  0.00     0.293 HD
ENDBRANCH   7  25
TORSDOF 6
ENDMDL
MODEL 5
REMARK VINA RESULT:    -5.364      2.434      6.244
REMARK INTER + INTRA:          -6.948
REMARK INTER:                  -6.428
REMARK INTRA:                  -0.520
REMARK UNBOUND:                -0.487
REMARK SMILES Oc1cc(O)c2c(c1)O[C@@H](c1ccc(O)c(O)c1)[C@H](O)C2
REMARK SMILES IDX 21 1 19 2 10 3 9 4 7 5 8 6 2 7 3 8 4 9 6 10 20 11 11 13
REMARK SMILES IDX 18 14 12 15 16 16 13 17 14 18 17 19 15 21 5 23 1 25
REMARK H PARENT 20 12 17 20 15 22 5 24 1 26
REMARK Flexibility Score: inf
ROOT
ATOM      1  C   UNL     1       0.496 -19.171  -6.244  1.00  0.00     0.079 C 
ATOM      2  C   UNL     1       1.561 -18.384  -7.031  1.00  0.00     0.164 C 
ATOM      3  C   UNL     1       0.898 -17.426  -8.042  1.00  0.00     0.232 C 
ATOM      4  O   UNL     1      -0.046 -18.123  -8.864  1.00  0.00    -0.482 OA
ATOM      5  C   UNL     1      -0.762 -19.247  -8.430  1.00  0.00     0.131 A 
ATOM      6  C   UNL     1      -1.723 -19.811  -9.274  1.00  0.00     0.093 A 
ATOM      7  C   UNL     1      -2.461 -20.926  -8.859  1.00  0.00     0.122 A 
ATOM      8  C   UNL     1      -2.238 -21.474  -7.592  1.00  0.00     0.092 A 
ATOM      9  C   UNL     1      -1.275 -20.919  -6.737  1.00  0.00     0.126 A 
ATOM     10  C   UNL     1      -0.518 -19.811  -7.161  1.00  0.00     0.039 A 
ENDROOT
BRANCH   2  11
ATOM     11  O   UNL     1       2.394 -19.276  -7.726  1.00  0.00    -0.389 OA
ATOM     12  H   UNL     1       2.815 -18.761  -8.464  1.00  0.00     0.211 HD
ENDBRANCH   2  11
BRANCH   3  13
ATOM     13  C   UNL     1       0.264 -16.231  -7.354  1.00  0.00    -0.001 A 
ATOM     14  C   UNL     1      -0.905 -15.668  -7.896  1.00  0.00     0.057 A 
ATOM     15  C   UNL     1       0.840 -15.633  -6.217  1.00  0.00     0.012 A 
ATOM     16  C   UNL     1      -1.501 -14.547  -7.308  1.00  0.00     0.157 A 
ATOM     17  C   UNL     1       0.248 -14.514  -5.627  1.00  0.00     0.050 A 
ATOM     18  C   UNL     1      -0.924 -13.967  -6.167  1.00  0.00     0.157 A 
BRANCH  16  19
ATOM     19  O   UNL     1      -2.663 -14.023  -7.873  1.00  0.00    -0.504 OA
ATOM     20  H   UNL     1      -3.542 -14.527  -7.861  1.00  0.00     0.293 HD
ENDBRANCH  16  19
BRANCH  18  21
ATOM     21  O   UNL     1      -1.513 -12.850  -5.576  1.00  0.00    -0.504 OA
ATOM     22  H   UNL     1      -0.954 -12.105  -5.174  1.00  0.00     0.293 HD
ENDBRANCH  18  21
ENDBRANCH   3  13
BRANCH   9  23
ATOM     23  O   UNL     1      -1.073 -21.462  -5.469  1.00  0.00    -0.507 OA
ATOM     24  H   UNL     1      -1.450 -22.367  -5.213  1.00  0.00     0.293 HD
ENDBRANCH   9  23
BRANCH   7  25
ATOM     25  O   UNL     1      -3.421 -21.493  -9.693  1.00  0.00    -0.508 OA
ATOM     26  H   UNL     1      -3.189 -22.243 -10.334  1.00  0.00     0.293 HD
ENDBRANCH   7  25
TORSDOF 6
ENDMDL
MODEL 6
REMARK VINA RESULT:    -5.302      1.741      6.097
REMARK INTER + INTRA:          -6.874
REMARK INTER:                  -6.345
REMARK INTRA:                  -0.528
REMARK UNBOUND:                -0.487
REMARK SMILES Oc1cc(O)c2c(c1)O[C@@H](c1ccc(O)c(O)c1)[C@H](O)C2
REMARK SMILES IDX 21 1 19 2 10 3 9 4 7 5 8 6 2 7 3 8 4 9 6 10 20 11 11 13
REMARK SMILES IDX 18 14 12 15 16 16 13 17 14 18 17 19 15 21 5 23 1 25
REMARK H PARENT 20 12 17 20 15 22 5 24 1 26
REMARK Flexibility Score: inf
ROOT
ATOM      1  C   UNL     1      -2.885 -16.483  -6.598  1.00  0.00     0.079 C 
ATOM      2  C   UNL     1      -3.236 -16.750  -5.122  1.00  0.00     0.164 C 
ATOM      3  C   UNL     1      -2.107 -16.257  -4.193  1.00  0.00     0.232 C 
ATOM      4  O   UNL     1      -0.840 -16.786  -4.604  1.00  0.00    -0.482 OA
ATOM      5  C   UNL     1      -0.531 -17.100  -5.934  1.00  0.00     0.131 A 
ATOM      6  C   UNL     1       0.759 -17.534  -6.251  1.00  0.00     0.093 A 
ATOM      7  C   UNL     1       1.097 -17.842  -7.574  1.00  0.00     0.122 A 
ATOM      8  C   UNL     1       0.139 -17.709  -8.584  1.00  0.00     0.092 A 
ATOM      9  C   UNL     1      -1.159 -17.277  -8.279  1.00  0.00     0.126 A 
ATOM     10  C   UNL     1      -1.506 -16.988  -6.946  1.00  0.00     0.039 A 
ENDROOT
BRANCH   2  11
ATOM     11  O   UNL     1      -3.425 -18.127  -4.919  1.00  0.00    -0.389 OA
ATOM     12  H   UNL     1      -2.578 -18.575  -5.179  1.00  0.00     0.211 HD
ENDBRANCH   2  11
BRANCH   3  13
ATOM     13  C   UNL     1      -2.074 -14.742  -4.100  1.00  0.00    -0.001 A 
ATOM     14  C   UNL     1      -0.838 -14.077  -4.171  1.00  0.00     0.057 A 
ATOM     15  C   UNL     1      -3.242 -13.983  -3.890  1.00  0.00     0.012 A 
ATOM     16  C   UNL     1      -0.765 -12.685  -4.057  1.00  0.00     0.157 A 
ATOM     17  C   UNL     1      -3.173 -12.594  -3.776  1.00  0.00     0.050 A 
ATOM     18  C   UNL     1      -1.937 -11.938  -3.860  1.00  0.00     0.157 A 
BRANCH  16  19
ATOM     19  O   UNL     1       0.480 -12.063  -4.139  1.00  0.00    -0.504 OA
ATOM     20  H   UNL     1       0.846 -11.702  -5.012  1.00  0.00     0.293 HD
ENDBRANCH  16  19
BRANCH  18  21
ATOM     21  O   UNL     1      -1.872 -10.549  -3.746  1.00  0.00    -0.504 OA
ATOM     22  H   UNL     1      -1.982  -9.945  -4.552  1.00  0.00     0.293 HD
ENDBRANCH  18  21
ENDBRANCH   3  13
BRANCH   9  23
ATOM     23  O   UNL     1      -2.102 -17.131  -9.296  1.00  0.00    -0.507 OA
ATOM     24  H   UNL     1      -2.379 -16.217  -9.635  1.00  0.00     0.293 HD
ENDBRANCH   9  23
BRANCH   7  25
ATOM     25  O   UNL     1       2.381 -18.273  -7.898  1.00  0.00    -0.508 OA
ATOM     26  H   UNL     1       2.987 -18.697  -7.206  1.00  0.00     0.293 HD
ENDBRANCH   7  25
TORSDOF 6
ENDMDL
MODEL 7
REMARK VINA RESULT:    -5.175      2.219      6.674
REMARK INTER + INTRA:          -6.721
REMARK INTER:                  -6.277
REMARK INTRA:                  -0.444
REMARK UNBOUND:                -0.487
REMARK SMILES Oc1cc(O)c2c(c1)O[C@@H](c1ccc(O)c(O)c1)[C@H](O)C2
REMARK SMILES IDX 21 1 19 2 10 3 9 4 7 5 8 6 2 7 3 8 4 9 6 10 20 11 11 13
REMARK SMILES IDX 18 14 12 15 16 16 13 17 14 18 17 19 15 21 5 23 1 25
REMARK H PARENT 20 12 17 20 15 22 5 24 1 26
REMARK Flexibility Score: inf
ROOT
ATOM      1  C   UNL     1       0.548 -19.335  -5.509  1.00  0.00     0.079 C 
ATOM      2  C   UNL     1       1.709 -18.400  -5.897  1.00  0.00     0.164 C 
ATOM      3  C   UNL     1       1.523 -17.864  -7.332  1.00  0.00     0.232 C 
ATOM      4  O   UNL     1       1.296 -18.937  -8.254  1.00  0.00    -0.482 OA
ATOM      5  C   UNL     1       0.671 -20.140  -7.897  1.00  0.00     0.131 A 
ATOM      6  C   UNL     1       0.419 -21.096  -8.884  1.00  0.00     0.093 A 
ATOM      7  C   UNL     1      -0.216 -22.300  -8.555  1.00  0.00     0.122 A 
ATOM      8  C   UNL     1      -0.602 -22.543  -7.234  1.00  0.00     0.092 A 
ATOM      9  C   UNL     1      -0.353 -21.593  -6.234  1.00  0.00     0.126 A 
ATOM     10  C   UNL     1       0.304 -20.391  -6.559  1.00  0.00     0.039 A 
ENDROOT
BRANCH   2  11
ATOM     11  O   UNL     1       2.926 -19.098  -5.826  1.00  0.00    -0.389 OA
ATOM     12  H   UNL     1       3.557 -18.525  -5.316  1.00  0.00     0.211 HD
ENDBRANCH   2  11
BRANCH   3  13
ATOM     13  C   UNL     1       0.421 -16.822  -7.406  1.00  0.00    -0.001 A 
ATOM     14  C   UNL     1      -0.701 -17.068  -8.216  1.00  0.00     0.057 A 
ATOM     15  C   UNL     1       0.513 -15.591  -6.729  1.00  0.00     0.012 A 
ATOM     16  C   UNL     1      -1.722 -16.119  -8.334  1.00  0.00     0.157 A 
ATOM     17  C   UNL     1      -0.505 -14.642  -6.845  1.00  0.00     0.050 A 
ATOM     18  C   UNL     1      -1.626 -14.900  -7.644  1.00  0.00     0.157 A 
BRANCH  16  19
ATOM     19  O   UNL     1      -2.822 -16.404  -9.143  1.00  0.00    -0.504 OA
ATOM     20  H   UNL     1      -3.769 -16.402  -8.784  1.00  0.00     0.293 HD
ENDBRANCH  16  19
BRANCH  18  21
ATOM     21  O   UNL     1      -2.640 -13.950  -7.758  1.00  0.00    -0.504 OA
ATOM     22  H   UNL     1      -2.771 -13.413  -8.607  1.00  0.00     0.293 HD
ENDBRANCH  18  21
ENDBRANCH   3  13
BRANCH   9  23
ATOM     23  O   UNL     1      -0.759 -21.837  -4.923  1.00  0.00    -0.507 OA
ATOM     24  H   UNL     1      -0.733 -22.768  -4.524  1.00  0.00     0.293 HD
ENDBRANCH   9  23
BRANCH   7  25
ATOM     25  O   UNL     1      -0.472 -23.258  -9.533  1.00  0.00    -0.508 OA
ATOM     26  H   UNL     1      -1.405 -23.627  -9.681  1.00  0.00     0.293 HD
ENDBRANCH   7  25
TORSDOF 6
ENDMDL
MODEL 8
REMARK VINA RESULT:    -5.069      2.839      4.653
REMARK INTER + INTRA:          -6.594
REMARK INTER:                  -6.083
REMARK INTRA:                  -0.511
REMARK UNBOUND:                -0.487
REMARK SMILES Oc1cc(O)c2c(c1)O[C@@H](c1ccc(O)c(O)c1)[C@H](O)C2
REMARK SMILES IDX 21 1 19 2 10 3 9 4 7 5 8 6 2 7 3 8 4 9 6 10 20 11 11 13
REMARK SMILES IDX 18 14 12 15 16 16 13 17 14 18 17 19 15 21 5 23 1 25
REMARK H PARENT 20 12 17 20 15 22 5 24 1 26
REMARK Flexibility Score: inf
ROOT
ATOM      1  C   UNL     1       1.019 -17.836  -8.524  1.00  0.00     0.079 C 
ATOM      2  C   UNL     1       1.379 -18.997  -7.577  1.00  0.00     0.164 C 
ATOM      3  C   UNL     1       0.110 -19.583  -6.923  1.00  0.00     0.232 C 
ATOM      4  O   UNL     1      -0.676 -18.550  -6.317  1.00  0.00    -0.482 OA
ATOM      5  C   UNL     1      -0.708 -17.230  -6.787  1.00  0.00     0.131 A 
ATOM      6  C   UNL     1      -1.569 -16.311  -6.182  1.00  0.00     0.093 A 
ATOM      7  C   UNL     1      -1.629 -14.990  -6.642  1.00  0.00     0.122 A 
ATOM      8  C   UNL     1      -0.826 -14.591  -7.714  1.00  0.00     0.092 A 
ATOM      9  C   UNL     1       0.044 -15.503  -8.329  1.00  0.00     0.126 A 
ATOM     10  C   UNL     1       0.120 -16.826  -7.854  1.00  0.00     0.039 A 
ENDROOT
BRANCH   2  11
ATOM     11  O   UNL     1       2.242 -18.538  -6.568  1.00  0.00    -0.389 OA
ATOM     12  H   UNL     1       1.753 -17.832  -6.070  1.00  0.00     0.211 HD
ENDBRANCH   2  11
BRANCH   3  13
ATOM     13  C   UNL     1      -0.705 -20.401  -7.908  1.00  0.00    -0.001 A 
ATOM     14  C   UNL     1      -0.045 -21.295  -8.769  1.00  0.00     0.057 A 
ATOM     15  C   UNL     1      -2.101 -20.252  -8.024  1.00  0.00     0.012 A 
ATOM     16  C   UNL     1      -0.760 -22.042  -9.712  1.00  0.00     0.157 A 
ATOM     17  C   UNL     1      -2.817 -20.996  -8.964  1.00  0.00     0.050 A 
ATOM     18  C   UNL     1      -2.152 -21.894  -9.810  1.00  0.00     0.157 A 
BRANCH  16  19
ATOM     19  O   UNL     1      -0.068 -22.923 -10.543  1.00  0.00    -0.504 OA
ATOM     20  H   UNL     1       0.637 -22.604 -11.197  1.00  0.00     0.293 HD
ENDBRANCH  16  19
BRANCH  18  21
ATOM     21  O   UNL     1      -2.870 -22.636 -10.748  1.00  0.00    -0.504 OA
ATOM     22  H   UNL     1      -3.575 -23.308 -10.466  1.00  0.00     0.293 HD
ENDBRANCH  18  21
ENDBRANCH   3  13
BRANCH   9  23
ATOM     23  O   UNL     1       0.827 -15.099  -9.410  1.00  0.00    -0.507 OA
ATOM     24  H   UNL     1       0.725 -14.181  -9.825  1.00  0.00     0.293 HD
ENDBRANCH   9  23
BRANCH   7  25
ATOM     25  O   UNL     1      -2.485 -14.068  -6.045  1.00  0.00    -0.508 OA
ATOM     26  H   UNL     1      -2.501 -13.096  -6.332  1.00  0.00     0.293 HD
ENDBRANCH   7  25
TORSDOF 6
ENDMDL
MODEL 9
REMARK VINA RESULT:    -4.996      2.106      6.402
REMARK INTER + INTRA:          -6.506
REMARK INTER:                  -6.022
REMARK INTRA:                  -0.484
REMARK UNBOUND:                -0.487
REMARK SMILES Oc1cc(O)c2c(c1)O[C@@H](c1ccc(O)c(O)c1)[C@H](O)C2
REMARK SMILES IDX 21 1 19 2 10 3 9 4 7 5 8 6 2 7 3 8 4 9 6 10 20 11 11 13
REMARK SMILES IDX 18 14 12 15 16 16 13 17 14 18 17 19 15 21 5 23 1 25
REMARK H PARENT 20 12 17 20 15 22 5 24 1 26
REMARK Flexibility Score: inf
ROOT
ATOM      1  C   UNL     1       0.898 -18.551  -4.858  1.00  0.00     0.079 C 
ATOM      2  C   UNL     1       1.911 -17.438  -5.188  1.00  0.00     0.164 C 
ATOM      3  C   UNL     1       1.430 -16.600  -6.391  1.00  0.00     0.232 C 
ATOM      4  O   UNL     1       1.096 -17.442  -7.501  1.00  0.00    -0.482 OA
ATOM      5  C   UNL     1       0.618 -18.752  -7.357  1.00  0.00     0.131 A 
ATOM      6  C   UNL     1       0.240 -19.468  -8.496  1.00  0.00     0.093 A 
ATOM      7  C   UNL     1      -0.252 -20.774  -8.378  1.00  0.00     0.122 A 
ATOM      8  C   UNL     1      -0.371 -21.360  -7.115  1.00  0.00     0.092 A 
ATOM      9  C   UNL     1       0.007 -20.652  -5.965  1.00  0.00     0.126 A 
ATOM     10  C   UNL     1       0.522 -19.348  -6.083  1.00  0.00     0.039 A 
ENDROOT
BRANCH   2  11
ATOM     11  O   UNL     1       3.158 -18.007  -5.499  1.00  0.00    -0.389 OA
ATOM     12  H   UNL     1       3.013 -18.984  -5.594  1.00  0.00     0.211 HD
ENDBRANCH   2  11
BRANCH   3  13
ATOM     13  C   UNL     1       0.277 -15.687  -6.016  1.00  0.00    -0.001 A 
ATOM     14  C   UNL     1      -0.632 -15.287  -7.011  1.00  0.00     0.057 A 
ATOM     15  C   UNL     1       0.118 -15.184  -4.710  1.00  0.00     0.012 A 
ATOM     16  C   UNL     1      -1.689 -14.421  -6.711  1.00  0.00     0.157 A 
ATOM     17  C   UNL     1      -0.936 -14.320  -4.407  1.00  0.00     0.050 A 
ATOM     18  C   UNL     1      -1.844 -13.936  -5.402  1.00  0.00     0.157 A 
BRANCH  16  19
ATOM     19  O   UNL     1      -2.572 -14.053  -7.725  1.00  0.00    -0.504 OA
ATOM     20  H   UNL     1      -3.092 -14.737  -8.262  1.00  0.00     0.293 HD
ENDBRANCH  16  19
BRANCH  18  21
ATOM     21  O   UNL     1      -2.896 -13.073  -5.096  1.00  0.00    -0.504 OA
ATOM     22  H   UNL     1      -3.104 -12.807  -4.140  1.00  0.00     0.293 HD
ENDBRANCH  18  21
ENDBRANCH   3  13
BRANCH   9  23
ATOM     23  O   UNL     1      -0.133 -21.239  -4.708  1.00  0.00    -0.507 OA
ATOM     24  H   UNL     1       0.225 -20.794  -3.871  1.00  0.00     0.293 HD
ENDBRANCH   9  23
BRANCH   7  25
ATOM     25  O   UNL     1      -0.632 -21.494  -9.508  1.00  0.00    -0.508 OA
ATOM     26  H   UNL     1       0.048 -21.983 -10.078  1.00  0.00     0.293 HD
ENDBRANCH   7  25
TORSDOF 6
ENDMDL
