MODEL 1
REMARK VINA RESULT:    10.121      0.000      0.000
REMARK INTER + INTRA:          18.136
REMARK INTER:                  15.445
REMARK INTRA:                   2.691
REMARK UNBOUND:                 2.691
REMARK SMILES CC1=CCC[C@@H](C)C(=O)C[C@H](C(C)C)C(=O)C1
REMARK SMILES IDX 8 1 9 2 6 3 7 4 5 5 4 6 3 7 2 8 1 9 10 11 11 12 15 13 16 14
REMARK SMILES IDX 17 15 12 17 13 18 14 19
REMARK H PARENT
REMARK Flexibility Score: 70.00
ROOT
ATOM      1  C   UNL     1      25.458 -19.387  -0.417  1.00  0.00     0.136 C 
ATOM      2  O   UNL     1      26.334 -18.607  -0.067  1.00  0.00    -0.299 OA
ENDROOT
BRANCH   1   3
ATOM      3  C   UNL     1      25.360 -20.744   0.254  1.00  0.00     0.053 C 
ATOM      4  C   UNL     1      24.717 -21.763  -0.697  1.00  0.00     0.016 C 
BRANCH   3   5
ATOM      5  C   UNL     1      24.559 -20.639   1.573  1.00  0.00     0.015 C 
BRANCH   5   6
ATOM      6  C   UNL     1      25.413 -20.043   2.709  1.00  0.00     0.028 C 
BRANCH   6   7
ATOM      7  C   UNL     1      24.714 -18.941   3.469  1.00  0.00    -0.028 C 
ATOM      8  C   UNL     1      23.713 -18.161   2.989  1.00  0.00    -0.070 CG0
ATOM      9  C   UNL     1      23.217 -17.042   3.869  1.00  0.00     0.039 C 
ATOM     10  G   UNL     1      23.035 -18.386   1.642  1.00  0.00     0.000 G0
ENDBRANCH   6   7
ENDBRANCH   5   6
ENDBRANCH   3   5
ENDBRANCH   1   3
BRANCH   1  11
ATOM     11  C   UNL     1      24.483 -18.959  -1.491  1.00  0.00     0.087 C 
BRANCH  11  12
ATOM     12  C   UNL     1      23.411 -17.977  -0.945  1.00  0.00     0.066 C 
BRANCH  12  13
ATOM     13  C   UNL     1      23.736 -17.625   0.500  1.00  0.00     0.140 C 
ATOM     14  O   UNL     1      24.538 -16.732   0.747  1.00  0.00    -0.299 OA
BRANCH  13  15
ATOM     15  C   UNL     1      23.038 -18.341   1.628  1.00  0.00     0.106 CG0
ATOM     16  G   UNL     1      23.742 -18.217   2.975  1.00  0.00     0.000 G0
ENDBRANCH  13  15
ENDBRANCH  12  13
BRANCH  12  17
ATOM     17  C   UNL     1      23.254 -16.688  -1.819  1.00  0.00    -0.006 C 
ATOM     18  C   UNL     1      23.239 -16.997  -3.328  1.00  0.00     0.008 C 
ATOM     19  C   UNL     1      21.959 -15.932  -1.460  1.00  0.00     0.008 C 
ENDBRANCH  12  17
ENDBRANCH  11  12
ENDBRANCH   1  11
TORSDOF 1
ENDMDL
MODEL 2
REMARK VINA RESULT:    11.876      2.224      4.161
REMARK INTER + INTRA:          20.815
REMARK INTER:                  12.448
REMARK INTRA:                   8.368
REMARK UNBOUND:                 2.691
REMARK SMILES CC1=CCC[C@@H](C)C(=O)C[C@H](C(C)C)C(=O)C1
REMARK SMILES IDX 8 1 9 2 6 3 7 4 5 5 4 6 3 7 2 8 1 9 10 11 11 12 15 13 16 14
REMARK SMILES IDX 17 15 12 17 13 18 14 19
REMARK H PARENT
REMARK Flexibility Score: 70.00
ROOT
ATOM      1  C   UNL     1      24.397 -18.096  -0.099  1.00  0.00     0.136 C 
ATOM      2  O   UNL     1      24.152 -18.700  -1.135  1.00  0.00    -0.299 OA
ENDROOT
BRANCH   1   3
ATOM      3  C   UNL     1      24.400 -16.579  -0.107  1.00  0.00     0.053 C 
ATOM      4  C   UNL     1      23.055 -16.046  -0.621  1.00  0.00     0.016 C 
BRANCH   3   5
ATOM      5  C   UNL     1      25.569 -16.045  -0.967  1.00  0.00     0.015 C 
BRANCH   5   6
ATOM      6  C   UNL     1      26.935 -16.458  -0.385  1.00  0.00     0.028 C 
BRANCH   6   7
ATOM      7  C   UNL     1      27.002 -17.913   0.014  1.00  0.00    -0.028 C 
ATOM      8  C   UNL     1      26.932 -18.389   1.282  1.00  0.00    -0.070 CG0
ATOM      9  C   UNL     1      27.125 -19.871   1.482  1.00  0.00     0.039 C 
ATOM     10  G   UNL     1      26.621 -17.523   2.497  1.00  0.00     0.000 G0
ENDBRANCH   6   7
ENDBRANCH   5   6
ENDBRANCH   3   5
ENDBRANCH   1   3
BRANCH   1  11
ATOM     11  C   UNL     1      24.663 -18.885   1.163  1.00  0.00     0.087 C 
BRANCH  11  12
ATOM     12  C   UNL     1      24.144 -18.149   2.429  1.00  0.00     0.066 C 
BRANCH  12  13
ATOM     13  C   UNL     1      25.268 -17.310   3.022  1.00  0.00     0.140 C 
ATOM     14  O   UNL     1      25.043 -16.568   3.971  1.00  0.00    -0.299 OA
BRANCH  13  15
ATOM     15  C   UNL     1      26.669 -17.427   2.474  1.00  0.00     0.106 CG0
ATOM     16  G   UNL     1      26.796 -18.383   1.294  1.00  0.00     0.000 G0
ENDBRANCH  13  15
ENDBRANCH  12  13
BRANCH  12  17
ATOM     17  C   UNL     1      22.873 -17.278   2.156  1.00  0.00    -0.006 C 
ATOM     18  C   UNL     1      21.579 -18.113   2.133  1.00  0.00     0.008 C 
ATOM     19  C   UNL     1      22.724 -16.171   3.219  1.00  0.00     0.008 C 
ENDBRANCH  12  17
ENDBRANCH  11  12
ENDBRANCH   1  11
TORSDOF 1
ENDMDL
MODEL 3
REMARK VINA RESULT:    12.329      1.835      3.866
REMARK INTER + INTRA:          21.508
REMARK INTER:                  11.103
REMARK INTRA:                  10.405
REMARK UNBOUND:                 2.691
REMARK SMILES CC1=CCC[C@@H](C)C(=O)C[C@H](C(C)C)C(=O)C1
REMARK SMILES IDX 8 1 9 2 6 3 7 4 5 5 4 6 3 7 2 8 1 9 10 11 11 12 15 13 16 14
REMARK SMILES IDX 17 15 12 17 13 18 14 19
REMARK H PARENT
REMARK Flexibility Score: 70.00
ROOT
ATOM      1  C   UNL     1      23.906 -17.751  -0.824  1.00  0.00     0.136 C 
ATOM      2  O   UNL     1      23.742 -18.176  -1.959  1.00  0.00    -0.299 OA
ENDROOT
BRANCH   1   3
ATOM      3  C   UNL     1      24.526 -16.380  -0.626  1.00  0.00     0.053 C 
ATOM      4  C   UNL     1      25.136 -15.877  -1.942  1.00  0.00     0.016 C 
BRANCH   3   5
ATOM      5  C   UNL     1      25.592 -16.425   0.494  1.00  0.00     0.015 C 
BRANCH   5   6
ATOM      6  C   UNL     1      24.947 -16.599   1.883  1.00  0.00     0.028 C 
BRANCH   6   7
ATOM      7  C   UNL     1      23.506 -16.154   1.934  1.00  0.00    -0.028 C 
ATOM      8  C   UNL     1      22.476 -16.868   2.454  1.00  0.00    -0.070 CG0
ATOM      9  C   UNL     1      21.088 -16.294   2.315  1.00  0.00     0.039 C 
ATOM     10  G   UNL     1      22.650 -18.181   3.209  1.00  0.00     0.000 G0
ENDBRANCH   6   7
ENDBRANCH   5   6
ENDBRANCH   3   5
ENDBRANCH   1   3
BRANCH   1  11
ATOM     11  C   UNL     1      23.460 -18.598   0.347  1.00  0.00     0.087 C 
BRANCH  11  12
ATOM     12  C   UNL     1      24.631 -18.906   1.320  1.00  0.00     0.066 C 
BRANCH  12  13
ATOM     13  C   UNL     1      24.278 -18.401   2.712  1.00  0.00     0.140 C 
ATOM     14  O   UNL     1      25.166 -18.170   3.523  1.00  0.00    -0.299 OA
BRANCH  13  15
ATOM     15  C   UNL     1      22.838 -18.141   3.079  1.00  0.00     0.106 CG0
ATOM     16  G   UNL     1      22.289 -16.823   2.543  1.00  0.00     0.000 G0
ENDBRANCH  13  15
ENDBRANCH  12  13
BRANCH  12  17
ATOM     17  C   UNL     1      25.023 -20.421   1.351  1.00  0.00    -0.006 C 
ATOM     18  C   UNL     1      26.313 -20.713   0.561  1.00  0.00     0.008 C 
ATOM     19  C   UNL     1      25.213 -20.912   2.800  1.00  0.00     0.008 C 
ENDBRANCH  12  17
ENDBRANCH  11  12
ENDBRANCH   1  11
TORSDOF 1
ENDMDL
MODEL 4
REMARK VINA RESULT:    12.511      1.816      3.924
REMARK INTER + INTRA:          21.785
REMARK INTER:                  19.772
REMARK INTRA:                   2.014
REMARK UNBOUND:                 2.691
REMARK SMILES CC1=CCC[C@@H](C)C(=O)C[C@H](C(C)C)C(=O)C1
REMARK SMILES IDX 8 1 9 2 6 3 7 4 5 5 4 6 3 7 2 8 1 9 10 11 11 12 15 13 16 14
REMARK SMILES IDX 17 15 12 17 13 18 14 19
REMARK H PARENT
REMARK Flexibility Score: 70.00
ROOT
ATOM      1  C   UNL     1      25.524 -20.567   1.894  1.00  0.00     0.136 C 
ATOM      2  O   UNL     1      24.808 -21.080   2.744  1.00  0.00    -0.299 OA
ENDROOT
BRANCH   1   3
ATOM      3  C   UNL     1      25.527 -21.131   0.486  1.00  0.00     0.053 C 
ATOM      4  C   UNL     1      26.766 -20.647  -0.280  1.00  0.00     0.016 C 
BRANCH   3   5
ATOM      5  C   UNL     1      24.230 -20.734  -0.258  1.00  0.00     0.015 C 
BRANCH   5   6
ATOM      6  C   UNL     1      24.536 -20.001  -1.579  1.00  0.00     0.028 C 
BRANCH   6   7
ATOM      7  C   UNL     1      24.028 -18.579  -1.607  1.00  0.00    -0.028 C 
ATOM      8  C   UNL     1      24.524 -17.548  -0.877  1.00  0.00    -0.070 CG0
ATOM      9  C   UNL     1      23.810 -16.223  -0.966  1.00  0.00     0.039 C 
ATOM     10  G   UNL     1      25.783 -17.643  -0.022  1.00  0.00     0.000 G0
ENDBRANCH   6   7
ENDBRANCH   5   6
ENDBRANCH   3   5
ENDBRANCH   1   3
BRANCH   1  11
ATOM     11  C   UNL     1      26.365 -19.369   2.272  1.00  0.00     0.087 C 
BRANCH  11  12
ATOM     12  C   UNL     1      25.503 -18.091   2.465  1.00  0.00     0.066 C 
BRANCH  12  13
ATOM     13  C   UNL     1      25.734 -17.144   1.296  1.00  0.00     0.140 C 
ATOM     14  O   UNL     1      25.907 -15.949   1.501  1.00  0.00    -0.299 OA
BRANCH  13  15
ATOM     15  C   UNL     1      25.797 -17.682  -0.112  1.00  0.00     0.106 CG0
ATOM     16  G   UNL     1      24.482 -17.581  -0.876  1.00  0.00     0.000 G0
ENDBRANCH  13  15
ENDBRANCH  12  13
BRANCH  12  17
ATOM     17  C   UNL     1      23.979 -18.400   2.650  1.00  0.00    -0.006 C 
ATOM     18  C   UNL     1      23.523 -18.262   4.114  1.00  0.00     0.008 C 
ATOM     19  C   UNL     1      23.118 -17.465   1.778  1.00  0.00     0.008 C 
ENDBRANCH  12  17
ENDBRANCH  11  12
ENDBRANCH   1  11
TORSDOF 1
ENDMDL
MODEL 5
REMARK VINA RESULT:    12.555      1.780      4.269
REMARK INTER + INTRA:          21.851
REMARK INTER:                  14.910
REMARK INTRA:                   6.941
REMARK UNBOUND:                 2.691
REMARK SMILES CC1=CCC[C@@H](C)C(=O)C[C@H](C(C)C)C(=O)C1
REMARK SMILES IDX 8 1 9 2 6 3 7 4 5 5 4 6 3 7 2 8 1 9 10 11 11 12 15 13 16 14
REMARK SMILES IDX 17 15 12 17 13 18 14 19
REMARK H PARENT
REMARK Flexibility Score: 70.00
ROOT
ATOM      1  C   UNL     1      24.850 -19.665   0.050  1.00  0.00     0.136 C 
ATOM      2  O   UNL     1      25.149 -20.824  -0.203  1.00  0.00    -0.299 OA
ENDROOT
BRANCH   1   3
ATOM      3  C   UNL     1      25.372 -18.552  -0.840  1.00  0.00     0.053 C 
ATOM      4  C   UNL     1      25.878 -17.381   0.013  1.00  0.00     0.016 C 
BRANCH   3   5
ATOM      5  C   UNL     1      24.272 -18.083  -1.821  1.00  0.00     0.015 C 
BRANCH   5   6
ATOM      6  C   UNL     1      24.005 -16.571  -1.693  1.00  0.00     0.028 C 
BRANCH   6   7
ATOM      7  C   UNL     1      23.102 -16.218  -0.536  1.00  0.00    -0.028 C 
ATOM      8  C   UNL     1      23.437 -16.281   0.777  1.00  0.00    -0.070 CG0
ATOM      9  C   UNL     1      22.357 -15.988   1.788  1.00  0.00     0.039 C 
ATOM     10  G   UNL     1      24.846 -16.578   1.279  1.00  0.00     0.000 G0
ENDBRANCH   6   7
ENDBRANCH   5   6
ENDBRANCH   3   5
ENDBRANCH   1   3
BRANCH   1  11
ATOM     11  C   UNL     1      23.947 -19.383   1.230  1.00  0.00     0.087 C 
BRANCH  11  12
ATOM     12  C   UNL     1      24.753 -18.976   2.493  1.00  0.00     0.066 C 
BRANCH  12  13
ATOM     13  C   UNL     1      24.809 -17.458   2.590  1.00  0.00     0.140 C 
ATOM     14  O   UNL     1      24.867 -16.916   3.687  1.00  0.00    -0.299 OA
BRANCH  13  15
ATOM     15  C   UNL     1      24.840 -16.621   1.335  1.00  0.00     0.106 CG0
ATOM     16  G   UNL     1      23.462 -16.220   0.822  1.00  0.00     0.000 G0
ENDBRANCH  13  15
ENDBRANCH  12  13
BRANCH  12  17
ATOM     17  C   UNL     1      24.191 -19.606   3.811  1.00  0.00    -0.006 C 
ATOM     18  C   UNL     1      22.697 -19.297   4.022  1.00  0.00     0.008 C 
ATOM     19  C   UNL     1      24.381 -21.136   3.816  1.00  0.00     0.008 C 
ENDBRANCH  12  17
ENDBRANCH  11  12
ENDBRANCH   1  11
TORSDOF 1
ENDMDL
