MODEL 1
REMARK VINA RESULT:    -4.854      0.000      0.000
REMARK INTER + INTRA:          -5.263
REMARK INTER:                  -5.138
REMARK INTRA:                  -0.125
REMARK UNBOUND:                -0.125
REMARK SMILES C=C(C)[C@@H]1CC=C(C)CC1
REMARK SMILES IDX 8 1 7 2 6 3 5 4 4 5 10 6 9 7 2 8 1 9 3 10
REMARK H PARENT
REMARK Flexibility Score: inf
ROOT
ATOM      1  C   UNL     1     105.909 109.330 123.208  1.00  0.00     0.039 C 
ATOM      2  C   UNL     1     105.922 109.886 124.605  1.00  0.00    -0.077 C 
ATOM      3  C   UNL     1     104.914 109.569 125.446  1.00  0.00    -0.027 C 
ATOM      4  C   UNL     1     104.865 110.032 126.881  1.00  0.00     0.035 C 
ATOM      5  C   UNL     1     105.717 111.293 127.115  1.00  0.00     0.018 C 
ATOM      6  C   UNL     1     107.112 111.101 126.498  1.00  0.00     0.013 C 
ATOM      7  C   UNL     1     106.996 110.889 124.984  1.00  0.00     0.031 C 
ENDROOT
BRANCH   5   8
ATOM      8  C   UNL     1     105.799 111.647 128.595  1.00  0.00    -0.077 C 
ATOM      9  C   UNL     1     104.701 111.966 129.300  1.00  0.00     0.008 C 
ATOM     10  C   UNL     1     107.131 111.640 129.300  1.00  0.00     0.039 C 
ENDBRANCH   5   8
TORSDOF 1
ENDMDL
MODEL 2
REMARK VINA RESULT:    -4.831      5.923      6.577
REMARK INTER + INTRA:          -5.239
REMARK INTER:                  -5.114
REMARK INTRA:                  -0.125
REMARK UNBOUND:                -0.125
REMARK SMILES C=C(C)[C@@H]1CC=C(C)CC1
REMARK SMILES IDX 8 1 7 2 6 3 5 4 4 5 10 6 9 7 2 8 1 9 3 10
REMARK H PARENT
REMARK Flexibility Score: inf
ROOT
ATOM      1  C   UNL     1     109.191 106.757 123.335  1.00  0.00     0.039 C 
ATOM      2  C   UNL     1     109.806 106.697 124.706  1.00  0.00    -0.077 C 
ATOM      3  C   UNL     1     109.444 107.615 125.628  1.00  0.00    -0.027 C 
ATOM      4  C   UNL     1     109.962 107.607 127.044  1.00  0.00     0.035 C 
ATOM      5  C   UNL     1     111.298 106.851 127.170  1.00  0.00     0.018 C 
ATOM      6  C   UNL     1     111.195 105.490 126.463  1.00  0.00     0.013 C 
ATOM      7  C   UNL     1     110.909 105.690 124.970  1.00  0.00     0.031 C 
ENDROOT
BRANCH   5   8
ATOM      8  C   UNL     1     111.721 106.699 128.627  1.00  0.00    -0.077 C 
ATOM      9  C   UNL     1     111.967 107.771 129.399  1.00  0.00     0.008 C 
ATOM     10  C   UNL     1     111.866 105.327 129.231  1.00  0.00     0.039 C 
ENDBRANCH   5   8
TORSDOF 1
ENDMDL
MODEL 3
REMARK VINA RESULT:    -4.827      8.316      9.362
REMARK INTER + INTRA:          -5.235
REMARK INTER:                  -5.110
REMARK INTRA:                  -0.125
REMARK UNBOUND:                -0.125
REMARK SMILES C=C(C)[C@@H]1CC=C(C)CC1
REMARK SMILES IDX 8 1 7 2 6 3 5 4 4 5 10 6 9 7 2 8 1 9 3 10
REMARK H PARENT
REMARK Flexibility Score: inf
ROOT
ATOM      1  C   UNL     1     106.743 103.272 123.352  1.00  0.00     0.039 C 
ATOM      2  C   UNL     1     106.684 102.672 124.730  1.00  0.00    -0.077 C 
ATOM      3  C   UNL     1     107.658 102.967 125.617  1.00  0.00    -0.027 C 
ATOM      4  C   UNL     1     107.659 102.458 127.037  1.00  0.00     0.035 C 
ATOM      5  C   UNL     1     106.807 101.187 127.200  1.00  0.00     0.018 C 
ATOM      6  C   UNL     1     105.434 101.390 126.539  1.00  0.00     0.013 C 
ATOM      7  C   UNL     1     105.603 101.651 125.037  1.00  0.00     0.031 C 
ENDROOT
BRANCH   5   8
ATOM      8  C   UNL     1     106.674 100.785 128.664  1.00  0.00    -0.077 C 
ATOM      9  C   UNL     1     107.751 100.476 129.405  1.00  0.00     0.008 C 
ATOM     10  C   UNL     1     105.314 100.732 129.311  1.00  0.00     0.039 C 
ENDBRANCH   5   8
TORSDOF 1
ENDMDL
MODEL 4
REMARK VINA RESULT:    -4.820      8.163      9.721
REMARK INTER + INTRA:          -5.227
REMARK INTER:                  -5.098
REMARK INTRA:                  -0.129
REMARK UNBOUND:                -0.125
REMARK SMILES C=C(C)[C@@H]1CC=C(C)CC1
REMARK SMILES IDX 8 1 7 2 6 3 5 4 4 5 10 6 9 7 2 8 1 9 3 10
REMARK H PARENT
REMARK Flexibility Score: inf
ROOT
ATOM      1  C   UNL     1     107.488 100.469 129.267  1.00  0.00     0.039 C 
ATOM      2  C   UNL     1     106.893 101.058 128.018  1.00  0.00    -0.077 C 
ATOM      3  C   UNL     1     105.761 101.788 128.111  1.00  0.00    -0.027 C 
ATOM      4  C   UNL     1     105.118 102.463 126.925  1.00  0.00     0.035 C 
ATOM      5  C   UNL     1     105.523 101.808 125.592  1.00  0.00     0.018 C 
ATOM      6  C   UNL     1     107.049 101.627 125.542  1.00  0.00     0.013 C 
ATOM      7  C   UNL     1     107.510 100.705 126.677  1.00  0.00     0.031 C 
ENDROOT
BRANCH   5   8
ATOM      8  C   UNL     1     105.010 102.603 124.398  1.00  0.00    -0.077 C 
ATOM      9  C   UNL     1     103.933 103.400 124.498  1.00  0.00     0.008 C 
ATOM     10  C   UNL     1     105.716 102.510 123.070  1.00  0.00     0.039 C 
ENDBRANCH   5   8
TORSDOF 1
ENDMDL
MODEL 5
REMARK VINA RESULT:    -4.811      6.054      6.690
REMARK INTER + INTRA:          -5.217
REMARK INTER:                  -5.092
REMARK INTRA:                  -0.125
REMARK UNBOUND:                -0.125
REMARK SMILES C=C(C)[C@@H]1CC=C(C)CC1
REMARK SMILES IDX 8 1 7 2 6 3 5 4 4 5 10 6 9 7 2 8 1 9 3 10
REMARK H PARENT
REMARK Flexibility Score: inf
ROOT
ATOM      1  C   UNL     1     103.167 105.775 123.270  1.00  0.00     0.039 C 
ATOM      2  C   UNL     1     102.579 105.827 124.653  1.00  0.00    -0.077 C 
ATOM      3  C   UNL     1     102.909 104.865 125.542  1.00  0.00    -0.027 C 
ATOM      4  C   UNL     1     102.416 104.859 126.968  1.00  0.00     0.035 C 
ATOM      5  C   UNL     1     101.123 105.678 127.139  1.00  0.00     0.018 C 
ATOM      6  C   UNL     1     101.284 107.052 126.469  1.00  0.00     0.013 C 
ATOM      7  C   UNL     1     101.534 106.881 124.966  1.00  0.00     0.031 C 
ENDROOT
BRANCH   5   8
ATOM      8  C   UNL     1     100.733 105.809 128.607  1.00  0.00    -0.077 C 
ATOM      9  C   UNL     1     100.447 104.730 129.354  1.00  0.00     0.008 C 
ATOM     10  C   UNL     1     100.667 107.169 129.251  1.00  0.00     0.039 C 
ENDBRANCH   5   8
TORSDOF 1
ENDMDL
MODEL 6
REMARK VINA RESULT:    -4.797      1.184      4.544
REMARK INTER + INTRA:          -5.202
REMARK INTER:                  -5.073
REMARK INTRA:                  -0.129
REMARK UNBOUND:                -0.125
REMARK SMILES C=C(C)[C@@H]1CC=C(C)CC1
REMARK SMILES IDX 8 1 7 2 6 3 5 4 4 5 10 6 9 7 2 8 1 9 3 10
REMARK H PARENT
REMARK Flexibility Score: inf
ROOT
ATOM      1  C   UNL     1     105.049 112.023 129.310  1.00  0.00     0.039 C 
ATOM      2  C   UNL     1     105.609 111.440 128.042  1.00  0.00    -0.077 C 
ATOM      3  C   UNL     1     106.811 110.825 128.078  1.00  0.00    -0.027 C 
ATOM      4  C   UNL     1     107.432 110.164 126.873  1.00  0.00     0.035 C 
ATOM      5  C   UNL     1     106.873 110.721 125.551  1.00  0.00     0.018 C 
ATOM      6  C   UNL     1     105.337 110.754 125.607  1.00  0.00     0.013 C 
ATOM      7  C   UNL     1     104.869 111.677 126.739  1.00  0.00     0.031 C 
ENDROOT
BRANCH   5   8
ATOM      8  C   UNL     1     107.376 109.927 124.351  1.00  0.00    -0.077 C 
ATOM      9  C   UNL     1     108.570 109.312 124.370  1.00  0.00     0.008 C 
ATOM     10  C   UNL     1     106.528 109.816 123.110  1.00  0.00     0.039 C 
ENDBRANCH   5   8
TORSDOF 1
ENDMDL
MODEL 7
REMARK VINA RESULT:    -4.795      4.943      7.244
REMARK INTER + INTRA:          -5.200
REMARK INTER:                  -5.071
REMARK INTRA:                  -0.129
REMARK UNBOUND:                -0.125
REMARK SMILES C=C(C)[C@@H]1CC=C(C)CC1
REMARK SMILES IDX 8 1 7 2 6 3 5 4 4 5 10 6 9 7 2 8 1 9 3 10
REMARK H PARENT
REMARK Flexibility Score: inf
ROOT
ATOM      1  C   UNL     1     100.468 105.011 129.256  1.00  0.00     0.039 C 
ATOM      2  C   UNL     1     101.028 105.579 127.981  1.00  0.00    -0.077 C 
ATOM      3  C   UNL     1     101.691 106.754 128.021  1.00  0.00    -0.027 C 
ATOM      4  C   UNL     1     102.335 107.378 126.808  1.00  0.00     0.035 C 
ATOM      5  C   UNL     1     101.711 106.872 125.494  1.00  0.00     0.018 C 
ATOM      6  C   UNL     1     101.619 105.338 125.517  1.00  0.00     0.013 C 
ATOM      7  C   UNL     1     100.718 104.879 126.670  1.00  0.00     0.031 C 
ENDROOT
BRANCH   5   8
ATOM      8  C   UNL     1     102.482 107.373 124.279  1.00  0.00    -0.077 C 
ATOM      9  C   UNL     1     102.410 106.741 123.095  1.00  0.00     0.008 C 
ATOM     10  C   UNL     1     103.345 108.604 124.387  1.00  0.00     0.039 C 
ENDBRANCH   5   8
TORSDOF 1
ENDMDL
MODEL 8
REMARK VINA RESULT:    -4.781      6.577      7.990
REMARK INTER + INTRA:          -5.186
REMARK INTER:                  -5.057
REMARK INTRA:                  -0.129
REMARK UNBOUND:                -0.125
REMARK SMILES C=C(C)[C@@H]1CC=C(C)CC1
REMARK SMILES IDX 8 1 7 2 6 3 5 4 4 5 10 6 9 7 2 8 1 9 3 10
REMARK H PARENT
REMARK Flexibility Score: inf
ROOT
ATOM      1  C   UNL     1     111.998 107.478 129.250  1.00  0.00     0.039 C 
ATOM      2  C   UNL     1     111.420 106.873 128.000  1.00  0.00    -0.077 C 
ATOM      3  C   UNL     1     110.679 105.748 128.098  1.00  0.00    -0.027 C 
ATOM      4  C   UNL     1     110.013 105.096 126.912  1.00  0.00     0.035 C 
ATOM      5  C   UNL     1     110.689 105.479 125.582  1.00  0.00     0.018 C 
ATOM      6  C   UNL     1     110.883 107.002 125.516  1.00  0.00     0.013 C 
ATOM      7  C   UNL     1     111.795 107.469 126.656  1.00  0.00     0.031 C 
ENDROOT
BRANCH   5   8
ATOM      8  C   UNL     1     109.904 104.957 124.384  1.00  0.00    -0.077 C 
ATOM      9  C   UNL     1     109.971 105.562 123.187  1.00  0.00     0.008 C 
ATOM     10  C   UNL     1     109.034 103.735 124.527  1.00  0.00     0.039 C 
ENDBRANCH   5   8
TORSDOF 1
ENDMDL
MODEL 9
REMARK VINA RESULT:    -4.728      4.555      6.354
REMARK INTER + INTRA:          -5.130
REMARK INTER:                  -5.001
REMARK INTRA:                  -0.129
REMARK UNBOUND:                -0.125
REMARK SMILES C=C(C)[C@@H]1CC=C(C)CC1
REMARK SMILES IDX 8 1 7 2 6 3 5 4 4 5 10 6 9 7 2 8 1 9 3 10
REMARK H PARENT
REMARK Flexibility Score: inf
ROOT
ATOM      1  C   UNL     1     105.143 109.588 128.132  1.00  0.00     0.039 C 
ATOM      2  C   UNL     1     104.080 108.530 128.034  1.00  0.00    -0.077 C 
ATOM      3  C   UNL     1     103.507 108.068 129.166  1.00  0.00    -0.027 C 
ATOM      4  C   UNL     1     102.396 107.047 129.169  1.00  0.00     0.035 C 
ATOM      5  C   UNL     1     102.373 106.209 127.878  1.00  0.00     0.018 C 
ATOM      6  C   UNL     1     102.461 107.133 126.653  1.00  0.00     0.013 C 
ATOM      7  C   UNL     1     103.776 107.921 126.677  1.00  0.00     0.031 C 
ENDROOT
BRANCH   5   8
ATOM      8  C   UNL     1     101.147 105.306 127.817  1.00  0.00    -0.077 C 
ATOM      9  C   UNL     1     100.653 104.875 126.645  1.00  0.00     0.008 C 
ATOM     10  C   UNL     1     100.464 104.875 129.089  1.00  0.00     0.039 C 
ENDBRANCH   5   8
TORSDOF 1
ENDMDL
