MODEL 1
REMARK VINA RESULT:     4.962      0.000      0.000
REMARK INTER + INTRA:           8.259
REMARK INTER:                   6.847
REMARK INTRA:                   1.412
REMARK UNBOUND:                 1.412
REMARK SMILES CC[C@@H](CC[C@@H](C)[C@H]1CC[C@H]2[C@H]3CC=C4C[C@H](O)CC[C@@]4(C)[C@@H]3CC[C@]12C)C(C)C
REMARK SMILES IDX 5 1 4 2 3 3 2 4 1 5 28 6 29 7 30 8 6 9 7 10 8 11 9 12 26 13
REMARK SMILES IDX 10 14 11 15 25 16 27 17 12 18 24 19 23 20 13 21 21 22 14 23
REMARK SMILES IDX 15 24 20 25 22 26 16 27 19 28 17 29 18 30
REMARK H PARENT 18 31
REMARK Flexibility Score: inf
ROOT
ATOM      1  C   UNL     1       8.848 -33.297  12.228  1.00  0.00     0.004 C 
ENDROOT
BRANCH   1   2
ATOM      2  C   UNL     1       9.194 -31.832  11.875  1.00  0.00     0.004 C 
BRANCH   2   3
ATOM      3  C   UNL     1      10.673 -31.461  12.185  1.00  0.00    -0.009 C 
BRANCH   3   4
ATOM      4  C   UNL     1      11.382 -32.531  13.074  1.00  0.00     0.000 C 
ATOM      5  C   UNL     1      11.960 -33.744  12.329  1.00  0.00     0.004 C 
ENDBRANCH   3   4
BRANCH   3   6
ATOM      6  C   UNL     1      10.838 -29.986  12.698  1.00  0.00    -0.014 C 
ATOM      7  C   UNL     1       9.988 -28.951  11.945  1.00  0.00     0.007 C 
ATOM      8  C   UNL     1      10.576 -29.875  14.210  1.00  0.00     0.007 C 
ENDBRANCH   3   6
ENDBRANCH   2   3
ENDBRANCH   1   2
BRANCH   1   9
ATOM      9  C   UNL     1       7.328 -33.607  12.086  1.00  0.00    -0.011 C 
ATOM     10  C   UNL     1       7.141 -35.125  11.875  1.00  0.00     0.008 C 
BRANCH   9  11
ATOM     11  C   UNL     1       6.534 -33.110  13.344  1.00  0.00    -0.002 C 
ATOM     12  C   UNL     1       5.908 -34.274  14.167  1.00  0.00     0.005 C 
ATOM     13  C   UNL     1       7.306 -32.270  14.418  1.00  0.00    -0.026 C 
ATOM     14  C   UNL     1       5.898 -33.843  15.642  1.00  0.00     0.005 C 
ATOM     15  C   UNL     1       6.317 -32.385  15.593  1.00  0.00    -0.001 C 
ATOM     16  C   UNL     1       7.489 -30.750  14.065  1.00  0.00     0.007 C 
ATOM     17  C   UNL     1       8.683 -32.945  14.725  1.00  0.00     0.012 C 
ATOM     18  C   UNL     1       6.696 -31.635  16.901  1.00  0.00     0.000 C 
ATOM     19  C   UNL     1       7.219 -29.770  15.244  1.00  0.00     0.005 C 
ATOM     20  C   UNL     1       7.588 -30.396  16.613  1.00  0.00     0.003 C 
ATOM     21  C   UNL     1       7.337 -32.459  18.017  1.00  0.00     0.031 C 
ATOM     22  C   UNL     1       7.607 -29.424  17.848  1.00  0.00    -0.008 C 
ATOM     23  C   UNL     1       7.638 -31.585  19.213  1.00  0.00    -0.027 C 
ATOM     24  C   UNL     1       7.809 -30.237  19.146  1.00  0.00    -0.065 C 
ATOM     25  C   UNL     1       8.809 -28.436  17.706  1.00  0.00     0.014 C 
ATOM     26  C   UNL     1       6.288 -28.613  17.943  1.00  0.00     0.016 C 
ATOM     27  C   UNL     1       8.153 -29.482  20.415  1.00  0.00     0.063 C 
ATOM     28  C   UNL     1       9.104 -27.632  18.984  1.00  0.00     0.033 C 
ATOM     29  C   UNL     1       9.357 -28.560  20.178  1.00  0.00     0.118 C 
BRANCH  29  30
ATOM     30  O   UNL     1       9.594 -27.781  21.321  1.00  0.00    -0.393 OA
ATOM     31  H   UNL     1      10.323 -28.228  21.828  1.00  0.00     0.210 HD
ENDBRANCH  29  30
ENDBRANCH   9  11
ENDBRANCH   1   9
TORSDOF 7
ENDMDL
