MODEL 1
REMARK VINA RESULT:    -3.419      0.000      0.000
REMARK INTER + INTRA:          -3.827
REMARK INTER:                  -3.819
REMARK INTRA:                  -0.007
REMARK UNBOUND:                -0.007
REMARK SMILES CCCC(=O)[O-]
REMARK SMILES IDX 3 1 4 2 5 3 6 4 2 5 1 6
REMARK H PARENT
REMARK Flexibility Score: inf
ROOT
ATOM      1  C   UNL     1     -16.445  -0.554   0.929  1.00  0.00     0.052 C 
ENDROOT
BRANCH   1   2
ATOM      2  C   UNL     1     -15.622  -0.527   2.181  1.00  0.00     0.041 C 
ATOM      3  O   UNL     1     -14.377  -0.346   2.117  1.00  0.00    -0.550 OA
ATOM      4  O   UNL     1     -16.234  -0.670   3.419  1.00  0.00    -0.550 OA
ENDBRANCH   1   2
BRANCH   1   5
ATOM      5  C   UNL     1     -16.055   0.575  -0.032  1.00  0.00     0.003 C 
ATOM      6  C   UNL     1     -17.027   0.704  -1.204  1.00  0.00     0.004 C 
ENDBRANCH   1   5
TORSDOF 2
ENDMDL
MODEL 2
REMARK VINA RESULT:    -3.373     19.791     20.377
REMARK INTER + INTRA:          -3.775
REMARK INTER:                  -3.743
REMARK INTRA:                  -0.032
REMARK UNBOUND:                -0.007
REMARK SMILES CCCC(=O)[O-]
REMARK SMILES IDX 3 1 4 2 5 3 6 4 2 5 1 6
REMARK H PARENT
REMARK Flexibility Score: inf
ROOT
ATOM      1  C   UNL     1       2.320   9.423   4.114  1.00  0.00     0.052 C 
ENDROOT
BRANCH   1   2
ATOM      2  C   UNL     1       1.051   8.789   3.632  1.00  0.00     0.041 C 
ATOM      3  O   UNL     1       0.986   8.304   2.471  1.00  0.00    -0.550 OA
ATOM      4  O   UNL     1      -0.049   8.704   4.475  1.00  0.00    -0.550 OA
ENDBRANCH   1   2
BRANCH   1   5
ATOM      5  C   UNL     1       3.112  10.057   2.964  1.00  0.00     0.003 C 
ATOM      6  C   UNL     1       2.957  11.577   2.919  1.00  0.00     0.004 C 
ENDBRANCH   1   5
TORSDOF 2
ENDMDL
MODEL 3
REMARK VINA RESULT:    -3.298     19.621     20.321
REMARK INTER + INTRA:          -3.691
REMARK INTER:                  -3.682
REMARK INTRA:                  -0.009
REMARK UNBOUND:                -0.007
REMARK SMILES CCCC(=O)[O-]
REMARK SMILES IDX 3 1 4 2 5 3 6 4 2 5 1 6
REMARK H PARENT
REMARK Flexibility Score: inf
ROOT
ATOM      1  C   UNL     1       2.687   8.458   4.699  1.00  0.00     0.052 C 
ENDROOT
BRANCH   1   2
ATOM      2  C   UNL     1       1.685   8.723   3.617  1.00  0.00     0.041 C 
ATOM      3  O   UNL     1       2.058   8.823   2.418  1.00  0.00    -0.550 OA
ATOM      4  O   UNL     1       0.335   8.825   3.928  1.00  0.00    -0.550 OA
ENDBRANCH   1   2
BRANCH   1   5
ATOM      5  C   UNL     1       2.093   7.611   5.830  1.00  0.00     0.003 C 
ATOM      6  C   UNL     1       3.086   6.585   6.374  1.00  0.00     0.004 C 
ENDBRANCH   1   5
TORSDOF 2
ENDMDL
MODEL 4
REMARK VINA RESULT:    -3.251     15.912     16.429
REMARK INTER + INTRA:          -3.638
REMARK INTER:                  -3.629
REMARK INTRA:                  -0.010
REMARK UNBOUND:                -0.007
REMARK SMILES CCCC(=O)[O-]
REMARK SMILES IDX 3 1 4 2 5 3 6 4 2 5 1 6
REMARK H PARENT
REMARK Flexibility Score: inf
ROOT
ATOM      1  C   UNL     1     -10.469  12.176  10.118  1.00  0.00     0.052 C 
ENDROOT
BRANCH   1   2
ATOM      2  C   UNL     1     -11.938  12.032   9.865  1.00  0.00     0.041 C 
ATOM      3  O   UNL     1     -12.710  13.014  10.037  1.00  0.00    -0.550 OA
ATOM      4  O   UNL     1     -12.451  10.826   9.407  1.00  0.00    -0.550 OA
ENDBRANCH   1   2
BRANCH   1   5
ATOM      5  C   UNL     1     -10.027  13.644  10.090  1.00  0.00     0.003 C 
ATOM      6  C   UNL     1      -8.506  13.794  10.072  1.00  0.00     0.004 C 
ENDBRANCH   1   5
TORSDOF 2
ENDMDL
MODEL 5
REMARK VINA RESULT:    -3.238     14.220     14.723
REMARK INTER + INTRA:          -3.623
REMARK INTER:                  -3.615
REMARK INTRA:                  -0.008
REMARK UNBOUND:                -0.007
REMARK SMILES CCCC(=O)[O-]
REMARK SMILES IDX 3 1 4 2 5 3 6 4 2 5 1 6
REMARK H PARENT
REMARK Flexibility Score: inf
ROOT
ATOM      1  C   UNL     1     -12.901  11.643   9.566  1.00  0.00     0.052 C 
ENDROOT
BRANCH   1   2
ATOM      2  C   UNL     1     -13.017  10.153   9.660  1.00  0.00     0.041 C 
ATOM      3  O   UNL     1     -12.041   9.420   9.348  1.00  0.00    -0.550 OA
ATOM      4  O   UNL     1     -14.191   9.573  10.124  1.00  0.00    -0.550 OA
ENDBRANCH   1   2
BRANCH   1   5
ATOM      5  C   UNL     1     -11.526  12.138  10.029  1.00  0.00     0.003 C 
ATOM      6  C   UNL     1     -11.421  13.662  10.017  1.00  0.00     0.004 C 
ENDBRANCH   1   5
TORSDOF 2
ENDMDL
MODEL 6
REMARK VINA RESULT:    -3.224     15.842     16.361
REMARK INTER + INTRA:          -3.609
REMARK INTER:                  -3.600
REMARK INTRA:                  -0.009
REMARK UNBOUND:                -0.007
REMARK SMILES CCCC(=O)[O-]
REMARK SMILES IDX 3 1 4 2 5 3 6 4 2 5 1 6
REMARK H PARENT
REMARK Flexibility Score: inf
ROOT
ATOM      1  C   UNL     1     -12.602  12.774   9.719  1.00  0.00     0.052 C 
ENDROOT
BRANCH   1   2
ATOM      2  C   UNL     1     -11.738  13.993   9.824  1.00  0.00     0.041 C 
ATOM      3  O   UNL     1     -12.245  15.106  10.125  1.00  0.00    -0.550 OA
ATOM      4  O   UNL     1     -10.367  13.895   9.621  1.00  0.00    -0.550 OA
ENDBRANCH   1   2
BRANCH   1   5
ATOM      5  C   UNL     1     -11.770  11.486   9.711  1.00  0.00     0.003 C 
ATOM      6  C   UNL     1     -12.640  10.232   9.627  1.00  0.00     0.004 C 
ENDBRANCH   1   5
TORSDOF 2
ENDMDL
MODEL 7
REMARK VINA RESULT:    -3.182      2.467      3.458
REMARK INTER + INTRA:          -3.561
REMARK INTER:                  -3.533
REMARK INTRA:                  -0.028
REMARK UNBOUND:                -0.007
REMARK SMILES CCCC(=O)[O-]
REMARK SMILES IDX 3 1 4 2 5 3 6 4 2 5 1 6
REMARK H PARENT
REMARK Flexibility Score: inf
ROOT
ATOM      1  C   UNL     1     -16.087  -0.331   0.369  1.00  0.00     0.052 C 
ENDROOT
BRANCH   1   2
ATOM      2  C   UNL     1     -16.275   0.962  -0.363  1.00  0.00     0.041 C 
ATOM      3  O   UNL     1     -15.641   1.991  -0.007  1.00  0.00    -0.550 OA
ATOM      4  O   UNL     1     -17.125   1.023  -1.460  1.00  0.00    -0.550 OA
ENDBRANCH   1   2
BRANCH   1   5
ATOM      5  C   UNL     1     -17.099  -0.491   1.510  1.00  0.00     0.003 C 
ATOM      6  C   UNL     1     -16.432  -0.493   2.885  1.00  0.00     0.004 C 
ENDBRANCH   1   5
TORSDOF 2
ENDMDL
MODEL 8
REMARK VINA RESULT:    -3.060     15.599     15.962
REMARK INTER + INTRA:          -3.425
REMARK INTER:                  -3.406
REMARK INTRA:                  -0.019
REMARK UNBOUND:                -0.007
REMARK SMILES CCCC(=O)[O-]
REMARK SMILES IDX 3 1 4 2 5 3 6 4 2 5 1 6
REMARK H PARENT
REMARK Flexibility Score: inf
ROOT
ATOM      1  C   UNL     1     -12.641  12.802   9.744  1.00  0.00     0.052 C 
ENDROOT
BRANCH   1   2
ATOM      2  C   UNL     1     -11.581  11.743   9.754  1.00  0.00     0.041 C 
ATOM      3  O   UNL     1     -10.410  12.022  10.125  1.00  0.00    -0.550 OA
ATOM      4  O   UNL     1     -11.894  10.441   9.385  1.00  0.00    -0.550 OA
ENDBRANCH   1   2
BRANCH   1   5
ATOM      5  C   UNL     1     -12.038  14.211   9.778  1.00  0.00     0.003 C 
ATOM      6  C   UNL     1     -12.605  15.114   8.683  1.00  0.00     0.004 C 
ENDBRANCH   1   5
TORSDOF 2
ENDMDL
