MODEL 1
REMARK VINA RESULT:    -4.377      0.000      0.000
REMARK INTER + INTRA:         -12.303
REMARK INTER:                  -9.238
REMARK INTRA:                  -3.065
REMARK UNBOUND:                -3.065
REMARK SMILES CCC(=O)CCCCC[C@@H]1NC(=O)[C@H]2CCCCN2C(=O)[C@@H]([C@H](C)CC)NC(=O)[C@H](Cc2cn(OC)c3ccccc23)NC1=O
REMARK SMILES IDX 9 1 10 2 44 3 43 4 45 6 30 7 28 8 27 9 29 11 22 12 23 14
REMARK SMILES IDX 24 15 25 16 26 17 31 18 32 19 33 20 42 21 34 22 37 23 41 24
REMARK SMILES IDX 38 25 40 26 39 27 35 28 36 29 11 30 12 31 13 33 14 34 19 35
REMARK SMILES IDX 15 36 18 37 16 38 17 39 20 40 21 41 8 43 7 44 6 45 5 46 3 47
REMARK SMILES IDX 4 48 2 49 1 50
REMARK H PARENT 43 5 27 10 11 32
REMARK Flexibility Score: 80.00
ROOT
ATOM      1  C   UNL     1      59.048  24.092  53.852  1.00  0.00     0.035 C 
ENDROOT
BRANCH   1   2
ATOM      2  C   UNL     1      58.171  22.830  54.001  1.00  0.00     0.171 C 
BRANCH   2   3
ATOM      3  C   UNL     1      56.746  23.167  54.345  1.00  0.00     0.243 C 
ATOM      4  N   UNL     1      55.717  23.077  53.350  1.00  0.00    -0.342 N 
ATOM      5  H   UNL     1      55.979  23.130  52.339  1.00  0.00     0.164 HD
ATOM      6  O   UNL     1      56.462  23.531  55.516  1.00  0.00    -0.273 OA
BRANCH   4   7
ATOM      7  C   UNL     1      54.358  22.659  53.685  1.00  0.00     0.175 C 
BRANCH   7   8
ATOM      8  C   UNL     1      54.207  21.199  53.342  1.00  0.00     0.243 C 
ATOM      9  N   UNL     1      55.366  20.447  52.952  1.00  0.00    -0.342 N 
ATOM     10  H   UNL     1      56.281  20.949  52.919  1.00  0.00     0.164 HD
ATOM     11  O   UNL     1      53.064  20.665  53.313  1.00  0.00    -0.273 OA
BRANCH   9  12
ATOM     12  C   UNL     1      55.334  19.002  52.691  1.00  0.00     0.174 CG0
ATOM     13  G   UNL     1      56.378  18.624  51.652  1.00  0.00     0.000 G0
BRANCH  12  14
ATOM     14  C   UNL     1      55.372  18.213  54.039  1.00  0.00     0.018 C 
ATOM     15  C   UNL     1      54.042  17.566  54.474  1.00  0.00     0.010 C 
BRANCH  14  16
ATOM     16  C   UNL     1      56.090  18.950  55.199  1.00  0.00     0.002 C 
ATOM     17  C   UNL     1      55.216  19.328  56.396  1.00  0.00     0.004 C 
ENDBRANCH  14  16
ENDBRANCH  12  14
ENDBRANCH   9  12
ENDBRANCH   7   8
BRANCH   7  18
ATOM     18  C   UNL     1      53.340  23.567  52.967  1.00  0.00     0.073 C 
BRANCH  18  19
ATOM     19  C   UNL     1      53.708  25.016  53.112  1.00  0.00    -0.016 A 
ATOM     20  C   UNL     1      53.627  25.788  54.263  1.00  0.00     0.134 A 
ATOM     21  C   UNL     1      54.259  25.834  52.148  1.00  0.00     0.006 A 
ATOM     22  N   UNL     1      54.098  27.034  54.028  1.00  0.00    -0.191 N 
ATOM     23  C   UNL     1      54.489  27.064  52.728  1.00  0.00     0.087 A 
ATOM     24  C   UNL     1      54.570  25.567  50.816  1.00  0.00     0.011 A 
ATOM     25  C   UNL     1      55.062  28.103  51.975  1.00  0.00     0.030 A 
ATOM     26  C   UNL     1      55.141  26.594  50.054  1.00  0.00     0.001 A 
ATOM     27  C   UNL     1      55.387  27.854  50.631  1.00  0.00     0.002 A 
BRANCH  22  28
ATOM     28  O   UNL     1      54.135  28.008  55.016  1.00  0.00    -0.417 OA
ATOM     29  C   UNL     1      53.645  29.333  54.873  1.00  0.00     0.313 C 
ENDBRANCH  22  28
ENDBRANCH  18  19
ENDBRANCH   7  18
ENDBRANCH   4   7
ENDBRANCH   2   3
BRANCH   2  30
ATOM     30  N   UNL     1      58.212  21.989  52.799  1.00  0.00    -0.343 N 
ATOM     31  C   UNL     1      58.839  20.698  52.791  1.00  0.00     0.243 C 
ATOM     32  H   UNL     1      57.750  22.314  51.923  1.00  0.00     0.164 HD
ATOM     33  O   UNL     1      59.618  20.369  53.728  1.00  0.00    -0.273 OA
BRANCH  31  34
ATOM     34  C   UNL     1      58.621  19.774  51.620  1.00  0.00     0.174 C 
ATOM     35  N   UNL     1      57.795  18.600  51.987  1.00  0.00    -0.329 N 
ATOM     36  C   UNL     1      59.986  19.341  51.044  1.00  0.00     0.035 C 
ATOM     37  C   UNL     1      58.425  17.268  51.966  1.00  0.00     0.120 C 
ATOM     38  C   UNL     1      60.726  18.381  51.992  1.00  0.00     0.004 C 
ATOM     39  C   UNL     1      59.808  17.315  52.619  1.00  0.00     0.022 C 
BRANCH  35  40
ATOM     40  C   UNL     1      56.392  18.639  51.663  1.00  0.00     0.246 CG0
ATOM     41  O   UNL     1      56.051  18.447  50.465  1.00  0.00    -0.272 OA
ATOM     42  G   UNL     1      55.313  18.997  52.673  1.00  0.00     0.000 G0
ENDBRANCH  35  40
ENDBRANCH  31  34
ENDBRANCH   2  30
ENDBRANCH   1   2
BRANCH   1  43
ATOM     43  C   UNL     1      59.412  24.459  52.400  1.00  0.00     0.003 C 
BRANCH  43  44
ATOM     44  C   UNL     1      58.306  25.309  51.766  1.00  0.00     0.001 C 
BRANCH  44  45
ATOM     45  C   UNL     1      58.698  25.752  50.351  1.00  0.00     0.008 C 
BRANCH  45  46
ATOM     46  C   UNL     1      59.768  26.853  50.373  1.00  0.00     0.075 C 
BRANCH  46  47
ATOM     47  C   UNL     1      59.256  28.133  50.986  1.00  0.00     0.132 C 
ATOM     48  O   UNL     1      58.560  28.878  50.310  1.00  0.00    -0.300 OA
BRANCH  47  49
ATOM     49  C   UNL     1      59.633  28.534  52.390  1.00  0.00     0.072 C 
ATOM     50  C   UNL     1      59.547  30.047  52.581  1.00  0.00     0.012 C 
ENDBRANCH  47  49
ENDBRANCH  46  47
ENDBRANCH  45  46
ENDBRANCH  44  45
ENDBRANCH  43  44
ENDBRANCH   1  43
TORSDOF 12
ENDMDL
MODEL 2
REMARK VINA RESULT:    -4.007      2.829      8.075
REMARK INTER + INTRA:         -11.522
REMARK INTER:                  -8.471
REMARK INTRA:                  -3.051
REMARK UNBOUND:                -3.065
REMARK SMILES CCC(=O)CCCCC[C@@H]1NC(=O)[C@H]2CCCCN2C(=O)[C@@H]([C@H](C)CC)NC(=O)[C@H](Cc2cn(OC)c3ccccc23)NC1=O
REMARK SMILES IDX 9 1 10 2 44 3 43 4 45 6 30 7 28 8 27 9 29 11 22 12 23 14
REMARK SMILES IDX 24 15 25 16 26 17 31 18 32 19 33 20 42 21 34 22 37 23 41 24
REMARK SMILES IDX 38 25 40 26 39 27 35 28 36 29 11 30 12 31 13 33 14 34 19 35
REMARK SMILES IDX 15 36 18 37 16 38 17 39 20 40 21 41 8 43 7 44 6 45 5 46 3 47
REMARK SMILES IDX 4 48 2 49 1 50
REMARK H PARENT 43 5 27 10 11 32
REMARK Flexibility Score: 80.00
ROOT
ATOM      1  C   UNL     1      61.535  22.448  53.456  1.00  0.00     0.035 C 
ENDROOT
BRANCH   1   2
ATOM      2  C   UNL     1      60.427  23.163  52.653  1.00  0.00     0.171 C 
BRANCH   2   3
ATOM      3  C   UNL     1      59.049  22.764  53.109  1.00  0.00     0.243 C 
ATOM      4  N   UNL     1      58.357  23.540  54.097  1.00  0.00    -0.342 N 
ATOM      5  H   UNL     1      58.909  24.145  54.748  1.00  0.00     0.164 HD
ATOM      6  O   UNL     1      58.508  21.740  52.616  1.00  0.00    -0.273 OA
BRANCH   4   7
ATOM      7  C   UNL     1      56.907  23.713  54.061  1.00  0.00     0.175 C 
BRANCH   7   8
ATOM      8  C   UNL     1      56.604  25.166  53.804  1.00  0.00     0.243 C 
ATOM      9  N   UNL     1      56.631  25.662  52.456  1.00  0.00    -0.342 N 
ATOM     10  H   UNL     1      56.864  24.984  51.696  1.00  0.00     0.164 HD
ATOM     11  O   UNL     1      56.415  25.959  54.768  1.00  0.00    -0.273 OA
BRANCH   9  12
ATOM     12  C   UNL     1      56.259  27.036  52.099  1.00  0.00     0.174 CG0
ATOM     13  G   UNL     1      57.474  27.949  52.150  1.00  0.00     0.000 G0
BRANCH  12  14
ATOM     14  C   UNL     1      55.437  27.041  50.770  1.00  0.00     0.018 C 
ATOM     15  C   UNL     1      54.296  28.076  50.692  1.00  0.00     0.010 C 
BRANCH  14  16
ATOM     16  C   UNL     1      55.010  25.637  50.269  1.00  0.00     0.002 C 
ATOM     17  C   UNL     1      53.785  25.596  49.354  1.00  0.00     0.004 C 
ENDBRANCH  14  16
ENDBRANCH  12  14
ENDBRANCH   9  12
ENDBRANCH   7   8
BRANCH   7  18
ATOM     18  C   UNL     1      56.284  23.177  55.365  1.00  0.00     0.073 C 
BRANCH  18  19
ATOM     19  C   UNL     1      56.338  21.676  55.415  1.00  0.00    -0.016 A 
ATOM     20  C   UNL     1      57.170  20.894  56.203  1.00  0.00     0.134 A 
ATOM     21  C   UNL     1      55.524  20.793  54.737  1.00  0.00     0.006 A 
ATOM     22  N   UNL     1      56.897  19.582  56.022  1.00  0.00    -0.191 N 
ATOM     23  C   UNL     1      55.882  19.518  55.121  1.00  0.00     0.087 A 
ATOM     24  C   UNL     1      54.501  21.036  53.821  1.00  0.00     0.011 A 
ATOM     25  C   UNL     1      55.206  18.405  54.593  1.00  0.00     0.030 A 
ATOM     26  C   UNL     1      53.820  19.936  53.286  1.00  0.00     0.001 A 
ATOM     27  C   UNL     1      54.169  18.629  53.671  1.00  0.00     0.002 A 
BRANCH  22  28
ATOM     28  O   UNL     1      57.584  18.584  56.698  1.00  0.00    -0.417 OA
ATOM     29  C   UNL     1      57.944  18.629  58.070  1.00  0.00     0.313 C 
ENDBRANCH  22  28
ENDBRANCH  18  19
ENDBRANCH   7  18
ENDBRANCH   4   7
ENDBRANCH   2   3
BRANCH   2  30
ATOM     30  N   UNL     1      60.569  24.623  52.703  1.00  0.00    -0.343 N 
ATOM     31  C   UNL     1      59.823  25.492  51.838  1.00  0.00     0.243 C 
ATOM     32  H   UNL     1      61.207  25.058  53.403  1.00  0.00     0.164 HD
ATOM     33  O   UNL     1      59.241  25.024  50.821  1.00  0.00    -0.273 OA
BRANCH  31  34
ATOM     34  C   UNL     1      59.808  26.975  52.111  1.00  0.00     0.174 C 
ATOM     35  N   UNL     1      58.707  27.659  51.393  1.00  0.00    -0.329 N 
ATOM     36  C   UNL     1      61.180  27.581  51.743  1.00  0.00     0.035 C 
ATOM     37  C   UNL     1      59.056  28.613  50.326  1.00  0.00     0.120 C 
ATOM     38  C   UNL     1      61.401  27.603  50.220  1.00  0.00     0.004 C 
ATOM     39  C   UNL     1      60.155  28.041  49.428  1.00  0.00     0.022 C 
BRANCH  35  40
ATOM     40  C   UNL     1      57.504  27.949  52.130  1.00  0.00     0.246 CG0
ATOM     41  O   UNL     1      57.497  28.956  52.888  1.00  0.00    -0.272 OA
ATOM     42  G   UNL     1      56.279  27.048  52.115  1.00  0.00     0.000 G0
ENDBRANCH  35  40
ENDBRANCH  31  34
ENDBRANCH   2  30
ENDBRANCH   1   2
BRANCH   1  43
ATOM     43  C   UNL     1      61.369  20.920  53.569  1.00  0.00     0.003 C 
BRANCH  43  44
ATOM     44  C   UNL     1      61.671  20.245  52.227  1.00  0.00     0.001 C 
BRANCH  44  45
ATOM     45  C   UNL     1      61.073  18.833  52.176  1.00  0.00     0.008 C 
BRANCH  45  46
ATOM     46  C   UNL     1      59.923  18.735  51.164  1.00  0.00     0.075 C 
BRANCH  46  47
ATOM     47  C   UNL     1      59.141  17.454  51.314  1.00  0.00     0.132 C 
ATOM     48  O   UNL     1      59.660  16.504  51.884  1.00  0.00    -0.300 OA
BRANCH  47  49
ATOM     49  C   UNL     1      57.759  17.307  50.727  1.00  0.00     0.072 C 
ATOM     50  C   UNL     1      56.897  18.536  51.011  1.00  0.00     0.012 C 
ENDBRANCH  47  49
ENDBRANCH  46  47
ENDBRANCH  45  46
ENDBRANCH  44  45
ENDBRANCH  43  44
ENDBRANCH   1  43
TORSDOF 12
ENDMDL
MODEL 3
REMARK VINA RESULT:    -3.979      8.798     11.972
REMARK INTER + INTRA:         -11.464
REMARK INTER:                  -9.113
REMARK INTRA:                  -2.351
REMARK UNBOUND:                -3.065
REMARK SMILES CCC(=O)CCCCC[C@@H]1NC(=O)[C@H]2CCCCN2C(=O)[C@@H]([C@H](C)CC)NC(=O)[C@H](Cc2cn(OC)c3ccccc23)NC1=O
REMARK SMILES IDX 9 1 10 2 44 3 43 4 45 6 30 7 28 8 27 9 29 11 22 12 23 14
REMARK SMILES IDX 24 15 25 16 26 17 31 18 32 19 33 20 42 21 34 22 37 23 41 24
REMARK SMILES IDX 38 25 40 26 39 27 35 28 36 29 11 30 12 31 13 33 14 34 19 35
REMARK SMILES IDX 15 36 18 37 16 38 17 39 20 40 21 41 8 43 7 44 6 45 5 46 3 47
REMARK SMILES IDX 4 48 2 49 1 50
REMARK H PARENT 43 5 27 10 11 32
REMARK Flexibility Score: 80.00
ROOT
ATOM      1  C   UNL     1      60.884  29.372  60.484  1.00  0.00     0.035 C 
ENDROOT
BRANCH   1   2
ATOM      2  C   UNL     1      60.248  27.977  60.300  1.00  0.00     0.171 C 
BRANCH   2   3
ATOM      3  C   UNL     1      61.136  26.876  60.812  1.00  0.00     0.243 C 
ATOM      4  N   UNL     1      60.841  26.222  62.054  1.00  0.00    -0.342 N 
ATOM      5  H   UNL     1      60.253  26.716  62.763  1.00  0.00     0.164 HD
ATOM      6  O   UNL     1      62.145  26.533  60.141  1.00  0.00    -0.273 OA
BRANCH   4   7
ATOM      7  C   UNL     1      61.115  24.802  62.258  1.00  0.00     0.175 C 
BRANCH   7   8
ATOM      8  C   UNL     1      59.805  24.084  62.453  1.00  0.00     0.243 C 
ATOM      9  N   UNL     1      58.776  24.218  61.459  1.00  0.00    -0.342 N 
ATOM     10  H   UNL     1      58.981  24.818  60.629  1.00  0.00     0.164 HD
ATOM     11  O   UNL     1      59.579  23.444  63.517  1.00  0.00    -0.273 OA
BRANCH   9  12
ATOM     12  C   UNL     1      57.506  23.484  61.514  1.00  0.00     0.174 CG0
ATOM     13  G   UNL     1      56.343  24.444  61.704  1.00  0.00     0.000 G0
BRANCH  12  14
ATOM     14  C   UNL     1      57.406  22.494  60.310  1.00  0.00     0.018 C 
ATOM     15  C   UNL     1      57.140  21.020  60.675  1.00  0.00     0.010 C 
BRANCH  14  16
ATOM     16  C   UNL     1      58.520  22.658  59.244  1.00  0.00     0.002 C 
ATOM     17  C   UNL     1      58.527  21.623  58.118  1.00  0.00     0.004 C 
ENDBRANCH  14  16
ENDBRANCH  12  14
ENDBRANCH   9  12
ENDBRANCH   7   8
BRANCH   7  18
ATOM     18  C   UNL     1      62.094  24.623  63.436  1.00  0.00     0.073 C 
BRANCH  18  19
ATOM     19  C   UNL     1      63.466  24.252  62.949  1.00  0.00    -0.016 A 
ATOM     20  C   UNL     1      63.869  24.083  61.632  1.00  0.00     0.134 A 
ATOM     21  C   UNL     1      64.600  24.075  63.714  1.00  0.00     0.006 A 
ATOM     22  N   UNL     1      65.192  23.806  61.575  1.00  0.00    -0.191 N 
ATOM     23  C   UNL     1      65.643  23.803  62.856  1.00  0.00     0.087 A 
ATOM     24  C   UNL     1      64.769  24.143  65.097  1.00  0.00     0.011 A 
ATOM     25  C   UNL     1      66.936  23.587  63.362  1.00  0.00     0.030 A 
ATOM     26  C   UNL     1      66.052  23.929  65.615  1.00  0.00     0.001 A 
ATOM     27  C   UNL     1      67.129  23.655  64.752  1.00  0.00     0.002 A 
BRANCH  22  28
ATOM     28  O   UNL     1      65.852  23.597  60.372  1.00  0.00    -0.417 OA
ATOM     29  C   UNL     1      65.524  22.589  59.428  1.00  0.00     0.313 C 
ENDBRANCH  22  28
ENDBRANCH  18  19
ENDBRANCH   7  18
ENDBRANCH   4   7
ENDBRANCH   2   3
BRANCH   2  30
ATOM     30  N   UNL     1      58.926  27.890  60.931  1.00  0.00    -0.343 N 
ATOM     31  C   UNL     1      57.845  27.153  60.341  1.00  0.00     0.243 C 
ATOM     32  H   UNL     1      58.760  28.349  61.853  1.00  0.00     0.164 HD
ATOM     33  O   UNL     1      57.909  26.798  59.132  1.00  0.00    -0.273 OA
BRANCH  31  34
ATOM     34  C   UNL     1      56.605  26.877  61.153  1.00  0.00     0.174 C 
ATOM     35  N   UNL     1      56.015  25.556  60.832  1.00  0.00    -0.329 N 
ATOM     36  C   UNL     1      55.584  28.015  60.938  1.00  0.00     0.035 C 
ATOM     37  C   UNL     1      54.694  25.521  60.180  1.00  0.00     0.120 C 
ATOM     38  C   UNL     1      54.978  27.975  59.524  1.00  0.00     0.004 C 
ATOM     39  C   UNL     1      54.621  26.553  59.053  1.00  0.00     0.022 C 
BRANCH  35  40
ATOM     40  C   UNL     1      56.312  24.456  61.713  1.00  0.00     0.246 CG0
ATOM     41  O   UNL     1      55.610  24.316  62.750  1.00  0.00    -0.272 OA
ATOM     42  G   UNL     1      57.491  23.518  61.506  1.00  0.00     0.000 G0
ENDBRANCH  35  40
ENDBRANCH  31  34
ENDBRANCH   2  30
ENDBRANCH   1   2
BRANCH   1  43
ATOM     43  C   UNL     1      60.722  30.320  59.281  1.00  0.00     0.003 C 
BRANCH  43  44
ATOM     44  C   UNL     1      61.689  29.935  58.156  1.00  0.00     0.001 C 
BRANCH  44  45
ATOM     45  C   UNL     1      63.066  30.573  58.374  1.00  0.00     0.008 C 
BRANCH  45  46
ATOM     46  C   UNL     1      62.959  31.956  59.032  1.00  0.00     0.075 C 
BRANCH  46  47
ATOM     47  C   UNL     1      64.029  32.177  60.072  1.00  0.00     0.132 C 
ATOM     48  O   UNL     1      64.504  31.209  60.650  1.00  0.00    -0.300 OA
BRANCH  47  49
ATOM     49  C   UNL     1      64.482  33.566  60.447  1.00  0.00     0.072 C 
ATOM     50  C   UNL     1      64.410  34.518  59.255  1.00  0.00     0.012 C 
ENDBRANCH  47  49
ENDBRANCH  46  47
ENDBRANCH  45  46
ENDBRANCH  44  45
ENDBRANCH  43  44
ENDBRANCH   1  43
TORSDOF 12
ENDMDL
MODEL 4
REMARK VINA RESULT:    -3.962      7.586     10.441
REMARK INTER + INTRA:         -11.427
REMARK INTER:                  -8.033
REMARK INTRA:                  -3.394
REMARK UNBOUND:                -3.065
REMARK SMILES CCC(=O)CCCCC[C@@H]1NC(=O)[C@H]2CCCCN2C(=O)[C@@H]([C@H](C)CC)NC(=O)[C@H](Cc2cn(OC)c3ccccc23)NC1=O
REMARK SMILES IDX 9 1 10 2 44 3 43 4 45 6 30 7 28 8 27 9 29 11 22 12 23 14
REMARK SMILES IDX 24 15 25 16 26 17 31 18 32 19 33 20 42 21 34 22 37 23 41 24
REMARK SMILES IDX 38 25 40 26 39 27 35 28 36 29 11 30 12 31 13 33 14 34 19 35
REMARK SMILES IDX 15 36 18 37 16 38 17 39 20 40 21 41 8 43 7 44 6 45 5 46 3 47
REMARK SMILES IDX 4 48 2 49 1 50
REMARK H PARENT 43 5 27 10 11 32
REMARK Flexibility Score: 80.00
ROOT
ATOM      1  C   UNL     1      55.901  27.852  61.581  1.00  0.00     0.035 C 
ENDROOT
BRANCH   1   2
ATOM      2  C   UNL     1      56.325  26.389  61.330  1.00  0.00     0.171 C 
BRANCH   2   3
ATOM      3  C   UNL     1      57.780  26.276  60.962  1.00  0.00     0.243 C 
ATOM      4  N   UNL     1      58.773  26.072  61.977  1.00  0.00    -0.342 N 
ATOM      5  H   UNL     1      58.560  26.351  62.962  1.00  0.00     0.164 HD
ATOM      6  O   UNL     1      58.121  26.364  59.753  1.00  0.00    -0.273 OA
BRANCH   4   7
ATOM      7  C   UNL     1      59.963  25.260  61.736  1.00  0.00     0.175 C 
BRANCH   7   8
ATOM      8  C   UNL     1      59.895  24.037  62.613  1.00  0.00     0.243 C 
ATOM      9  N   UNL     1      59.151  22.892  62.165  1.00  0.00    -0.342 N 
ATOM     10  H   UNL     1      58.680  22.955  61.235  1.00  0.00     0.164 HD
ATOM     11  O   UNL     1      60.410  24.048  63.765  1.00  0.00    -0.273 OA
BRANCH   9  12
ATOM     12  C   UNL     1      59.106  21.626  62.905  1.00  0.00     0.174 CG0
ATOM     13  G   UNL     1      57.937  21.617  63.878  1.00  0.00     0.000 G0
BRANCH  12  14
ATOM     14  C   UNL     1      59.200  20.422  61.914  1.00  0.00     0.018 C 
ATOM     15  C   UNL     1      60.074  19.239  62.378  1.00  0.00     0.010 C 
BRANCH  14  16
ATOM     16  C   UNL     1      59.459  20.818  60.438  1.00  0.00     0.002 C 
ATOM     17  C   UNL     1      60.431  19.925  59.665  1.00  0.00     0.004 C 
ENDBRANCH  14  16
ENDBRANCH  12  14
ENDBRANCH   9  12
ENDBRANCH   7   8
BRANCH   7  18
ATOM     18  C   UNL     1      61.229  26.109  61.963  1.00  0.00     0.073 C 
BRANCH  18  19
ATOM     19  C   UNL     1      61.744  26.672  60.669  1.00  0.00    -0.016 A 
ATOM     20  C   UNL     1      62.577  26.042  59.755  1.00  0.00     0.134 A 
ATOM     21  C   UNL     1      61.434  27.895  60.112  1.00  0.00     0.006 A 
ATOM     22  N   UNL     1      62.785  26.836  58.680  1.00  0.00    -0.191 N 
ATOM     23  C   UNL     1      62.080  27.977  58.897  1.00  0.00     0.087 A 
ATOM     24  C   UNL     1      60.627  28.923  60.598  1.00  0.00     0.011 A 
ATOM     25  C   UNL     1      61.934  29.121  58.095  1.00  0.00     0.030 A 
ATOM     26  C   UNL     1      60.474  30.070  59.810  1.00  0.00     0.001 A 
ATOM     27  C   UNL     1      61.122  30.167  58.564  1.00  0.00     0.002 A 
BRANCH  22  28
ATOM     28  O   UNL     1      63.579  26.441  57.612  1.00  0.00    -0.417 OA
ATOM     29  C   UNL     1      63.263  25.397  56.705  1.00  0.00     0.313 C 
ENDBRANCH  22  28
ENDBRANCH  18  19
ENDBRANCH   7  18
ENDBRANCH   4   7
ENDBRANCH   2   3
BRANCH   2  30
ATOM     30  N   UNL     1      56.030  25.527  62.480  1.00  0.00    -0.343 N 
ATOM     31  C   UNL     1      56.157  24.099  62.417  1.00  0.00     0.243 C 
ATOM     32  H   UNL     1      55.745  25.953  63.388  1.00  0.00     0.164 HD
ATOM     33  O   UNL     1      56.249  23.522  61.297  1.00  0.00    -0.273 OA
BRANCH  31  34
ATOM     34  C   UNL     1      56.101  23.291  63.689  1.00  0.00     0.174 C 
ATOM     35  N   UNL     1      56.584  21.905  63.488  1.00  0.00    -0.329 N 
ATOM     36  C   UNL     1      54.661  23.308  64.247  1.00  0.00     0.035 C 
ATOM     37  C   UNL     1      55.617  20.802  63.623  1.00  0.00     0.120 C 
ATOM     38  C   UNL     1      53.703  22.478  63.374  1.00  0.00     0.004 C 
ATOM     39  C   UNL     1      54.308  21.140  62.907  1.00  0.00     0.022 C 
BRANCH  35  40
ATOM     40  C   UNL     1      57.940  21.605  63.868  1.00  0.00     0.246 CG0
ATOM     41  O   UNL     1      58.183  21.386  65.085  1.00  0.00    -0.272 OA
ATOM     42  G   UNL     1      59.106  21.638  62.892  1.00  0.00     0.000 G0
ENDBRANCH  35  40
ENDBRANCH  31  34
ENDBRANCH   2  30
ENDBRANCH   1   2
BRANCH   1  43
ATOM     43  C   UNL     1      54.915  28.427  60.546  1.00  0.00     0.003 C 
BRANCH  43  44
ATOM     44  C   UNL     1      54.531  27.359  59.516  1.00  0.00     0.001 C 
BRANCH  44  45
ATOM     45  C   UNL     1      53.994  28.002  58.232  1.00  0.00     0.008 C 
BRANCH  45  46
ATOM     46  C   UNL     1      54.561  29.413  58.018  1.00  0.00     0.075 C 
BRANCH  46  47
ATOM     47  C   UNL     1      55.219  29.563  56.669  1.00  0.00     0.132 C 
ATOM     48  O   UNL     1      54.515  29.703  55.678  1.00  0.00    -0.300 OA
BRANCH  47  49
ATOM     49  C   UNL     1      56.717  29.489  56.515  1.00  0.00     0.072 C 
ATOM     50  C   UNL     1      57.402  29.194  57.848  1.00  0.00     0.012 C 
ENDBRANCH  47  49
ENDBRANCH  46  47
ENDBRANCH  45  46
ENDBRANCH  44  45
ENDBRANCH  43  44
ENDBRANCH   1  43
TORSDOF 12
ENDMDL
MODEL 5
REMARK VINA RESULT:    -3.947      6.000      8.846
REMARK INTER + INTRA:         -11.396
REMARK INTER:                  -6.844
REMARK INTRA:                  -4.552
REMARK UNBOUND:                -3.065
REMARK SMILES CCC(=O)CCCCC[C@@H]1NC(=O)[C@H]2CCCCN2C(=O)[C@@H]([C@H](C)CC)NC(=O)[C@H](Cc2cn(OC)c3ccccc23)NC1=O
REMARK SMILES IDX 9 1 10 2 44 3 43 4 45 6 30 7 28 8 27 9 29 11 22 12 23 14
REMARK SMILES IDX 24 15 25 16 26 17 31 18 32 19 33 20 42 21 34 22 37 23 41 24
REMARK SMILES IDX 38 25 40 26 39 27 35 28 36 29 11 30 12 31 13 33 14 34 19 35
REMARK SMILES IDX 15 36 18 37 16 38 17 39 20 40 21 41 8 43 7 44 6 45 5 46 3 47
REMARK SMILES IDX 4 48 2 49 1 50
REMARK H PARENT 43 5 27 10 11 32
REMARK Flexibility Score: 80.00
ROOT
ATOM      1  C   UNL     1      60.192  29.842  51.201  1.00  0.00     0.035 C 
ENDROOT
BRANCH   1   2
ATOM      2  C   UNL     1      60.453  30.173  52.687  1.00  0.00     0.171 C 
BRANCH   2   3
ATOM      3  C   UNL     1      59.207  30.059  53.521  1.00  0.00     0.243 C 
ATOM      4  N   UNL     1      58.850  28.810  54.129  1.00  0.00    -0.342 N 
ATOM      5  H   UNL     1      59.225  27.921  53.726  1.00  0.00     0.164 HD
ATOM      6  O   UNL     1      58.475  31.072  53.681  1.00  0.00    -0.273 OA
BRANCH   4   7
ATOM      7  C   UNL     1      58.195  28.750  55.434  1.00  0.00     0.175 C 
BRANCH   7   8
ATOM      8  C   UNL     1      59.164  28.168  56.430  1.00  0.00     0.243 C 
ATOM      9  N   UNL     1      60.103  29.036  57.086  1.00  0.00    -0.342 N 
ATOM     10  H   UNL     1      60.076  30.051  56.841  1.00  0.00     0.164 HD
ATOM     11  O   UNL     1      59.211  26.922  56.622  1.00  0.00    -0.273 OA
BRANCH   9  12
ATOM     12  C   UNL     1      61.019  28.578  58.137  1.00  0.00     0.174 CG0
ATOM     13  G   UNL     1      62.310  28.052  57.529  1.00  0.00     0.000 G0
BRANCH  12  14
ATOM     14  C   UNL     1      61.162  29.676  59.239  1.00  0.00     0.018 C 
ATOM     15  C   UNL     1      60.461  29.375  60.580  1.00  0.00     0.010 C 
BRANCH  14  16
ATOM     16  C   UNL     1      60.917  31.124  58.744  1.00  0.00     0.002 C 
ATOM     17  C   UNL     1      62.157  32.012  58.629  1.00  0.00     0.004 C 
ENDBRANCH  14  16
ENDBRANCH  12  14
ENDBRANCH   9  12
ENDBRANCH   7   8
BRANCH   7  18
ATOM     18  C   UNL     1      56.879  27.956  55.321  1.00  0.00     0.073 C 
BRANCH  18  19
ATOM     19  C   UNL     1      56.105  28.358  54.098  1.00  0.00    -0.016 A 
ATOM     20  C   UNL     1      55.414  29.545  53.898  1.00  0.00     0.134 A 
ATOM     21  C   UNL     1      55.991  27.653  52.918  1.00  0.00     0.006 A 
ATOM     22  N   UNL     1      54.886  29.579  52.653  1.00  0.00    -0.191 N 
ATOM     23  C   UNL     1      55.242  28.416  52.048  1.00  0.00     0.087 A 
ATOM     24  C   UNL     1      56.502  26.405  52.565  1.00  0.00     0.011 A 
ATOM     25  C   UNL     1      54.971  27.947  50.751  1.00  0.00     0.030 A 
ATOM     26  C   UNL     1      56.239  25.925  51.276  1.00  0.00     0.001 A 
ATOM     27  C   UNL     1      55.480  26.693  50.374  1.00  0.00     0.002 A 
BRANCH  22  28
ATOM     28  O   UNL     1      54.149  30.661  52.193  1.00  0.00    -0.417 OA
ATOM     29  C   UNL     1      54.317  32.003  52.622  1.00  0.00     0.313 C 
ENDBRANCH  22  28
ENDBRANCH  18  19
ENDBRANCH   7  18
ENDBRANCH   4   7
ENDBRANCH   2   3
BRANCH   2  30
ATOM     30  N   UNL     1      61.516  29.335  53.256  1.00  0.00    -0.343 N 
ATOM     31  C   UNL     1      62.097  29.607  54.539  1.00  0.00     0.243 C 
ATOM     32  H   UNL     1      61.849  28.496  52.735  1.00  0.00     0.164 HD
ATOM     33  O   UNL     1      61.918  30.729  55.089  1.00  0.00    -0.273 OA
BRANCH  31  34
ATOM     34  C   UNL     1      62.985  28.573  55.186  1.00  0.00     0.174 C 
ATOM     35  N   UNL     1      63.160  28.822  56.636  1.00  0.00    -0.329 N 
ATOM     36  C   UNL     1      64.345  28.532  54.455  1.00  0.00     0.035 C 
ATOM     37  C   UNL     1      64.500  29.196  57.123  1.00  0.00     0.120 C 
ATOM     38  C   UNL     1      65.178  29.795  54.733  1.00  0.00     0.004 C 
ATOM     39  C   UNL     1      65.136  30.242  56.207  1.00  0.00     0.022 C 
BRANCH  35  40
ATOM     40  C   UNL     1      62.345  28.065  57.550  1.00  0.00     0.246 CG0
ATOM     41  O   UNL     1      62.701  26.889  57.833  1.00  0.00    -0.272 OA
ATOM     42  G   UNL     1      61.027  28.576  58.111  1.00  0.00     0.000 G0
ENDBRANCH  35  40
ENDBRANCH  31  34
ENDBRANCH   2  30
ENDBRANCH   1   2
BRANCH   1  43
ATOM     43  C   UNL     1      58.930  28.998  50.939  1.00  0.00     0.003 C 
BRANCH  43  44
ATOM     44  C   UNL     1      59.051  28.247  49.608  1.00  0.00     0.001 C 
BRANCH  44  45
ATOM     45  C   UNL     1      60.016  27.062  49.733  1.00  0.00     0.008 C 
BRANCH  45  46
ATOM     46  C   UNL     1      59.566  26.067  50.812  1.00  0.00     0.075 C 
BRANCH  46  47
ATOM     47  C   UNL     1      60.592  25.910  51.906  1.00  0.00     0.132 C 
ATOM     48  O   UNL     1      60.557  26.665  52.867  1.00  0.00    -0.300 OA
BRANCH  47  49
ATOM     49  C   UNL     1      61.690  24.880  51.808  1.00  0.00     0.072 C 
ATOM     50  C   UNL     1      63.054  25.534  51.597  1.00  0.00     0.012 C 
ENDBRANCH  47  49
ENDBRANCH  46  47
ENDBRANCH  45  46
ENDBRANCH  44  45
ENDBRANCH  43  44
ENDBRANCH   1  43
TORSDOF 12
ENDMDL
MODEL 6
REMARK VINA RESULT:    -3.905      7.664     13.502
REMARK INTER + INTRA:         -11.307
REMARK INTER:                  -9.117
REMARK INTRA:                  -2.190
REMARK UNBOUND:                -3.065
REMARK SMILES CCC(=O)CCCCC[C@@H]1NC(=O)[C@H]2CCCCN2C(=O)[C@@H]([C@H](C)CC)NC(=O)[C@H](Cc2cn(OC)c3ccccc23)NC1=O
REMARK SMILES IDX 9 1 10 2 44 3 43 4 45 6 30 7 28 8 27 9 29 11 22 12 23 14
REMARK SMILES IDX 24 15 25 16 26 17 31 18 32 19 33 20 42 21 34 22 37 23 41 24
REMARK SMILES IDX 38 25 40 26 39 27 35 28 36 29 11 30 12 31 13 33 14 34 19 35
REMARK SMILES IDX 15 36 18 37 16 38 17 39 20 40 21 41 8 43 7 44 6 45 5 46 3 47
REMARK SMILES IDX 4 48 2 49 1 50
REMARK H PARENT 43 5 27 10 11 32
REMARK Flexibility Score: 80.00
ROOT
ATOM      1  C   UNL     1      60.473  29.781  51.510  1.00  0.00     0.035 C 
ENDROOT
BRANCH   1   2
ATOM      2  C   UNL     1      61.953  30.201  51.372  1.00  0.00     0.171 C 
BRANCH   2   3
ATOM      3  C   UNL     1      62.796  29.117  50.759  1.00  0.00     0.243 C 
ATOM      4  N   UNL     1      63.405  29.307  49.475  1.00  0.00    -0.342 N 
ATOM      5  H   UNL     1      62.998  30.011  48.817  1.00  0.00     0.164 HD
ATOM      6  O   UNL     1      62.962  28.036  51.384  1.00  0.00    -0.273 OA
BRANCH   4   7
ATOM      7  C   UNL     1      64.714  28.744  49.154  1.00  0.00     0.175 C 
BRANCH   7   8
ATOM      8  C   UNL     1      65.614  29.859  48.688  1.00  0.00     0.243 C 
ATOM      9  N   UNL     1      65.672  31.078  49.446  1.00  0.00    -0.342 N 
ATOM     10  H   UNL     1      65.079  31.144  50.302  1.00  0.00     0.164 HD
ATOM     11  O   UNL     1      66.242  29.759  47.598  1.00  0.00    -0.273 OA
BRANCH   9  12
ATOM     12  C   UNL     1      66.587  32.179  49.124  1.00  0.00     0.174 CG0
ATOM     13  G   UNL     1      65.815  33.475  48.928  1.00  0.00     0.000 G0
BRANCH  12  14
ATOM     14  C   UNL     1      67.765  32.217  50.150  1.00  0.00     0.018 C 
ATOM     15  C   UNL     1      69.131  32.655  49.586  1.00  0.00     0.010 C 
BRANCH  14  16
ATOM     16  C   UNL     1      67.864  30.968  51.065  1.00  0.00     0.002 C 
ATOM     17  C   UNL     1      67.457  31.174  52.525  1.00  0.00     0.004 C 
ENDBRANCH  14  16
ENDBRANCH  12  14
ENDBRANCH   9  12
ENDBRANCH   7   8
BRANCH   7  18
ATOM     18  C   UNL     1      64.557  27.610  48.122  1.00  0.00     0.073 C 
BRANCH  18  19
ATOM     19  C   UNL     1      65.064  26.305  48.668  1.00  0.00    -0.016 A 
ATOM     20  C   UNL     1      64.990  25.862  49.981  1.00  0.00     0.134 A 
ATOM     21  C   UNL     1      65.640  25.274  47.956  1.00  0.00     0.006 A 
ATOM     22  N   UNL     1      65.501  24.615  50.088  1.00  0.00    -0.191 N 
ATOM     23  C   UNL     1      65.900  24.250  48.841  1.00  0.00     0.087 A 
ATOM     24  C   UNL     1      65.939  25.179  46.597  1.00  0.00     0.011 A 
ATOM     25  C   UNL     1      66.482  23.055  48.387  1.00  0.00     0.030 A 
ATOM     26  C   UNL     1      66.520  23.994  46.131  1.00  0.00     0.001 A 
ATOM     27  C   UNL     1      66.788  22.937  47.021  1.00  0.00     0.002 A 
BRANCH  22  28
ATOM     28  O   UNL     1      65.543  23.934  51.296  1.00  0.00    -0.417 OA
ATOM     29  C   UNL     1      64.635  24.126  52.370  1.00  0.00     0.313 C 
ENDBRANCH  22  28
ENDBRANCH  18  19
ENDBRANCH   7  18
ENDBRANCH   4   7
ENDBRANCH   2   3
BRANCH   2  30
ATOM     30  N   UNL     1      62.100  31.445  50.606  1.00  0.00    -0.343 N 
ATOM     31  C   UNL     1      63.207  32.337  50.804  1.00  0.00     0.243 C 
ATOM     32  H   UNL     1      61.401  31.686  49.871  1.00  0.00     0.164 HD
ATOM     33  O   UNL     1      63.930  32.227  51.833  1.00  0.00    -0.273 OA
BRANCH  31  34
ATOM     34  C   UNL     1      63.448  33.450  49.816  1.00  0.00     0.174 C 
ATOM     35  N   UNL     1      64.830  33.978  49.903  1.00  0.00    -0.329 N 
ATOM     36  C   UNL     1      62.405  34.568  50.034  1.00  0.00     0.035 C 
ATOM     37  C   UNL     1      65.021  35.360  50.376  1.00  0.00     0.120 C 
ATOM     38  C   UNL     1      62.656  35.331  51.347  1.00  0.00     0.004 C 
ATOM     39  C   UNL     1      64.145  35.639  51.599  1.00  0.00     0.022 C 
BRANCH  35  40
ATOM     40  C   UNL     1      65.792  33.501  48.943  1.00  0.00     0.246 CG0
ATOM     41  O   UNL     1      65.933  34.146  47.870  1.00  0.00    -0.272 OA
ATOM     42  G   UNL     1      66.572  32.207  49.117  1.00  0.00     0.000 G0
ENDBRANCH  35  40
ENDBRANCH  31  34
ENDBRANCH   2  30
ENDBRANCH   1   2
BRANCH   1  43
ATOM     43  C   UNL     1      59.837  29.222  50.222  1.00  0.00     0.003 C 
BRANCH  43  44
ATOM     44  C   UNL     1      58.383  28.810  50.474  1.00  0.00     0.001 C 
BRANCH  44  45
ATOM     45  C   UNL     1      58.272  27.925  51.721  1.00  0.00     0.008 C 
BRANCH  45  46
ATOM     46  C   UNL     1      56.810  27.703  52.137  1.00  0.00     0.075 C 
BRANCH  46  47
ATOM     47  C   UNL     1      56.014  26.999  51.066  1.00  0.00     0.132 C 
ATOM     48  O   UNL     1      56.505  26.031  50.502  1.00  0.00    -0.300 OA
BRANCH  47  49
ATOM     49  C   UNL     1      54.656  27.499  50.643  1.00  0.00     0.072 C 
ATOM     50  C   UNL     1      54.562  29.020  50.750  1.00  0.00     0.012 C 
ENDBRANCH  47  49
ENDBRANCH  46  47
ENDBRANCH  45  46
ENDBRANCH  44  45
ENDBRANCH  43  44
ENDBRANCH   1  43
TORSDOF 12
ENDMDL
MODEL 7
REMARK VINA RESULT:    -3.819     11.861     16.251
REMARK INTER + INTRA:         -11.126
REMARK INTER:                  -7.396
REMARK INTRA:                  -3.729
REMARK UNBOUND:                -3.065
REMARK SMILES CCC(=O)CCCCC[C@@H]1NC(=O)[C@H]2CCCCN2C(=O)[C@@H]([C@H](C)CC)NC(=O)[C@H](Cc2cn(OC)c3ccccc23)NC1=O
REMARK SMILES IDX 9 1 10 2 44 3 43 4 45 6 30 7 28 8 27 9 29 11 22 12 23 14
REMARK SMILES IDX 24 15 25 16 26 17 31 18 32 19 33 20 42 21 34 22 37 23 41 24
REMARK SMILES IDX 38 25 40 26 39 27 35 28 36 29 11 30 12 31 13 33 14 34 19 35
REMARK SMILES IDX 15 36 18 37 16 38 17 39 20 40 21 41 8 43 7 44 6 45 5 46 3 47
REMARK SMILES IDX 4 48 2 49 1 50
REMARK H PARENT 43 5 27 10 11 32
REMARK Flexibility Score: 80.00
ROOT
ATOM      1  C   UNL     1      65.154  30.155  58.173  1.00  0.00     0.035 C 
ENDROOT
BRANCH   1   2
ATOM      2  C   UNL     1      66.549  30.536  57.631  1.00  0.00     0.171 C 
BRANCH   2   3
ATOM      3  C   UNL     1      66.568  31.915  57.031  1.00  0.00     0.243 C 
ATOM      4  N   UNL     1      67.150  33.012  57.749  1.00  0.00    -0.342 N 
ATOM      5  H   UNL     1      67.235  32.953  58.790  1.00  0.00     0.164 HD
ATOM      6  O   UNL     1      66.064  32.101  55.892  1.00  0.00    -0.273 OA
BRANCH   4   7
ATOM      7  C   UNL     1      67.859  34.090  57.063  1.00  0.00     0.175 C 
BRANCH   7   8
ATOM      8  C   UNL     1      69.289  34.100  57.534  1.00  0.00     0.243 C 
ATOM      9  N   UNL     1      70.125  32.963  57.264  1.00  0.00    -0.342 N 
ATOM     10  H   UNL     1      69.701  32.163  56.744  1.00  0.00     0.164 HD
ATOM     11  O   UNL     1      69.724  35.055  58.234  1.00  0.00    -0.273 OA
BRANCH   9  12
ATOM     12  C   UNL     1      71.554  32.921  57.600  1.00  0.00     0.174 CG0
ATOM     13  G   UNL     1      71.797  31.997  58.783  1.00  0.00     0.000 G0
BRANCH  12  14
ATOM     14  C   UNL     1      72.399  32.647  56.315  1.00  0.00     0.018 C 
ATOM     15  C   UNL     1      73.118  33.871  55.712  1.00  0.00     0.010 C 
BRANCH  14  16
ATOM     16  C   UNL     1      71.686  31.781  55.244  1.00  0.00     0.002 C 
ATOM     17  C   UNL     1      72.515  30.648  54.637  1.00  0.00     0.004 C 
ENDBRANCH  14  16
ENDBRANCH  12  14
ENDBRANCH   9  12
ENDBRANCH   7   8
BRANCH   7  18
ATOM     18  C   UNL     1      67.126  35.426  57.294  1.00  0.00     0.073 C 
BRANCH  18  19
ATOM     19  C   UNL     1      65.650  35.284  57.056  1.00  0.00    -0.016 A 
ATOM     20  C   UNL     1      64.992  35.319  55.834  1.00  0.00     0.134 A 
ATOM     21  C   UNL     1      64.677  35.027  57.999  1.00  0.00     0.006 A 
ATOM     22  N   UNL     1      63.668  35.100  56.005  1.00  0.00    -0.191 N 
ATOM     23  C   UNL     1      63.473  34.918  57.337  1.00  0.00     0.087 A 
ATOM     24  C   UNL     1      64.784  34.878  59.382  1.00  0.00     0.011 A 
ATOM     25  C   UNL     1      62.295  34.643  58.053  1.00  0.00     0.030 A 
ATOM     26  C   UNL     1      63.618  34.605  60.108  1.00  0.00     0.001 A 
ATOM     27  C   UNL     1      62.382  34.487  59.446  1.00  0.00     0.002 A 
BRANCH  22  28
ATOM     28  O   UNL     1      62.780  35.077  54.939  1.00  0.00    -0.417 OA
ATOM     29  C   UNL     1      62.653  34.013  54.008  1.00  0.00     0.313 C 
ENDBRANCH  22  28
ENDBRANCH  18  19
ENDBRANCH   7  18
ENDBRANCH   4   7
ENDBRANCH   2   3
BRANCH   2  30
ATOM     30  N   UNL     1      67.588  30.422  58.662  1.00  0.00    -0.343 N 
ATOM     31  C   UNL     1      68.964  30.178  58.335  1.00  0.00     0.243 C 
ATOM     32  H   UNL     1      67.337  30.549  59.666  1.00  0.00     0.164 HD
ATOM     33  O   UNL     1      69.276  29.771  57.182  1.00  0.00    -0.273 OA
BRANCH  31  34
ATOM     34  C   UNL     1      70.018  30.335  59.401  1.00  0.00     0.174 C 
ATOM     35  N   UNL     1      71.354  30.612  58.823  1.00  0.00    -0.329 N 
ATOM     36  C   UNL     1      70.043  29.075  60.292  1.00  0.00     0.035 C 
ATOM     37  C   UNL     1      72.407  29.593  58.979  1.00  0.00     0.120 C 
ATOM     38  C   UNL     1      70.616  27.859  59.543  1.00  0.00     0.004 C 
ATOM     39  C   UNL     1      71.855  28.196  58.692  1.00  0.00     0.022 C 
BRANCH  35  40
ATOM     40  C   UNL     1      71.800  31.981  58.788  1.00  0.00     0.246 CG0
ATOM     41  O   UNL     1      72.350  32.454  59.818  1.00  0.00    -0.272 OA
ATOM     42  G   UNL     1      71.552  32.909  57.609  1.00  0.00     0.000 G0
ENDBRANCH  35  40
ENDBRANCH  31  34
ENDBRANCH   2  30
ENDBRANCH   1   2
BRANCH   1  43
ATOM     43  C   UNL     1      64.515  31.203  59.104  1.00  0.00     0.003 C 
BRANCH  43  44
ATOM     44  C   UNL     1      63.486  30.545  60.030  1.00  0.00     0.001 C 
BRANCH  44  45
ATOM     45  C   UNL     1      62.061  30.757  59.504  1.00  0.00     0.008 C 
BRANCH  45  46
ATOM     46  C   UNL     1      61.399  29.433  59.096  1.00  0.00     0.075 C 
BRANCH  46  47
ATOM     47  C   UNL     1      61.492  29.184  57.611  1.00  0.00     0.132 C 
ATOM     48  O   UNL     1      61.495  28.032  57.201  1.00  0.00    -0.300 OA
BRANCH  47  49
ATOM     49  C   UNL     1      61.639  30.324  56.633  1.00  0.00     0.072 C 
ATOM     50  C   UNL     1      62.758  30.057  55.629  1.00  0.00     0.012 C 
ENDBRANCH  47  49
ENDBRANCH  46  47
ENDBRANCH  45  46
ENDBRANCH  44  45
ENDBRANCH  43  44
ENDBRANCH   1  43
TORSDOF 12
ENDMDL
MODEL 8
REMARK VINA RESULT:    -3.755      5.827      9.303
REMARK INTER + INTRA:         -10.991
REMARK INTER:                  -7.608
REMARK INTRA:                  -3.383
REMARK UNBOUND:                -3.065
REMARK SMILES CCC(=O)CCCCC[C@@H]1NC(=O)[C@H]2CCCCN2C(=O)[C@@H]([C@H](C)CC)NC(=O)[C@H](Cc2cn(OC)c3ccccc23)NC1=O
REMARK SMILES IDX 9 1 10 2 44 3 43 4 45 6 30 7 28 8 27 9 29 11 22 12 23 14
REMARK SMILES IDX 24 15 25 16 26 17 31 18 32 19 33 20 42 21 34 22 37 23 41 24
REMARK SMILES IDX 38 25 40 26 39 27 35 28 36 29 11 30 12 31 13 33 14 34 19 35
REMARK SMILES IDX 15 36 18 37 16 38 17 39 20 40 21 41 8 43 7 44 6 45 5 46 3 47
REMARK SMILES IDX 4 48 2 49 1 50
REMARK H PARENT 43 5 27 10 11 32
REMARK Flexibility Score: 80.00
ROOT
ATOM      1  C   UNL     1      60.340  28.253  57.049  1.00  0.00     0.035 C 
ENDROOT
BRANCH   1   2
ATOM      2  C   UNL     1      59.342  28.200  55.872  1.00  0.00     0.171 C 
BRANCH   2   3
ATOM      3  C   UNL     1      58.307  29.288  55.957  1.00  0.00     0.243 C 
ATOM      4  N   UNL     1      58.226  30.296  54.941  1.00  0.00    -0.342 N 
ATOM      5  H   UNL     1      59.069  30.497  54.354  1.00  0.00     0.164 HD
ATOM      6  O   UNL     1      57.509  29.307  56.931  1.00  0.00    -0.273 OA
BRANCH   4   7
ATOM      7  C   UNL     1      56.948  30.869  54.525  1.00  0.00     0.175 C 
BRANCH   7   8
ATOM      8  C   UNL     1      56.809  30.701  53.035  1.00  0.00     0.243 C 
ATOM      9  N   UNL     1      57.259  29.482  52.421  1.00  0.00    -0.342 N 
ATOM     10  H   UNL     1      57.671  28.751  53.042  1.00  0.00     0.164 HD
ATOM     11  O   UNL     1      56.385  31.652  52.321  1.00  0.00    -0.273 OA
BRANCH   9  12
ATOM     12  C   UNL     1      57.080  29.189  50.994  1.00  0.00     0.174 CG0
ATOM     13  G   UNL     1      58.378  28.683  50.385  1.00  0.00     0.000 G0
BRANCH  12  14
ATOM     14  C   UNL     1      55.815  28.297  50.784  1.00  0.00     0.018 C 
ATOM     15  C   UNL     1      54.487  29.054  50.581  1.00  0.00     0.010 C 
BRANCH  14  16
ATOM     16  C   UNL     1      55.687  27.114  51.778  1.00  0.00     0.002 C 
ATOM     17  C   UNL     1      54.534  27.203  52.780  1.00  0.00     0.004 C 
ENDBRANCH  14  16
ENDBRANCH  12  14
ENDBRANCH   9  12
ENDBRANCH   7   8
BRANCH   7  18
ATOM     18  C   UNL     1      56.858  32.336  54.989  1.00  0.00     0.073 C 
BRANCH  18  19
ATOM     19  C   UNL     1      58.224  32.943  55.141  1.00  0.00    -0.016 A 
ATOM     20  C   UNL     1      59.049  33.412  54.128  1.00  0.00     0.134 A 
ATOM     21  C   UNL     1      58.889  33.208  56.319  1.00  0.00     0.006 A 
ATOM     22  N   UNL     1      60.180  33.941  54.647  1.00  0.00    -0.191 N 
ATOM     23  C   UNL     1      60.083  33.818  55.996  1.00  0.00     0.087 A 
ATOM     24  C   UNL     1      58.514  32.956  57.638  1.00  0.00     0.011 A 
ATOM     25  C   UNL     1      60.970  34.215  57.011  1.00  0.00     0.030 A 
ATOM     26  C   UNL     1      59.389  33.346  58.659  1.00  0.00     0.001 A 
ATOM     27  C   UNL     1      60.609  33.974  58.347  1.00  0.00     0.002 A 
BRANCH  22  28
ATOM     28  O   UNL     1      61.174  34.487  53.848  1.00  0.00    -0.417 OA
ATOM     29  C   UNL     1      61.094  34.642  52.439  1.00  0.00     0.313 C 
ENDBRANCH  22  28
ENDBRANCH  18  19
ENDBRANCH   7  18
ENDBRANCH   4   7
ENDBRANCH   2   3
BRANCH   2  30
ATOM     30  N   UNL     1      60.024  28.255  54.573  1.00  0.00    -0.343 N 
ATOM     31  C   UNL     1      59.506  27.592  53.411  1.00  0.00     0.243 C 
ATOM     32  H   UNL     1      60.897  28.815  54.470  1.00  0.00     0.164 HD
ATOM     33  O   UNL     1      58.611  26.711  53.533  1.00  0.00    -0.273 OA
BRANCH  31  34
ATOM     34  C   UNL     1      60.095  27.900  52.057  1.00  0.00     0.174 C 
ATOM     35  N   UNL     1      59.145  27.603  50.959  1.00  0.00    -0.329 N 
ATOM     36  C   UNL     1      61.417  27.121  51.881  1.00  0.00     0.035 C 
ATOM     37  C   UNL     1      59.473  26.510  50.028  1.00  0.00     0.120 C 
ATOM     38  C   UNL     1      61.170  25.611  51.715  1.00  0.00     0.004 C 
ATOM     39  C   UNL     1      59.982  25.285  50.790  1.00  0.00     0.022 C 
BRANCH  35  40
ATOM     40  C   UNL     1      58.397  28.702  50.404  1.00  0.00     0.246 CG0
ATOM     41  O   UNL     1      58.898  29.334  49.435  1.00  0.00    -0.272 OA
ATOM     42  G   UNL     1      57.085  29.198  50.990  1.00  0.00     0.000 G0
ENDBRANCH  35  40
ENDBRANCH  31  34
ENDBRANCH   2  30
ENDBRANCH   1   2
BRANCH   1  43
ATOM     43  C   UNL     1      61.069  29.600  57.219  1.00  0.00     0.003 C 
BRANCH  43  44
ATOM     44  C   UNL     1      62.053  29.536  58.392  1.00  0.00     0.001 C 
BRANCH  44  45
ATOM     45  C   UNL     1      62.211  30.913  59.050  1.00  0.00     0.008 C 
BRANCH  45  46
ATOM     46  C   UNL     1      63.660  31.177  59.482  1.00  0.00     0.075 C 
BRANCH  46  47
ATOM     47  C   UNL     1      64.385  32.086  58.520  1.00  0.00     0.132 C 
ATOM     48  O   UNL     1      64.932  31.598  57.541  1.00  0.00    -0.300 OA
BRANCH  47  49
ATOM     49  C   UNL     1      64.492  33.568  58.774  1.00  0.00     0.072 C 
ATOM     50  C   UNL     1      64.458  33.884  60.268  1.00  0.00     0.012 C 
ENDBRANCH  47  49
ENDBRANCH  46  47
ENDBRANCH  45  46
ENDBRANCH  44  45
ENDBRANCH  43  44
ENDBRANCH   1  43
TORSDOF 12
ENDMDL
MODEL 9
REMARK VINA RESULT:    -3.682      4.366      9.070
REMARK INTER + INTRA:         -10.837
REMARK INTER:                  -8.565
REMARK INTRA:                  -2.271
REMARK UNBOUND:                -3.065
REMARK SMILES CCC(=O)CCCCC[C@@H]1NC(=O)[C@H]2CCCCN2C(=O)[C@@H]([C@H](C)CC)NC(=O)[C@H](Cc2cn(OC)c3ccccc23)NC1=O
REMARK SMILES IDX 9 1 10 2 44 3 43 4 45 6 30 7 28 8 27 9 29 11 22 12 23 14
REMARK SMILES IDX 24 15 25 16 26 17 31 18 32 19 33 20 42 21 34 22 37 23 41 24
REMARK SMILES IDX 38 25 40 26 39 27 35 28 36 29 11 30 12 31 13 33 14 34 19 35
REMARK SMILES IDX 15 36 18 37 16 38 17 39 20 40 21 41 8 43 7 44 6 45 5 46 3 47
REMARK SMILES IDX 4 48 2 49 1 50
REMARK H PARENT 43 5 27 10 11 32
REMARK Flexibility Score: 80.00
ROOT
ATOM      1  C   UNL     1      58.074  22.650  53.666  1.00  0.00     0.035 C 
ENDROOT
BRANCH   1   2
ATOM      2  C   UNL     1      57.108  23.853  53.737  1.00  0.00     0.171 C 
BRANCH   2   3
ATOM      3  C   UNL     1      57.511  24.843  54.795  1.00  0.00     0.243 C 
ATOM      4  N   UNL     1      58.731  25.586  54.669  1.00  0.00    -0.342 N 
ATOM      5  H   UNL     1      59.497  25.210  54.065  1.00  0.00     0.164 HD
ATOM      6  O   UNL     1      56.768  25.013  55.797  1.00  0.00    -0.273 OA
BRANCH   4   7
ATOM      7  C   UNL     1      58.845  26.964  55.144  1.00  0.00     0.175 C 
BRANCH   7   8
ATOM      8  C   UNL     1      58.691  27.891  53.967  1.00  0.00     0.243 C 
ATOM      9  N   UNL     1      57.444  28.576  53.771  1.00  0.00    -0.342 N 
ATOM     10  H   UNL     1      56.681  28.400  54.462  1.00  0.00     0.164 HD
ATOM     11  O   UNL     1      59.615  27.998  53.114  1.00  0.00    -0.273 OA
BRANCH   9  12
ATOM     12  C   UNL     1      57.232  29.568  52.710  1.00  0.00     0.174 CG0
ATOM     13  G   UNL     1      56.938  28.880  51.386  1.00  0.00     0.000 G0
BRANCH  12  14
ATOM     14  C   UNL     1      56.203  30.646  53.180  1.00  0.00     0.018 C 
ATOM     15  C   UNL     1      56.741  32.087  53.280  1.00  0.00     0.010 C 
BRANCH  14  16
ATOM     16  C   UNL     1      55.354  30.234  54.411  1.00  0.00     0.002 C 
ATOM     17  C   UNL     1      53.981  29.631  54.107  1.00  0.00     0.004 C 
ENDBRANCH  14  16
ENDBRANCH  12  14
ENDBRANCH   9  12
ENDBRANCH   7   8
BRANCH   7  18
ATOM     18  C   UNL     1      60.175  27.147  55.901  1.00  0.00     0.073 C 
BRANCH  18  19
ATOM     19  C   UNL     1      59.935  27.497  57.342  1.00  0.00    -0.016 A 
ATOM     20  C   UNL     1      58.975  26.956  58.186  1.00  0.00     0.134 A 
ATOM     21  C   UNL     1      60.666  28.372  58.118  1.00  0.00     0.006 A 
ATOM     22  N   UNL     1      59.094  27.474  59.430  1.00  0.00    -0.191 N 
ATOM     23  C   UNL     1      60.136  28.345  59.390  1.00  0.00     0.087 A 
ATOM     24  C   UNL     1      61.756  29.175  57.781  1.00  0.00     0.011 A 
ATOM     25  C   UNL     1      60.696  29.138  60.405  1.00  0.00     0.030 A 
ATOM     26  C   UNL     1      62.323  29.972  58.783  1.00  0.00     0.001 A 
ATOM     27  C   UNL     1      61.797  29.952  60.088  1.00  0.00     0.002 A 
BRANCH  22  28
ATOM     28  O   UNL     1      58.257  27.098  60.470  1.00  0.00    -0.417 OA
ATOM     29  C   UNL     1      58.525  26.055  61.395  1.00  0.00     0.313 C 
ENDBRANCH  22  28
ENDBRANCH  18  19
ENDBRANCH   7  18
ENDBRANCH   4   7
ENDBRANCH   2   3
BRANCH   2  30
ATOM     30  N   UNL     1      56.979  24.529  52.440  1.00  0.00    -0.343 N 
ATOM     31  C   UNL     1      56.181  25.709  52.270  1.00  0.00     0.243 C 
ATOM     32  H   UNL     1      57.503  24.169  51.614  1.00  0.00     0.164 HD
ATOM     33  O   UNL     1      55.341  26.036  53.155  1.00  0.00    -0.273 OA
BRANCH  31  34
ATOM     34  C   UNL     1      56.297  26.507  50.996  1.00  0.00     0.174 C 
ATOM     35  N   UNL     1      55.898  27.921  51.189  1.00  0.00    -0.329 N 
ATOM     36  C   UNL     1      55.458  25.833  49.888  1.00  0.00     0.035 C 
ATOM     37  C   UNL     1      54.686  28.404  50.504  1.00  0.00     0.120 C 
ATOM     38  C   UNL     1      53.948  25.983  50.147  1.00  0.00     0.004 C 
ATOM     39  C   UNL     1      53.550  27.389  50.636  1.00  0.00     0.022 C 
BRANCH  35  40
ATOM     40  C   UNL     1      56.943  28.892  51.382  1.00  0.00     0.246 CG0
ATOM     41  O   UNL     1      57.716  29.136  50.417  1.00  0.00    -0.272 OA
ATOM     42  G   UNL     1      57.222  29.562  52.719  1.00  0.00     0.000 G0
ENDBRANCH  35  40
ENDBRANCH  31  34
ENDBRANCH   2  30
ENDBRANCH   1   2
BRANCH   1  43
ATOM     43  C   UNL     1      57.494  21.324  54.194  1.00  0.00     0.003 C 
BRANCH  43  44
ATOM     44  C   UNL     1      57.389  20.294  53.064  1.00  0.00     0.001 C 
BRANCH  44  45
ATOM     45  C   UNL     1      58.135  19.004  53.426  1.00  0.00     0.008 C 
BRANCH  45  46
ATOM     46  C   UNL     1      59.435  18.851  52.624  1.00  0.00     0.075 C 
BRANCH  46  47
ATOM     47  C   UNL     1      59.194  18.273  51.252  1.00  0.00     0.132 C 
ATOM     48  O   UNL     1      59.860  18.682  50.310  1.00  0.00    -0.300 OA
BRANCH  47  49
ATOM     49  C   UNL     1      58.116  17.247  51.013  1.00  0.00     0.072 C 
ATOM     50  C   UNL     1      58.125  16.753  49.567  1.00  0.00     0.012 C 
ENDBRANCH  47  49
ENDBRANCH  46  47
ENDBRANCH  45  46
ENDBRANCH  44  45
ENDBRANCH  43  44
ENDBRANCH   1  43
TORSDOF 12
ENDMDL
