MODEL 1
REMARK VINA RESULT:    -4.127      0.000      0.000
REMARK INTER + INTRA:          -5.369
REMARK INTER:                  -5.092
REMARK INTRA:                  -0.277
REMARK UNBOUND:                -0.277
REMARK SMILES C=CC[C@H](C)C(=O)CC
REMARK SMILES IDX 4 1 5 2 6 3 7 4 8 5 9 6 3 7 2 8 1 9
REMARK H PARENT
REMARK Flexibility Score: inf
ROOT
ATOM      1  C   UNL     1       2.495  20.356  -8.754  1.00  0.00     0.057 C 
ATOM      2  C   UNL     1       3.291  19.679  -7.632  1.00  0.00     0.016 C 
ENDROOT
BRANCH   1   3
ATOM      3  C   UNL     1       2.138  21.781  -8.370  1.00  0.00     0.135 C 
ATOM      4  O   UNL     1       2.546  22.701  -9.064  1.00  0.00    -0.299 OA
BRANCH   3   5
ATOM      5  C   UNL     1       1.319  22.101  -7.145  1.00  0.00     0.072 C 
ATOM      6  C   UNL     1       0.227  23.116  -7.468  1.00  0.00     0.012 C 
ENDBRANCH   3   5
ENDBRANCH   1   3
BRANCH   1   7
ATOM      7  C   UNL     1       1.248  19.527  -9.123  1.00  0.00     0.038 C 
BRANCH   7   8
ATOM      8  C   UNL     1       1.031  18.377  -8.173  1.00  0.00    -0.034 C 
ATOM      9  C   UNL     1      -0.051  17.601  -8.273  1.00  0.00     0.004 C 
ENDBRANCH   7   8
ENDBRANCH   1   7
TORSDOF 4
ENDMDL
MODEL 2
REMARK VINA RESULT:    -4.114      2.032      3.776
REMARK INTER + INTRA:          -5.354
REMARK INTER:                  -4.918
REMARK INTRA:                  -0.436
REMARK UNBOUND:                -0.277
REMARK SMILES C=CC[C@H](C)C(=O)CC
REMARK SMILES IDX 4 1 5 2 6 3 7 4 8 5 9 6 3 7 2 8 1 9
REMARK H PARENT
REMARK Flexibility Score: inf
ROOT
ATOM      1  C   UNL     1       2.761  19.652  -9.063  1.00  0.00     0.057 C 
ATOM      2  C   UNL     1       1.326  19.116  -9.124  1.00  0.00     0.016 C 
ENDROOT
BRANCH   1   3
ATOM      3  C   UNL     1       3.586  18.852  -8.072  1.00  0.00     0.135 C 
ATOM      4  O   UNL     1       4.127  17.823  -8.446  1.00  0.00    -0.299 OA
BRANCH   3   5
ATOM      5  C   UNL     1       3.739  19.272  -6.630  1.00  0.00     0.072 C 
ATOM      6  C   UNL     1       2.690  18.599  -5.751  1.00  0.00     0.012 C 
ENDBRANCH   3   5
ENDBRANCH   1   3
BRANCH   1   7
ATOM      7  C   UNL     1       2.772  21.160  -8.742  1.00  0.00     0.038 C 
BRANCH   7   8
ATOM      8  C   UNL     1       1.393  21.684  -8.432  1.00  0.00    -0.034 C 
ATOM      9  C   UNL     1       1.123  22.249  -7.253  1.00  0.00     0.004 C 
ENDBRANCH   7   8
ENDBRANCH   1   7
TORSDOF 4
ENDMDL
MODEL 3
REMARK VINA RESULT:    -4.008      1.193      2.225
REMARK INTER + INTRA:          -5.222
REMARK INTER:                  -4.967
REMARK INTRA:                  -0.255
REMARK UNBOUND:                -0.277
REMARK SMILES C=CC[C@H](C)C(=O)CC
REMARK SMILES IDX 4 1 5 2 6 3 7 4 8 5 9 6 3 7 2 8 1 9
REMARK H PARENT
REMARK Flexibility Score: inf
ROOT
ATOM      1  C   UNL     1       1.834  20.583  -7.921  1.00  0.00     0.057 C 
ATOM      2  C   UNL     1       1.136  19.586  -8.854  1.00  0.00     0.016 C 
ENDROOT
BRANCH   1   3
ATOM      3  C   UNL     1       2.011  21.923  -8.611  1.00  0.00     0.135 C 
ATOM      4  O   UNL     1       3.096  22.199  -9.101  1.00  0.00    -0.299 OA
BRANCH   3   5
ATOM      5  C   UNL     1       0.898  22.940  -8.687  1.00  0.00     0.072 C 
ATOM      6  C   UNL     1       0.247  23.141  -7.323  1.00  0.00     0.012 C 
ENDBRANCH   3   5
ENDBRANCH   1   3
BRANCH   1   7
ATOM      7  C   UNL     1       3.173  20.014  -7.409  1.00  0.00     0.038 C 
BRANCH   7   8
ATOM      8  C   UNL     1       3.079  19.542  -5.981  1.00  0.00    -0.034 C 
ATOM      9  C   UNL     1       2.950  18.244  -5.696  1.00  0.00     0.004 C 
ENDBRANCH   7   8
ENDBRANCH   1   7
TORSDOF 4
ENDMDL
MODEL 4
REMARK VINA RESULT:    -3.954      3.983      5.894
REMARK INTER + INTRA:          -5.156
REMARK INTER:                  -4.736
REMARK INTRA:                  -0.420
REMARK UNBOUND:                -0.277
REMARK SMILES C=CC[C@H](C)C(=O)CC
REMARK SMILES IDX 4 1 5 2 6 3 7 4 8 5 9 6 3 7 2 8 1 9
REMARK H PARENT
REMARK Flexibility Score: inf
ROOT
ATOM      1  C   UNL     1       3.013  17.272  -6.118  1.00  0.00     0.057 C 
ATOM      2  C   UNL     1       1.660  16.749  -5.620  1.00  0.00     0.016 C 
ENDROOT
BRANCH   1   3
ATOM      3  C   UNL     1       4.145  16.415  -5.581  1.00  0.00     0.135 C 
ATOM      4  O   UNL     1       4.615  16.675  -4.483  1.00  0.00    -0.299 OA
BRANCH   3   5
ATOM      5  C   UNL     1       4.729  15.270  -6.370  1.00  0.00     0.072 C 
ATOM      6  C   UNL     1       4.571  15.502  -7.870  1.00  0.00     0.012 C 
ENDBRANCH   3   5
ENDBRANCH   1   3
BRANCH   1   7
ATOM      7  C   UNL     1       3.193  18.761  -5.759  1.00  0.00     0.038 C 
BRANCH   7   8
ATOM      8  C   UNL     1       3.287  19.632  -6.985  1.00  0.00    -0.034 C 
ATOM      9  C   UNL     1       3.959  19.224  -8.065  1.00  0.00     0.004 C 
ENDBRANCH   7   8
ENDBRANCH   1   7
TORSDOF 4
ENDMDL
MODEL 5
REMARK VINA RESULT:    -3.904      2.334      4.049
REMARK INTER + INTRA:          -5.094
REMARK INTER:                  -4.679
REMARK INTRA:                  -0.414
REMARK UNBOUND:                -0.277
REMARK SMILES C=CC[C@H](C)C(=O)CC
REMARK SMILES IDX 4 1 5 2 6 3 7 4 8 5 9 6 3 7 2 8 1 9
REMARK H PARENT
REMARK Flexibility Score: inf
ROOT
ATOM      1  C   UNL     1       2.697  19.498  -6.935  1.00  0.00     0.057 C 
ATOM      2  C   UNL     1       3.675  19.521  -5.755  1.00  0.00     0.016 C 
ENDROOT
BRANCH   1   3
ATOM      3  C   UNL     1       2.153  18.097  -7.150  1.00  0.00     0.135 C 
ATOM      4  O   UNL     1       2.266  17.274  -6.253  1.00  0.00    -0.299 OA
BRANCH   3   5
ATOM      5  C   UNL     1       1.501  17.678  -8.444  1.00  0.00     0.072 C 
ATOM      6  C   UNL     1      -0.019  17.775  -8.347  1.00  0.00     0.012 C 
ENDBRANCH   3   5
ENDBRANCH   1   3
BRANCH   1   7
ATOM      7  C   UNL     1       3.356  20.064  -8.209  1.00  0.00     0.038 C 
BRANCH   7   8
ATOM      8  C   UNL     1       2.617  21.262  -8.746  1.00  0.00    -0.034 C 
ATOM      9  C   UNL     1       1.561  21.762  -8.100  1.00  0.00     0.004 C 
ENDBRANCH   7   8
ENDBRANCH   1   7
TORSDOF 4
ENDMDL
MODEL 6
REMARK VINA RESULT:    -3.889      1.551      2.807
REMARK INTER + INTRA:          -5.076
REMARK INTER:                  -4.609
REMARK INTRA:                  -0.467
REMARK UNBOUND:                -0.277
REMARK SMILES C=CC[C@H](C)C(=O)CC
REMARK SMILES IDX 4 1 5 2 6 3 7 4 8 5 9 6 3 7 2 8 1 9
REMARK H PARENT
REMARK Flexibility Score: inf
ROOT
ATOM      1  C   UNL     1       1.596  20.305  -7.759  1.00  0.00     0.057 C 
ATOM      2  C   UNL     1       1.382  21.823  -7.726  1.00  0.00     0.016 C 
ENDROOT
BRANCH   1   3
ATOM      3  C   UNL     1       3.031  19.962  -7.404  1.00  0.00     0.135 C 
ATOM      4  O   UNL     1       3.899  20.092  -8.255  1.00  0.00    -0.299 OA
BRANCH   3   5
ATOM      5  C   UNL     1       3.419  19.439  -6.043  1.00  0.00     0.072 C 
ATOM      6  C   UNL     1       2.599  18.206  -5.677  1.00  0.00     0.012 C 
ENDBRANCH   3   5
ENDBRANCH   1   3
BRANCH   1   7
ATOM      7  C   UNL     1       1.182  19.720  -9.125  1.00  0.00     0.038 C 
BRANCH   7   8
ATOM      8  C   UNL     1       0.902  18.242  -9.046  1.00  0.00    -0.034 C 
ATOM      9  C   UNL     1      -0.086  17.771  -8.281  1.00  0.00     0.004 C 
ENDBRANCH   7   8
ENDBRANCH   1   7
TORSDOF 4
ENDMDL
MODEL 7
REMARK VINA RESULT:    -3.830      2.241      4.120
REMARK INTER + INTRA:          -5.003
REMARK INTER:                  -4.685
REMARK INTRA:                  -0.319
REMARK UNBOUND:                -0.277
REMARK SMILES C=CC[C@H](C)C(=O)CC
REMARK SMILES IDX 4 1 5 2 6 3 7 4 8 5 9 6 3 7 2 8 1 9
REMARK H PARENT
REMARK Flexibility Score: inf
ROOT
ATOM      1  C   UNL     1       3.073  19.215  -7.943  1.00  0.00     0.057 C 
ATOM      2  C   UNL     1       1.924  18.415  -8.566  1.00  0.00     0.016 C 
ENDROOT
BRANCH   1   3
ATOM      3  C   UNL     1       3.105  19.018  -6.438  1.00  0.00     0.135 C 
ATOM      4  O   UNL     1       3.531  19.919  -5.732  1.00  0.00    -0.299 OA
BRANCH   3   5
ATOM      5  C   UNL     1       2.654  17.733  -5.787  1.00  0.00     0.072 C 
ATOM      6  C   UNL     1       3.850  16.865  -5.406  1.00  0.00     0.012 C 
ENDBRANCH   3   5
ENDBRANCH   1   3
BRANCH   1   7
ATOM      7  C   UNL     1       2.980  20.705  -8.329  1.00  0.00     0.038 C 
BRANCH   7   8
ATOM      8  C   UNL     1       1.553  21.187  -8.389  1.00  0.00    -0.034 C 
ATOM      9  C   UNL     1       1.079  22.039  -7.477  1.00  0.00     0.004 C 
ENDBRANCH   7   8
ENDBRANCH   1   7
TORSDOF 4
ENDMDL
MODEL 8
REMARK VINA RESULT:    -3.700      5.260      6.278
REMARK INTER + INTRA:          -4.842
REMARK INTER:                  -4.663
REMARK INTRA:                  -0.179
REMARK UNBOUND:                -0.277
REMARK SMILES C=CC[C@H](C)C(=O)CC
REMARK SMILES IDX 4 1 5 2 6 3 7 4 8 5 9 6 3 7 2 8 1 9
REMARK H PARENT
REMARK Flexibility Score: inf
ROOT
ATOM      1  C   UNL     1       3.682  15.354  -6.213  1.00  0.00     0.057 C 
ATOM      2  C   UNL     1       2.761  15.613  -7.411  1.00  0.00     0.016 C 
ENDROOT
BRANCH   1   3
ATOM      3  C   UNL     1       3.873  16.622  -5.402  1.00  0.00     0.135 C 
ATOM      4  O   UNL     1       4.685  16.625  -4.489  1.00  0.00    -0.299 OA
BRANCH   3   5
ATOM      5  C   UNL     1       3.075  17.874  -5.670  1.00  0.00     0.072 C 
ATOM      6  C   UNL     1       3.974  19.107  -5.668  1.00  0.00     0.012 C 
ENDBRANCH   3   5
ENDBRANCH   1   3
BRANCH   1   7
ATOM      7  C   UNL     1       5.026  14.752  -6.672  1.00  0.00     0.038 C 
BRANCH   7   8
ATOM      8  C   UNL     1       4.962  13.251  -6.798  1.00  0.00    -0.034 C 
ATOM      9  C   UNL     1       5.879  12.582  -7.501  1.00  0.00     0.004 C 
ENDBRANCH   7   8
ENDBRANCH   1   7
TORSDOF 4
ENDMDL
MODEL 9
REMARK VINA RESULT:    -3.691      2.497      4.491
REMARK INTER + INTRA:          -4.831
REMARK INTER:                  -4.546
REMARK INTRA:                  -0.286
REMARK UNBOUND:                -0.277
REMARK SMILES C=CC[C@H](C)C(=O)CC
REMARK SMILES IDX 4 1 5 2 6 3 7 4 8 5 9 6 3 7 2 8 1 9
REMARK H PARENT
REMARK Flexibility Score: inf
ROOT
ATOM      1  C   UNL     1       2.631  19.566  -7.285  1.00  0.00     0.057 C 
ATOM      2  C   UNL     1       3.351  19.624  -5.933  1.00  0.00     0.016 C 
ENDROOT
BRANCH   1   3
ATOM      3  C   UNL     1       2.440  18.127  -7.726  1.00  0.00     0.135 C 
ATOM      4  O   UNL     1       1.356  17.592  -7.550  1.00  0.00    -0.299 OA
BRANCH   3   5
ATOM      5  C   UNL     1       3.554  17.324  -8.352  1.00  0.00     0.072 C 
ATOM      6  C   UNL     1       4.032  16.225  -7.408  1.00  0.00     0.012 C 
ENDBRANCH   3   5
ENDBRANCH   1   3
BRANCH   1   7
ATOM      7  C   UNL     1       3.379  20.402  -8.344  1.00  0.00     0.038 C 
BRANCH   7   8
ATOM      8  C   UNL     1       2.527  21.520  -8.889  1.00  0.00    -0.034 C 
ATOM      9  C   UNL     1       1.543  22.050  -8.159  1.00  0.00     0.004 C 
ENDBRANCH   7   8
ENDBRANCH   1   7
TORSDOF 4
ENDMDL
