MODEL 1
REMARK VINA RESULT:    -3.634      0.000      0.000
REMARK INTER + INTRA:          -4.631
REMARK INTER:                  -5.121
REMARK INTRA:                   0.490
REMARK UNBOUND:                 0.490
REMARK SMILES CC1=CCC(=C(C)C)C(=O)CC(C)=CCC1
REMARK SMILES IDX 12 1 14 2 13 3 15 4 16 5 2 6 1 7 3 8 11 10 9 11 10 12 5 13
REMARK SMILES IDX 6 14 7 15 8 16 4 17
REMARK H PARENT
REMARK Flexibility Score: 60.00
ROOT
ATOM      1  C   UNL     1      22.849  49.611  -1.481  1.00  0.00    -0.070 C 
ATOM      2  C   UNL     1      22.511  48.774  -0.471  1.00  0.00    -0.027 C 
ATOM      3  C   UNL     1      21.934  49.681  -2.677  1.00  0.00     0.039 C 
ENDROOT
BRANCH   2   4
ATOM      4  C   UNL     1      23.249  48.611   0.836  1.00  0.00     0.032 C 
BRANCH   4   5
ATOM      5  C   UNL     1      22.372  48.912   2.063  1.00  0.00     0.034 C 
BRANCH   5   6
ATOM      6  C   UNL     1      21.786  50.311   2.034  1.00  0.00    -0.077 C 
ATOM      7  C   UNL     1      20.291  50.463   2.146  1.00  0.00     0.039 C 
ATOM      8  C   UNL     1      22.526  51.435   1.892  1.00  0.00    -0.023 CG0
ATOM      9  G   UNL     1      24.024  51.493   1.707  1.00  0.00     0.000 G0
ENDBRANCH   5   6
ENDBRANCH   4   5
ENDBRANCH   2   4
BRANCH   1  10
ATOM     10  C   UNL     1      24.082  50.495  -1.468  1.00  0.00     0.111 C 
BRANCH  10  11
ATOM     11  C   UNL     1      23.808  51.856  -0.877  1.00  0.00     0.163 C 
ATOM     12  O   UNL     1      23.000  52.613  -1.478  1.00  0.00    -0.294 OA
BRANCH  11  13
ATOM     13  C   UNL     1      24.395  52.297   0.425  1.00  0.00    -0.002 C 
ATOM     14  C   UNL     1      25.334  53.287   0.460  1.00  0.00    -0.069 C 
ATOM     15  C   UNL     1      25.769  54.004  -0.800  1.00  0.00     0.039 C 
ATOM     16  C   UNL     1      26.019  53.677   1.751  1.00  0.00     0.039 C 
BRANCH  13  17
ATOM     17  C   UNL     1      24.033  51.517   1.683  1.00  0.00     0.066 CG0
ATOM     18  G   UNL     1      22.537  51.430   1.877  1.00  0.00     0.000 G0
ENDBRANCH  13  17
ENDBRANCH  11  13
ENDBRANCH  10  11
ENDBRANCH   1  10
TORSDOF 0
ENDMDL
MODEL 2
REMARK VINA RESULT:    -3.559      2.036      4.944
REMARK INTER + INTRA:          -4.525
REMARK INTER:                  -4.954
REMARK INTRA:                   0.429
REMARK UNBOUND:                 0.490
REMARK SMILES CC1=CCC(=C(C)C)C(=O)CC(C)=CCC1
REMARK SMILES IDX 12 1 14 2 13 3 15 4 16 5 2 6 1 7 3 8 11 10 9 11 10 12 5 13
REMARK SMILES IDX 6 14 7 15 8 16 4 17
REMARK H PARENT
REMARK Flexibility Score: 60.00
ROOT
ATOM      1  C   UNL     1      24.390  52.271   0.625  1.00  0.00    -0.070 C 
ATOM      2  C   UNL     1      24.426  52.259  -0.729  1.00  0.00    -0.027 C 
ATOM      3  C   UNL     1      25.527  52.938   1.356  1.00  0.00     0.039 C 
ENDROOT
BRANCH   2   4
ATOM      4  C   UNL     1      23.359  51.709  -1.645  1.00  0.00     0.032 C 
BRANCH   4   5
ATOM      5  C   UNL     1      23.639  50.265  -2.094  1.00  0.00     0.034 C 
BRANCH   5   6
ATOM      6  C   UNL     1      22.374  49.436  -2.220  1.00  0.00    -0.077 C 
ATOM      7  C   UNL     1      21.499  49.645  -3.430  1.00  0.00     0.039 C 
ATOM      8  C   UNL     1      21.970  48.532  -1.298  1.00  0.00    -0.023 CG0
ATOM      9  G   UNL     1      22.671  48.221   0.003  1.00  0.00     0.000 G0
ENDBRANCH   5   6
ENDBRANCH   4   5
ENDBRANCH   2   4
BRANCH   1  10
ATOM     10  C   UNL     1      23.263  51.670   1.444  1.00  0.00     0.111 C 
BRANCH  10  11
ATOM     11  C   UNL     1      23.387  50.172   1.580  1.00  0.00     0.163 C 
ATOM     12  O   UNL     1      24.396  49.711   2.177  1.00  0.00    -0.294 OA
BRANCH  11  13
ATOM     13  C   UNL     1      22.325  49.234   1.106  1.00  0.00    -0.002 C 
ATOM     14  C   UNL     1      21.111  49.192   1.728  1.00  0.00    -0.069 C 
ATOM     15  C   UNL     1      20.781  50.125   2.874  1.00  0.00     0.039 C 
ATOM     16  C   UNL     1      20.059  48.179   1.336  1.00  0.00     0.039 C 
BRANCH  13  17
ATOM     17  C   UNL     1      22.681  48.228   0.018  1.00  0.00     0.066 CG0
ATOM     18  G   UNL     1      21.968  48.530  -1.279  1.00  0.00     0.000 G0
ENDBRANCH  13  17
ENDBRANCH  11  13
ENDBRANCH  10  11
ENDBRANCH   1  10
TORSDOF 0
ENDMDL
MODEL 3
REMARK VINA RESULT:    -3.540      1.524      4.032
REMARK INTER + INTRA:          -4.498
REMARK INTER:                  -4.696
REMARK INTRA:                   0.197
REMARK UNBOUND:                 0.490
REMARK SMILES CC1=CCC(=C(C)C)C(=O)CC(C)=CCC1
REMARK SMILES IDX 12 1 14 2 13 3 15 4 16 5 2 6 1 7 3 8 11 10 9 11 10 12 5 13
REMARK SMILES IDX 6 14 7 15 8 16 4 17
REMARK H PARENT
REMARK Flexibility Score: 60.00
ROOT
ATOM      1  C   UNL     1      25.311  52.593   0.411  1.00  0.00    -0.070 C 
ATOM      2  C   UNL     1      25.434  52.282   1.724  1.00  0.00    -0.027 C 
ATOM      3  C   UNL     1      25.621  54.006  -0.012  1.00  0.00     0.039 C 
ENDROOT
BRANCH   2   4
ATOM      4  C   UNL     1      25.240  50.917   2.339  1.00  0.00     0.032 C 
BRANCH   4   5
ATOM      5  C   UNL     1      23.760  50.508   2.440  1.00  0.00     0.034 C 
BRANCH   5   6
ATOM      6  C   UNL     1      23.488  49.142   1.839  1.00  0.00    -0.077 C 
ATOM      7  C   UNL     1      24.240  47.956   2.387  1.00  0.00     0.039 C 
ATOM      8  C   UNL     1      22.624  48.925   0.821  1.00  0.00    -0.023 CG0
ATOM      9  G   UNL     1      21.823  49.983   0.098  1.00  0.00     0.000 G0
ENDBRANCH   5   6
ENDBRANCH   4   5
ENDBRANCH   2   4
BRANCH   1  10
ATOM     10  C   UNL     1      24.898  51.597  -0.657  1.00  0.00     0.111 C 
BRANCH  10  11
ATOM     11  C   UNL     1      23.434  51.703  -1.006  1.00  0.00     0.163 C 
ATOM     12  O   UNL     1      22.963  52.846  -1.250  1.00  0.00    -0.294 OA
BRANCH  11  13
ATOM     13  C   UNL     1      22.555  50.503  -1.149  1.00  0.00    -0.002 C 
ATOM     14  C   UNL     1      22.305  49.972  -2.381  1.00  0.00    -0.069 C 
ATOM     15  C   UNL     1      22.946  50.541  -3.629  1.00  0.00     0.039 C 
ATOM     16  C   UNL     1      21.335  48.825  -2.563  1.00  0.00     0.039 C 
BRANCH  13  17
ATOM     17  C   UNL     1      21.832  49.984   0.088  1.00  0.00     0.066 CG0
ATOM     18  G   UNL     1      22.631  48.917   0.798  1.00  0.00     0.000 G0
ENDBRANCH  13  17
ENDBRANCH  11  13
ENDBRANCH  10  11
ENDBRANCH   1  10
TORSDOF 0
ENDMDL
MODEL 4
REMARK VINA RESULT:    -3.430      1.993      4.372
REMARK INTER + INTRA:          -4.344
REMARK INTER:                  -4.944
REMARK INTRA:                   0.600
REMARK UNBOUND:                 0.490
REMARK SMILES CC1=CCC(=C(C)C)C(=O)CC(C)=CCC1
REMARK SMILES IDX 12 1 14 2 13 3 15 4 16 5 2 6 1 7 3 8 11 10 9 11 10 12 5 13
REMARK SMILES IDX 6 14 7 15 8 16 4 17
REMARK H PARENT
REMARK Flexibility Score: 60.00
ROOT
ATOM      1  C   UNL     1      23.832  51.991   0.023  1.00  0.00    -0.070 C 
ATOM      2  C   UNL     1      23.231  51.872   1.230  1.00  0.00    -0.027 C 
ATOM      3  C   UNL     1      25.221  52.575  -0.020  1.00  0.00     0.039 C 
ENDROOT
BRANCH   2   4
ATOM      4  C   UNL     1      21.879  51.253   1.496  1.00  0.00     0.032 C 
BRANCH   4   5
ATOM      5  C   UNL     1      21.945  49.728   1.689  1.00  0.00     0.034 C 
BRANCH   5   6
ATOM      6  C   UNL     1      20.791  49.004   1.021  1.00  0.00    -0.077 C 
ATOM      7  C   UNL     1      19.431  49.074   1.668  1.00  0.00     0.039 C 
ATOM      8  C   UNL     1      20.912  48.279  -0.115  1.00  0.00    -0.023 CG0
ATOM      9  G   UNL     1      22.192  48.039  -0.881  1.00  0.00     0.000 G0
ENDBRANCH   5   6
ENDBRANCH   4   5
ENDBRANCH   2   4
BRANCH   1  10
ATOM     10  C   UNL     1      23.196  51.554  -1.284  1.00  0.00     0.111 C 
BRANCH  10  11
ATOM     11  C   UNL     1      23.522  50.122  -1.631  1.00  0.00     0.163 C 
ATOM     12  O   UNL     1      24.731  49.765  -1.604  1.00  0.00    -0.294 OA
BRANCH  11  13
ATOM     13  C   UNL     1      22.465  49.107  -1.923  1.00  0.00    -0.002 C 
ATOM     14  C   UNL     1      21.680  49.227  -3.033  1.00  0.00    -0.069 C 
ATOM     15  C   UNL     1      21.887  50.349  -4.027  1.00  0.00     0.039 C 
ATOM     16  C   UNL     1      20.535  48.273  -3.294  1.00  0.00     0.039 C 
BRANCH  13  17
ATOM     17  C   UNL     1      22.188  48.031  -0.880  1.00  0.00     0.066 CG0
ATOM     18  G   UNL     1      20.901  48.293  -0.133  1.00  0.00     0.000 G0
ENDBRANCH  13  17
ENDBRANCH  11  13
ENDBRANCH  10  11
ENDBRANCH   1  10
TORSDOF 0
ENDMDL
MODEL 5
REMARK VINA RESULT:    -3.386      1.950      4.227
REMARK INTER + INTRA:          -4.282
REMARK INTER:                  -4.953
REMARK INTRA:                   0.671
REMARK UNBOUND:                 0.490
REMARK SMILES CC1=CCC(=C(C)C)C(=O)CC(C)=CCC1
REMARK SMILES IDX 12 1 14 2 13 3 15 4 16 5 2 6 1 7 3 8 11 10 9 11 10 12 5 13
REMARK SMILES IDX 6 14 7 15 8 16 4 17
REMARK H PARENT
REMARK Flexibility Score: 60.00
ROOT
ATOM      1  C   UNL     1      22.563  51.001  -0.719  1.00  0.00    -0.070 C 
ATOM      2  C   UNL     1      23.503  51.706  -1.393  1.00  0.00    -0.027 C 
ATOM      3  C   UNL     1      21.929  49.825  -1.416  1.00  0.00     0.039 C 
ENDROOT
BRANCH   2   4
ATOM      4  C   UNL     1      24.304  52.867  -0.853  1.00  0.00     0.032 C 
BRANCH   4   5
ATOM      5  C   UNL     1      25.597  52.428  -0.146  1.00  0.00     0.034 C 
BRANCH   5   6
ATOM      6  C   UNL     1      25.603  52.777   1.331  1.00  0.00    -0.077 C 
ATOM      7  C   UNL     1      26.026  54.165   1.737  1.00  0.00     0.039 C 
ATOM      8  C   UNL     1      25.271  51.906   2.313  1.00  0.00    -0.023 CG0
ATOM      9  G   UNL     1      24.879  50.460   2.119  1.00  0.00     0.000 G0
ENDBRANCH   5   6
ENDBRANCH   4   5
ENDBRANCH   2   4
BRANCH   1  10
ATOM     10  C   UNL     1      22.128  51.316   0.700  1.00  0.00     0.111 C 
BRANCH  10  11
ATOM     11  C   UNL     1      22.353  50.157   1.640  1.00  0.00     0.163 C 
ATOM     12  O   UNL     1      21.599  49.153   1.537  1.00  0.00    -0.294 OA
BRANCH  11  13
ATOM     13  C   UNL     1      23.479  50.129   2.623  1.00  0.00    -0.002 C 
ATOM     14  C   UNL     1      23.230  49.960   3.954  1.00  0.00    -0.069 C 
ATOM     15  C   UNL     1      21.825  49.742   4.471  1.00  0.00     0.039 C 
ATOM     16  C   UNL     1      24.341  50.035   4.979  1.00  0.00     0.039 C 
BRANCH  13  17
ATOM     17  C   UNL     1      24.883  50.443   2.123  1.00  0.00     0.066 CG0
ATOM     18  G   UNL     1      25.233  51.900   2.314  1.00  0.00     0.000 G0
ENDBRANCH  13  17
ENDBRANCH  11  13
ENDBRANCH  10  11
ENDBRANCH   1  10
TORSDOF 0
ENDMDL
MODEL 6
REMARK VINA RESULT:    -3.147      1.866      3.649
REMARK INTER + INTRA:          -3.944
REMARK INTER:                  -4.572
REMARK INTRA:                   0.627
REMARK UNBOUND:                 0.490
REMARK SMILES CC1=CCC(=C(C)C)C(=O)CC(C)=CCC1
REMARK SMILES IDX 12 1 14 2 13 3 15 4 16 5 2 6 1 7 3 8 11 10 9 11 10 12 5 13
REMARK SMILES IDX 6 14 7 15 8 16 4 17
REMARK H PARENT
REMARK Flexibility Score: 60.00
ROOT
ATOM      1  C   UNL     1      21.718  49.199   0.814  1.00  0.00    -0.070 C 
ATOM      2  C   UNL     1      21.066  48.717  -0.271  1.00  0.00    -0.027 C 
ATOM      3  C   UNL     1      20.938  49.356   2.095  1.00  0.00     0.039 C 
ENDROOT
BRANCH   2   4
ATOM      4  C   UNL     1      21.677  48.420  -1.619  1.00  0.00     0.032 C 
BRANCH   4   5
ATOM      5  C   UNL     1      21.726  49.651  -2.540  1.00  0.00     0.034 C 
BRANCH   5   6
ATOM      6  C   UNL     1      23.144  50.082  -2.865  1.00  0.00    -0.077 C 
ATOM      7  C   UNL     1      23.938  49.254  -3.843  1.00  0.00     0.039 C 
ATOM      8  C   UNL     1      23.750  51.159  -2.313  1.00  0.00    -0.023 CG0
ATOM      9  G   UNL     1      23.149  52.077  -1.275  1.00  0.00     0.000 G0
ENDBRANCH   5   6
ENDBRANCH   4   5
ENDBRANCH   2   4
BRANCH   1  10
ATOM     10  C   UNL     1      23.189  49.570   0.819  1.00  0.00     0.111 C 
BRANCH  10  11
ATOM     11  C   UNL     1      23.411  51.035   1.104  1.00  0.00     0.163 C 
ATOM     12  O   UNL     1      23.221  51.446   2.280  1.00  0.00    -0.294 OA
BRANCH  11  13
ATOM     13  C   UNL     1      23.921  51.984   0.069  1.00  0.00    -0.002 C 
ATOM     14  C   UNL     1      24.955  52.829   0.355  1.00  0.00    -0.069 C 
ATOM     15  C   UNL     1      25.650  52.795   1.698  1.00  0.00     0.039 C 
ATOM     16  C   UNL     1      25.418  53.871  -0.639  1.00  0.00     0.039 C 
BRANCH  13  17
ATOM     17  C   UNL     1      23.166  52.090  -1.250  1.00  0.00     0.066 CG0
ATOM     18  G   UNL     1      23.739  51.167  -2.299  1.00  0.00     0.000 G0
ENDBRANCH  13  17
ENDBRANCH  11  13
ENDBRANCH  10  11
ENDBRANCH   1  10
TORSDOF 0
ENDMDL
MODEL 7
REMARK VINA RESULT:    -3.054      6.908      9.374
REMARK INTER + INTRA:          -3.814
REMARK INTER:                  -4.044
REMARK INTRA:                   0.230
REMARK UNBOUND:                 0.490
REMARK SMILES CC1=CCC(=C(C)C)C(=O)CC(C)=CCC1
REMARK SMILES IDX 12 1 14 2 13 3 15 4 16 5 2 6 1 7 3 8 11 10 9 11 10 12 5 13
REMARK SMILES IDX 6 14 7 15 8 16 4 17
REMARK H PARENT
REMARK Flexibility Score: 60.00
ROOT
ATOM      1  C   UNL     1      21.224  55.441  -7.132  1.00  0.00    -0.070 C 
ATOM      2  C   UNL     1      20.181  55.948  -7.830  1.00  0.00    -0.027 C 
ATOM      3  C   UNL     1      22.552  56.148  -7.233  1.00  0.00     0.039 C 
ENDROOT
BRANCH   2   4
ATOM      4  C   UNL     1      18.760  55.435  -7.810  1.00  0.00     0.032 C 
BRANCH   4   5
ATOM      5  C   UNL     1      18.597  54.091  -8.540  1.00  0.00     0.034 C 
BRANCH   5   6
ATOM      6  C   UNL     1      17.911  53.041  -7.685  1.00  0.00    -0.077 C 
ATOM      7  C   UNL     1      16.566  53.369  -7.091  1.00  0.00     0.039 C 
ATOM      8  C   UNL     1      18.446  51.830  -7.405  1.00  0.00    -0.023 CG0
ATOM      9  G   UNL     1      19.801  51.335  -7.854  1.00  0.00     0.000 G0
ENDBRANCH   5   6
ENDBRANCH   4   5
ENDBRANCH   2   4
BRANCH   1  10
ATOM     10  C   UNL     1      21.128  54.217  -6.241  1.00  0.00     0.111 C 
BRANCH  10  11
ATOM     11  C   UNL     1      21.602  52.963  -6.934  1.00  0.00     0.163 C 
ATOM     12  O   UNL     1      22.681  53.015  -7.583  1.00  0.00    -0.294 OA
BRANCH  11  13
ATOM     13  C   UNL     1      20.885  51.658  -6.809  1.00  0.00    -0.002 C 
ATOM     14  C   UNL     1      21.281  50.737  -5.882  1.00  0.00    -0.069 C 
ATOM     15  C   UNL     1      22.413  51.025  -4.920  1.00  0.00     0.039 C 
ATOM     16  C   UNL     1      20.640  49.369  -5.808  1.00  0.00     0.039 C 
BRANCH  13  17
ATOM     17  C   UNL     1      19.809  51.323  -7.834  1.00  0.00     0.066 CG0
ATOM     18  G   UNL     1      18.452  51.836  -7.410  1.00  0.00     0.000 G0
ENDBRANCH  13  17
ENDBRANCH  11  13
ENDBRANCH  10  11
ENDBRANCH   1  10
TORSDOF 0
ENDMDL
MODEL 8
REMARK VINA RESULT:    -2.853      2.443      4.756
REMARK INTER + INTRA:          -3.530
REMARK INTER:                  -3.917
REMARK INTRA:                   0.387
REMARK UNBOUND:                 0.490
REMARK SMILES CC1=CCC(=C(C)C)C(=O)CC(C)=CCC1
REMARK SMILES IDX 12 1 14 2 13 3 15 4 16 5 2 6 1 7 3 8 11 10 9 11 10 12 5 13
REMARK SMILES IDX 6 14 7 15 8 16 4 17
REMARK H PARENT
REMARK Flexibility Score: 60.00
ROOT
ATOM      1  C   UNL     1      20.636  48.752   4.233  1.00  0.00    -0.070 C 
ATOM      2  C   UNL     1      21.476  48.888   5.286  1.00  0.00    -0.027 C 
ATOM      3  C   UNL     1      19.156  48.879   4.488  1.00  0.00     0.039 C 
ENDROOT
BRANCH   2   4
ATOM      4  C   UNL     1      22.985  48.866   5.231  1.00  0.00     0.032 C 
BRANCH   4   5
ATOM      5  C   UNL     1      23.582  50.130   4.589  1.00  0.00     0.034 C 
BRANCH   5   6
ATOM      6  C   UNL     1      24.563  49.812   3.475  1.00  0.00    -0.077 C 
ATOM      7  C   UNL     1      25.815  49.047   3.821  1.00  0.00     0.039 C 
ATOM      8  C   UNL     1      24.392  50.193   2.188  1.00  0.00    -0.023 CG0
ATOM      9  G   UNL     1      23.240  51.012   1.652  1.00  0.00     0.000 G0
ENDBRANCH   5   6
ENDBRANCH   4   5
ENDBRANCH   2   4
BRANCH   1  10
ATOM     10  C   UNL     1      21.100  48.498   2.810  1.00  0.00     0.111 C 
BRANCH  10  11
ATOM     11  C   UNL     1      21.022  49.736   1.951  1.00  0.00     0.163 C 
ATOM     12  O   UNL     1      20.006  50.474   2.062  1.00  0.00    -0.294 OA
BRANCH  11  13
ATOM     13  C   UNL     1      22.134  50.153   1.044  1.00  0.00    -0.002 C 
ATOM     14  C   UNL     1      22.215  49.657  -0.225  1.00  0.00    -0.069 C 
ATOM     15  C   UNL     1      21.160  48.719  -0.772  1.00  0.00     0.039 C 
ATOM     16  C   UNL     1      23.387  49.980  -1.125  1.00  0.00     0.039 C 
BRANCH  13  17
ATOM     17  C   UNL     1      23.249  51.020   1.617  1.00  0.00     0.066 CG0
ATOM     18  G   UNL     1      24.374  50.184   2.180  1.00  0.00     0.000 G0
ENDBRANCH  13  17
ENDBRANCH  11  13
ENDBRANCH  10  11
ENDBRANCH   1  10
TORSDOF 0
ENDMDL
MODEL 9
REMARK VINA RESULT:    -2.833      1.351      1.977
REMARK INTER + INTRA:          -3.503
REMARK INTER:                  -4.822
REMARK INTRA:                   1.320
REMARK UNBOUND:                 0.490
REMARK SMILES CC1=CCC(=C(C)C)C(=O)CC(C)=CCC1
REMARK SMILES IDX 12 1 14 2 13 3 15 4 16 5 2 6 1 7 3 8 11 10 9 11 10 12 5 13
REMARK SMILES IDX 6 14 7 15 8 16 4 17
REMARK H PARENT
REMARK Flexibility Score: 60.00
ROOT
ATOM      1  C   UNL     1      22.514  49.757  -2.528  1.00  0.00    -0.070 C 
ATOM      2  C   UNL     1      21.695  48.800  -2.032  1.00  0.00    -0.027 C 
ATOM      3  C   UNL     1      22.119  50.425  -3.821  1.00  0.00     0.039 C 
ENDROOT
BRANCH   2   4
ATOM      4  C   UNL     1      21.872  48.066  -0.724  1.00  0.00     0.032 C 
BRANCH   4   5
ATOM      5  C   UNL     1      20.589  48.029   0.123  1.00  0.00     0.034 C 
BRANCH   5   6
ATOM      6  C   UNL     1      20.637  48.989   1.298  1.00  0.00    -0.077 C 
ATOM      7  C   UNL     1      19.338  49.378   1.957  1.00  0.00     0.039 C 
ATOM      8  C   UNL     1      21.777  49.536   1.778  1.00  0.00    -0.023 CG0
ATOM      9  G   UNL     1      23.165  49.322   1.223  1.00  0.00     0.000 G0
ENDBRANCH   5   6
ENDBRANCH   4   5
ENDBRANCH   2   4
BRANCH   1  10
ATOM     10  C   UNL     1      23.794  50.209  -1.849  1.00  0.00     0.111 C 
BRANCH  10  11
ATOM     11  C   UNL     1      23.530  51.081  -0.647  1.00  0.00     0.163 C 
ATOM     12  O   UNL     1      22.986  52.202  -0.834  1.00  0.00    -0.294 OA
BRANCH  11  13
ATOM     13  C   UNL     1      23.814  50.629   0.749  1.00  0.00    -0.002 C 
ATOM     14  C   UNL     1      24.725  51.293   1.519  1.00  0.00    -0.069 C 
ATOM     15  C   UNL     1      25.430  52.532   1.012  1.00  0.00     0.039 C 
ATOM     16  C   UNL     1      25.107  50.793   2.894  1.00  0.00     0.039 C 
BRANCH  13  17
ATOM     17  C   UNL     1      23.181  49.330   1.232  1.00  0.00     0.066 CG0
ATOM     18  G   UNL     1      21.790  49.553   1.776  1.00  0.00     0.000 G0
ENDBRANCH  13  17
ENDBRANCH  11  13
ENDBRANCH  10  11
ENDBRANCH   1  10
TORSDOF 0
ENDMDL
