MODEL 1
REMARK VINA RESULT:    -3.355      0.000      0.000
REMARK INTER + INTRA:          -4.471
REMARK INTER:                  -4.041
REMARK INTRA:                  -0.430
REMARK UNBOUND:                -0.430
REMARK SMILES NC(=O)C[C@@H]([NH3+])C(=O)[O-]
REMARK SMILES IDX 4 1 5 2 6 3 7 7 8 8 9 9 2 10 3 11 1 12
REMARK H PARENT 6 4 6 5 6 6 1 13 1 14
REMARK Flexibility Score: inf
ROOT
ATOM      1  C   UNL     1      45.534  18.924  77.530  1.00  0.00     0.171 C 
ENDROOT
BRANCH   1   2
ATOM      2  C   UNL     1      46.730  19.437  78.358  1.00  0.00     0.237 C 
BRANCH   2   3
ATOM      3  N   UNL     1      47.476  18.312  78.935  1.00  0.00    -0.350 N 
ATOM      4  H   UNL     1      47.307  17.449  78.370  1.00  0.00     0.345 HD
ATOM      5  H   UNL     1      47.148  18.132  79.911  1.00  0.00     0.345 HD
ATOM      6  H   UNL     1      48.502  18.516  78.949  1.00  0.00     0.345 HD
ENDBRANCH   2   3
BRANCH   2   7
ATOM      7  C   UNL     1      47.644  20.293  77.520  1.00  0.00     0.100 C 
ATOM      8  O   UNL     1      47.212  20.868  76.486  1.00  0.00    -0.544 OA
ATOM      9  O   UNL     1      48.970  20.467  77.896  1.00  0.00    -0.544 OA
ENDBRANCH   2   7
ENDBRANCH   1   2
BRANCH   1  10
ATOM     10  C   UNL     1      45.927  17.781  76.640  1.00  0.00     0.223 C 
ATOM     11  O   UNL     1      45.916  16.604  77.091  1.00  0.00    -0.275 OA
ATOM     12  N   UNL     1      46.274  18.011  75.274  1.00  0.00    -0.369 N 
ATOM     13  H   UNL     1      46.270  18.976  74.878  1.00  0.00     0.159 HD
ATOM     14  H   UNL     1      46.531  17.210  74.654  1.00  0.00     0.159 HD
ENDBRANCH   1  10
TORSDOF 4
ENDMDL
MODEL 2
REMARK VINA RESULT:    -3.262      1.196      3.645
REMARK INTER + INTRA:          -4.359
REMARK INTER:                  -3.885
REMARK INTRA:                  -0.473
REMARK UNBOUND:                -0.430
REMARK SMILES NC(=O)C[C@@H]([NH3+])C(=O)[O-]
REMARK SMILES IDX 4 1 5 2 6 3 7 7 8 8 9 9 2 10 3 11 1 12
REMARK H PARENT 6 4 6 5 6 6 1 13 1 14
REMARK Flexibility Score: inf
ROOT
ATOM      1  C   UNL     1      45.852  19.413  77.719  1.00  0.00     0.171 C 
ENDROOT
BRANCH   1   2
ATOM      2  C   UNL     1      45.957  19.042  76.225  1.00  0.00     0.237 C 
BRANCH   2   3
ATOM      3  N   UNL     1      47.178  19.609  75.640  1.00  0.00    -0.350 N 
ATOM      4  H   UNL     1      47.488  20.437  76.199  1.00  0.00     0.345 HD
ATOM      5  H   UNL     1      46.988  19.929  74.662  1.00  0.00     0.345 HD
ATOM      6  H   UNL     1      47.947  18.899  75.627  1.00  0.00     0.345 HD
ENDBRANCH   2   3
BRANCH   2   7
ATOM      7  C   UNL     1      45.933  17.548  76.034  1.00  0.00     0.100 C 
ATOM      8  O   UNL     1      46.085  17.047  74.888  1.00  0.00    -0.544 OA
ATOM      9  O   UNL     1      45.759  16.711  77.130  1.00  0.00    -0.544 OA
ENDBRANCH   2   7
ENDBRANCH   1   2
BRANCH   1  10
ATOM     10  C   UNL     1      47.203  19.484  78.368  1.00  0.00     0.223 C 
ATOM     11  O   UNL     1      47.872  20.551  78.307  1.00  0.00    -0.275 OA
ATOM     12  N   UNL     1      47.721  18.366  79.090  1.00  0.00    -0.369 N 
ATOM     13  H   UNL     1      47.173  17.481  79.168  1.00  0.00     0.159 HD
ATOM     14  H   UNL     1      48.655  18.426  79.554  1.00  0.00     0.159 HD
ENDBRANCH   1  10
TORSDOF 4
ENDMDL
MODEL 3
REMARK VINA RESULT:    -3.238      1.834      2.522
REMARK INTER + INTRA:          -4.331
REMARK INTER:                  -4.141
REMARK INTRA:                  -0.190
REMARK UNBOUND:                -0.430
REMARK SMILES NC(=O)C[C@@H]([NH3+])C(=O)[O-]
REMARK SMILES IDX 4 1 5 2 6 3 7 7 8 8 9 9 2 10 3 11 1 12
REMARK H PARENT 6 4 6 5 6 6 1 13 1 14
REMARK Flexibility Score: inf
ROOT
ATOM      1  C   UNL     1      45.584  18.013  77.014  1.00  0.00     0.171 C 
ENDROOT
BRANCH   1   2
ATOM      2  C   UNL     1      46.376  19.093  76.249  1.00  0.00     0.237 C 
BRANCH   2   3
ATOM      3  N   UNL     1      46.375  18.806  74.809  1.00  0.00    -0.350 N 
ATOM      4  H   UNL     1      47.285  18.373  74.533  1.00  0.00     0.345 HD
ATOM      5  H   UNL     1      46.262  19.696  74.270  1.00  0.00     0.345 HD
ATOM      6  H   UNL     1      45.596  18.153  74.562  1.00  0.00     0.345 HD
ENDBRANCH   2   3
BRANCH   2   7
ATOM      7  C   UNL     1      45.811  20.465  76.507  1.00  0.00     0.100 C 
ATOM      8  O   UNL     1      44.678  20.786  76.062  1.00  0.00    -0.544 OA
ATOM      9  O   UNL     1      46.537  21.383  77.258  1.00  0.00    -0.544 OA
ENDBRANCH   2   7
ENDBRANCH   1   2
BRANCH   1  10
ATOM     10  C   UNL     1      46.105  16.635  76.725  1.00  0.00     0.223 C 
ATOM     11  O   UNL     1      46.004  16.159  75.563  1.00  0.00    -0.275 OA
ATOM     12  N   UNL     1      46.752  15.875  77.746  1.00  0.00    -0.369 N 
ATOM     13  H   UNL     1      46.862  16.262  78.710  1.00  0.00     0.159 HD
ATOM     14  H   UNL     1      47.127  14.923  77.537  1.00  0.00     0.159 HD
ENDBRANCH   1  10
TORSDOF 4
ENDMDL
MODEL 4
REMARK VINA RESULT:    -3.197      1.796      2.296
REMARK INTER + INTRA:          -4.281
REMARK INTER:                  -4.024
REMARK INTRA:                  -0.257
REMARK UNBOUND:                -0.430
REMARK SMILES NC(=O)C[C@@H]([NH3+])C(=O)[O-]
REMARK SMILES IDX 4 1 5 2 6 3 7 7 8 8 9 9 2 10 3 11 1 12
REMARK H PARENT 6 4 6 5 6 6 1 13 1 14
REMARK Flexibility Score: inf
ROOT
ATOM      1  C   UNL     1      45.891  18.444  76.433  1.00  0.00     0.171 C 
ENDROOT
BRANCH   1   2
ATOM      2  C   UNL     1      45.808  18.676  77.956  1.00  0.00     0.237 C 
BRANCH   2   3
ATOM      3  N   UNL     1      47.150  18.661  78.551  1.00  0.00    -0.350 N 
ATOM      4  H   UNL     1      47.872  18.721  77.798  1.00  0.00     0.345 HD
ATOM      5  H   UNL     1      47.297  17.767  79.074  1.00  0.00     0.345 HD
ATOM      6  H   UNL     1      47.272  19.468  79.208  1.00  0.00     0.345 HD
ENDBRANCH   2   3
BRANCH   2   7
ATOM      7  C   UNL     1      45.113  19.975  78.269  1.00  0.00     0.100 C 
ATOM      8  O   UNL     1      45.749  21.062  78.253  1.00  0.00    -0.544 OA
ATOM      9  O   UNL     1      43.754  19.981  78.562  1.00  0.00    -0.544 OA
ENDBRANCH   2   7
ENDBRANCH   1   2
BRANCH   1  10
ATOM     10  C   UNL     1      46.050  16.988  76.103  1.00  0.00     0.223 C 
ATOM     11  O   UNL     1      46.139  16.142  77.033  1.00  0.00    -0.275 OA
ATOM     12  N   UNL     1      46.060  16.548  74.745  1.00  0.00    -0.369 N 
ATOM     13  H   UNL     1      45.968  17.233  73.962  1.00  0.00     0.159 HD
ATOM     14  H   UNL     1      46.155  15.532  74.521  1.00  0.00     0.159 HD
ENDBRANCH   1  10
TORSDOF 4
ENDMDL
MODEL 5
REMARK VINA RESULT:    -3.159     17.578     18.503
REMARK INTER + INTRA:          -4.235
REMARK INTER:                  -3.767
REMARK INTRA:                  -0.468
REMARK UNBOUND:                -0.430
REMARK SMILES NC(=O)C[C@@H]([NH3+])C(=O)[O-]
REMARK SMILES IDX 4 1 5 2 6 3 7 7 8 8 9 9 2 10 3 11 1 12
REMARK H PARENT 6 4 6 5 6 6 1 13 1 14
REMARK Flexibility Score: inf
ROOT
ATOM      1  C   UNL     1      49.328  34.200  86.238  1.00  0.00     0.171 C 
ENDROOT
BRANCH   1   2
ATOM      2  C   UNL     1      48.912  34.503  84.784  1.00  0.00     0.237 C 
BRANCH   2   3
ATOM      3  N   UNL     1      48.152  35.757  84.717  1.00  0.00    -0.350 N 
ATOM      4  H   UNL     1      48.790  36.544  84.459  1.00  0.00     0.345 HD
ATOM      5  H   UNL     1      47.734  35.969  85.652  1.00  0.00     0.345 HD
ATOM      6  H   UNL     1      47.388  35.689  84.005  1.00  0.00     0.345 HD
ENDBRANCH   2   3
BRANCH   2   7
ATOM      7  C   UNL     1      50.115  34.573  83.879  1.00  0.00     0.100 C 
ATOM      8  O   UNL     1      49.985  34.880  82.664  1.00  0.00    -0.544 OA
ATOM      9  O   UNL     1      51.382  34.315  84.388  1.00  0.00    -0.544 OA
ENDBRANCH   2   7
ENDBRANCH   1   2
BRANCH   1  10
ATOM     10  C   UNL     1      49.653  35.457  86.993  1.00  0.00     0.223 C 
ATOM     11  O   UNL     1      48.729  36.109  87.549  1.00  0.00    -0.275 OA
ATOM     12  N   UNL     1      51.005  35.897  87.122  1.00  0.00    -0.369 N 
ATOM     13  H   UNL     1      51.785  35.358  86.684  1.00  0.00     0.159 HD
ATOM     14  H   UNL     1      51.228  36.763  87.661  1.00  0.00     0.159 HD
ENDBRANCH   1  10
TORSDOF 4
ENDMDL
MODEL 6
REMARK VINA RESULT:    -3.103      2.247      2.479
REMARK INTER + INTRA:          -4.167
REMARK INTER:                  -3.917
REMARK INTRA:                  -0.251
REMARK UNBOUND:                -0.430
REMARK SMILES NC(=O)C[C@@H]([NH3+])C(=O)[O-]
REMARK SMILES IDX 4 1 5 2 6 3 7 7 8 8 9 9 2 10 3 11 1 12
REMARK H PARENT 6 4 6 5 6 6 1 13 1 14
REMARK Flexibility Score: inf
ROOT
ATOM      1  C   UNL     1      46.114  18.654  75.634  1.00  0.00     0.171 C 
ENDROOT
BRANCH   1   2
ATOM      2  C   UNL     1      46.753  20.035  75.887  1.00  0.00     0.237 C 
BRANCH   2   3
ATOM      3  N   UNL     1      47.634  19.986  77.060  1.00  0.00    -0.350 N 
ATOM      4  H   UNL     1      48.322  20.772  77.020  1.00  0.00     0.345 HD
ATOM      5  H   UNL     1      48.169  19.086  77.065  1.00  0.00     0.345 HD
ATOM      6  H   UNL     1      47.079  20.061  77.944  1.00  0.00     0.345 HD
ENDBRANCH   2   3
BRANCH   2   7
ATOM      7  C   UNL     1      47.517  20.510  74.680  1.00  0.00     0.100 C 
ATOM      8  O   UNL     1      47.047  20.352  73.522  1.00  0.00    -0.544 OA
ATOM      9  O   UNL     1      48.744  21.143  74.840  1.00  0.00    -0.544 OA
ENDBRANCH   2   7
ENDBRANCH   1   2
BRANCH   1  10
ATOM     10  C   UNL     1      45.641  18.020  76.910  1.00  0.00     0.223 C 
ATOM     11  O   UNL     1      45.202  18.744  77.842  1.00  0.00    -0.275 OA
ATOM     12  N   UNL     1      45.646  16.600  77.060  1.00  0.00    -0.369 N 
ATOM     13  H   UNL     1      45.988  15.983  76.290  1.00  0.00     0.159 HD
ATOM     14  H   UNL     1      45.301  16.163  77.944  1.00  0.00     0.159 HD
ENDBRANCH   1  10
TORSDOF 4
ENDMDL
MODEL 7
REMARK VINA RESULT:    -3.102      2.493      2.966
REMARK INTER + INTRA:          -4.167
REMARK INTER:                  -3.672
REMARK INTRA:                  -0.495
REMARK UNBOUND:                -0.430
REMARK SMILES NC(=O)C[C@@H]([NH3+])C(=O)[O-]
REMARK SMILES IDX 4 1 5 2 6 3 7 7 8 8 9 9 2 10 3 11 1 12
REMARK H PARENT 6 4 6 5 6 6 1 13 1 14
REMARK Flexibility Score: inf
ROOT
ATOM      1  C   UNL     1      45.700  19.956  75.038  1.00  0.00     0.171 C 
ENDROOT
BRANCH   1   2
ATOM      2  C   UNL     1      45.789  18.968  76.219  1.00  0.00     0.237 C 
BRANCH   2   3
ATOM      3  N   UNL     1      46.230  17.648  75.753  1.00  0.00    -0.350 N 
ATOM      4  H   UNL     1      47.205  17.464  76.083  1.00  0.00     0.345 HD
ATOM      5  H   UNL     1      46.231  17.623  74.707  1.00  0.00     0.345 HD
ATOM      6  H   UNL     1      45.598  16.897  76.116  1.00  0.00     0.345 HD
ENDBRANCH   2   3
BRANCH   2   7
ATOM      7  C   UNL     1      46.719  19.482  77.287  1.00  0.00     0.100 C 
ATOM      8  O   UNL     1      46.776  18.917  78.411  1.00  0.00    -0.544 OA
ATOM      9  O   UNL     1      47.534  20.577  77.029  1.00  0.00    -0.544 OA
ENDBRANCH   2   7
ENDBRANCH   1   2
BRANCH   1  10
ATOM     10  C   UNL     1      46.653  19.590  73.937  1.00  0.00     0.223 C 
ATOM     11  O   UNL     1      46.280  18.807  73.022  1.00  0.00    -0.275 OA
ATOM     12  N   UNL     1      47.964  20.152  73.895  1.00  0.00    -0.369 N 
ATOM     13  H   UNL     1      48.283  20.818  74.634  1.00  0.00     0.159 HD
ATOM     14  H   UNL     1      48.618  19.907  73.119  1.00  0.00     0.159 HD
ENDBRANCH   1  10
TORSDOF 4
ENDMDL
MODEL 8
REMARK VINA RESULT:    -2.997      9.480     10.080
REMARK INTER + INTRA:          -4.040
REMARK INTER:                  -3.802
REMARK INTRA:                  -0.238
REMARK UNBOUND:                -0.430
REMARK SMILES NC(=O)C[C@@H]([NH3+])C(=O)[O-]
REMARK SMILES IDX 4 1 5 2 6 3 7 7 8 8 9 9 2 10 3 11 1 12
REMARK H PARENT 6 4 6 5 6 6 1 13 1 14
REMARK Flexibility Score: inf
ROOT
ATOM      1  C   UNL     1      37.551  19.223  80.612  1.00  0.00     0.171 C 
ENDROOT
BRANCH   1   2
ATOM      2  C   UNL     1      37.844  20.719  80.848  1.00  0.00     0.237 C 
BRANCH   2   3
ATOM      3  N   UNL     1      37.341  21.524  79.728  1.00  0.00    -0.350 N 
ATOM      4  H   UNL     1      38.125  22.070  79.304  1.00  0.00     0.345 HD
ATOM      5  H   UNL     1      36.622  22.201  80.073  1.00  0.00     0.345 HD
ATOM      6  H   UNL     1      36.914  20.912  78.994  1.00  0.00     0.345 HD
ENDBRANCH   2   3
BRANCH   2   7
ATOM      7  C   UNL     1      37.239  21.193  82.144  1.00  0.00     0.100 C 
ATOM      8  O   UNL     1      37.002  20.378  83.075  1.00  0.00    -0.544 OA
ATOM      9  O   UNL     1      36.955  22.541  82.325  1.00  0.00    -0.544 OA
ENDBRANCH   2   7
ENDBRANCH   1   2
BRANCH   1  10
ATOM     10  C   UNL     1      38.590  18.587  79.734  1.00  0.00     0.223 C 
ATOM     11  O   UNL     1      39.620  19.239  79.412  1.00  0.00    -0.275 OA
ATOM     12  N   UNL     1      38.441  17.237  79.294  1.00  0.00    -0.369 N 
ATOM     13  H   UNL     1      37.604  16.677  79.567  1.00  0.00     0.159 HD
ATOM     14  H   UNL     1      39.174  16.794  78.696  1.00  0.00     0.159 HD
ENDBRANCH   1  10
TORSDOF 4
ENDMDL
MODEL 9
REMARK VINA RESULT:    -2.995      2.388      3.880
REMARK INTER + INTRA:          -4.038
REMARK INTER:                  -3.752
REMARK INTRA:                  -0.286
REMARK UNBOUND:                -0.430
REMARK SMILES NC(=O)C[C@@H]([NH3+])C(=O)[O-]
REMARK SMILES IDX 4 1 5 2 6 3 7 7 8 8 9 9 2 10 3 11 1 12
REMARK H PARENT 6 4 6 5 6 6 1 13 1 14
REMARK Flexibility Score: inf
ROOT
ATOM      1  C   UNL     1      46.946  20.020  75.895  1.00  0.00     0.171 C 
ENDROOT
BRANCH   1   2
ATOM      2  C   UNL     1      45.971  18.843  75.688  1.00  0.00     0.237 C 
BRANCH   2   3
ATOM      3  N   UNL     1      46.322  18.093  74.476  1.00  0.00    -0.350 N 
ATOM      4  H   UNL     1      47.217  18.459  74.079  1.00  0.00     0.345 HD
ATOM      5  H   UNL     1      45.573  18.212  73.756  1.00  0.00     0.345 HD
ATOM      6  H   UNL     1      46.434  17.074  74.691  1.00  0.00     0.345 HD
ENDBRANCH   2   3
BRANCH   2   7
ATOM      7  C   UNL     1      45.964  17.928  76.885  1.00  0.00     0.100 C 
ATOM      8  O   UNL     1      45.661  16.712  76.758  1.00  0.00    -0.544 OA
ATOM      9  O   UNL     1      46.310  18.420  78.137  1.00  0.00    -0.544 OA
ENDBRANCH   2   7
ENDBRANCH   1   2
BRANCH   1  10
ATOM     10  C   UNL     1      47.318  20.667  74.592  1.00  0.00     0.223 C 
ATOM     11  O   UNL     1      46.416  20.985  73.772  1.00  0.00    -0.275 OA
ATOM     12  N   UNL     1      48.683  20.961  74.291  1.00  0.00    -0.369 N 
ATOM     13  H   UNL     1      49.441  20.722  74.967  1.00  0.00     0.159 HD
ATOM     14  H   UNL     1      48.935  21.424  73.390  1.00  0.00     0.159 HD
ENDBRANCH   1  10
TORSDOF 4
ENDMDL
