MODEL 1
REMARK VINA RESULT:    -7.259      0.000      0.000
REMARK INTER + INTRA:          -8.094
REMARK INTER:                  -7.896
REMARK INTRA:                  -0.198
REMARK UNBOUND:                -0.198
REMARK SMILES C[C@H]1[C@H](C)CC[C@]2(C(=O)[O-])CC[C@@]3(C)C(=CC[C@H]4[C@@]5(C)CC[C@@H](O)C(C)(C)[C@H]5CC[C@]43C)[C@H]12
REMARK SMILES IDX 7 1 6 2 11 3 33 4 5 5 12 6 15 7 2 8 3 9 13 10 16 11 1 12
REMARK SMILES IDX 4 13 14 14 31 15 17 16 18 17 30 18 32 19 19 20 29 21 28 22
REMARK SMILES IDX 21 23 20 24 25 25 22 26 23 27 26 28 27 29 8 30 9 31 10 32
REMARK SMILES IDX 24 33
REMARK H PARENT 24 34
REMARK Flexibility Score: inf
ROOT
ATOM      1  C   UNL     1      87.162  84.073  80.555  1.00  0.00     0.017 C 
ATOM      2  C   UNL     1      85.721  83.493  80.573  1.00  0.00     0.014 C 
ATOM      3  C   UNL     1      88.210  82.946  80.246  1.00  0.00     0.014 C 
ATOM      4  C   UNL     1      87.464  84.785  81.916  1.00  0.00     0.030 C 
ATOM      5  C   UNL     1      85.435  82.602  81.779  1.00  0.00     0.004 C 
ATOM      6  C   UNL     1      89.531  83.010  81.045  1.00  0.00     0.013 C 
ATOM      7  C   UNL     1      88.927  85.270  81.947  1.00  0.00    -0.063 C 
ATOM      8  C   UNL     1      87.097  83.935  83.190  1.00  0.00    -0.003 C 
ATOM      9  C   UNL     1      85.653  83.352  83.101  1.00  0.00    -0.011 C 
ATOM     10  C   UNL     1      90.065  84.462  81.312  1.00  0.00    -0.006 C 
ATOM     11  C   UNL     1      89.197  86.460  82.504  1.00  0.00    -0.027 C 
ATOM     12  C   UNL     1      87.244  84.790  84.470  1.00  0.00     0.008 C 
ATOM     13  C   UNL     1      85.335  82.378  84.260  1.00  0.00     0.008 C 
ATOM     14  C   UNL     1      90.415  85.100  79.919  1.00  0.00     0.017 C 
ATOM     15  C   UNL     1      91.349  84.479  82.289  1.00  0.00    -0.020 C 
ATOM     16  C   UNL     1      90.529  86.805  83.099  1.00  0.00     0.032 C 
ATOM     17  C   UNL     1      91.767  85.971  82.628  1.00  0.00     0.006 C 
ATOM     18  C   UNL     1      91.041  83.737  83.636  1.00  0.00     0.008 C 
ATOM     19  C   UNL     1      92.532  83.741  81.571  1.00  0.00     0.012 C 
ATOM     20  C   UNL     1      93.051  86.108  83.609  1.00  0.00    -0.025 C 
ATOM     21  C   UNL     1      91.703  84.306  84.911  1.00  0.00     0.005 C 
ATOM     22  C   UNL     1      93.111  84.915  84.676  1.00  0.00     0.003 C 
ATOM     23  C   UNL     1      93.059  87.521  84.304  1.00  0.00     0.010 C 
ATOM     24  C   UNL     1      94.342  86.076  82.720  1.00  0.00     0.012 C 
ATOM     25  C   UNL     1      93.951  85.186  86.013  1.00  0.00    -0.006 C 
ATOM     26  C   UNL     1      94.049  87.676  85.461  1.00  0.00     0.033 C 
ATOM     27  C   UNL     1      93.764  86.636  86.545  1.00  0.00     0.120 C 
ATOM     28  C   UNL     1      93.574  84.205  87.164  1.00  0.00     0.014 C 
ATOM     29  C   UNL     1      95.465  84.920  85.753  1.00  0.00     0.014 C 
ENDROOT
BRANCH   1  30
ATOM     30  C   UNL     1      87.165  85.092  79.413  1.00  0.00     0.048 C 
ATOM     31  O   UNL     1      87.588  84.762  78.271  1.00  0.00    -0.550 OA
ATOM     32  O   UNL     1      86.607  86.361  79.574  1.00  0.00    -0.550 OA
ENDBRANCH   1  30
BRANCH  27  33
ATOM     33  O   UNL     1      92.457  86.831  87.029  1.00  0.00    -0.393 OA
ATOM     34  H   UNL     1      91.829  86.573  86.309  1.00  0.00     0.210 HD
ENDBRANCH  27  33
TORSDOF 2
ENDMDL
MODEL 2
REMARK VINA RESULT:    -7.115      4.244      9.848
REMARK INTER + INTRA:          -7.937
REMARK INTER:                  -7.703
REMARK INTRA:                  -0.234
REMARK UNBOUND:                -0.198
REMARK SMILES C[C@H]1[C@H](C)CC[C@]2(C(=O)[O-])CC[C@@]3(C)C(=CC[C@H]4[C@@]5(C)CC[C@@H](O)C(C)(C)[C@H]5CC[C@]43C)[C@H]12
REMARK SMILES IDX 7 1 6 2 11 3 33 4 5 5 12 6 15 7 2 8 3 9 13 10 16 11 1 12
REMARK SMILES IDX 4 13 14 14 31 15 17 16 18 17 30 18 32 19 19 20 29 21 28 22
REMARK SMILES IDX 21 23 20 24 25 25 22 26 23 27 26 28 27 29 8 30 9 31 10 32
REMARK SMILES IDX 24 33
REMARK H PARENT 24 34
REMARK Flexibility Score: inf
ROOT
ATOM      1  C   UNL     1      99.935  86.114  84.577  1.00  0.00     0.017 C 
ATOM      2  C   UNL     1     100.487  86.270  86.020  1.00  0.00     0.014 C 
ATOM      3  C   UNL     1      99.467  87.500  84.009  1.00  0.00     0.014 C 
ATOM      4  C   UNL     1      98.775  85.063  84.564  1.00  0.00     0.030 C 
ATOM      5  C   UNL     1      99.409  86.570  87.059  1.00  0.00     0.004 C 
ATOM      6  C   UNL     1      98.167  87.488  83.174  1.00  0.00     0.013 C 
ATOM      7  C   UNL     1      98.150  84.981  83.156  1.00  0.00    -0.063 C 
ATOM      8  C   UNL     1      97.686  85.282  85.680  1.00  0.00    -0.003 C 
ATOM      9  C   UNL     1      98.331  85.478  87.087  1.00  0.00    -0.011 C 
ATOM     10  C   UNL     1      97.984  86.219  82.267  1.00  0.00    -0.006 C 
ATOM     11  C   UNL     1      97.791  83.779  82.683  1.00  0.00    -0.027 C 
ATOM     12  C   UNL     1      96.699  84.092  85.712  1.00  0.00     0.008 C 
ATOM     13  C   UNL     1      97.291  85.862  88.166  1.00  0.00     0.008 C 
ATOM     14  C   UNL     1      99.139  86.229  81.202  1.00  0.00     0.017 C 
ATOM     15  C   UNL     1      96.540  86.176  81.548  1.00  0.00    -0.020 C 
ATOM     16  C   UNL     1      96.719  83.588  81.653  1.00  0.00     0.032 C 
ATOM     17  C   UNL     1      96.359  84.816  80.752  1.00  0.00     0.006 C 
ATOM     18  C   UNL     1      95.383  86.287  82.601  1.00  0.00     0.008 C 
ATOM     19  C   UNL     1      96.437  87.392  80.563  1.00  0.00     0.012 C 
ATOM     20  C   UNL     1      94.936  84.664  79.988  1.00  0.00    -0.025 C 
ATOM     21  C   UNL     1      94.095  85.485  82.307  1.00  0.00     0.005 C 
ATOM     22  C   UNL     1      93.750  85.372  80.798  1.00  0.00     0.003 C 
ATOM     23  C   UNL     1      94.630  83.146  79.701  1.00  0.00     0.010 C 
ATOM     24  C   UNL     1      95.073  85.332  78.576  1.00  0.00     0.012 C 
ATOM     25  C   UNL     1      92.263  84.861  80.491  1.00  0.00    -0.006 C 
ATOM     26  C   UNL     1      93.201  82.841  79.246  1.00  0.00     0.033 C 
ATOM     27  C   UNL     1      92.197  83.319  80.294  1.00  0.00     0.120 C 
ATOM     28  C   UNL     1      91.257  85.239  81.620  1.00  0.00     0.014 C 
ATOM     29  C   UNL     1      91.708  85.572  79.220  1.00  0.00     0.014 C 
ENDROOT
BRANCH   1  30
ATOM     30  C   UNL     1     101.120  85.605  83.752  1.00  0.00     0.048 C 
ATOM     31  O   UNL     1     101.923  86.423  83.226  1.00  0.00    -0.550 OA
ATOM     32  O   UNL     1     101.399  84.241  83.652  1.00  0.00    -0.550 OA
ENDBRANCH   1  30
BRANCH  27  33
ATOM     33  O   UNL     1      92.447  82.644  81.503  1.00  0.00    -0.393 OA
ATOM     34  H   UNL     1      92.776  83.311  82.156  1.00  0.00     0.210 HD
ENDBRANCH  27  33
TORSDOF 2
ENDMDL
MODEL 3
REMARK VINA RESULT:    -7.075      4.459      7.330
REMARK INTER + INTRA:          -7.893
REMARK INTER:                  -7.951
REMARK INTRA:                   0.057
REMARK UNBOUND:                -0.198
REMARK SMILES C[C@H]1[C@H](C)CC[C@]2(C(=O)[O-])CC[C@@]3(C)C(=CC[C@H]4[C@@]5(C)CC[C@@H](O)C(C)(C)[C@H]5CC[C@]43C)[C@H]12
REMARK SMILES IDX 7 1 6 2 11 3 33 4 5 5 12 6 15 7 2 8 3 9 13 10 16 11 1 12
REMARK SMILES IDX 4 13 14 14 31 15 17 16 18 17 30 18 32 19 19 20 29 21 28 22
REMARK SMILES IDX 21 23 20 24 25 25 22 26 23 27 26 28 27 29 8 30 9 31 10 32
REMARK SMILES IDX 24 33
REMARK H PARENT 24 34
REMARK Flexibility Score: inf
ROOT
ATOM      1  C   UNL     1      94.858  84.955  80.452  1.00  0.00     0.017 C 
ATOM      2  C   UNL     1      93.353  84.700  80.167  1.00  0.00     0.014 C 
ATOM      3  C   UNL     1      95.642  83.599  80.550  1.00  0.00     0.014 C 
ATOM      4  C   UNL     1      95.014  85.808  81.755  1.00  0.00     0.030 C 
ATOM      5  C   UNL     1      92.598  84.106  81.354  1.00  0.00     0.004 C 
ATOM      6  C   UNL     1      96.727  83.519  81.648  1.00  0.00     0.013 C 
ATOM      7  C   UNL     1      96.508  85.975  82.104  1.00  0.00    -0.063 C 
ATOM      8  C   UNL     1      94.178  85.281  82.981  1.00  0.00    -0.003 C 
ATOM      9  C   UNL     1      92.693  85.006  82.593  1.00  0.00    -0.011 C 
ATOM     10  C   UNL     1      97.526  84.852  81.876  1.00  0.00    -0.006 C 
ATOM     11  C   UNL     1      96.929  87.159  82.572  1.00  0.00    -0.027 C 
ATOM     12  C   UNL     1      94.241  86.291  84.151  1.00  0.00     0.008 C 
ATOM     13  C   UNL     1      91.898  84.330  83.735  1.00  0.00     0.008 C 
ATOM     14  C   UNL     1      98.321  85.157  80.555  1.00  0.00     0.017 C 
ATOM     15  C   UNL     1      98.525  84.765  83.139  1.00  0.00    -0.020 C 
ATOM     16  C   UNL     1      98.137  87.314  83.444  1.00  0.00     0.032 C 
ATOM     17  C   UNL     1      99.208  86.173  83.403  1.00  0.00     0.006 C 
ATOM     18  C   UNL     1      97.754  84.342  84.439  1.00  0.00     0.008 C 
ATOM     19  C   UNL     1      99.622  83.686  82.836  1.00  0.00     0.012 C 
ATOM     20  C   UNL     1     100.236  86.202  84.658  1.00  0.00    -0.025 C 
ATOM     21  C   UNL     1      98.235  84.968  85.768  1.00  0.00     0.005 C 
ATOM     22  C   UNL     1      99.764  85.221  85.832  1.00  0.00     0.003 C 
ATOM     23  C   UNL     1     100.433  87.679  85.166  1.00  0.00     0.010 C 
ATOM     24  C   UNL     1     101.644  85.752  84.137  1.00  0.00     0.012 C 
ATOM     25  C   UNL     1     100.326  85.533  87.300  1.00  0.00    -0.006 C 
ATOM     26  C   UNL     1     101.148  87.817  86.513  1.00  0.00     0.033 C 
ATOM     27  C   UNL     1     100.385  87.059  87.598  1.00  0.00     0.120 C 
ATOM     28  C   UNL     1      99.476  84.862  88.419  1.00  0.00     0.014 C 
ATOM     29  C   UNL     1     101.748  84.916  87.467  1.00  0.00     0.014 C 
ENDROOT
BRANCH   1  30
ATOM     30  C   UNL     1      95.363  85.743  79.240  1.00  0.00     0.048 C 
ATOM     31  O   UNL     1      95.321  85.229  78.089  1.00  0.00    -0.550 OA
ATOM     32  O   UNL     1      95.776  87.070  79.361  1.00  0.00    -0.550 OA
ENDBRANCH   1  30
BRANCH  27  33
ATOM     33  O   UNL     1      99.091  87.601  87.708  1.00  0.00    -0.393 OA
ATOM     34  H   UNL     1      99.064  88.425  87.159  1.00  0.00     0.210 HD
ENDBRANCH  27  33
TORSDOF 2
ENDMDL
MODEL 4
REMARK VINA RESULT:    -6.849      1.825      4.189
REMARK INTER + INTRA:          -7.648
REMARK INTER:                  -7.511
REMARK INTRA:                  -0.137
REMARK UNBOUND:                -0.198
REMARK SMILES C[C@H]1[C@H](C)CC[C@]2(C(=O)[O-])CC[C@@]3(C)C(=CC[C@H]4[C@@]5(C)CC[C@@H](O)C(C)(C)[C@H]5CC[C@]43C)[C@H]12
REMARK SMILES IDX 7 1 6 2 11 3 33 4 5 5 12 6 15 7 2 8 3 9 13 10 16 11 1 12
REMARK SMILES IDX 4 13 14 14 31 15 17 16 18 17 30 18 32 19 19 20 29 21 28 22
REMARK SMILES IDX 21 23 20 24 25 25 22 26 23 27 26 28 27 29 8 30 9 31 10 32
REMARK SMILES IDX 24 33
REMARK H PARENT 24 34
REMARK Flexibility Score: inf
ROOT
ATOM      1  C   UNL     1      88.288  84.572  81.016  1.00  0.00     0.017 C 
ATOM      2  C   UNL     1      88.030  84.482  79.487  1.00  0.00     0.014 C 
ATOM      3  C   UNL     1      87.953  86.008  81.552  1.00  0.00     0.014 C 
ATOM      4  C   UNL     1      89.768  84.169  81.328  1.00  0.00     0.030 C 
ATOM      5  C   UNL     1      89.041  85.261  78.649  1.00  0.00     0.004 C 
ATOM      6  C   UNL     1      88.918  86.579  82.615  1.00  0.00     0.013 C 
ATOM      7  C   UNL     1      90.063  84.358  82.830  1.00  0.00    -0.063 C 
ATOM      8  C   UNL     1      90.841  84.883  80.422  1.00  0.00    -0.003 C 
ATOM      9  C   UNL     1      90.477  84.786  78.909  1.00  0.00    -0.011 C 
ATOM     10  C   UNL     1      89.468  85.519  83.635  1.00  0.00    -0.006 C 
ATOM     11  C   UNL     1      90.822  83.447  83.455  1.00  0.00    -0.027 C 
ATOM     12  C   UNL     1      92.243  84.279  80.669  1.00  0.00     0.008 C 
ATOM     13  C   UNL     1      91.425  85.622  78.017  1.00  0.00     0.008 C 
ATOM     14  C   UNL     1      88.244  84.981  84.461  1.00  0.00     0.017 C 
ATOM     15  C   UNL     1      90.595  86.131  84.614  1.00  0.00    -0.020 C 
ATOM     16  C   UNL     1      91.631  83.752  84.679  1.00  0.00     0.032 C 
ATOM     17  C   UNL     1      91.207  84.992  85.533  1.00  0.00     0.006 C 
ATOM     18  C   UNL     1      91.764  86.778  83.791  1.00  0.00     0.008 C 
ATOM     19  C   UNL     1      89.936  87.242  85.503  1.00  0.00     0.012 C 
ATOM     20  C   UNL     1      92.357  85.496  86.561  1.00  0.00    -0.025 C 
ATOM     21  C   UNL     1      93.185  86.651  84.384  1.00  0.00     0.005 C 
ATOM     22  C   UNL     1      93.230  86.683  85.935  1.00  0.00     0.003 C 
ATOM     23  C   UNL     1      93.251  84.282  87.016  1.00  0.00     0.010 C 
ATOM     24  C   UNL     1      91.649  86.002  87.865  1.00  0.00     0.012 C 
ATOM     25  C   UNL     1      94.691  86.905  86.554  1.00  0.00    -0.006 C 
ATOM     26  C   UNL     1      94.538  84.659  87.755  1.00  0.00     0.033 C 
ATOM     27  C   UNL     1      95.406  85.562  86.880  1.00  0.00     0.120 C 
ATOM     28  C   UNL     1      95.622  87.722  85.608  1.00  0.00     0.014 C 
ATOM     29  C   UNL     1      94.595  87.769  87.848  1.00  0.00     0.014 C 
ENDROOT
BRANCH   1  30
ATOM     30  C   UNL     1      87.322  83.562  81.641  1.00  0.00     0.048 C 
ATOM     31  O   UNL     1      86.257  83.960  82.188  1.00  0.00    -0.550 OA
ATOM     32  O   UNL     1      87.538  82.188  81.527  1.00  0.00    -0.550 OA
ENDBRANCH   1  30
BRANCH  27  33
ATOM     33  O   UNL     1      95.739  84.869  85.701  1.00  0.00    -0.393 OA
ATOM     34  H   UNL     1      94.894  84.575  85.277  1.00  0.00     0.210 HD
ENDBRANCH  27  33
TORSDOF 2
ENDMDL
MODEL 5
REMARK VINA RESULT:    -6.836      5.138      9.669
REMARK INTER + INTRA:          -7.633
REMARK INTER:                  -7.404
REMARK INTRA:                  -0.229
REMARK UNBOUND:                -0.198
REMARK SMILES C[C@H]1[C@H](C)CC[C@]2(C(=O)[O-])CC[C@@]3(C)C(=CC[C@H]4[C@@]5(C)CC[C@@H](O)C(C)(C)[C@H]5CC[C@]43C)[C@H]12
REMARK SMILES IDX 7 1 6 2 11 3 33 4 5 5 12 6 15 7 2 8 3 9 13 10 16 11 1 12
REMARK SMILES IDX 4 13 14 14 31 15 17 16 18 17 30 18 32 19 19 20 29 21 28 22
REMARK SMILES IDX 21 23 20 24 25 25 22 26 23 27 26 28 27 29 8 30 9 31 10 32
REMARK SMILES IDX 24 33
REMARK H PARENT 24 34
REMARK Flexibility Score: inf
ROOT
ATOM      1  C   UNL     1     100.329  84.912  84.105  1.00  0.00     0.017 C 
ATOM      2  C   UNL     1     101.079  84.117  83.003  1.00  0.00     0.014 C 
ATOM      3  C   UNL     1     100.151  84.038  85.396  1.00  0.00     0.014 C 
ATOM      4  C   UNL     1      98.953  85.414  83.553  1.00  0.00     0.030 C 
ATOM      5  C   UNL     1     100.249  82.994  82.385  1.00  0.00     0.004 C 
ATOM      6  C   UNL     1      98.794  84.170  86.124  1.00  0.00     0.013 C 
ATOM      7  C   UNL     1      98.155  86.112  84.673  1.00  0.00    -0.063 C 
ATOM      8  C   UNL     1      98.101  84.306  82.826  1.00  0.00    -0.003 C 
ATOM      9  C   UNL     1      98.946  83.526  81.772  1.00  0.00    -0.011 C 
ATOM     10  C   UNL     1      98.190  85.619  86.124  1.00  0.00    -0.006 C 
ATOM     11  C   UNL     1      97.453  87.214  84.370  1.00  0.00    -0.027 C 
ATOM     12  C   UNL     1      96.862  84.937  82.149  1.00  0.00     0.008 C 
ATOM     13  C   UNL     1      98.178  82.326  81.169  1.00  0.00     0.008 C 
ATOM     14  C   UNL     1      99.168  86.538  86.942  1.00  0.00     0.017 C 
ATOM     15  C   UNL     1      96.702  85.669  86.747  1.00  0.00    -0.020 C 
ATOM     16  C   UNL     1      96.246  87.656  85.140  1.00  0.00     0.032 C 
ATOM     17  C   UNL     1      96.091  87.126  86.604  1.00  0.00     0.006 C 
ATOM     18  C   UNL     1      95.750  84.663  86.010  1.00  0.00     0.008 C 
ATOM     19  C   UNL     1      96.780  85.265  88.260  1.00  0.00     0.012 C 
ATOM     20  C   UNL     1      94.590  87.291  87.198  1.00  0.00    -0.025 C 
ATOM     21  C   UNL     1      94.277  85.098  85.837  1.00  0.00     0.005 C 
ATOM     22  C   UNL     1      93.729  85.955  87.009  1.00  0.00     0.003 C 
ATOM     23  C   UNL     1      93.884  88.544  86.556  1.00  0.00     0.010 C 
ATOM     24  C   UNL     1      94.710  87.621  88.726  1.00  0.00     0.012 C 
ATOM     25  C   UNL     1      92.134  86.118  87.025  1.00  0.00    -0.006 C 
ATOM     26  C   UNL     1      92.379  88.648  86.811  1.00  0.00     0.033 C 
ATOM     27  C   UNL     1      91.664  87.403  86.286  1.00  0.00     0.120 C 
ATOM     28  C   UNL     1      91.404  84.903  86.377  1.00  0.00     0.014 C 
ATOM     29  C   UNL     1      91.617  86.145  88.495  1.00  0.00     0.014 C 
ENDROOT
BRANCH   1  30
ATOM     30  C   UNL     1     101.237  86.103  84.423  1.00  0.00     0.048 C 
ATOM     31  O   UNL     1     102.096  86.016  85.342  1.00  0.00    -0.550 OA
ATOM     32  O   UNL     1     101.212  87.260  83.643  1.00  0.00    -0.550 OA
ENDBRANCH   1  30
BRANCH  27  33
ATOM     33  O   UNL     1      91.889  87.301  84.901  1.00  0.00    -0.393 OA
ATOM     34  H   UNL     1      92.710  87.813  84.692  1.00  0.00     0.210 HD
ENDBRANCH  27  33
TORSDOF 2
ENDMDL
MODEL 6
REMARK VINA RESULT:    -6.675      5.722     10.524
REMARK INTER + INTRA:          -7.459
REMARK INTER:                  -7.226
REMARK INTRA:                  -0.233
REMARK UNBOUND:                -0.198
REMARK SMILES C[C@H]1[C@H](C)CC[C@]2(C(=O)[O-])CC[C@@]3(C)C(=CC[C@H]4[C@@]5(C)CC[C@@H](O)C(C)(C)[C@H]5CC[C@]43C)[C@H]12
REMARK SMILES IDX 7 1 6 2 11 3 33 4 5 5 12 6 15 7 2 8 3 9 13 10 16 11 1 12
REMARK SMILES IDX 4 13 14 14 31 15 17 16 18 17 30 18 32 19 19 20 29 21 28 22
REMARK SMILES IDX 21 23 20 24 25 25 22 26 23 27 26 28 27 29 8 30 9 31 10 32
REMARK SMILES IDX 24 33
REMARK H PARENT 24 34
REMARK Flexibility Score: inf
ROOT
ATOM      1  C   UNL     1      98.399  87.841  88.109  1.00  0.00     0.017 C 
ATOM      2  C   UNL     1      99.573  87.891  89.125  1.00  0.00     0.014 C 
ATOM      3  C   UNL     1      97.382  86.709  88.492  1.00  0.00     0.014 C 
ATOM      4  C   UNL     1      98.960  87.648  86.661  1.00  0.00     0.030 C 
ATOM      5  C   UNL     1     100.528  86.704  89.017  1.00  0.00     0.004 C 
ATOM      6  C   UNL     1      96.795  85.897  87.315  1.00  0.00     0.013 C 
ATOM      7  C   UNL     1      97.798  87.490  85.659  1.00  0.00    -0.063 C 
ATOM      8  C   UNL     1     100.019  86.490  86.522  1.00  0.00    -0.003 C 
ATOM      9  C   UNL     1     101.132  86.591  87.610  1.00  0.00    -0.011 C 
ATOM     10  C   UNL     1      96.512  86.736  86.018  1.00  0.00    -0.006 C 
ATOM     11  C   UNL     1      97.902  88.076  84.457  1.00  0.00    -0.027 C 
ATOM     12  C   UNL     1     100.655  86.507  85.112  1.00  0.00     0.008 C 
ATOM     13  C   UNL     1     102.084  85.372  87.598  1.00  0.00     0.008 C 
ATOM     14  C   UNL     1      95.397  87.787  86.369  1.00  0.00     0.017 C 
ATOM     15  C   UNL     1      96.060  85.815  84.773  1.00  0.00    -0.020 C 
ATOM     16  C   UNL     1      97.183  87.583  83.238  1.00  0.00     0.032 C 
ATOM     17  C   UNL     1      95.914  86.694  83.460  1.00  0.00     0.006 C 
ATOM     18  C   UNL     1      97.115  84.688  84.495  1.00  0.00     0.008 C 
ATOM     19  C   UNL     1      94.688  85.141  85.122  1.00  0.00     0.012 C 
ATOM     20  C   UNL     1      95.464  85.867  82.139  1.00  0.00    -0.025 C 
ATOM     21  C   UNL     1      97.336  84.291  83.017  1.00  0.00     0.005 C 
ATOM     22  C   UNL     1      96.059  84.380  82.140  1.00  0.00     0.003 C 
ATOM     23  C   UNL     1      95.859  86.660  80.837  1.00  0.00     0.010 C 
ATOM     24  C   UNL     1      93.897  85.800  82.124  1.00  0.00     0.012 C 
ATOM     25  C   UNL     1      96.177  83.651  80.718  1.00  0.00    -0.006 C 
ATOM     26  C   UNL     1      95.750  85.870  79.531  1.00  0.00     0.033 C 
ATOM     27  C   UNL     1      96.632  84.623  79.591  1.00  0.00     0.120 C 
ATOM     28  C   UNL     1      97.172  82.452  80.742  1.00  0.00     0.014 C 
ATOM     29  C   UNL     1      94.807  83.014  80.332  1.00  0.00     0.014 C 
ENDROOT
BRANCH   1  30
ATOM     30  C   UNL     1      97.709  89.202  88.232  1.00  0.00     0.048 C 
ATOM     31  O   UNL     1      96.774  89.365  89.063  1.00  0.00    -0.550 OA
ATOM     32  O   UNL     1      98.163  90.310  87.516  1.00  0.00    -0.550 OA
ENDBRANCH   1  30
BRANCH  27  33
ATOM     33  O   UNL     1      97.969  85.020  79.777  1.00  0.00    -0.393 OA
ATOM     34  H   UNL     1      97.974  86.001  79.909  1.00  0.00     0.210 HD
ENDBRANCH  27  33
TORSDOF 2
ENDMDL
MODEL 7
REMARK VINA RESULT:    -6.642      7.412     11.908
REMARK INTER + INTRA:          -7.423
REMARK INTER:                  -7.194
REMARK INTRA:                  -0.229
REMARK UNBOUND:                -0.198
REMARK SMILES C[C@H]1[C@H](C)CC[C@]2(C(=O)[O-])CC[C@@]3(C)C(=CC[C@H]4[C@@]5(C)CC[C@@H](O)C(C)(C)[C@H]5CC[C@]43C)[C@H]12
REMARK SMILES IDX 7 1 6 2 11 3 33 4 5 5 12 6 15 7 2 8 3 9 13 10 16 11 1 12
REMARK SMILES IDX 4 13 14 14 31 15 17 16 18 17 30 18 32 19 19 20 29 21 28 22
REMARK SMILES IDX 21 23 20 24 25 25 22 26 23 27 26 28 27 29 8 30 9 31 10 32
REMARK SMILES IDX 24 33
REMARK H PARENT 24 34
REMARK Flexibility Score: inf
ROOT
ATOM      1  C   UNL     1      98.675  85.495  85.079  1.00  0.00     0.017 C 
ATOM      2  C   UNL     1      97.483  84.508  85.216  1.00  0.00     0.014 C 
ATOM      3  C   UNL     1      98.317  86.887  85.709  1.00  0.00     0.014 C 
ATOM      4  C   UNL     1      99.082  85.629  83.574  1.00  0.00     0.030 C 
ATOM      5  C   UNL     1      96.299  84.849  84.314  1.00  0.00     0.004 C 
ATOM      6  C   UNL     1      98.815  88.130  84.938  1.00  0.00     0.013 C 
ATOM      7  C   UNL     1     100.192  86.688  83.418  1.00  0.00    -0.063 C 
ATOM      8  C   UNL     1      97.876  85.892  82.595  1.00  0.00    -0.003 C 
ATOM      9  C   UNL     1      96.707  84.887  82.835  1.00  0.00    -0.011 C 
ATOM     10  C   UNL     1     100.226  87.962  84.270  1.00  0.00    -0.006 C 
ATOM     11  C   UNL     1     101.183  86.455  82.545  1.00  0.00    -0.027 C 
ATOM     12  C   UNL     1      98.348  85.813  81.125  1.00  0.00     0.008 C 
ATOM     13  C   UNL     1      95.450  85.232  82.003  1.00  0.00     0.008 C 
ATOM     14  C   UNL     1     101.275  87.767  85.423  1.00  0.00     0.017 C 
ATOM     15  C   UNL     1     100.623  89.221  83.341  1.00  0.00    -0.020 C 
ATOM     16  C   UNL     1     101.973  87.546  81.888  1.00  0.00     0.032 C 
ATOM     17  C   UNL     1     101.993  88.944  82.590  1.00  0.00     0.006 C 
ATOM     18  C   UNL     1      99.518  89.495  82.262  1.00  0.00     0.008 C 
ATOM     19  C   UNL     1     100.757  90.491  84.252  1.00  0.00     0.012 C 
ATOM     20  C   UNL     1     102.490  90.148  81.623  1.00  0.00    -0.025 C 
ATOM     21  C   UNL     1     100.002  89.998  80.883  1.00  0.00     0.005 C 
ATOM     22  C   UNL     1     101.255  90.911  80.946  1.00  0.00     0.003 C 
ATOM     23  C   UNL     1     103.506  89.603  80.551  1.00  0.00     0.010 C 
ATOM     24  C   UNL     1     103.311  91.160  82.496  1.00  0.00     0.012 C 
ATOM     25  C   UNL     1     101.561  91.717  79.595  1.00  0.00    -0.006 C 
ATOM     26  C   UNL     1     103.831  90.567  79.408  1.00  0.00     0.033 C 
ATOM     27  C   UNL     1     102.553  90.960  78.667  1.00  0.00     0.120 C 
ATOM     28  C   UNL     1     100.271  92.012  78.772  1.00  0.00     0.014 C 
ATOM     29  C   UNL     1     102.138  93.125  79.935  1.00  0.00     0.014 C 
ENDROOT
BRANCH   1  30
ATOM     30  C   UNL     1      99.812  84.856  85.880  1.00  0.00     0.048 C 
ATOM     31  O   UNL     1      99.896  85.048  87.124  1.00  0.00    -0.550 OA
ATOM     32  O   UNL     1     100.710  83.972  85.282  1.00  0.00    -0.550 OA
ENDBRANCH   1  30
BRANCH  27  33
ATOM     33  O   UNL     1     101.961  89.799  78.135  1.00  0.00    -0.393 OA
ATOM     34  H   UNL     1     102.534  89.485  77.391  1.00  0.00     0.210 HD
ENDBRANCH  27  33
TORSDOF 2
ENDMDL
MODEL 8
REMARK VINA RESULT:    -6.642      2.790      3.630
REMARK INTER + INTRA:          -7.423
REMARK INTER:                  -7.213
REMARK INTRA:                  -0.209
REMARK UNBOUND:                -0.198
REMARK SMILES C[C@H]1[C@H](C)CC[C@]2(C(=O)[O-])CC[C@@]3(C)C(=CC[C@H]4[C@@]5(C)CC[C@@H](O)C(C)(C)[C@H]5CC[C@]43C)[C@H]12
REMARK SMILES IDX 7 1 6 2 11 3 33 4 5 5 12 6 15 7 2 8 3 9 13 10 16 11 1 12
REMARK SMILES IDX 4 13 14 14 31 15 17 16 18 17 30 18 32 19 19 20 29 21 28 22
REMARK SMILES IDX 21 23 20 24 25 25 22 26 23 27 26 28 27 29 8 30 9 31 10 32
REMARK SMILES IDX 24 33
REMARK H PARENT 24 34
REMARK Flexibility Score: inf
ROOT
ATOM      1  C   UNL     1      88.994  83.487  80.403  1.00  0.00     0.017 C 
ATOM      2  C   UNL     1      88.277  82.308  79.690  1.00  0.00     0.014 C 
ATOM      3  C   UNL     1      90.259  82.978  81.180  1.00  0.00     0.014 C 
ATOM      4  C   UNL     1      87.990  84.221  81.353  1.00  0.00     0.030 C 
ATOM      5  C   UNL     1      87.567  81.353  80.647  1.00  0.00     0.004 C 
ATOM      6  C   UNL     1      90.511  83.621  82.562  1.00  0.00     0.013 C 
ATOM      7  C   UNL     1      88.719  85.324  82.146  1.00  0.00    -0.063 C 
ATOM      8  C   UNL     1      87.168  83.263  82.296  1.00  0.00    -0.003 C 
ATOM      9  C   UNL     1      86.524  82.084  81.504  1.00  0.00    -0.011 C 
ATOM     10  C   UNL     1      90.157  85.148  82.648  1.00  0.00    -0.006 C 
ATOM     11  C   UNL     1      88.089  86.489  82.353  1.00  0.00    -0.027 C 
ATOM     12  C   UNL     1      86.073  84.056  83.047  1.00  0.00     0.008 C 
ATOM     13  C   UNL     1      85.857  81.042  82.432  1.00  0.00     0.008 C 
ATOM     14  C   UNL     1      91.125  85.913  81.673  1.00  0.00     0.017 C 
ATOM     15  C   UNL     1      90.279  85.728  84.148  1.00  0.00    -0.020 C 
ATOM     16  C   UNL     1      88.392  87.393  83.510  1.00  0.00     0.032 C 
ATOM     17  C   UNL     1      89.787  87.236  84.201  1.00  0.00     0.006 C 
ATOM     18  C   UNL     1      89.406  84.892  85.148  1.00  0.00     0.008 C 
ATOM     19  C   UNL     1      91.778  85.638  84.599  1.00  0.00     0.012 C 
ATOM     20  C   UNL     1      89.865  87.922  85.669  1.00  0.00    -0.025 C 
ATOM     21  C   UNL     1      88.737  85.668  86.305  1.00  0.00     0.005 C 
ATOM     22  C   UNL     1      89.575  86.863  86.833  1.00  0.00     0.003 C 
ATOM     23  C   UNL     1      88.895  89.161  85.743  1.00  0.00     0.010 C 
ATOM     24  C   UNL     1      91.306  88.512  85.849  1.00  0.00     0.012 C 
ATOM     25  C   UNL     1      89.078  87.454  88.237  1.00  0.00    -0.006 C 
ATOM     26  C   UNL     1      88.659  89.723  87.147  1.00  0.00     0.033 C 
ATOM     27  C   UNL     1      88.087  88.640  88.062  1.00  0.00     0.120 C 
ATOM     28  C   UNL     1      88.381  86.379  89.125  1.00  0.00     0.014 C 
ATOM     29  C   UNL     1      90.303  87.922  89.081  1.00  0.00     0.014 C 
ENDROOT
BRANCH   1  30
ATOM     30  C   UNL     1      89.437  84.423  79.276  1.00  0.00     0.048 C 
ATOM     31  O   UNL     1      90.602  84.334  78.801  1.00  0.00    -0.550 OA
ATOM     32  O   UNL     1      88.541  85.312  78.680  1.00  0.00    -0.550 OA
ENDBRANCH   1  30
BRANCH  27  33
ATOM     33  O   UNL     1      86.860  88.198  87.531  1.00  0.00    -0.393 OA
ATOM     34  H   UNL     1      86.331  87.818  88.276  1.00  0.00     0.210 HD
ENDBRANCH  27  33
TORSDOF 2
ENDMDL
MODEL 9
REMARK VINA RESULT:    -6.482      6.782     10.096
REMARK INTER + INTRA:          -7.248
REMARK INTER:                  -7.015
REMARK INTRA:                  -0.233
REMARK UNBOUND:                -0.198
REMARK SMILES C[C@H]1[C@H](C)CC[C@]2(C(=O)[O-])CC[C@@]3(C)C(=CC[C@H]4[C@@]5(C)CC[C@@H](O)C(C)(C)[C@H]5CC[C@]43C)[C@H]12
REMARK SMILES IDX 7 1 6 2 11 3 33 4 5 5 12 6 15 7 2 8 3 9 13 10 16 11 1 12
REMARK SMILES IDX 4 13 14 14 31 15 17 16 18 17 30 18 32 19 19 20 29 21 28 22
REMARK SMILES IDX 21 23 20 24 25 25 22 26 23 27 26 28 27 29 8 30 9 31 10 32
REMARK SMILES IDX 24 33
REMARK H PARENT 24 34
REMARK Flexibility Score: inf
ROOT
ATOM      1  C   UNL     1     100.063  84.752  82.925  1.00  0.00     0.017 C 
ATOM      2  C   UNL     1     100.285  83.323  82.359  1.00  0.00     0.014 C 
ATOM      3  C   UNL     1      99.377  84.689  84.336  1.00  0.00     0.014 C 
ATOM      4  C   UNL     1      99.224  85.600  81.912  1.00  0.00     0.030 C 
ATOM      5  C   UNL     1      98.994  82.625  81.935  1.00  0.00     0.004 C 
ATOM      6  C   UNL     1      98.297  85.759  84.614  1.00  0.00     0.013 C 
ATOM      7  C   UNL     1      98.909  86.984  82.513  1.00  0.00    -0.063 C 
ATOM      8  C   UNL     1      97.929  84.880  81.378  1.00  0.00    -0.003 C 
ATOM      9  C   UNL     1      98.236  83.436  80.875  1.00  0.00    -0.011 C 
ATOM     10  C   UNL     1      98.605  87.173  84.004  1.00  0.00    -0.006 C 
ATOM     11  C   UNL     1      98.954  88.058  81.711  1.00  0.00    -0.027 C 
ATOM     12  C   UNL     1      97.281  85.708  80.244  1.00  0.00     0.008 C 
ATOM     13  C   UNL     1      96.953  82.653  80.504  1.00  0.00     0.008 C 
ATOM     14  C   UNL     1      99.896  87.721  84.713  1.00  0.00     0.017 C 
ATOM     15  C   UNL     1      97.375  88.202  84.178  1.00  0.00    -0.020 C 
ATOM     16  C   UNL     1      98.170  89.309  81.969  1.00  0.00     0.032 C 
ATOM     17  C   UNL     1      97.687  89.568  83.434  1.00  0.00     0.006 C 
ATOM     18  C   UNL     1      96.054  87.607  83.578  1.00  0.00     0.008 C 
ATOM     19  C   UNL     1      97.154  88.463  85.709  1.00  0.00     0.012 C 
ATOM     20  C   UNL     1      96.512  90.681  83.542  1.00  0.00    -0.025 C 
ATOM     21  C   UNL     1      95.083  88.605  82.907  1.00  0.00     0.005 C 
ATOM     22  C   UNL     1      95.060  90.008  83.570  1.00  0.00     0.003 C 
ATOM     23  C   UNL     1      96.651  91.736  82.382  1.00  0.00     0.010 C 
ATOM     24  C   UNL     1      96.735  91.491  84.867  1.00  0.00     0.012 C 
ATOM     25  C   UNL     1      93.829  90.933  83.126  1.00  0.00    -0.006 C 
ATOM     26  C   UNL     1      95.452  92.669  82.198  1.00  0.00     0.033 C 
ATOM     27  C   UNL     1      94.186  91.857  81.927  1.00  0.00     0.120 C 
ATOM     28  C   UNL     1      92.571  90.103  82.729  1.00  0.00     0.014 C 
ATOM     29  C   UNL     1      93.357  91.804  84.330  1.00  0.00     0.014 C 
ENDROOT
BRANCH   1  30
ATOM     30  C   UNL     1     101.468  85.342  83.074  1.00  0.00     0.048 C 
ATOM     31  O   UNL     1     102.121  85.162  84.138  1.00  0.00    -0.550 OA
ATOM     32  O   UNL     1     102.095  85.991  82.010  1.00  0.00    -0.550 OA
ENDBRANCH   1  30
BRANCH  27  33
ATOM     33  O   UNL     1      94.369  91.108  80.750  1.00  0.00    -0.393 OA
ATOM     34  H   UNL     1      93.770  91.485  80.058  1.00  0.00     0.210 HD
ENDBRANCH  27  33
TORSDOF 2
ENDMDL
