MODEL 1
REMARK VINA RESULT:    -3.629      0.000      0.000
REMARK INTER + INTRA:          -4.592
REMARK INTER:                  -4.371
REMARK INTRA:                  -0.221
REMARK UNBOUND:                -0.221
REMARK SMILES C=CCc1ccc(O)c(OC)c1
REMARK SMILES IDX 9 1 7 2 6 3 5 4 4 5 12 6 10 7 11 8 8 9 3 11 2 12 1 13
REMARK H PARENT 8 10
REMARK Flexibility Score: inf
ROOT
ATOM      1  C   UNL     1      -1.343   2.750  -7.454  1.00  0.00     0.160 A 
ATOM      2  C   UNL     1      -2.471   2.853  -6.619  1.00  0.00     0.157 A 
ATOM      3  C   UNL     1      -2.317   2.835  -5.229  1.00  0.00     0.050 A 
ATOM      4  C   UNL     1      -1.049   2.717  -4.659  1.00  0.00     0.008 A 
ATOM      5  C   UNL     1       0.087   2.626  -5.476  1.00  0.00    -0.040 A 
ATOM      6  C   UNL     1      -0.064   2.633  -6.872  1.00  0.00     0.054 A 
ENDROOT
BRANCH   1   7
ATOM      7  O   UNL     1      -1.526   2.764  -8.845  1.00  0.00    -0.493 OA
ATOM      8  C   UNL     1      -1.354   1.635  -9.696  1.00  0.00     0.278 C 
ENDBRANCH   1   7
BRANCH   2   9
ATOM      9  O   UNL     1      -3.754   2.971  -7.153  1.00  0.00    -0.504 OA
ATOM     10  H   UNL     1      -4.011   3.725  -7.777  1.00  0.00     0.293 HD
ENDBRANCH   2   9
BRANCH   5  11
ATOM     11  C   UNL     1       1.451   2.469  -4.857  1.00  0.00     0.062 C 
BRANCH  11  12
ATOM     12  C   UNL     1       1.417   1.460  -3.742  1.00  0.00    -0.030 C 
ATOM     13  C   UNL     1       2.513   0.801  -3.358  1.00  0.00     0.004 C 
ENDBRANCH  11  12
ENDBRANCH   5  11
TORSDOF 4
ENDMDL
MODEL 2
REMARK VINA RESULT:    -3.620      1.842      2.467
REMARK INTER + INTRA:          -4.581
REMARK INTER:                  -4.331
REMARK INTRA:                  -0.250
REMARK UNBOUND:                -0.221
REMARK SMILES C=CCc1ccc(O)c(OC)c1
REMARK SMILES IDX 9 1 7 2 6 3 5 4 4 5 12 6 10 7 11 8 8 9 3 11 2 12 1 13
REMARK H PARENT 8 10
REMARK Flexibility Score: inf
ROOT
ATOM      1  C   UNL     1      -0.169   2.861  -6.080  1.00  0.00     0.160 A 
ATOM      2  C   UNL     1      -0.655   2.169  -4.955  1.00  0.00     0.157 A 
ATOM      3  C   UNL     1       0.221   1.795  -3.931  1.00  0.00     0.050 A 
ATOM      4  C   UNL     1       1.579   2.105  -4.013  1.00  0.00     0.008 A 
ATOM      5  C   UNL     1       2.078   2.804  -5.121  1.00  0.00    -0.040 A 
ATOM      6  C   UNL     1       1.203   3.173  -6.156  1.00  0.00     0.054 A 
ENDROOT
BRANCH   1   7
ATOM      7  O   UNL     1      -1.069   3.219  -7.096  1.00  0.00    -0.493 OA
ATOM      8  C   UNL     1      -1.153   2.577  -8.365  1.00  0.00     0.278 C 
ENDBRANCH   1   7
BRANCH   2   9
ATOM      9  O   UNL     1      -2.006   1.841  -4.838  1.00  0.00    -0.504 OA
ATOM     10  H   UNL     1      -2.366   0.935  -5.108  1.00  0.00     0.293 HD
ENDBRANCH   2   9
BRANCH   5  11
ATOM     11  C   UNL     1       3.549   3.111  -5.220  1.00  0.00     0.062 C 
BRANCH  11  12
ATOM     12  C   UNL     1       4.302   2.480  -4.082  1.00  0.00    -0.030 C 
ATOM     13  C   UNL     1       5.321   1.642  -4.292  1.00  0.00     0.004 C 
ENDBRANCH  11  12
ENDBRANCH   5  11
TORSDOF 4
ENDMDL
MODEL 3
REMARK VINA RESULT:    -3.509      2.124      3.183
REMARK INTER + INTRA:          -4.447
REMARK INTER:                  -4.251
REMARK INTRA:                  -0.196
REMARK UNBOUND:                -0.221
REMARK SMILES C=CCc1ccc(O)c(OC)c1
REMARK SMILES IDX 9 1 7 2 6 3 5 4 4 5 12 6 10 7 11 8 8 9 3 11 2 12 1 13
REMARK H PARENT 8 10
REMARK Flexibility Score: inf
ROOT
ATOM      1  C   UNL     1      -0.674   3.009  -4.738  1.00  0.00     0.160 A 
ATOM      2  C   UNL     1       0.088   4.068  -5.265  1.00  0.00     0.157 A 
ATOM      3  C   UNL     1       1.483   4.039  -5.177  1.00  0.00     0.050 A 
ATOM      4  C   UNL     1       2.131   2.963  -4.570  1.00  0.00     0.008 A 
ATOM      5  C   UNL     1       1.389   1.894  -4.049  1.00  0.00    -0.040 A 
ATOM      6  C   UNL     1      -0.013   1.924  -4.127  1.00  0.00     0.054 A 
ENDROOT
BRANCH   1   7
ATOM      7  O   UNL     1      -2.073   3.067  -4.835  1.00  0.00    -0.493 OA
ATOM      8  C   UNL     1      -2.824   2.630  -5.963  1.00  0.00     0.278 C 
ENDBRANCH   1   7
BRANCH   2   9
ATOM      9  O   UNL     1      -0.525   5.160  -5.880  1.00  0.00    -0.504 OA
ATOM     10  H   UNL     1      -0.490   6.091  -5.484  1.00  0.00     0.293 HD
ENDBRANCH   2   9
BRANCH   5  11
ATOM     11  C   UNL     1       2.090   0.748  -3.368  1.00  0.00     0.062 C 
BRANCH  11  12
ATOM     12  C   UNL     1       3.558   1.038  -3.216  1.00  0.00    -0.030 C 
ATOM     13  C   UNL     1       4.438   0.075  -2.930  1.00  0.00     0.004 C 
ENDBRANCH  11  12
ENDBRANCH   5  11
TORSDOF 4
ENDMDL
MODEL 4
REMARK VINA RESULT:    -3.472      3.381      5.381
REMARK INTER + INTRA:          -4.404
REMARK INTER:                  -4.193
REMARK INTRA:                  -0.211
REMARK UNBOUND:                -0.221
REMARK SMILES C=CCc1ccc(O)c(OC)c1
REMARK SMILES IDX 9 1 7 2 6 3 5 4 4 5 12 6 10 7 11 8 8 9 3 11 2 12 1 13
REMARK H PARENT 8 10
REMARK Flexibility Score: inf
ROOT
ATOM      1  C   UNL     1       2.112   2.276  -4.163  1.00  0.00     0.160 A 
ATOM      2  C   UNL     1       2.688   2.874  -5.299  1.00  0.00     0.157 A 
ATOM      3  C   UNL     1       1.872   3.336  -6.337  1.00  0.00     0.050 A 
ATOM      4  C   UNL     1       0.484   3.212  -6.254  1.00  0.00     0.008 A 
ATOM      5  C   UNL     1      -0.107   2.630  -5.124  1.00  0.00    -0.040 A 
ATOM      6  C   UNL     1       0.710   2.156  -4.084  1.00  0.00     0.054 A 
ENDROOT
BRANCH   1   7
ATOM      7  O   UNL     1       2.955   1.816  -3.139  1.00  0.00    -0.493 OA
ATOM      8  C   UNL     1       3.485   0.496  -3.061  1.00  0.00     0.278 C 
ENDBRANCH   1   7
BRANCH   2   9
ATOM      9  O   UNL     1       4.070   3.015  -5.417  1.00  0.00    -0.504 OA
ATOM     10  H   UNL     1       4.513   3.284  -6.286  1.00  0.00     0.293 HD
ENDBRANCH   2   9
BRANCH   5  11
ATOM     11  C   UNL     1      -1.603   2.471  -5.052  1.00  0.00     0.062 C 
BRANCH  11  12
ATOM     12  C   UNL     1      -2.240   3.696  -4.455  1.00  0.00    -0.030 C 
ATOM     13  C   UNL     1      -3.211   4.361  -5.087  1.00  0.00     0.004 C 
ENDBRANCH  11  12
ENDBRANCH   5  11
TORSDOF 4
ENDMDL
MODEL 5
REMARK VINA RESULT:    -3.434      3.268      5.078
REMARK INTER + INTRA:          -4.357
REMARK INTER:                  -4.087
REMARK INTRA:                  -0.269
REMARK UNBOUND:                -0.221
REMARK SMILES C=CCc1ccc(O)c(OC)c1
REMARK SMILES IDX 9 1 7 2 6 3 5 4 4 5 12 6 10 7 11 8 8 9 3 11 2 12 1 13
REMARK H PARENT 8 10
REMARK Flexibility Score: inf
ROOT
ATOM      1  C   UNL     1       2.534   2.315  -4.609  1.00  0.00     0.160 A 
ATOM      2  C   UNL     1       1.738   1.556  -3.731  1.00  0.00     0.157 A 
ATOM      3  C   UNL     1       0.348   1.536  -3.886  1.00  0.00     0.050 A 
ATOM      4  C   UNL     1      -0.260   2.262  -4.910  1.00  0.00     0.008 A 
ATOM      5  C   UNL     1       0.519   3.014  -5.801  1.00  0.00    -0.040 A 
ATOM      6  C   UNL     1       1.914   3.045  -5.643  1.00  0.00     0.054 A 
ENDROOT
BRANCH   1   7
ATOM      7  O   UNL     1       3.926   2.322  -4.426  1.00  0.00    -0.493 OA
ATOM      8  C   UNL     1       4.847   3.020  -5.259  1.00  0.00     0.278 C 
ENDBRANCH   1   7
BRANCH   2   9
ATOM      9  O   UNL     1       2.311   0.817  -2.695  1.00  0.00    -0.504 OA
ATOM     10  H   UNL     1       1.808   0.082  -2.215  1.00  0.00     0.293 HD
ENDBRANCH   2   9
BRANCH   5  11
ATOM     11  C   UNL     1      -0.143   3.821  -6.887  1.00  0.00     0.062 C 
BRANCH  11  12
ATOM     12  C   UNL     1      -0.831   2.920  -7.875  1.00  0.00    -0.030 C 
ATOM     13  C   UNL     1      -0.142   2.123  -8.696  1.00  0.00     0.004 C 
ENDBRANCH  11  12
ENDBRANCH   5  11
TORSDOF 4
ENDMDL
MODEL 6
REMARK VINA RESULT:    -3.396     12.251     14.149
REMARK INTER + INTRA:          -4.311
REMARK INTER:                  -4.050
REMARK INTRA:                  -0.261
REMARK UNBOUND:                -0.221
REMARK SMILES C=CCc1ccc(O)c(OC)c1
REMARK SMILES IDX 9 1 7 2 6 3 5 4 4 5 12 6 10 7 11 8 8 9 3 11 2 12 1 13
REMARK H PARENT 8 10
REMARK Flexibility Score: inf
ROOT
ATOM      1  C   UNL     1       0.251  -0.739   7.188  1.00  0.00     0.160 A 
ATOM      2  C   UNL     1      -0.327  -0.548   5.919  1.00  0.00     0.157 A 
ATOM      3  C   UNL     1      -1.129   0.572   5.677  1.00  0.00     0.050 A 
ATOM      4  C   UNL     1      -1.362   1.507   6.686  1.00  0.00     0.008 A 
ATOM      5  C   UNL     1      -0.783   1.338   7.952  1.00  0.00    -0.040 A 
ATOM      6  C   UNL     1       0.015   0.210   8.202  1.00  0.00     0.054 A 
ENDROOT
BRANCH   1   7
ATOM      7  O   UNL     1       1.048  -1.875   7.405  1.00  0.00    -0.493 OA
ATOM      8  C   UNL     1       2.465  -1.854   7.543  1.00  0.00     0.278 C 
ENDBRANCH   1   7
BRANCH   2   9
ATOM      9  O   UNL     1      -0.117  -1.462   4.886  1.00  0.00    -0.504 OA
ATOM     10  H   UNL     1      -0.724  -1.511   4.078  1.00  0.00     0.293 HD
ENDBRANCH   2   9
BRANCH   5  11
ATOM     11  C   UNL     1      -1.061   2.335   9.047  1.00  0.00     0.062 C 
BRANCH  11  12
ATOM     12  C   UNL     1       0.212   2.998   9.498  1.00  0.00    -0.030 C 
ATOM     13  C   UNL     1       0.953   3.734   8.666  1.00  0.00     0.004 C 
ENDBRANCH  11  12
ENDBRANCH   5  11
TORSDOF 4
ENDMDL
MODEL 7
REMARK VINA RESULT:    -3.393      3.075      3.899
REMARK INTER + INTRA:          -4.308
REMARK INTER:                  -4.075
REMARK INTRA:                  -0.233
REMARK UNBOUND:                -0.221
REMARK SMILES C=CCc1ccc(O)c(OC)c1
REMARK SMILES IDX 9 1 7 2 6 3 5 4 4 5 12 6 10 7 11 8 8 9 3 11 2 12 1 13
REMARK H PARENT 8 10
REMARK Flexibility Score: inf
ROOT
ATOM      1  C   UNL     1       0.788   3.830  -4.619  1.00  0.00     0.160 A 
ATOM      2  C   UNL     1      -0.098   2.837  -4.160  1.00  0.00     0.157 A 
ATOM      3  C   UNL     1       0.398   1.607  -3.718  1.00  0.00     0.050 A 
ATOM      4  C   UNL     1       1.770   1.353  -3.725  1.00  0.00     0.008 A 
ATOM      5  C   UNL     1       2.667   2.335  -4.168  1.00  0.00    -0.040 A 
ATOM      6  C   UNL     1       2.173   3.568  -4.622  1.00  0.00     0.054 A 
ENDROOT
BRANCH   1   7
ATOM      7  O   UNL     1       0.263   5.054  -5.063  1.00  0.00    -0.493 OA
ATOM      8  C   UNL     1       0.191   6.237  -4.273  1.00  0.00     0.278 C 
ENDBRANCH   1   7
BRANCH   2   9
ATOM      9  O   UNL     1      -1.476   3.055  -4.139  1.00  0.00    -0.504 OA
ATOM     10  H   UNL     1      -1.886   3.942  -4.404  1.00  0.00     0.293 HD
ENDBRANCH   2   9
BRANCH   5  11
ATOM     11  C   UNL     1       4.145   2.046  -4.202  1.00  0.00     0.062 C 
BRANCH  11  12
ATOM     12  C   UNL     1       4.490   0.923  -3.263  1.00  0.00    -0.030 C 
ATOM     13  C   UNL     1       5.136  -0.169  -3.681  1.00  0.00     0.004 C 
ENDBRANCH  11  12
ENDBRANCH   5  11
TORSDOF 4
ENDMDL
MODEL 8
REMARK VINA RESULT:    -3.379      3.890      5.892
REMARK INTER + INTRA:          -4.291
REMARK INTER:                  -4.090
REMARK INTRA:                  -0.200
REMARK UNBOUND:                -0.221
REMARK SMILES C=CCc1ccc(O)c(OC)c1
REMARK SMILES IDX 9 1 7 2 6 3 5 4 4 5 12 6 10 7 11 8 8 9 3 11 2 12 1 13
REMARK H PARENT 8 10
REMARK Flexibility Score: inf
ROOT
ATOM      1  C   UNL     1       3.542   2.837  -4.495  1.00  0.00     0.160 A 
ATOM      2  C   UNL     1       4.105   1.775  -3.763  1.00  0.00     0.157 A 
ATOM      3  C   UNL     1       3.279   0.792  -3.207  1.00  0.00     0.050 A 
ATOM      4  C   UNL     1       1.895   0.854  -3.373  1.00  0.00     0.008 A 
ATOM      5  C   UNL     1       1.319   1.898  -4.111  1.00  0.00    -0.040 A 
ATOM      6  C   UNL     1       2.144   2.892  -4.662  1.00  0.00     0.054 A 
ENDROOT
BRANCH   1   7
ATOM      7  O   UNL     1       4.394   3.812  -5.037  1.00  0.00    -0.493 OA
ATOM      8  C   UNL     1       4.495   5.151  -4.563  1.00  0.00     0.278 C 
ENDBRANCH   1   7
BRANCH   2   9
ATOM      9  O   UNL     1       5.484   1.680  -3.575  1.00  0.00    -0.504 OA
ATOM     10  H   UNL     1       5.973   2.231  -2.881  1.00  0.00     0.293 HD
ENDBRANCH   2   9
BRANCH   5  11
ATOM     11  C   UNL     1      -0.178   1.978  -4.263  1.00  0.00     0.062 C 
BRANCH  11  12
ATOM     12  C   UNL     1      -0.644   3.406  -4.199  1.00  0.00    -0.030 C 
ATOM     13  C   UNL     1      -1.891   3.753  -4.531  1.00  0.00     0.004 C 
ENDBRANCH  11  12
ENDBRANCH   5  11
TORSDOF 4
ENDMDL
MODEL 9
REMARK VINA RESULT:    -3.312      3.015      4.937
REMARK INTER + INTRA:          -4.210
REMARK INTER:                  -3.963
REMARK INTRA:                  -0.247
REMARK UNBOUND:                -0.221
REMARK SMILES C=CCc1ccc(O)c(OC)c1
REMARK SMILES IDX 9 1 7 2 6 3 5 4 4 5 12 6 10 7 11 8 8 9 3 11 2 12 1 13
REMARK H PARENT 8 10
REMARK Flexibility Score: inf
ROOT
ATOM      1  C   UNL     1       2.083   2.936  -5.263  1.00  0.00     0.160 A 
ATOM      2  C   UNL     1       1.960   2.178  -4.083  1.00  0.00     0.157 A 
ATOM      3  C   UNL     1       0.710   1.688  -3.693  1.00  0.00     0.050 A 
ATOM      4  C   UNL     1      -0.423   1.942  -4.468  1.00  0.00     0.008 A 
ATOM      5  C   UNL     1      -0.316   2.684  -5.653  1.00  0.00    -0.040 A 
ATOM      6  C   UNL     1       0.936   3.187  -6.042  1.00  0.00     0.054 A 
ENDROOT
BRANCH   1   7
ATOM      7  O   UNL     1       3.349   3.420  -5.627  1.00  0.00    -0.493 OA
ATOM      8  C   UNL     1       3.816   4.740  -5.365  1.00  0.00     0.278 C 
ENDBRANCH   1   7
BRANCH   2   9
ATOM      9  O   UNL     1       3.070   1.905  -3.283  1.00  0.00    -0.504 OA
ATOM     10  H   UNL     1       3.144   2.240  -2.331  1.00  0.00     0.293 HD
ENDBRANCH   2   9
BRANCH   5  11
ATOM     11  C   UNL     1      -1.545   2.981  -6.470  1.00  0.00     0.062 C 
BRANCH  11  12
ATOM     12  C   UNL     1      -2.717   3.285  -5.578  1.00  0.00    -0.030 C 
ATOM     13  C   UNL     1      -2.879   4.486  -5.016  1.00  0.00     0.004 C 
ENDBRANCH  11  12
ENDBRANCH   5  11
TORSDOF 4
ENDMDL
