MODEL 1
REMARK VINA RESULT:    -5.164      0.000      0.000
REMARK INTER + INTRA:          -5.315
REMARK INTER:                  -5.315
REMARK INTRA:                   0.000
REMARK UNBOUND:                 0.000
REMARK SMILES O=c1ccc2ccc(O)cc2o1
REMARK SMILES IDX 6 1 7 2 8 3 10 4 11 5 5 6 4 7 3 8 2 9 1 10 12 11 9 12
REMARK H PARENT 9 13
REMARK Flexibility Score: inf
ROOT
ATOM      1  C   UNL     1      49.954 105.617  52.342  1.00  0.00     0.016 A 
ATOM      2  C   UNL     1      49.271 104.470  51.923  1.00  0.00     0.047 A 
ATOM      3  C   UNL     1      47.878 104.396  52.032  1.00  0.00     0.119 A 
ATOM      4  C   UNL     1      47.159 105.476  52.565  1.00  0.00     0.094 A 
ATOM      5  C   UNL     1      47.833 106.628  52.988  1.00  0.00     0.142 A 
ATOM      6  C   UNL     1      49.238 106.699  52.875  1.00  0.00     0.018 A 
ATOM      7  C   UNL     1      49.884 107.863  53.305  1.00  0.00     0.019 A 
ATOM      8  C   UNL     1      49.127 108.911  53.828  1.00  0.00     0.094 A 
ATOM      9  C   UNL     1      47.737 108.769  53.909  1.00  0.00     0.336 A 
ATOM     10  O   UNL     1      47.037 109.705  54.378  1.00  0.00    -0.246 OA
ATOM     11  O   UNL     1      47.149 107.651  53.493  1.00  0.00    -0.423 OA
ENDROOT
BRANCH   3  12
ATOM     12  O   UNL     1      47.216 103.244  51.610  1.00  0.00    -0.508 OA
ATOM     13  H   UNL     1      46.977 102.503  52.257  1.00  0.00     0.293 HD
ENDBRANCH   3  12
TORSDOF 1
ENDMDL
MODEL 2
REMARK VINA RESULT:    -5.066      9.457     10.356
REMARK INTER + INTRA:          -5.214
REMARK INTER:                  -5.214
REMARK INTRA:                   0.000
REMARK UNBOUND:                 0.000
REMARK SMILES O=c1ccc2ccc(O)cc2o1
REMARK SMILES IDX 6 1 7 2 8 3 10 4 11 5 5 6 4 7 3 8 2 9 1 10 12 11 9 12
REMARK H PARENT 9 13
REMARK Flexibility Score: inf
ROOT
ATOM      1  C   UNL     1      53.403 113.123  45.145  1.00  0.00     0.016 A 
ATOM      2  C   UNL     1      54.506 112.768  45.930  1.00  0.00     0.047 A 
ATOM      3  C   UNL     1      54.386 112.680  47.321  1.00  0.00     0.119 A 
ATOM      4  C   UNL     1      53.153 112.947  47.936  1.00  0.00     0.094 A 
ATOM      5  C   UNL     1      52.044 113.303  47.160  1.00  0.00     0.142 A 
ATOM      6  C   UNL     1      52.169 113.391  45.756  1.00  0.00     0.018 A 
ATOM      7  C   UNL     1      51.043 113.748  45.007  1.00  0.00     0.019 A 
ATOM      8  C   UNL     1      49.839 114.004  45.663  1.00  0.00     0.094 A 
ATOM      9  C   UNL     1      49.790 113.898  47.057  1.00  0.00     0.336 A 
ATOM     10  O   UNL     1      48.712 114.125  47.667  1.00  0.00    -0.246 OA
ATOM     11  O   UNL     1      50.877 113.556  47.746  1.00  0.00    -0.423 OA
ENDROOT
BRANCH   3  12
ATOM     12  O   UNL     1      55.496 112.326  48.085  1.00  0.00    -0.508 OA
ATOM     13  H   UNL     1      55.417 111.696  48.875  1.00  0.00     0.293 HD
ENDBRANCH   3  12
TORSDOF 1
ENDMDL
MODEL 3
REMARK VINA RESULT:    -4.948     10.628     11.818
REMARK INTER + INTRA:          -5.093
REMARK INTER:                  -5.093
REMARK INTRA:                   0.000
REMARK UNBOUND:                 0.000
REMARK SMILES O=c1ccc2ccc(O)cc2o1
REMARK SMILES IDX 6 1 7 2 8 3 10 4 11 5 5 6 4 7 3 8 2 9 1 10 12 11 9 12
REMARK H PARENT 9 13
REMARK Flexibility Score: inf
ROOT
ATOM      1  C   UNL     1      53.782 111.239  47.062  1.00  0.00     0.016 A 
ATOM      2  C   UNL     1      53.310 111.994  48.141  1.00  0.00     0.047 A 
ATOM      3  C   UNL     1      53.407 113.391  48.124  1.00  0.00     0.119 A 
ATOM      4  C   UNL     1      53.981 114.039  47.020  1.00  0.00     0.094 A 
ATOM      5  C   UNL     1      54.457 113.292  45.936  1.00  0.00     0.142 A 
ATOM      6  C   UNL     1      54.356 111.884  45.957  1.00  0.00     0.018 A 
ATOM      7  C   UNL     1      54.840 111.165  44.859  1.00  0.00     0.019 A 
ATOM      8  C   UNL     1      55.402 111.853  43.784  1.00  0.00     0.094 A 
ATOM      9  C   UNL     1      55.468 113.250  43.834  1.00  0.00     0.336 A 
ATOM     10  O   UNL     1      55.972 113.889  42.873  1.00  0.00    -0.246 OA
ATOM     11  O   UNL     1      55.000 113.910  44.891  1.00  0.00    -0.423 OA
ENDROOT
BRANCH   3  12
ATOM     12  O   UNL     1      52.931 114.125  49.208  1.00  0.00    -0.508 OA
ATOM     13  H   UNL     1      53.129 115.114  49.306  1.00  0.00     0.293 HD
ENDBRANCH   3  12
TORSDOF 1
ENDMDL
MODEL 4
REMARK VINA RESULT:    -4.829      9.564     10.676
REMARK INTER + INTRA:          -4.970
REMARK INTER:                  -4.970
REMARK INTRA:                   0.000
REMARK UNBOUND:                 0.000
REMARK SMILES O=c1ccc2ccc(O)cc2o1
REMARK SMILES IDX 6 1 7 2 8 3 10 4 11 5 5 6 4 7 3 8 2 9 1 10 12 11 9 12
REMARK H PARENT 9 13
REMARK Flexibility Score: inf
ROOT
ATOM      1  C   UNL     1      51.179 113.759  44.750  1.00  0.00     0.016 A 
ATOM      2  C   UNL     1      49.876 113.944  45.223  1.00  0.00     0.047 A 
ATOM      3  C   UNL     1      49.614 113.940  46.599  1.00  0.00     0.119 A 
ATOM      4  C   UNL     1      50.664 113.750  47.510  1.00  0.00     0.094 A 
ATOM      5  C   UNL     1      51.971 113.564  47.047  1.00  0.00     0.142 A 
ATOM      6  C   UNL     1      52.231 113.569  45.659  1.00  0.00     0.018 A 
ATOM      7  C   UNL     1      53.547 113.382  45.226  1.00  0.00     0.019 A 
ATOM      8  C   UNL     1      54.558 113.197  46.169  1.00  0.00     0.094 A 
ATOM      9  C   UNL     1      54.226 113.204  47.528  1.00  0.00     0.336 A 
ATOM     10  O   UNL     1      55.124 113.039  48.395  1.00  0.00    -0.246 OA
ATOM     11  O   UNL     1      52.964 113.385  47.913  1.00  0.00    -0.423 OA
ENDROOT
BRANCH   3  12
ATOM     12  O   UNL     1      48.309 114.125  47.050  1.00  0.00    -0.508 OA
ATOM     13  H   UNL     1      47.993 115.020  47.404  1.00  0.00     0.293 HD
ENDBRANCH   3  12
TORSDOF 1
ENDMDL
MODEL 5
REMARK VINA RESULT:    -4.561      1.503      4.725
REMARK INTER + INTRA:          -4.694
REMARK INTER:                  -4.694
REMARK INTRA:                   0.000
REMARK UNBOUND:                 0.000
REMARK SMILES O=c1ccc2ccc(O)cc2o1
REMARK SMILES IDX 6 1 7 2 8 3 10 4 11 5 5 6 4 7 3 8 2 9 1 10 12 11 9 12
REMARK H PARENT 9 13
REMARK Flexibility Score: inf
ROOT
ATOM      1  C   UNL     1      46.430 107.456  53.423  1.00  0.00     0.016 A 
ATOM      2  C   UNL     1      46.881 108.686  53.915  1.00  0.00     0.047 A 
ATOM      3  C   UNL     1      48.250 108.977  53.945  1.00  0.00     0.119 A 
ATOM      4  C   UNL     1      49.177 108.033  53.479  1.00  0.00     0.094 A 
ATOM      5  C   UNL     1      48.736 106.800  52.985  1.00  0.00     0.142 A 
ATOM      6  C   UNL     1      47.354 106.510  52.957  1.00  0.00     0.018 A 
ATOM      7  C   UNL     1      46.943 105.270  52.458  1.00  0.00     0.019 A 
ATOM      8  C   UNL     1      47.901 104.363  52.005  1.00  0.00     0.094 A 
ATOM      9  C   UNL     1      49.253 104.720  52.064  1.00  0.00     0.336 A 
ATOM     10  O   UNL     1      50.133 103.915  51.660  1.00  0.00    -0.246 OA
ATOM     11  O   UNL     1      49.617 105.906  52.544  1.00  0.00    -0.423 OA
ENDROOT
BRANCH   3  12
ATOM     12  O   UNL     1      48.679 110.207  54.439  1.00  0.00    -0.508 OA
ATOM     13  H   UNL     1      49.439 110.274  55.106  1.00  0.00     0.293 HD
ENDBRANCH   3  12
TORSDOF 1
ENDMDL
MODEL 6
REMARK VINA RESULT:    -4.557     10.259     11.620
REMARK INTER + INTRA:          -4.690
REMARK INTER:                  -4.690
REMARK INTRA:                   0.000
REMARK UNBOUND:                 0.000
REMARK SMILES O=c1ccc2ccc(O)cc2o1
REMARK SMILES IDX 6 1 7 2 8 3 10 4 11 5 5 6 4 7 3 8 2 9 1 10 12 11 9 12
REMARK H PARENT 9 13
REMARK Flexibility Score: inf
ROOT
ATOM      1  C   UNL     1      56.099 113.837  46.398  1.00  0.00     0.016 A 
ATOM      2  C   UNL     1      55.914 114.125  47.755  1.00  0.00     0.047 A 
ATOM      3  C   UNL     1      55.113 113.299  48.552  1.00  0.00     0.119 A 
ATOM      4  C   UNL     1      54.490 112.175  47.989  1.00  0.00     0.094 A 
ATOM      5  C   UNL     1      54.669 111.878  46.633  1.00  0.00     0.142 A 
ATOM      6  C   UNL     1      55.478 112.714  45.833  1.00  0.00     0.018 A 
ATOM      7  C   UNL     1      55.637 112.392  44.481  1.00  0.00     0.019 A 
ATOM      8  C   UNL     1      54.998 111.264  43.967  1.00  0.00     0.094 A 
ATOM      9  C   UNL     1      54.211 110.483  44.820  1.00  0.00     0.336 A 
ATOM     10  O   UNL     1      53.627 109.460  44.374  1.00  0.00    -0.246 OA
ATOM     11  O   UNL     1      54.077 110.812  46.102  1.00  0.00    -0.423 OA
ENDROOT
BRANCH   3  12
ATOM     12  O   UNL     1      54.942 113.603  49.901  1.00  0.00    -0.508 OA
ATOM     13  H   UNL     1      54.049 113.914  50.264  1.00  0.00     0.293 HD
ENDBRANCH   3  12
TORSDOF 1
ENDMDL
MODEL 7
REMARK VINA RESULT:    -4.530      1.536      2.395
REMARK INTER + INTRA:          -4.662
REMARK INTER:                  -4.662
REMARK INTRA:                   0.000
REMARK UNBOUND:                 0.000
REMARK SMILES O=c1ccc2ccc(O)cc2o1
REMARK SMILES IDX 6 1 7 2 8 3 10 4 11 5 5 6 4 7 3 8 2 9 1 10 12 11 9 12
REMARK H PARENT 9 13
REMARK Flexibility Score: inf
ROOT
ATOM      1  C   UNL     1      47.196 104.851  52.340  1.00  0.00     0.016 A 
ATOM      2  C   UNL     1      48.319 104.469  51.598  1.00  0.00     0.047 A 
ATOM      3  C   UNL     1      49.466 105.271  51.585  1.00  0.00     0.119 A 
ATOM      4  C   UNL     1      49.492 106.466  52.320  1.00  0.00     0.094 A 
ATOM      5  C   UNL     1      48.374 106.857  53.065  1.00  0.00     0.142 A 
ATOM      6  C   UNL     1      47.219 106.045  53.076  1.00  0.00     0.018 A 
ATOM      7  C   UNL     1      46.117 106.462  53.829  1.00  0.00     0.019 A 
ATOM      8  C   UNL     1      46.191 107.657  54.544  1.00  0.00     0.094 A 
ATOM      9  C   UNL     1      47.368 108.411  54.486  1.00  0.00     0.336 A 
ATOM     10  O   UNL     1      47.454 109.493  55.124  1.00  0.00    -0.246 OA
ATOM     11  O   UNL     1      48.402 107.991  53.760  1.00  0.00    -0.423 OA
ENDROOT
BRANCH   3  12
ATOM     12  O   UNL     1      50.573 104.873  50.840  1.00  0.00    -0.508 OA
ATOM     13  H   UNL     1      50.628 103.951  50.423  1.00  0.00     0.293 HD
ENDBRANCH   3  12
TORSDOF 1
ENDMDL
MODEL 8
REMARK VINA RESULT:    -4.514      1.660      2.410
REMARK INTER + INTRA:          -4.646
REMARK INTER:                  -4.646
REMARK INTRA:                   0.000
REMARK UNBOUND:                 0.000
REMARK SMILES O=c1ccc2ccc(O)cc2o1
REMARK SMILES IDX 6 1 7 2 8 3 10 4 11 5 5 6 4 7 3 8 2 9 1 10 12 11 9 12
REMARK H PARENT 9 13
REMARK Flexibility Score: inf
ROOT
ATOM      1  C   UNL     1      46.511 106.652  53.289  1.00  0.00     0.016 A 
ATOM      2  C   UNL     1      46.516 105.404  52.656  1.00  0.00     0.047 A 
ATOM      3  C   UNL     1      47.717 104.843  52.206  1.00  0.00     0.119 A 
ATOM      4  C   UNL     1      48.924 105.534  52.389  1.00  0.00     0.094 A 
ATOM      5  C   UNL     1      48.929 106.783  53.021  1.00  0.00     0.142 A 
ATOM      6  C   UNL     1      47.716 107.345  53.474  1.00  0.00     0.018 A 
ATOM      7  C   UNL     1      47.752 108.595  54.101  1.00  0.00     0.019 A 
ATOM      8  C   UNL     1      48.977 109.244  54.261  1.00  0.00     0.094 A 
ATOM      9  C   UNL     1      50.139 108.626  53.787  1.00  0.00     0.336 A 
ATOM     10  O   UNL     1      51.253 109.196  53.922  1.00  0.00    -0.246 OA
ATOM     11  O   UNL     1      50.075 107.436  53.193  1.00  0.00    -0.423 OA
ENDROOT
BRANCH   3  12
ATOM     12  O   UNL     1      47.701 103.599  51.578  1.00  0.00    -0.508 OA
ATOM     13  H   UNL     1      48.340 102.861  51.848  1.00  0.00     0.293 HD
ENDBRANCH   3  12
TORSDOF 1
ENDMDL
