MODEL 1
REMARK VINA RESULT:    -5.248      0.000      0.000
REMARK INTER + INTRA:          -8.227
REMARK INTER:                  -8.009
REMARK INTRA:                  -0.218
REMARK UNBOUND:                -0.218
REMARK SMILES CC1=CCC[C@H](C)C(=O)C[C@@H](C(C)C)C(=O)C1
REMARK SMILES IDX 8 1 9 2 6 3 7 4 5 5 4 6 3 7 2 8 1 9 10 11 11 12 15 13 16 14
REMARK SMILES IDX 17 15 12 17 13 18 14 19
REMARK H PARENT
REMARK Flexibility Score: 70.00
ROOT
ATOM      1  C   UNL     1      26.290  57.055 140.185  1.00  0.00     0.136 C 
ATOM      2  O   UNL     1      25.119  56.707 140.252  1.00  0.00    -0.299 OA
ENDROOT
BRANCH   1   3
ATOM      3  C   UNL     1      26.776  57.810 138.961  1.00  0.00     0.053 C 
ATOM      4  C   UNL     1      26.211  57.176 137.682  1.00  0.00     0.016 C 
BRANCH   3   5
ATOM      5  C   UNL     1      26.387  59.303 139.055  1.00  0.00     0.015 C 
BRANCH   5   6
ATOM      6  C   UNL     1      27.628  60.216 139.036  1.00  0.00     0.028 C 
BRANCH   6   7
ATOM      7  C   UNL     1      28.927  59.451 138.962  1.00  0.00    -0.028 C 
ATOM      8  C   UNL     1      29.670  59.059 140.027  1.00  0.00    -0.070 CG0
ATOM      9  C   UNL     1      30.891  58.215 139.756  1.00  0.00     0.039 C 
ATOM     10  G   UNL     1      29.364  59.464 141.464  1.00  0.00     0.000 G0
ENDBRANCH   6   7
ENDBRANCH   5   6
ENDBRANCH   3   5
ENDBRANCH   1   3
BRANCH   1  11
ATOM     11  C   UNL     1      27.226  56.706 141.320  1.00  0.00     0.087 C 
BRANCH  11  12
ATOM     12  C   UNL     1      27.429  57.893 142.299  1.00  0.00     0.066 C 
BRANCH  12  13
ATOM     13  C   UNL     1      28.889  58.324 142.347  1.00  0.00     0.140 C 
ATOM     14  O   UNL     1      29.666  57.792 143.128  1.00  0.00    -0.299 OA
BRANCH  13  15
ATOM     15  C   UNL     1      29.370  59.455 141.472  1.00  0.00     0.106 CG0
ATOM     16  G   UNL     1      29.656  59.045 140.032  1.00  0.00     0.000 G0
ENDBRANCH  13  15
ENDBRANCH  12  13
BRANCH  12  17
ATOM     17  C   UNL     1      26.854  57.627 143.729  1.00  0.00    -0.006 C 
ATOM     18  C   UNL     1      26.434  58.936 144.420  1.00  0.00     0.008 C 
ATOM     19  C   UNL     1      25.681  56.629 143.753  1.00  0.00     0.008 C 
ENDBRANCH  12  17
ENDBRANCH  11  12
ENDBRANCH   1  11
TORSDOF 1
ENDMDL
MODEL 2
REMARK VINA RESULT:    -5.209      1.671      4.034
REMARK INTER + INTRA:          -8.168
REMARK INTER:                  -7.826
REMARK INTRA:                  -0.342
REMARK UNBOUND:                -0.218
REMARK SMILES CC1=CCC[C@H](C)C(=O)C[C@@H](C(C)C)C(=O)C1
REMARK SMILES IDX 8 1 9 2 6 3 7 4 5 5 4 6 3 7 2 8 1 9 10 11 11 12 15 13 16 14
REMARK SMILES IDX 17 15 12 17 13 18 14 19
REMARK H PARENT
REMARK Flexibility Score: 70.00
ROOT
ATOM      1  C   UNL     1      26.424  57.166 142.274  1.00  0.00     0.136 C 
ATOM      2  O   UNL     1      26.138  56.290 143.079  1.00  0.00    -0.299 OA
ENDROOT
BRANCH   1   3
ATOM      3  C   UNL     1      27.340  58.299 142.700  1.00  0.00     0.053 C 
ATOM      4  C   UNL     1      26.823  58.948 143.992  1.00  0.00     0.016 C 
BRANCH   3   5
ATOM      5  C   UNL     1      28.788  57.788 142.880  1.00  0.00     0.015 C 
BRANCH   5   6
ATOM      6  C   UNL     1      29.643  58.052 141.625  1.00  0.00     0.028 C 
BRANCH   6   7
ATOM      7  C   UNL     1      29.298  59.347 140.932  1.00  0.00    -0.028 C 
ATOM      8  C   UNL     1      28.768  59.456 139.687  1.00  0.00    -0.070 CG0
ATOM      9  C   UNL     1      28.398  60.836 139.203  1.00  0.00     0.039 C 
ATOM     10  G   UNL     1      28.576  58.273 138.746  1.00  0.00     0.000 G0
ENDBRANCH   6   7
ENDBRANCH   5   6
ENDBRANCH   3   5
ENDBRANCH   1   3
BRANCH   1  11
ATOM     11  C   UNL     1      25.843  57.102 140.880  1.00  0.00     0.087 C 
BRANCH  11  12
ATOM     12  C   UNL     1      26.871  56.588 139.837  1.00  0.00     0.066 C 
BRANCH  12  13
ATOM     13  C   UNL     1      27.181  57.656 138.798  1.00  0.00     0.140 C 
ATOM     14  O   UNL     1      26.334  57.988 137.980  1.00  0.00    -0.299 OA
BRANCH  13  15
ATOM     15  C   UNL     1      28.559  58.268 138.733  1.00  0.00     0.106 CG0
ATOM     16  G   UNL     1      28.762  59.439 139.687  1.00  0.00     0.000 G0
ENDBRANCH  13  15
ENDBRANCH  12  13
BRANCH  12  17
ATOM     17  C   UNL     1      26.462  55.232 139.175  1.00  0.00    -0.006 C 
ATOM     18  C   UNL     1      27.554  54.164 139.357  1.00  0.00     0.008 C 
ATOM     19  C   UNL     1      25.110  54.681 139.666  1.00  0.00     0.008 C 
ENDBRANCH  12  17
ENDBRANCH  11  12
ENDBRANCH   1  11
TORSDOF 1
ENDMDL
MODEL 3
REMARK VINA RESULT:    -5.123      1.944      3.903
REMARK INTER + INTRA:          -8.037
REMARK INTER:                  -7.872
REMARK INTRA:                  -0.165
REMARK UNBOUND:                -0.218
REMARK SMILES CC1=CCC[C@H](C)C(=O)C[C@@H](C(C)C)C(=O)C1
REMARK SMILES IDX 8 1 9 2 6 3 7 4 5 5 4 6 3 7 2 8 1 9 10 11 11 12 15 13 16 14
REMARK SMILES IDX 17 15 12 17 13 18 14 19
REMARK H PARENT
REMARK Flexibility Score: 70.00
ROOT
ATOM      1  C   UNL     1      27.409  57.762 142.351  1.00  0.00     0.136 C 
ATOM      2  O   UNL     1      26.996  58.816 142.817  1.00  0.00    -0.299 OA
ENDROOT
BRANCH   1   3
ATOM      3  C   UNL     1      26.452  56.597 142.176  1.00  0.00     0.053 C 
ATOM      4  C   UNL     1      25.779  56.253 143.512  1.00  0.00     0.016 C 
BRANCH   3   5
ATOM      5  C   UNL     1      25.398  56.920 141.093  1.00  0.00     0.015 C 
BRANCH   5   6
ATOM      6  C   UNL     1      25.844  56.427 139.702  1.00  0.00     0.028 C 
BRANCH   6   7
ATOM      7  C   UNL     1      26.251  57.547 138.777  1.00  0.00    -0.028 C 
ATOM      8  C   UNL     1      27.508  57.772 138.320  1.00  0.00    -0.070 CG0
ATOM      9  C   UNL     1      27.700  58.886 137.321  1.00  0.00     0.039 C 
ATOM     10  G   UNL     1      28.730  56.995 138.795  1.00  0.00     0.000 G0
ENDBRANCH   6   7
ENDBRANCH   5   6
ENDBRANCH   3   5
ENDBRANCH   1   3
BRANCH   1  11
ATOM     11  C   UNL     1      28.870  57.648 141.978  1.00  0.00     0.087 C 
BRANCH  11  12
ATOM     12  C   UNL     1      29.253  58.588 140.804  1.00  0.00     0.066 C 
BRANCH  12  13
ATOM     13  C   UNL     1      29.724  57.793 139.594  1.00  0.00     0.140 C 
ATOM     14  O   UNL     1      30.893  57.842 139.238  1.00  0.00    -0.299 OA
BRANCH  13  15
ATOM     15  C   UNL     1      28.734  56.987 138.789  1.00  0.00     0.106 CG0
ATOM     16  G   UNL     1      27.519  57.782 138.328  1.00  0.00     0.000 G0
ENDBRANCH  13  15
ENDBRANCH  12  13
BRANCH  12  17
ATOM     17  C   UNL     1      30.276  59.700 141.205  1.00  0.00    -0.006 C 
ATOM     18  C   UNL     1      29.567  61.023 141.543  1.00  0.00     0.008 C 
ATOM     19  C   UNL     1      31.209  59.301 142.363  1.00  0.00     0.008 C 
ENDBRANCH  12  17
ENDBRANCH  11  12
ENDBRANCH   1  11
TORSDOF 1
ENDMDL
MODEL 4
REMARK VINA RESULT:    -4.981      1.674      3.713
REMARK INTER + INTRA:          -7.820
REMARK INTER:                  -8.445
REMARK INTRA:                   0.625
REMARK UNBOUND:                -0.218
REMARK SMILES CC1=CCC[C@H](C)C(=O)C[C@@H](C(C)C)C(=O)C1
REMARK SMILES IDX 8 1 9 2 6 3 7 4 5 5 4 6 3 7 2 8 1 9 10 11 11 12 15 13 16 14
REMARK SMILES IDX 17 15 12 17 13 18 14 19
REMARK H PARENT
REMARK Flexibility Score: 70.00
ROOT
ATOM      1  C   UNL     1      26.835  55.897 139.625  1.00  0.00     0.136 C 
ATOM      2  O   UNL     1      26.374  54.948 139.007  1.00  0.00    -0.299 OA
ENDROOT
BRANCH   1   3
ATOM      3  C   UNL     1      25.893  56.926 140.225  1.00  0.00     0.053 C 
ATOM      4  C   UNL     1      24.592  56.997 139.413  1.00  0.00     0.016 C 
BRANCH   3   5
ATOM      5  C   UNL     1      25.603  56.595 141.706  1.00  0.00     0.015 C 
BRANCH   5   6
ATOM      6  C   UNL     1      26.769  57.016 142.621  1.00  0.00     0.028 C 
BRANCH   6   7
ATOM      7  C   UNL     1      27.120  58.479 142.503  1.00  0.00    -0.028 C 
ATOM      8  C   UNL     1      28.256  58.973 141.951  1.00  0.00    -0.070 CG0
ATOM      9  C   UNL     1      28.382  60.472 141.833  1.00  0.00     0.039 C 
ATOM     10  G   UNL     1      29.419  58.102 141.491  1.00  0.00     0.000 G0
ENDBRANCH   6   7
ENDBRANCH   5   6
ENDBRANCH   3   5
ENDBRANCH   1   3
BRANCH   1  11
ATOM     11  C   UNL     1      28.335  56.027 139.759  1.00  0.00     0.087 C 
BRANCH  11  12
ATOM     12  C   UNL     1      28.881  57.299 139.057  1.00  0.00     0.066 C 
BRANCH  12  13
ATOM     13  C   UNL     1      29.713  58.142 140.012  1.00  0.00     0.140 C 
ATOM     14  O   UNL     1      30.641  58.820 139.593  1.00  0.00    -0.299 OA
BRANCH  13  15
ATOM     15  C   UNL     1      29.436  58.097 141.495  1.00  0.00     0.106 CG0
ATOM     16  G   UNL     1      28.261  58.964 141.931  1.00  0.00     0.000 G0
ENDBRANCH  13  15
ENDBRANCH  12  13
BRANCH  12  17
ATOM     17  C   UNL     1      27.771  58.145 138.350  1.00  0.00    -0.006 C 
ATOM     18  C   UNL     1      28.091  59.649 138.402  1.00  0.00     0.008 C 
ATOM     19  C   UNL     1      27.496  57.723 136.895  1.00  0.00     0.008 C 
ENDBRANCH  12  17
ENDBRANCH  11  12
ENDBRANCH   1  11
TORSDOF 1
ENDMDL
MODEL 5
REMARK VINA RESULT:    -4.853      1.750      3.354
REMARK INTER + INTRA:          -7.624
REMARK INTER:                  -7.321
REMARK INTRA:                  -0.304
REMARK UNBOUND:                -0.218
REMARK SMILES CC1=CCC[C@H](C)C(=O)C[C@@H](C(C)C)C(=O)C1
REMARK SMILES IDX 8 1 9 2 6 3 7 4 5 5 4 6 3 7 2 8 1 9 10 11 11 12 15 13 16 14
REMARK SMILES IDX 17 15 12 17 13 18 14 19
REMARK H PARENT
REMARK Flexibility Score: 70.00
ROOT
ATOM      1  C   UNL     1      27.163  57.994 138.205  1.00  0.00     0.136 C 
ATOM      2  O   UNL     1      26.604  57.647 137.174  1.00  0.00    -0.299 OA
ENDROOT
BRANCH   1   3
ATOM      3  C   UNL     1      27.784  59.376 138.290  1.00  0.00     0.053 C 
ATOM      4  C   UNL     1      26.841  60.342 139.022  1.00  0.00     0.016 C 
BRANCH   3   5
ATOM      5  C   UNL     1      29.160  59.311 138.990  1.00  0.00     0.015 C 
BRANCH   5   6
ATOM      6  C   UNL     1      29.136  60.022 140.357  1.00  0.00     0.028 C 
BRANCH   6   7
ATOM      7  C   UNL     1      29.470  59.106 141.509  1.00  0.00    -0.028 C 
ATOM      8  C   UNL     1      28.569  58.412 142.249  1.00  0.00    -0.070 CG0
ATOM      9  C   UNL     1      29.103  57.469 143.298  1.00  0.00     0.039 C 
ATOM     10  G   UNL     1      27.060  58.571 142.107  1.00  0.00     0.000 G0
ENDBRANCH   6   7
ENDBRANCH   5   6
ENDBRANCH   3   5
ENDBRANCH   1   3
BRANCH   1  11
ATOM     11  C   UNL     1      27.233  57.024 139.364  1.00  0.00     0.087 C 
BRANCH  11  12
ATOM     12  C   UNL     1      25.960  57.075 140.250  1.00  0.00     0.066 C 
BRANCH  12  13
ATOM     13  C   UNL     1      26.316  57.314 141.711  1.00  0.00     0.140 C 
ATOM     14  O   UNL     1      25.972  56.515 142.571  1.00  0.00    -0.299 OA
BRANCH  13  15
ATOM     15  C   UNL     1      27.043  58.575 142.114  1.00  0.00     0.106 CG0
ATOM     16  G   UNL     1      28.550  58.401 142.254  1.00  0.00     0.000 G0
ENDBRANCH  13  15
ENDBRANCH  12  13
BRANCH  12  17
ATOM     17  C   UNL     1      25.028  55.832 140.074  1.00  0.00    -0.006 C 
ATOM     18  C   UNL     1      23.703  56.213 139.391  1.00  0.00     0.008 C 
ATOM     19  C   UNL     1      25.684  54.663 139.317  1.00  0.00     0.008 C 
ENDBRANCH  12  17
ENDBRANCH  11  12
ENDBRANCH   1  11
TORSDOF 1
ENDMDL
MODEL 6
REMARK VINA RESULT:    -4.773      2.168      4.264
REMARK INTER + INTRA:          -7.503
REMARK INTER:                  -7.450
REMARK INTRA:                  -0.054
REMARK UNBOUND:                -0.218
REMARK SMILES CC1=CCC[C@H](C)C(=O)C[C@@H](C(C)C)C(=O)C1
REMARK SMILES IDX 8 1 9 2 6 3 7 4 5 5 4 6 3 7 2 8 1 9 10 11 11 12 15 13 16 14
REMARK SMILES IDX 17 15 12 17 13 18 14 19
REMARK H PARENT
REMARK Flexibility Score: 70.00
ROOT
ATOM      1  C   UNL     1      28.033  59.412 138.542  1.00  0.00     0.136 C 
ATOM      2  O   UNL     1      28.668  60.141 137.793  1.00  0.00    -0.299 OA
ENDROOT
BRANCH   1   3
ATOM      3  C   UNL     1      26.854  58.626 137.997  1.00  0.00     0.053 C 
ATOM      4  C   UNL     1      27.297  57.213 137.589  1.00  0.00     0.016 C 
BRANCH   3   5
ATOM      5  C   UNL     1      25.713  58.567 139.038  1.00  0.00     0.015 C 
BRANCH   5   6
ATOM      6  C   UNL     1      25.217  57.125 139.257  1.00  0.00     0.028 C 
BRANCH   6   7
ATOM      7  C   UNL     1      24.953  56.800 140.706  1.00  0.00    -0.028 C 
ATOM      8  C   UNL     1      25.893  56.433 141.613  1.00  0.00    -0.070 CG0
ATOM      9  C   UNL     1      25.449  56.245 143.043  1.00  0.00     0.039 C 
ATOM     10  G   UNL     1      27.348  56.157 141.256  1.00  0.00     0.000 G0
ENDBRANCH   6   7
ENDBRANCH   5   6
ENDBRANCH   3   5
ENDBRANCH   1   3
BRANCH   1  11
ATOM     11  C   UNL     1      28.432  59.329 139.998  1.00  0.00     0.087 C 
BRANCH  11  12
ATOM     12  C   UNL     1      29.035  57.947 140.365  1.00  0.00     0.066 C 
BRANCH  12  13
ATOM     13  C   UNL     1      28.276  57.303 141.517  1.00  0.00     0.140 C 
ATOM     14  O   UNL     1      28.454  57.684 142.665  1.00  0.00    -0.299 OA
BRANCH  13  15
ATOM     15  C   UNL     1      27.342  56.147 141.253  1.00  0.00     0.106 CG0
ATOM     16  G   UNL     1      25.891  56.426 141.623  1.00  0.00     0.000 G0
ENDBRANCH  13  15
ENDBRANCH  12  13
BRANCH  12  17
ATOM     17  C   UNL     1      30.575  57.990 140.634  1.00  0.00    -0.006 C 
ATOM     18  C   UNL     1      31.379  57.787 139.338  1.00  0.00     0.008 C 
ATOM     19  C   UNL     1      31.048  59.272 141.343  1.00  0.00     0.008 C 
ENDBRANCH  12  17
ENDBRANCH  11  12
ENDBRANCH   1  11
TORSDOF 1
ENDMDL
MODEL 7
REMARK VINA RESULT:    -4.563      1.799      4.113
REMARK INTER + INTRA:          -7.182
REMARK INTER:                  -7.622
REMARK INTRA:                   0.440
REMARK UNBOUND:                -0.218
REMARK SMILES CC1=CCC[C@H](C)C(=O)C[C@@H](C(C)C)C(=O)C1
REMARK SMILES IDX 8 1 9 2 6 3 7 4 5 5 4 6 3 7 2 8 1 9 10 11 11 12 15 13 16 14
REMARK SMILES IDX 17 15 12 17 13 18 14 19
REMARK H PARENT
REMARK Flexibility Score: 70.00
ROOT
ATOM      1  C   UNL     1      27.051  57.403 138.532  1.00  0.00     0.136 C 
ATOM      2  O   UNL     1      27.253  57.344 137.327  1.00  0.00    -0.299 OA
ENDROOT
BRANCH   1   3
ATOM      3  C   UNL     1      26.332  56.260 139.226  1.00  0.00     0.053 C 
ATOM      4  C   UNL     1      27.313  55.122 139.538  1.00  0.00     0.016 C 
BRANCH   3   5
ATOM      5  C   UNL     1      25.637  56.759 140.513  1.00  0.00     0.015 C 
BRANCH   5   6
ATOM      6  C   UNL     1      26.238  56.104 141.772  1.00  0.00     0.028 C 
BRANCH   6   7
ATOM      7  C   UNL     1      26.004  56.906 143.029  1.00  0.00    -0.028 C 
ATOM      8  C   UNL     1      26.844  57.846 143.530  1.00  0.00    -0.070 CG0
ATOM      9  C   UNL     1      26.389  58.614 144.745  1.00  0.00     0.039 C 
ATOM     10  G   UNL     1      28.230  58.127 142.961  1.00  0.00     0.000 G0
ENDBRANCH   6   7
ENDBRANCH   5   6
ENDBRANCH   3   5
ENDBRANCH   1   3
BRANCH   1  11
ATOM     11  C   UNL     1      27.512  58.625 139.294  1.00  0.00     0.087 C 
BRANCH  11  12
ATOM     12  C   UNL     1      28.574  58.280 140.372  1.00  0.00     0.066 C 
BRANCH  12  13
ATOM     13  C   UNL     1      28.247  58.947 141.701  1.00  0.00     0.140 C 
ATOM     14  O   UNL     1      28.038  60.151 141.754  1.00  0.00    -0.299 OA
BRANCH  13  15
ATOM     15  C   UNL     1      28.240  58.133 142.972  1.00  0.00     0.106 CG0
ATOM     16  G   UNL     1      26.846  57.859 143.523  1.00  0.00     0.000 G0
ENDBRANCH  13  15
ENDBRANCH  12  13
BRANCH  12  17
ATOM     17  C   UNL     1      30.041  58.575 139.918  1.00  0.00    -0.006 C 
ATOM     18  C   UNL     1      30.864  59.212 141.051  1.00  0.00     0.008 C 
ATOM     19  C   UNL     1      30.783  57.342 139.369  1.00  0.00     0.008 C 
ENDBRANCH  12  17
ENDBRANCH  11  12
ENDBRANCH   1  11
TORSDOF 1
ENDMDL
MODEL 8
REMARK VINA RESULT:    -4.563      2.106      5.016
REMARK INTER + INTRA:          -7.182
REMARK INTER:                  -7.582
REMARK INTRA:                   0.400
REMARK UNBOUND:                -0.218
REMARK SMILES CC1=CCC[C@H](C)C(=O)C[C@@H](C(C)C)C(=O)C1
REMARK SMILES IDX 8 1 9 2 6 3 7 4 5 5 4 6 3 7 2 8 1 9 10 11 11 12 15 13 16 14
REMARK SMILES IDX 17 15 12 17 13 18 14 19
REMARK H PARENT
REMARK Flexibility Score: 70.00
ROOT
ATOM      1  C   UNL     1      28.304  60.001 140.647  1.00  0.00     0.136 C 
ATOM      2  O   UNL     1      28.800  61.113 140.526  1.00  0.00    -0.299 OA
ENDROOT
BRANCH   1   3
ATOM      3  C   UNL     1      29.189  58.826 141.021  1.00  0.00     0.053 C 
ATOM      4  C   UNL     1      30.653  59.127 140.672  1.00  0.00     0.016 C 
BRANCH   3   5
ATOM      5  C   UNL     1      29.037  58.489 142.521  1.00  0.00     0.015 C 
BRANCH   5   6
ATOM      6  C   UNL     1      27.894  57.484 142.765  1.00  0.00     0.028 C 
BRANCH   6   7
ATOM      7  C   UNL     1      27.877  56.351 141.769  1.00  0.00    -0.028 C 
ATOM      8  C   UNL     1      27.004  56.223 140.738  1.00  0.00    -0.070 CG0
ATOM      9  C   UNL     1      27.208  55.070 139.788  1.00  0.00     0.039 C 
ATOM     10  G   UNL     1      25.812  57.148 140.522  1.00  0.00     0.000 G0
ENDBRANCH   6   7
ENDBRANCH   5   6
ENDBRANCH   3   5
ENDBRANCH   1   3
BRANCH   1  11
ATOM     11  C   UNL     1      26.822  59.828 140.404  1.00  0.00     0.087 C 
BRANCH  11  12
ATOM     12  C   UNL     1      26.524  59.182 139.024  1.00  0.00     0.066 C 
BRANCH  12  13
ATOM     13  C   UNL     1      25.804  57.850 139.184  1.00  0.00     0.140 C 
ATOM     14  O   UNL     1      25.185  57.365 138.247  1.00  0.00    -0.299 OA
BRANCH  13  15
ATOM     15  C   UNL     1      25.801  57.150 140.521  1.00  0.00     0.106 CG0
ATOM     16  G   UNL     1      26.997  56.233 140.742  1.00  0.00     0.000 G0
ENDBRANCH  13  15
ENDBRANCH  12  13
BRANCH  12  17
ATOM     17  C   UNL     1      27.787  59.055 138.110  1.00  0.00    -0.006 C 
ATOM     18  C   UNL     1      27.917  57.640 137.522  1.00  0.00     0.008 C 
ATOM     19  C   UNL     1      27.842  60.095 136.976  1.00  0.00     0.008 C 
ENDBRANCH  12  17
ENDBRANCH  11  12
ENDBRANCH   1  11
TORSDOF 1
ENDMDL
MODEL 9
REMARK VINA RESULT:    -4.472      2.398      3.882
REMARK INTER + INTRA:          -7.043
REMARK INTER:                  -7.097
REMARK INTRA:                   0.054
REMARK UNBOUND:                -0.218
REMARK SMILES CC1=CCC[C@H](C)C(=O)C[C@@H](C(C)C)C(=O)C1
REMARK SMILES IDX 8 1 9 2 6 3 7 4 5 5 4 6 3 7 2 8 1 9 10 11 11 12 15 13 16 14
REMARK SMILES IDX 17 15 12 17 13 18 14 19
REMARK H PARENT
REMARK Flexibility Score: 70.00
ROOT
ATOM      1  C   UNL     1      27.975  59.533 138.940  1.00  0.00     0.136 C 
ATOM      2  O   UNL     1      29.152  59.621 139.263  1.00  0.00    -0.299 OA
ENDROOT
BRANCH   1   3
ATOM      3  C   UNL     1      27.583  59.726 137.486  1.00  0.00     0.053 C 
ATOM      4  C   UNL     1      28.567  60.676 136.789  1.00  0.00     0.016 C 
BRANCH   3   5
ATOM      5  C   UNL     1      27.519  58.365 136.756  1.00  0.00     0.015 C 
BRANCH   5   6
ATOM      6  C   UNL     1      26.370  57.488 137.291  1.00  0.00     0.028 C 
BRANCH   6   7
ATOM      7  C   UNL     1      26.847  56.207 137.929  1.00  0.00    -0.028 C 
ATOM      8  C   UNL     1      26.487  55.759 139.158  1.00  0.00    -0.070 CG0
ATOM      9  C   UNL     1      26.992  54.403 139.583  1.00  0.00     0.039 C 
ATOM     10  G   UNL     1      25.646  56.568 140.138  1.00  0.00     0.000 G0
ENDBRANCH   6   7
ENDBRANCH   5   6
ENDBRANCH   3   5
ENDBRANCH   1   3
BRANCH   1  11
ATOM     11  C   UNL     1      26.941  59.248 140.005  1.00  0.00     0.087 C 
BRANCH  11  12
ATOM     12  C   UNL     1      27.450  58.231 141.062  1.00  0.00     0.066 C 
BRANCH  12  13
ATOM     13  C   UNL     1      26.423  57.134 141.310  1.00  0.00     0.140 C 
ATOM     14  O   UNL     1      26.263  56.678 142.433  1.00  0.00    -0.299 OA
BRANCH  13  15
ATOM     15  C   UNL     1      25.640  56.560 140.154  1.00  0.00     0.106 CG0
ATOM     16  G   UNL     1      26.484  55.756 139.173  1.00  0.00     0.000 G0
ENDBRANCH  13  15
ENDBRANCH  12  13
BRANCH  12  17
ATOM     17  C   UNL     1      27.920  58.901 142.395  1.00  0.00    -0.006 C 
ATOM     18  C   UNL     1      29.393  58.579 142.698  1.00  0.00     0.008 C 
ATOM     19  C   UNL     1      27.702  60.424 142.438  1.00  0.00     0.008 C 
ENDBRANCH  12  17
ENDBRANCH  11  12
ENDBRANCH   1  11
TORSDOF 1
ENDMDL
