MODEL 1
REMARK VINA RESULT:    -0.639      0.000      0.000
REMARK INTER + INTRA:          -1.626
REMARK INTER:                  -1.199
REMARK INTRA:                  -0.427
REMARK UNBOUND:                -0.427
REMARK SMILES O=C([O-])CCCCCCCCCCCCCCC(=O)[O-]
REMARK SMILES IDX 10 1 9 2 8 3 7 4 6 5 5 6 4 7 2 8 1 9 3 10 11 11 12 12 13 13
REMARK SMILES IDX 14 14 15 15 16 16 17 17 18 18 19 19 20 20
REMARK H PARENT
REMARK Flexibility Score: inf
ROOT
ATOM      1  C   UNL     1      24.272  36.525  18.733  1.00  0.00     0.000 C 
ENDROOT
BRANCH   1   2
ATOM      2  C   UNL     1      25.546  36.496  17.875  1.00  0.00     0.000 C 
BRANCH   2   3
ATOM      3  C   UNL     1      26.795  36.097  18.681  1.00  0.00     0.000 C 
BRANCH   3   4
ATOM      4  C   UNL     1      27.759  35.204  17.880  1.00  0.00     0.000 C 
BRANCH   4   5
ATOM      5  C   UNL     1      29.208  35.715  17.923  1.00  0.00     0.000 C 
BRANCH   5   6
ATOM      6  C   UNL     1      29.324  37.130  18.522  1.00  0.00     0.006 C 
BRANCH   6   7
ATOM      7  C   UNL     1      29.759  37.163  19.995  1.00  0.00     0.053 C 
BRANCH   7   8
ATOM      8  C   UNL     1      30.824  36.153  20.291  1.00  0.00     0.041 C 
ATOM      9  O   UNL     1      30.617  35.242  21.135  1.00  0.00    -0.550 OA
ATOM     10  O   UNL     1      32.033  36.197  19.608  1.00  0.00    -0.550 OA
ENDBRANCH   7   8
ENDBRANCH   6   7
ENDBRANCH   5   6
ENDBRANCH   4   5
ENDBRANCH   3   4
ENDBRANCH   2   3
ENDBRANCH   1   2
BRANCH   1  11
ATOM     11  C   UNL     1      23.973  35.167  19.392  1.00  0.00     0.000 C 
BRANCH  11  12
ATOM     12  C   UNL     1      22.722  35.198  20.289  1.00  0.00     0.000 C 
BRANCH  12  13
ATOM     13  C   UNL     1      22.454  36.542  20.991  1.00  0.00     0.000 C 
BRANCH  13  14
ATOM     14  C   UNL     1      22.455  36.432  22.523  1.00  0.00     0.000 C 
BRANCH  14  15
ATOM     15  C   UNL     1      22.050  37.765  23.169  1.00  0.00     0.000 C 
BRANCH  15  16
ATOM     16  C   UNL     1      22.538  37.896  24.624  1.00  0.00     0.006 C 
BRANCH  16  17
ATOM     17  C   UNL     1      23.896  38.602  24.774  1.00  0.00     0.053 C 
BRANCH  17  18
ATOM     18  C   UNL     1      24.044  39.745  23.818  1.00  0.00     0.041 C 
ATOM     19  O   UNL     1      24.364  39.529  22.618  1.00  0.00    -0.550 OA
ATOM     20  O   UNL     1      23.796  41.044  24.241  1.00  0.00    -0.550 OA
ENDBRANCH  17  18
ENDBRANCH  16  17
ENDBRANCH  15  16
ENDBRANCH  14  15
ENDBRANCH  13  14
ENDBRANCH  12  13
ENDBRANCH  11  12
ENDBRANCH   1  11
TORSDOF 15
ENDMDL
MODEL 2
REMARK VINA RESULT:     0.083      1.439      1.860
REMARK INTER + INTRA:          -0.271
REMARK INTER:                   0.168
REMARK INTRA:                  -0.439
REMARK UNBOUND:                -0.427
REMARK SMILES O=C([O-])CCCCCCCCCCCCCCC(=O)[O-]
REMARK SMILES IDX 10 1 9 2 8 3 7 4 6 5 5 6 4 7 2 8 1 9 3 10 11 11 12 12 13 13
REMARK SMILES IDX 14 14 15 15 16 16 17 17 18 18 19 19 20 20
REMARK H PARENT
REMARK Flexibility Score: inf
ROOT
ATOM      1  C   UNL     1      25.392  36.312  18.539  1.00  0.00     0.000 C 
ENDROOT
BRANCH   1   2
ATOM      2  C   UNL     1      26.412  35.338  17.929  1.00  0.00     0.000 C 
BRANCH   2   3
ATOM      3  C   UNL     1      27.488  34.896  18.937  1.00  0.00     0.000 C 
BRANCH   3   4
ATOM      4  C   UNL     1      28.915  35.037  18.382  1.00  0.00     0.000 C 
BRANCH   4   5
ATOM      5  C   UNL     1      29.215  36.460  17.883  1.00  0.00     0.000 C 
BRANCH   5   6
ATOM      6  C   UNL     1      29.231  37.499  19.020  1.00  0.00     0.006 C 
BRANCH   6   7
ATOM      7  C   UNL     1      30.089  37.103  20.232  1.00  0.00     0.053 C 
BRANCH   7   8
ATOM      8  C   UNL     1      31.490  36.749  19.838  1.00  0.00     0.041 C 
ATOM      9  O   UNL     1      32.109  37.453  18.997  1.00  0.00    -0.550 OA
ATOM     10  O   UNL     1      32.124  35.663  20.427  1.00  0.00    -0.550 OA
ENDBRANCH   7   8
ENDBRANCH   6   7
ENDBRANCH   5   6
ENDBRANCH   4   5
ENDBRANCH   3   4
ENDBRANCH   2   3
ENDBRANCH   1   2
BRANCH   1  11
ATOM     11  C   UNL     1      24.286  35.590  19.329  1.00  0.00     0.000 C 
BRANCH  11  12
ATOM     12  C   UNL     1      23.116  36.517  19.707  1.00  0.00     0.000 C 
BRANCH  12  13
ATOM     13  C   UNL     1      22.536  36.297  21.116  1.00  0.00     0.000 C 
BRANCH  13  14
ATOM     14  C   UNL     1      21.793  37.527  21.660  1.00  0.00     0.000 C 
BRANCH  14  15
ATOM     15  C   UNL     1      22.343  37.936  23.034  1.00  0.00     0.000 C 
BRANCH  15  16
ATOM     16  C   UNL     1      23.370  39.081  22.950  1.00  0.00     0.006 C 
BRANCH  16  17
ATOM     17  C   UNL     1      24.098  39.375  24.271  1.00  0.00     0.053 C 
BRANCH  17  18
ATOM     18  C   UNL     1      23.685  38.436  25.363  1.00  0.00     0.041 C 
ATOM     19  O   UNL     1      22.741  38.744  26.138  1.00  0.00    -0.550 OA
ATOM     20  O   UNL     1      24.318  37.208  25.502  1.00  0.00    -0.550 OA
ENDBRANCH  17  18
ENDBRANCH  16  17
ENDBRANCH  15  16
ENDBRANCH  14  15
ENDBRANCH  13  14
ENDBRANCH  12  13
ENDBRANCH  11  12
ENDBRANCH   1  11
TORSDOF 15
ENDMDL
MODEL 3
REMARK VINA RESULT:     0.195      1.052      2.107
REMARK INTER + INTRA:          -0.061
REMARK INTER:                   0.832
REMARK INTRA:                  -0.893
REMARK UNBOUND:                -0.427
REMARK SMILES O=C([O-])CCCCCCCCCCCCCCC(=O)[O-]
REMARK SMILES IDX 10 1 9 2 8 3 7 4 6 5 5 6 4 7 2 8 1 9 3 10 11 11 12 12 13 13
REMARK SMILES IDX 14 14 15 15 16 16 17 17 18 18 19 19 20 20
REMARK H PARENT
REMARK Flexibility Score: inf
ROOT
ATOM      1  C   UNL     1      22.761  35.523  20.169  1.00  0.00     0.000 C 
ENDROOT
BRANCH   1   2
ATOM      2  C   UNL     1      23.871  34.927  19.290  1.00  0.00     0.000 C 
BRANCH   2   3
ATOM      3  C   UNL     1      24.074  35.706  17.979  1.00  0.00     0.000 C 
BRANCH   3   4
ATOM      4  C   UNL     1      25.471  36.342  17.876  1.00  0.00     0.000 C 
BRANCH   4   5
ATOM      5  C   UNL     1      26.596  35.294  17.884  1.00  0.00     0.000 C 
BRANCH   5   6
ATOM      6  C   UNL     1      27.988  35.918  18.100  1.00  0.00     0.006 C 
BRANCH   6   7
ATOM      7  C   UNL     1      28.801  35.280  19.238  1.00  0.00     0.053 C 
BRANCH   7   8
ATOM      8  C   UNL     1      30.000  36.100  19.602  1.00  0.00     0.041 C 
ATOM      9  O   UNL     1      29.870  37.318  19.896  1.00  0.00    -0.550 OA
ATOM     10  O   UNL     1      31.257  35.511  19.651  1.00  0.00    -0.550 OA
ENDBRANCH   7   8
ENDBRANCH   6   7
ENDBRANCH   5   6
ENDBRANCH   4   5
ENDBRANCH   3   4
ENDBRANCH   2   3
ENDBRANCH   1   2
BRANCH   1  11
ATOM     11  C   UNL     1      23.134  36.905  20.735  1.00  0.00     0.000 C 
BRANCH  11  12
ATOM     12  C   UNL     1      22.114  37.428  21.762  1.00  0.00     0.000 C 
BRANCH  12  13
ATOM     13  C   UNL     1      21.886  36.515  22.981  1.00  0.00     0.000 C 
BRANCH  13  14
ATOM     14  C   UNL     1      23.071  36.510  23.959  1.00  0.00     0.000 C 
BRANCH  14  15
ATOM     15  C   UNL     1      22.662  37.094  25.319  1.00  0.00     0.000 C 
BRANCH  15  16
ATOM     16  C   UNL     1      22.606  38.633  25.315  1.00  0.00     0.006 C 
BRANCH  16  17
ATOM     17  C   UNL     1      23.976  39.315  25.170  1.00  0.00     0.053 C 
BRANCH  17  18
ATOM     18  C   UNL     1      24.068  40.129  23.916  1.00  0.00     0.041 C 
ATOM     19  O   UNL     1      23.945  41.382  23.964  1.00  0.00    -0.550 OA
ATOM     20  O   UNL     1      24.324  39.509  22.700  1.00  0.00    -0.550 OA
ENDBRANCH  17  18
ENDBRANCH  16  17
ENDBRANCH  15  16
ENDBRANCH  14  15
ENDBRANCH  13  14
ENDBRANCH  12  13
ENDBRANCH  11  12
ENDBRANCH   1  11
TORSDOF 15
ENDMDL
MODEL 4
REMARK VINA RESULT:     1.001      1.742      7.964
REMARK INTER + INTRA:           1.452
REMARK INTER:                   2.002
REMARK INTRA:                  -0.550
REMARK UNBOUND:                -0.427
REMARK SMILES O=C([O-])CCCCCCCCCCCCCCC(=O)[O-]
REMARK SMILES IDX 10 1 9 2 8 3 7 4 6 5 5 6 4 7 2 8 1 9 3 10 11 11 12 12 13 13
REMARK SMILES IDX 14 14 15 15 16 16 17 17 18 18 19 19 20 20
REMARK H PARENT
REMARK Flexibility Score: inf
ROOT
ATOM      1  C   UNL     1      23.808  37.058  20.292  1.00  0.00     0.000 C 
ENDROOT
BRANCH   1   2
ATOM      2  C   UNL     1      22.474  37.728  20.654  1.00  0.00     0.000 C 
BRANCH   2   3
ATOM      3  C   UNL     1      21.993  37.367  22.071  1.00  0.00     0.000 C 
BRANCH   3   4
ATOM      4  C   UNL     1      22.099  38.546  23.052  1.00  0.00     0.000 C 
BRANCH   4   5
ATOM      5  C   UNL     1      23.531  39.094  23.163  1.00  0.00     0.000 C 
BRANCH   5   6
ATOM      6  C   UNL     1      23.818  39.740  24.532  1.00  0.00     0.006 C 
BRANCH   6   7
ATOM      7  C   UNL     1      24.130  38.737  25.654  1.00  0.00     0.053 C 
BRANCH   7   8
ATOM      8  C   UNL     1      22.927  38.440  26.495  1.00  0.00     0.041 C 
ATOM      9  O   UNL     1      22.170  37.478  26.200  1.00  0.00    -0.550 OA
ATOM     10  O   UNL     1      22.662  39.204  27.624  1.00  0.00    -0.550 OA
ENDBRANCH   7   8
ENDBRANCH   6   7
ENDBRANCH   5   6
ENDBRANCH   4   5
ENDBRANCH   3   4
ENDBRANCH   2   3
ENDBRANCH   1   2
BRANCH   1  11
ATOM     11  C   UNL     1      23.648  35.964  19.221  1.00  0.00     0.000 C 
BRANCH  11  12
ATOM     12  C   UNL     1      24.820  34.967  19.203  1.00  0.00     0.000 C 
BRANCH  12  13
ATOM     13  C   UNL     1      25.597  34.895  17.875  1.00  0.00     0.000 C 
BRANCH  13  14
ATOM     14  C   UNL     1      27.121  34.905  18.069  1.00  0.00     0.000 C 
BRANCH  14  15
ATOM     15  C   UNL     1      27.625  36.321  18.384  1.00  0.00     0.000 C 
BRANCH  15  16
ATOM     16  C   UNL     1      29.157  36.445  18.288  1.00  0.00     0.006 C 
BRANCH  16  17
ATOM     17  C   UNL     1      29.877  36.455  19.647  1.00  0.00     0.053 C 
BRANCH  17  18
ATOM     18  C   UNL     1      31.341  36.171  19.509  1.00  0.00     0.041 C 
ATOM     19  O   UNL     1      31.927  36.383  18.415  1.00  0.00    -0.550 OA
ATOM     20  O   UNL     1      32.065  35.704  20.599  1.00  0.00    -0.550 OA
ENDBRANCH  17  18
ENDBRANCH  16  17
ENDBRANCH  15  16
ENDBRANCH  14  15
ENDBRANCH  13  14
ENDBRANCH  12  13
ENDBRANCH  11  12
ENDBRANCH   1  11
TORSDOF 15
ENDMDL
