MODEL 1
REMARK VINA RESULT:    -2.263      0.000      0.000
REMARK INTER + INTRA:          -3.464
REMARK INTER:                  -3.188
REMARK INTRA:                  -0.276
REMARK UNBOUND:                -0.276
REMARK SMILES CCCCCCCCC(=O)[O-]
REMARK SMILES IDX 6 1 7 2 8 3 9 4 10 5 11 6 5 7 4 8 3 9 2 10 1 11
REMARK H PARENT
REMARK Flexibility Score: inf
ROOT
ATOM      1  C   UNL     1     -20.117   2.338 -14.035  1.00  0.00     0.000 C 
ENDROOT
BRANCH   1   2
ATOM      2  C   UNL     1     -19.167   1.138 -14.160  1.00  0.00     0.006 C 
BRANCH   2   3
ATOM      3  C   UNL     1     -19.938  -0.182 -14.066  1.00  0.00     0.053 C 
BRANCH   3   4
ATOM      4  C   UNL     1     -19.929  -0.889 -15.385  1.00  0.00     0.041 C 
ATOM      5  O   UNL     1     -20.018  -2.144 -15.432  1.00  0.00    -0.550 OA
ATOM      6  O   UNL     1     -19.773  -0.166 -16.560  1.00  0.00    -0.550 OA
ENDBRANCH   3   4
ENDBRANCH   2   3
ENDBRANCH   1   2
BRANCH   1   7
ATOM      7  C   UNL     1     -19.929   3.369 -15.162  1.00  0.00     0.000 C 
BRANCH   7   8
ATOM      8  C   UNL     1     -19.794   4.832 -14.692  1.00  0.00    -0.000 C 
BRANCH   8   9
ATOM      9  C   UNL     1     -19.205   5.803 -15.735  1.00  0.00    -0.000 C 
BRANCH   9  10
ATOM     10  C   UNL     1     -19.560   5.476 -17.196  1.00  0.00    -0.003 C 
ATOM     11  C   UNL     1     -18.538   6.018 -18.192  1.00  0.00     0.004 C 
ENDBRANCH   9  10
ENDBRANCH   8   9
ENDBRANCH   7   8
ENDBRANCH   1   7
TORSDOF 7
ENDMDL
MODEL 2
REMARK VINA RESULT:    -2.099      1.365      2.105
REMARK INTER + INTRA:          -3.234
REMARK INTER:                  -2.864
REMARK INTRA:                  -0.370
REMARK UNBOUND:                -0.276
REMARK SMILES CCCCCCCCC(=O)[O-]
REMARK SMILES IDX 6 1 7 2 8 3 9 4 10 5 11 6 5 7 4 8 3 9 2 10 1 11
REMARK H PARENT
REMARK Flexibility Score: inf
ROOT
ATOM      1  C   UNL     1     -19.848   3.930 -15.296  1.00  0.00     0.000 C 
ENDROOT
BRANCH   1   2
ATOM      2  C   UNL     1     -19.969   2.506 -14.733  1.00  0.00     0.006 C 
BRANCH   2   3
ATOM      3  C   UNL     1     -20.125   1.483 -15.863  1.00  0.00     0.053 C 
BRANCH   3   4
ATOM      4  C   UNL     1     -19.967   0.092 -15.335  1.00  0.00     0.041 C 
ATOM      5  O   UNL     1     -19.811  -0.104 -14.101  1.00  0.00    -0.550 OA
ATOM      6  O   UNL     1     -19.943  -0.985 -16.211  1.00  0.00    -0.550 OA
ENDBRANCH   3   4
ENDBRANCH   2   3
ENDBRANCH   1   2
BRANCH   1   7
ATOM      7  C   UNL     1     -20.122   4.000 -16.809  1.00  0.00     0.000 C 
BRANCH   7   8
ATOM      8  C   UNL     1     -19.971   5.401 -17.435  1.00  0.00    -0.000 C 
BRANCH   8   9
ATOM      9  C   UNL     1     -18.747   5.578 -18.356  1.00  0.00    -0.000 C 
BRANCH   9  10
ATOM     10  C   UNL     1     -17.751   6.660 -17.905  1.00  0.00    -0.003 C 
ATOM     11  C   UNL     1     -17.822   6.947 -16.407  1.00  0.00     0.004 C 
ENDBRANCH   9  10
ENDBRANCH   8   9
ENDBRANCH   7   8
ENDBRANCH   1   7
TORSDOF 7
ENDMDL
MODEL 3
REMARK VINA RESULT:    -0.945      3.077      5.900
REMARK INTER + INTRA:          -1.608
REMARK INTER:                  -1.722
REMARK INTRA:                   0.114
REMARK UNBOUND:                -0.276
REMARK SMILES CCCCCCCCC(=O)[O-]
REMARK SMILES IDX 6 1 7 2 8 3 9 4 10 5 11 6 5 7 4 8 3 9 2 10 1 11
REMARK H PARENT
REMARK Flexibility Score: inf
ROOT
ATOM      1  C   UNL     1     -19.325   5.440 -16.053  1.00  0.00     0.000 C 
ENDROOT
BRANCH   1   2
ATOM      2  C   UNL     1     -19.979   6.586 -16.839  1.00  0.00     0.006 C 
BRANCH   2   3
ATOM      3  C   UNL     1     -19.028   7.125 -17.912  1.00  0.00     0.053 C 
BRANCH   3   4
ATOM      4  C   UNL     1     -18.130   6.037 -18.410  1.00  0.00     0.041 C 
ATOM      5  O   UNL     1     -18.617   4.959 -18.840  1.00  0.00    -0.550 OA
ATOM      6  O   UNL     1     -16.750   6.194 -18.354  1.00  0.00    -0.550 OA
ENDBRANCH   3   4
ENDBRANCH   2   3
ENDBRANCH   1   2
BRANCH   1   7
ATOM      7  C   UNL     1     -19.588   5.529 -14.539  1.00  0.00     0.000 C 
BRANCH   7   8
ATOM      8  C   UNL     1     -20.034   4.210 -13.876  1.00  0.00    -0.000 C 
BRANCH   8   9
ATOM      9  C   UNL     1     -19.950   2.962 -14.778  1.00  0.00    -0.000 C 
BRANCH   9  10
ATOM     10  C   UNL     1     -19.121   1.802 -14.200  1.00  0.00    -0.003 C 
ATOM     11  C   UNL     1     -19.737   0.433 -14.481  1.00  0.00     0.004 C 
ENDBRANCH   9  10
ENDBRANCH   8   9
ENDBRANCH   7   8
ENDBRANCH   1   7
TORSDOF 7
ENDMDL
