MODEL 1
REMARK VINA RESULT:    -4.825      0.000      0.000
REMARK INTER + INTRA:          -7.384
REMARK INTER:                  -7.364
REMARK INTRA:                  -0.020
REMARK UNBOUND:                -0.020
REMARK SMILES CC1=CCC[C@@H](C)C(=O)C[C@H](C(C)C)C(=O)C1
REMARK SMILES IDX 8 1 9 2 6 3 7 4 5 5 4 6 3 7 2 8 1 9 10 11 11 12 15 13 16 14
REMARK SMILES IDX 17 15 12 17 13 18 14 19
REMARK H PARENT
REMARK Flexibility Score: 70.00
ROOT
ATOM      1  C   UNL     1     -13.273 -16.766  29.263  1.00  0.00     0.136 C 
ATOM      2  O   UNL     1     -13.765 -17.869  29.457  1.00  0.00    -0.299 OA
ENDROOT
BRANCH   1   3
ATOM      3  C   UNL     1     -12.578 -16.475  27.946  1.00  0.00     0.053 C 
ATOM      4  C   UNL     1     -13.583 -16.514  26.787  1.00  0.00     0.016 C 
BRANCH   3   5
ATOM      5  C   UNL     1     -11.429 -17.483  27.716  1.00  0.00     0.015 C 
BRANCH   5   6
ATOM      6  C   UNL     1     -10.158 -17.108  28.506  1.00  0.00     0.028 C 
BRANCH   6   7
ATOM      7  C   UNL     1      -9.986 -17.986  29.718  1.00  0.00    -0.028 C 
ATOM      8  C   UNL     1     -10.200 -17.601  30.997  1.00  0.00    -0.070 CG0
ATOM      9  C   UNL     1     -10.036 -18.634  32.084  1.00  0.00     0.039 C 
ATOM     10  G   UNL     1     -10.607 -16.189  31.387  1.00  0.00     0.000 G0
ENDBRANCH   6   7
ENDBRANCH   5   6
ENDBRANCH   3   5
ENDBRANCH   1   3
BRANCH   1  11
ATOM     11  C   UNL     1     -13.373 -15.714  30.343  1.00  0.00     0.087 C 
BRANCH  11  12
ATOM     12  C   UNL     1     -13.248 -16.314  31.768  1.00  0.00     0.066 C 
BRANCH  12  13
ATOM     13  C   UNL     1     -11.824 -16.177  32.292  1.00  0.00     0.140 C 
ATOM     14  O   UNL     1     -11.654 -15.989  33.489  1.00  0.00    -0.299 OA
BRANCH  13  15
ATOM     15  C   UNL     1     -10.624 -16.191  31.370  1.00  0.00     0.106 CG0
ATOM     16  G   UNL     1     -10.198 -17.603  31.003  1.00  0.00     0.000 G0
ENDBRANCH  13  15
ENDBRANCH  12  13
BRANCH  12  17
ATOM     17  C   UNL     1     -14.289 -15.724  32.773  1.00  0.00    -0.006 C 
ATOM     18  C   UNL     1     -15.067 -16.845  33.486  1.00  0.00     0.008 C 
ATOM     19  C   UNL     1     -15.296 -14.781  32.090  1.00  0.00     0.008 C 
ENDBRANCH  12  17
ENDBRANCH  11  12
ENDBRANCH   1  11
TORSDOF 1
ENDMDL
MODEL 2
REMARK VINA RESULT:    -4.791      1.732      2.118
REMARK INTER + INTRA:          -7.331
REMARK INTER:                  -7.203
REMARK INTRA:                  -0.128
REMARK UNBOUND:                -0.020
REMARK SMILES CC1=CCC[C@@H](C)C(=O)C[C@H](C(C)C)C(=O)C1
REMARK SMILES IDX 8 1 9 2 6 3 7 4 5 5 4 6 3 7 2 8 1 9 10 11 11 12 15 13 16 14
REMARK SMILES IDX 17 15 12 17 13 18 14 19
REMARK H PARENT
REMARK Flexibility Score: 70.00
ROOT
ATOM      1  C   UNL     1     -13.220 -16.162  28.762  1.00  0.00     0.136 C 
ATOM      2  O   UNL     1     -14.024 -15.709  27.959  1.00  0.00    -0.299 OA
ENDROOT
BRANCH   1   3
ATOM      3  C   UNL     1     -12.482 -17.447  28.442  1.00  0.00     0.053 C 
ATOM      4  C   UNL     1     -11.703 -17.307  27.127  1.00  0.00     0.016 C 
BRANCH   3   5
ATOM      5  C   UNL     1     -13.475 -18.629  28.373  1.00  0.00     0.015 C 
BRANCH   5   6
ATOM      6  C   UNL     1     -13.330 -19.582  29.577  1.00  0.00     0.028 C 
BRANCH   6   7
ATOM      7  C   UNL     1     -12.028 -19.358  30.301  1.00  0.00    -0.028 C 
ATOM      8  C   UNL     1     -11.901 -18.771  31.513  1.00  0.00    -0.070 CG0
ATOM      9  C   UNL     1     -10.521 -18.684  32.115  1.00  0.00     0.039 C 
ATOM     10  G   UNL     1     -13.077 -18.210  32.296  1.00  0.00     0.000 G0
ENDBRANCH   6   7
ENDBRANCH   5   6
ENDBRANCH   3   5
ENDBRANCH   1   3
BRANCH   1  11
ATOM     11  C   UNL     1     -12.980 -15.424  30.059  1.00  0.00     0.087 C 
BRANCH  11  12
ATOM     12  C   UNL     1     -13.901 -15.921  31.203  1.00  0.00     0.066 C 
BRANCH  12  13
ATOM     13  C   UNL     1     -13.099 -16.681  32.254  1.00  0.00     0.140 C 
ATOM     14  O   UNL     1     -12.413 -16.044  33.042  1.00  0.00    -0.299 OA
BRANCH  13  15
ATOM     15  C   UNL     1     -13.068 -18.192  32.302  1.00  0.00     0.106 CG0
ATOM     16  G   UNL     1     -11.906 -18.770  31.511  1.00  0.00     0.000 G0
ENDBRANCH  13  15
ENDBRANCH  12  13
BRANCH  12  17
ATOM     17  C   UNL     1     -14.750 -14.777  31.846  1.00  0.00    -0.006 C 
ATOM     18  C   UNL     1     -15.736 -15.337  32.887  1.00  0.00     0.008 C 
ATOM     19  C   UNL     1     -15.542 -13.973  30.798  1.00  0.00     0.008 C 
ENDBRANCH  12  17
ENDBRANCH  11  12
ENDBRANCH   1  11
TORSDOF 1
ENDMDL
MODEL 3
REMARK VINA RESULT:    -4.620      2.212      4.170
REMARK INTER + INTRA:          -7.071
REMARK INTER:                  -7.087
REMARK INTRA:                   0.016
REMARK UNBOUND:                -0.020
REMARK SMILES CC1=CCC[C@@H](C)C(=O)C[C@H](C(C)C)C(=O)C1
REMARK SMILES IDX 8 1 9 2 6 3 7 4 5 5 4 6 3 7 2 8 1 9 10 11 11 12 15 13 16 14
REMARK SMILES IDX 17 15 12 17 13 18 14 19
REMARK H PARENT
REMARK Flexibility Score: 70.00
ROOT
ATOM      1  C   UNL     1     -13.714 -16.942  32.431  1.00  0.00     0.136 C 
ATOM      2  O   UNL     1     -14.607 -17.409  33.124  1.00  0.00    -0.299 OA
ENDROOT
BRANCH   1   3
ATOM      3  C   UNL     1     -13.890 -15.574  31.801  1.00  0.00     0.053 C 
ATOM      4  C   UNL     1     -14.853 -14.718  32.634  1.00  0.00     0.016 C 
BRANCH   3   5
ATOM      5  C   UNL     1     -14.393 -15.718  30.347  1.00  0.00     0.015 C 
BRANCH   5   6
ATOM      6  C   UNL     1     -13.549 -14.891  29.355  1.00  0.00     0.028 C 
BRANCH   6   7
ATOM      7  C   UNL     1     -13.081 -15.734  28.197  1.00  0.00    -0.028 C 
ATOM      8  C   UNL     1     -11.946 -16.470  28.178  1.00  0.00    -0.070 CG0
ATOM      9  C   UNL     1     -11.665 -17.304  26.953  1.00  0.00     0.039 C 
ATOM     10  G   UNL     1     -10.954 -16.505  29.330  1.00  0.00     0.000 G0
ENDBRANCH   6   7
ENDBRANCH   5   6
ENDBRANCH   3   5
ENDBRANCH   1   3
BRANCH   1  11
ATOM     11  C   UNL     1     -12.449 -17.743  32.223  1.00  0.00     0.087 C 
BRANCH  11  12
ATOM     12  C   UNL     1     -12.316 -18.272  30.771  1.00  0.00     0.066 C 
BRANCH  12  13
ATOM     13  C   UNL     1     -11.020 -17.786  30.133  1.00  0.00     0.140 C 
ATOM     14  O   UNL     1      -9.994 -18.426  30.326  1.00  0.00    -0.299 OA
BRANCH  13  15
ATOM     15  C   UNL     1     -10.949 -16.503  29.335  1.00  0.00     0.106 CG0
ATOM     16  G   UNL     1     -11.944 -16.485  28.186  1.00  0.00     0.000 G0
ENDBRANCH  13  15
ENDBRANCH  12  13
BRANCH  12  17
ATOM     17  C   UNL     1     -12.457 -19.825  30.671  1.00  0.00    -0.006 C 
ATOM     18  C   UNL     1     -13.576 -20.217  29.688  1.00  0.00     0.008 C 
ATOM     19  C   UNL     1     -12.747 -20.478  32.035  1.00  0.00     0.008 C 
ENDBRANCH  12  17
ENDBRANCH  11  12
ENDBRANCH   1  11
TORSDOF 1
ENDMDL
MODEL 4
REMARK VINA RESULT:    -4.469      1.612      4.037
REMARK INTER + INTRA:          -6.840
REMARK INTER:                  -7.235
REMARK INTRA:                   0.395
REMARK UNBOUND:                -0.020
REMARK SMILES CC1=CCC[C@@H](C)C(=O)C[C@H](C(C)C)C(=O)C1
REMARK SMILES IDX 8 1 9 2 6 3 7 4 5 5 4 6 3 7 2 8 1 9 10 11 11 12 15 13 16 14
REMARK SMILES IDX 17 15 12 17 13 18 14 19
REMARK H PARENT
REMARK Flexibility Score: 70.00
ROOT
ATOM      1  C   UNL     1     -14.049 -16.026  31.441  1.00  0.00     0.136 C 
ATOM      2  O   UNL     1     -14.735 -15.015  31.380  1.00  0.00    -0.299 OA
ENDROOT
BRANCH   1   3
ATOM      3  C   UNL     1     -13.677 -16.599  32.795  1.00  0.00     0.053 C 
ATOM      4  C   UNL     1     -14.937 -16.893  33.621  1.00  0.00     0.016 C 
BRANCH   3   5
ATOM      5  C   UNL     1     -12.738 -15.627  33.545  1.00  0.00     0.015 C 
BRANCH   5   6
ATOM      6  C   UNL     1     -11.250 -15.945  33.292  1.00  0.00     0.028 C 
BRANCH   6   7
ATOM      7  C   UNL     1     -11.078 -17.293  32.644  1.00  0.00    -0.028 C 
ATOM      8  C   UNL     1     -10.647 -17.501  31.378  1.00  0.00    -0.070 CG0
ATOM      9  C   UNL     1     -10.477 -18.925  30.914  1.00  0.00     0.039 C 
ATOM     10  G   UNL     1     -10.317 -16.373  30.413  1.00  0.00     0.000 G0
ENDBRANCH   6   7
ENDBRANCH   5   6
ENDBRANCH   3   5
ENDBRANCH   1   3
BRANCH   1  11
ATOM     11  C   UNL     1     -13.592 -16.685  30.160  1.00  0.00     0.087 C 
BRANCH  11  12
ATOM     12  C   UNL     1     -12.676 -15.762  29.314  1.00  0.00     0.066 C 
BRANCH  12  13
ATOM     13  C   UNL     1     -11.270 -16.339  29.212  1.00  0.00     0.140 C 
ATOM     14  O   UNL     1     -10.918 -16.845  28.155  1.00  0.00    -0.299 OA
BRANCH  13  15
ATOM     15  C   UNL     1     -10.327 -16.372  30.395  1.00  0.00     0.106 CG0
ATOM     16  G   UNL     1     -10.651 -17.503  31.357  1.00  0.00     0.000 G0
ENDBRANCH  13  15
ENDBRANCH  12  13
BRANCH  12  17
ATOM     17  C   UNL     1     -13.268 -15.441  27.903  1.00  0.00    -0.006 C 
ATOM     18  C   UNL     1     -14.347 -14.345  27.992  1.00  0.00     0.008 C 
ATOM     19  C   UNL     1     -13.879 -16.681  27.226  1.00  0.00     0.008 C 
ENDBRANCH  12  17
ENDBRANCH  11  12
ENDBRANCH   1  11
TORSDOF 1
ENDMDL
MODEL 5
REMARK VINA RESULT:    -4.372      2.218      3.858
REMARK INTER + INTRA:          -6.692
REMARK INTER:                  -6.930
REMARK INTRA:                   0.238
REMARK UNBOUND:                -0.020
REMARK SMILES CC1=CCC[C@@H](C)C(=O)C[C@H](C(C)C)C(=O)C1
REMARK SMILES IDX 8 1 9 2 6 3 7 4 5 5 4 6 3 7 2 8 1 9 10 11 11 12 15 13 16 14
REMARK SMILES IDX 17 15 12 17 13 18 14 19
REMARK H PARENT
REMARK Flexibility Score: 70.00
ROOT
ATOM      1  C   UNL     1     -11.682 -18.957  29.573  1.00  0.00     0.136 C 
ATOM      2  O   UNL     1     -10.640 -18.911  30.213  1.00  0.00    -0.299 OA
ENDROOT
BRANCH   1   3
ATOM      3  C   UNL     1     -12.701 -20.039  29.876  1.00  0.00     0.053 C 
ATOM      4  C   UNL     1     -14.027 -19.743  29.163  1.00  0.00     0.016 C 
BRANCH   3   5
ATOM      5  C   UNL     1     -12.909 -20.163  31.402  1.00  0.00     0.015 C 
BRANCH   5   6
ATOM      6  C   UNL     1     -13.586 -18.912  32.000  1.00  0.00     0.028 C 
BRANCH   6   7
ATOM      7  C   UNL     1     -12.606 -18.080  32.785  1.00  0.00    -0.028 C 
ATOM      8  C   UNL     1     -12.361 -16.765  32.580  1.00  0.00    -0.070 CG0
ATOM      9  C   UNL     1     -11.388 -16.075  33.503  1.00  0.00     0.039 C 
ATOM     10  G   UNL     1     -13.024 -15.953  31.479  1.00  0.00     0.000 G0
ENDBRANCH   6   7
ENDBRANCH   5   6
ENDBRANCH   3   5
ENDBRANCH   1   3
BRANCH   1  11
ATOM     11  C   UNL     1     -11.929 -17.929  28.495  1.00  0.00     0.087 C 
BRANCH  11  12
ATOM     12  C   UNL     1     -12.871 -16.790  28.967  1.00  0.00     0.066 C 
BRANCH  12  13
ATOM     13  C   UNL     1     -12.279 -16.058  30.165  1.00  0.00     0.140 C 
ATOM     14  O   UNL     1     -11.150 -15.595  30.070  1.00  0.00    -0.299 OA
BRANCH  13  15
ATOM     15  C   UNL     1     -13.012 -15.951  31.483  1.00  0.00     0.106 CG0
ATOM     16  G   UNL     1     -12.356 -16.780  32.575  1.00  0.00     0.000 G0
ENDBRANCH  13  15
ENDBRANCH  12  13
BRANCH  12  17
ATOM     17  C   UNL     1     -13.255 -15.800  27.820  1.00  0.00    -0.006 C 
ATOM     18  C   UNL     1     -14.122 -14.644  28.354  1.00  0.00     0.008 C 
ATOM     19  C   UNL     1     -14.010 -16.493  26.672  1.00  0.00     0.008 C 
ENDBRANCH  12  17
ENDBRANCH  11  12
ENDBRANCH   1  11
TORSDOF 1
ENDMDL
MODEL 6
REMARK VINA RESULT:    -4.325      2.410      3.836
REMARK INTER + INTRA:          -6.620
REMARK INTER:                  -6.848
REMARK INTRA:                   0.228
REMARK UNBOUND:                -0.020
REMARK SMILES CC1=CCC[C@@H](C)C(=O)C[C@H](C(C)C)C(=O)C1
REMARK SMILES IDX 8 1 9 2 6 3 7 4 5 5 4 6 3 7 2 8 1 9 10 11 11 12 15 13 16 14
REMARK SMILES IDX 17 15 12 17 13 18 14 19
REMARK H PARENT
REMARK Flexibility Score: 70.00
ROOT
ATOM      1  C   UNL     1     -11.693 -18.573  31.179  1.00  0.00     0.136 C 
ATOM      2  O   UNL     1     -10.756 -18.947  30.487  1.00  0.00    -0.299 OA
ENDROOT
BRANCH   1   3
ATOM      3  C   UNL     1     -12.960 -19.405  31.239  1.00  0.00     0.053 C 
ATOM      4  C   UNL     1     -12.888 -20.412  32.394  1.00  0.00     0.016 C 
BRANCH   3   5
ATOM      5  C   UNL     1     -13.190 -20.124  29.891  1.00  0.00     0.015 C 
BRANCH   5   6
ATOM      6  C   UNL     1     -14.048 -19.284  28.922  1.00  0.00     0.028 C 
BRANCH   6   7
ATOM      7  C   UNL     1     -13.199 -18.639  27.857  1.00  0.00    -0.028 C 
ATOM      8  C   UNL     1     -12.836 -17.336  27.833  1.00  0.00    -0.070 CG0
ATOM      9  C   UNL     1     -11.930 -16.875  26.719  1.00  0.00     0.039 C 
ATOM     10  G   UNL     1     -13.285 -16.324  28.875  1.00  0.00     0.000 G0
ENDBRANCH   6   7
ENDBRANCH   5   6
ENDBRANCH   3   5
ENDBRANCH   1   3
BRANCH   1  11
ATOM     11  C   UNL     1     -11.563 -17.288  31.962  1.00  0.00     0.087 C 
BRANCH  11  12
ATOM     12  C   UNL     1     -12.450 -16.152  31.389  1.00  0.00     0.066 C 
BRANCH  12  13
ATOM     13  C   UNL     1     -12.218 -15.985  29.892  1.00  0.00     0.140 C 
ATOM     14  O   UNL     1     -11.153 -15.518  29.511  1.00  0.00    -0.299 OA
BRANCH  13  15
ATOM     15  C   UNL     1     -13.287 -16.310  28.872  1.00  0.00     0.106 CG0
ATOM     16  G   UNL     1     -12.818 -17.335  27.852  1.00  0.00     0.000 G0
ENDBRANCH  13  15
ENDBRANCH  12  13
BRANCH  12  17
ATOM     17  C   UNL     1     -13.967 -16.336  31.717  1.00  0.00    -0.006 C 
ATOM     18  C   UNL     1     -14.725 -15.000  31.603  1.00  0.00     0.008 C 
ATOM     19  C   UNL     1     -14.198 -16.916  33.125  1.00  0.00     0.008 C 
ENDBRANCH  12  17
ENDBRANCH  11  12
ENDBRANCH   1  11
TORSDOF 1
ENDMDL
MODEL 7
REMARK VINA RESULT:    -4.289      2.328      3.248
REMARK INTER + INTRA:          -6.566
REMARK INTER:                  -7.021
REMARK INTRA:                   0.455
REMARK UNBOUND:                -0.020
REMARK SMILES CC1=CCC[C@@H](C)C(=O)C[C@H](C(C)C)C(=O)C1
REMARK SMILES IDX 8 1 9 2 6 3 7 4 5 5 4 6 3 7 2 8 1 9 10 11 11 12 15 13 16 14
REMARK SMILES IDX 17 15 12 17 13 18 14 19
REMARK H PARENT
REMARK Flexibility Score: 70.00
ROOT
ATOM      1  C   UNL     1     -13.856 -15.107  29.920  1.00  0.00     0.136 C 
ATOM      2  O   UNL     1     -14.753 -14.692  30.642  1.00  0.00    -0.299 OA
ENDROOT
BRANCH   1   3
ATOM      3  C   UNL     1     -13.831 -14.718  28.455  1.00  0.00     0.053 C 
ATOM      4  C   UNL     1     -14.884 -13.640  28.166  1.00  0.00     0.016 C 
BRANCH   3   5
ATOM      5  C   UNL     1     -14.057 -15.964  27.569  1.00  0.00     0.015 C 
BRANCH   5   6
ATOM      6  C   UNL     1     -12.922 -16.999  27.719  1.00  0.00     0.028 C 
BRANCH   6   7
ATOM      7  C   UNL     1     -13.469 -18.393  27.883  1.00  0.00    -0.028 C 
ATOM      8  C   UNL     1     -13.239 -19.201  28.944  1.00  0.00    -0.070 CG0
ATOM      9  C   UNL     1     -13.920 -20.547  28.968  1.00  0.00     0.039 C 
ATOM     10  G   UNL     1     -12.343 -18.815  30.109  1.00  0.00     0.000 G0
ENDBRANCH   6   7
ENDBRANCH   5   6
ENDBRANCH   3   5
ENDBRANCH   1   3
BRANCH   1  11
ATOM     11  C   UNL     1     -12.789 -15.999  30.511  1.00  0.00     0.087 C 
BRANCH  11  12
ATOM     12  C   UNL     1     -13.331 -16.893  31.657  1.00  0.00     0.066 C 
BRANCH  12  13
ATOM     13  C   UNL     1     -13.136 -18.369  31.331  1.00  0.00     0.140 C 
ATOM     14  O   UNL     1     -13.584 -19.205  32.104  1.00  0.00    -0.299 OA
BRANCH  13  15
ATOM     15  C   UNL     1     -12.346 -18.828  30.125  1.00  0.00     0.106 CG0
ATOM     16  G   UNL     1     -13.244 -19.189  28.953  1.00  0.00     0.000 G0
ENDBRANCH  13  15
ENDBRANCH  12  13
BRANCH  12  17
ATOM     17  C   UNL     1     -12.731 -16.530  33.053  1.00  0.00    -0.006 C 
ATOM     18  C   UNL     1     -13.512 -15.375  33.708  1.00  0.00     0.008 C 
ATOM     19  C   UNL     1     -11.245 -16.135  32.969  1.00  0.00     0.008 C 
ENDBRANCH  12  17
ENDBRANCH  11  12
ENDBRANCH   1  11
TORSDOF 1
ENDMDL
MODEL 8
REMARK VINA RESULT:    -4.034      2.226      3.580
REMARK INTER + INTRA:          -6.176
REMARK INTER:                  -6.276
REMARK INTRA:                   0.100
REMARK UNBOUND:                -0.020
REMARK SMILES CC1=CCC[C@@H](C)C(=O)C[C@H](C(C)C)C(=O)C1
REMARK SMILES IDX 8 1 9 2 6 3 7 4 5 5 4 6 3 7 2 8 1 9 10 11 11 12 15 13 16 14
REMARK SMILES IDX 17 15 12 17 13 18 14 19
REMARK H PARENT
REMARK Flexibility Score: 70.00
ROOT
ATOM      1  C   UNL     1     -13.271 -19.018  31.269  1.00  0.00     0.136 C 
ATOM      2  O   UNL     1     -13.116 -20.004  31.977  1.00  0.00    -0.299 OA
ENDROOT
BRANCH   1   3
ATOM      3  C   UNL     1     -13.095 -19.138  29.768  1.00  0.00     0.053 C 
ATOM      4  C   UNL     1     -13.695 -20.456  29.259  1.00  0.00     0.016 C 
BRANCH   3   5
ATOM      5  C   UNL     1     -11.599 -19.032  29.396  1.00  0.00     0.015 C 
BRANCH   5   6
ATOM      6  C   UNL     1     -11.298 -17.780  28.546  1.00  0.00     0.028 C 
BRANCH   6   7
ATOM      7  C   UNL     1     -12.516 -17.330  27.782  1.00  0.00    -0.028 C 
ATOM      8  C   UNL     1     -13.214 -16.197  28.026  1.00  0.00    -0.070 CG0
ATOM      9  C   UNL     1     -14.375 -15.873  27.119  1.00  0.00     0.039 C 
ATOM     10  G   UNL     1     -12.880 -15.237  29.156  1.00  0.00     0.000 G0
ENDBRANCH   6   7
ENDBRANCH   5   6
ENDBRANCH   3   5
ENDBRANCH   1   3
BRANCH   1  11
ATOM     11  C   UNL     1     -13.637 -17.701  31.911  1.00  0.00     0.087 C 
BRANCH  11  12
ATOM     12  C   UNL     1     -12.718 -16.540  31.449  1.00  0.00     0.066 C 
BRANCH  12  13
ATOM     13  C   UNL     1     -13.455 -15.613  30.490  1.00  0.00     0.140 C 
ATOM     14  O   UNL     1     -14.575 -15.224  30.793  1.00  0.00    -0.299 OA
BRANCH  13  15
ATOM     15  C   UNL     1     -12.877 -15.221  29.148  1.00  0.00     0.106 CG0
ATOM     16  G   UNL     1     -13.232 -16.217  28.056  1.00  0.00     0.000 G0
ENDBRANCH  13  15
ENDBRANCH  12  13
BRANCH  12  17
ATOM     17  C   UNL     1     -12.086 -15.749  32.640  1.00  0.00    -0.006 C 
ATOM     18  C   UNL     1     -10.874 -16.500  33.222  1.00  0.00     0.008 C 
ATOM     19  C   UNL     1     -13.095 -15.487  33.773  1.00  0.00     0.008 C 
ENDBRANCH  12  17
ENDBRANCH  11  12
ENDBRANCH   1  11
TORSDOF 1
ENDMDL
MODEL 9
REMARK VINA RESULT:    -3.723      1.811      4.073
REMARK INTER + INTRA:          -5.701
REMARK INTER:                  -7.071
REMARK INTRA:                   1.370
REMARK UNBOUND:                -0.020
REMARK SMILES CC1=CCC[C@@H](C)C(=O)C[C@H](C(C)C)C(=O)C1
REMARK SMILES IDX 8 1 9 2 6 3 7 4 5 5 4 6 3 7 2 8 1 9 10 11 11 12 15 13 16 14
REMARK SMILES IDX 17 15 12 17 13 18 14 19
REMARK H PARENT
REMARK Flexibility Score: 70.00
ROOT
ATOM      1  C   UNL     1     -13.427 -16.714  32.064  1.00  0.00     0.136 C 
ATOM      2  O   UNL     1     -14.262 -17.546  32.391  1.00  0.00    -0.299 OA
ENDROOT
BRANCH   1   3
ATOM      3  C   UNL     1     -12.199 -16.502  32.928  1.00  0.00     0.053 C 
ATOM      4  C   UNL     1     -12.351 -15.234  33.779  1.00  0.00     0.016 C 
BRANCH   3   5
ATOM      5  C   UNL     1     -10.932 -16.427  32.046  1.00  0.00     0.015 C 
BRANCH   5   6
ATOM      6  C   UNL     1     -10.175 -17.771  32.000  1.00  0.00     0.028 C 
BRANCH   6   7
ATOM      7  C   UNL     1     -11.123 -18.938  32.092  1.00  0.00    -0.028 C 
ATOM      8  C   UNL     1     -11.828 -19.453  31.058  1.00  0.00    -0.070 CG0
ATOM      9  C   UNL     1     -12.685 -20.666  31.321  1.00  0.00     0.039 C 
ATOM     10  G   UNL     1     -11.788 -18.878  29.651  1.00  0.00     0.000 G0
ENDBRANCH   6   7
ENDBRANCH   5   6
ENDBRANCH   3   5
ENDBRANCH   1   3
BRANCH   1  11
ATOM     11  C   UNL     1     -13.639 -15.916  30.798  1.00  0.00     0.087 C 
BRANCH  11  12
ATOM     12  C   UNL     1     -12.731 -16.397  29.636  1.00  0.00     0.066 C 
BRANCH  12  13
ATOM     13  C   UNL     1     -12.905 -17.892  29.394  1.00  0.00     0.140 C 
ATOM     14  O   UNL     1     -14.001 -18.306  29.042  1.00  0.00    -0.299 OA
BRANCH  13  15
ATOM     15  C   UNL     1     -11.789 -18.881  29.647  1.00  0.00     0.106 CG0
ATOM     16  G   UNL     1     -11.838 -19.456  31.054  1.00  0.00     0.000 G0
ENDBRANCH  13  15
ENDBRANCH  12  13
BRANCH  12  17
ATOM     17  C   UNL     1     -12.934 -15.576  28.322  1.00  0.00    -0.006 C 
ATOM     18  C   UNL     1     -14.121 -14.603  28.454  1.00  0.00     0.008 C 
ATOM     19  C   UNL     1     -13.169 -16.477  27.096  1.00  0.00     0.008 C 
ENDBRANCH  12  17
ENDBRANCH  11  12
ENDBRANCH   1  11
TORSDOF 1
ENDMDL
