MODEL 1
REMARK VINA RESULT:    26.208      0.000      0.000
REMARK INTER + INTRA:          30.667
REMARK INTER:                  30.805
REMARK INTRA:                  -0.138
REMARK UNBOUND:                -0.138
REMARK SMILES O=c1c(O)c(-c2ccc(O)cc2)oc2cc(O)cc(O)c12
REMARK SMILES IDX 5 1 3 2 2 3 1 4 21 5 19 6 18 7 16 8 15 9 14 10 13 11 6 12
REMARK SMILES IDX 7 13 8 14 9 15 12 16 11 17 10 18 4 20 20 22 17 24
REMARK H PARENT 10 19 4 21 20 23 17 25
REMARK Flexibility Score: inf
ROOT
ATOM      1  C   UNL     1       9.248   2.099   9.150  1.00  0.00     0.180 A 
ATOM      2  C   UNL     1       9.188   3.417   8.658  1.00  0.00     0.208 A 
ATOM      3  C   UNL     1      10.141   3.833   7.715  1.00  0.00     0.238 A 
ATOM      4  O   UNL     1      10.090   5.008   7.259  1.00  0.00    -0.285 OA
ATOM      5  C   UNL     1      11.145   2.936   7.296  1.00  0.00     0.111 A 
ATOM      6  C   UNL     1      12.144   3.278   6.354  1.00  0.00     0.134 A 
ATOM      7  C   UNL     1      13.116   2.331   5.996  1.00  0.00     0.093 A 
ATOM      8  C   UNL     1      13.107   1.052   6.562  1.00  0.00     0.123 A 
ATOM      9  C   UNL     1      12.123   0.711   7.492  1.00  0.00     0.094 A 
ATOM     10  C   UNL     1      11.146   1.639   7.861  1.00  0.00     0.146 A 
ATOM     11  O   UNL     1      10.218   1.285   8.744  1.00  0.00    -0.452 OA
ENDROOT
BRANCH   1  12
ATOM     12  C   UNL     1       8.268   1.580  10.131  1.00  0.00     0.021 A 
ATOM     13  C   UNL     1       6.917   1.461   9.764  1.00  0.00     0.016 A 
ATOM     14  C   UNL     1       5.972   0.995  10.682  1.00  0.00     0.047 A 
ATOM     15  C   UNL     1       6.360   0.657  11.982  1.00  0.00     0.115 A 
ATOM     16  C   UNL     1       8.649   1.258  11.447  1.00  0.00     0.016 A 
ATOM     17  C   UNL     1       7.700   0.793  12.364  1.00  0.00     0.047 A 
BRANCH  15  18
ATOM     18  O   UNL     1       5.406   0.193  12.886  1.00  0.00    -0.508 OA
ATOM     19  H   UNL     1       5.434   0.455  13.864  1.00  0.00     0.293 HD
ENDBRANCH  15  18
ENDBRANCH   1  12
BRANCH   2  20
ATOM     20  O   UNL     1       8.212   4.301   9.125  1.00  0.00    -0.502 OA
ATOM     21  H   UNL     1       8.416   5.025   9.804  1.00  0.00     0.293 HD
ENDBRANCH   2  20
BRANCH   6  22
ATOM     22  O   UNL     1      12.179   4.546   5.772  1.00  0.00    -0.507 OA
ATOM     23  H   UNL     1      13.050   4.974   5.480  1.00  0.00     0.293 HD
ENDBRANCH   6  22
BRANCH   8  24
ATOM     24  O   UNL     1      14.072   0.112   6.208  1.00  0.00    -0.508 OA
ATOM     25  H   UNL     1      13.842  -0.868   6.097  1.00  0.00     0.293 HD
ENDBRANCH   8  24
TORSDOF 5
ENDMDL
MODEL 2
REMARK VINA RESULT:    26.620      1.186      3.056
REMARK INTER + INTRA:          31.150
REMARK INTER:                  31.379
REMARK INTRA:                  -0.229
REMARK UNBOUND:                -0.138
REMARK SMILES O=c1c(O)c(-c2ccc(O)cc2)oc2cc(O)cc(O)c12
REMARK SMILES IDX 5 1 3 2 2 3 1 4 21 5 19 6 18 7 16 8 15 9 14 10 13 11 6 12
REMARK SMILES IDX 7 13 8 14 9 15 12 16 11 17 10 18 4 20 20 22 17 24
REMARK H PARENT 10 19 4 21 20 23 17 25
REMARK Flexibility Score: inf
ROOT
ATOM      1  C   UNL     1       9.290   1.455   9.216  1.00  0.00     0.180 A 
ATOM      2  C   UNL     1      10.064   0.373   8.756  1.00  0.00     0.208 A 
ATOM      3  C   UNL     1      11.095   0.619   7.836  1.00  0.00     0.238 A 
ATOM      4  O   UNL     1      11.802  -0.341   7.425  1.00  0.00    -0.285 OA
ATOM      5  C   UNL     1      11.321   1.933   7.377  1.00  0.00     0.111 A 
ATOM      6  C   UNL     1      12.336   2.264   6.447  1.00  0.00     0.134 A 
ATOM      7  C   UNL     1      12.491   3.596   6.032  1.00  0.00     0.093 A 
ATOM      8  C   UNL     1      11.651   4.599   6.528  1.00  0.00     0.123 A 
ATOM      9  C   UNL     1      10.650   4.277   7.445  1.00  0.00     0.094 A 
ATOM     10  C   UNL     1      10.480   2.957   7.872  1.00  0.00     0.146 A 
ATOM     11  O   UNL     1       9.522   2.679   8.749  1.00  0.00    -0.452 OA
ENDROOT
BRANCH   1  12
ATOM     12  C   UNL     1       8.198   1.280  10.200  1.00  0.00     0.021 A 
ATOM     13  C   UNL     1       8.513   1.040  11.549  1.00  0.00     0.016 A 
ATOM     14  C   UNL     1       7.499   0.849  12.490  1.00  0.00     0.047 A 
ATOM     15  C   UNL     1       6.157   0.879  12.096  1.00  0.00     0.115 A 
ATOM     16  C   UNL     1       6.847   1.288   9.806  1.00  0.00     0.016 A 
ATOM     17  C   UNL     1       5.834   1.095  10.751  1.00  0.00     0.047 A 
BRANCH  15  18
ATOM     18  O   UNL     1       5.156   0.687  13.046  1.00  0.00    -0.508 OA
ATOM     19  H   UNL     1       4.375   0.066  12.873  1.00  0.00     0.293 HD
ENDBRANCH  15  18
ENDBRANCH   1  12
BRANCH   2  20
ATOM     20  O   UNL     1       9.788  -0.926   9.189  1.00  0.00    -0.502 OA
ATOM     21  H   UNL     1       8.873  -1.206   9.519  1.00  0.00     0.293 HD
ENDBRANCH   2  20
BRANCH   6  22
ATOM     22  O   UNL     1      13.188   1.285   5.935  1.00  0.00    -0.507 OA
ATOM     23  H   UNL     1      12.846   0.371   5.661  1.00  0.00     0.293 HD
ENDBRANCH   6  22
BRANCH   8  24
ATOM     24  O   UNL     1      11.805   5.921   6.115  1.00  0.00    -0.508 OA
ATOM     25  H   UNL     1      12.719   6.318   5.938  1.00  0.00     0.293 HD
ENDBRANCH   8  24
TORSDOF 5
ENDMDL
MODEL 3
REMARK VINA RESULT:    28.306      4.489      7.333
REMARK INTER + INTRA:          33.132
REMARK INTER:                  33.311
REMARK INTRA:                  -0.179
REMARK UNBOUND:                -0.138
REMARK SMILES O=c1c(O)c(-c2ccc(O)cc2)oc2cc(O)cc(O)c12
REMARK SMILES IDX 5 1 3 2 2 3 1 4 21 5 19 6 18 7 16 8 15 9 14 10 13 11 6 12
REMARK SMILES IDX 7 13 8 14 9 15 12 16 11 17 10 18 4 20 20 22 17 24
REMARK H PARENT 10 19 4 21 20 23 17 25
REMARK Flexibility Score: inf
ROOT
ATOM      1  C   UNL     1      14.818   3.056   9.131  1.00  0.00     0.180 A 
ATOM      2  C   UNL     1      14.832   1.743   8.623  1.00  0.00     0.208 A 
ATOM      3  C   UNL     1      13.862   1.371   7.679  1.00  0.00     0.238 A 
ATOM      4  O   UNL     1      13.872   0.201   7.208  1.00  0.00    -0.285 OA
ATOM      5  C   UNL     1      12.886   2.306   7.277  1.00  0.00     0.111 A 
ATOM      6  C   UNL     1      11.872   2.009   6.335  1.00  0.00     0.134 A 
ATOM      7  C   UNL     1      10.930   2.992   5.994  1.00  0.00     0.093 A 
ATOM      8  C   UNL     1      10.984   4.263   6.577  1.00  0.00     0.123 A 
ATOM      9  C   UNL     1      11.982   4.559   7.505  1.00  0.00     0.094 A 
ATOM     10  C   UNL     1      12.930   3.595   7.858  1.00  0.00     0.146 A 
ATOM     11  O   UNL     1      13.873   3.906   8.741  1.00  0.00    -0.452 OA
ENDROOT
BRANCH   1  12
ATOM     12  C   UNL     1      15.819   3.530  10.115  1.00  0.00     0.021 A 
ATOM     13  C   UNL     1      17.158   3.688   9.718  1.00  0.00     0.016 A 
ATOM     14  C   UNL     1      18.123   4.112  10.636  1.00  0.00     0.047 A 
ATOM     15  C   UNL     1      17.767   4.369  11.964  1.00  0.00     0.115 A 
ATOM     16  C   UNL     1      15.471   3.771  11.457  1.00  0.00     0.016 A 
ATOM     17  C   UNL     1      16.439   4.194  12.373  1.00  0.00     0.047 A 
BRANCH  15  18
ATOM     18  O   UNL     1      18.740   4.791  12.867  1.00  0.00    -0.508 OA
ATOM     19  H   UNL     1      19.145   5.718  12.813  1.00  0.00     0.293 HD
ENDBRANCH  15  18
ENDBRANCH   1  12
BRANCH   2  20
ATOM     20  O   UNL     1      15.780   0.822   9.073  1.00  0.00    -0.502 OA
ATOM     21  H   UNL     1      15.926  -0.073   8.621  1.00  0.00     0.293 HD
ENDBRANCH   2  20
BRANCH   6  22
ATOM     22  O   UNL     1      11.792   0.751   5.737  1.00  0.00    -0.507 OA
ATOM     23  H   UNL     1      12.566   0.359   5.213  1.00  0.00     0.293 HD
ENDBRANCH   6  22
BRANCH   8  24
ATOM     24  O   UNL     1      10.048   5.238   6.239  1.00  0.00    -0.508 OA
ATOM     25  H   UNL     1       9.908   5.529   5.279  1.00  0.00     0.293 HD
ENDBRANCH   8  24
TORSDOF 5
ENDMDL
MODEL 4
REMARK VINA RESULT:    28.970      4.632      6.877
REMARK INTER + INTRA:          33.913
REMARK INTER:                  34.140
REMARK INTRA:                  -0.227
REMARK UNBOUND:                -0.138
REMARK SMILES O=c1c(O)c(-c2ccc(O)cc2)oc2cc(O)cc(O)c12
REMARK SMILES IDX 5 1 3 2 2 3 1 4 21 5 19 6 18 7 16 8 15 9 14 10 13 11 6 12
REMARK SMILES IDX 7 13 8 14 9 15 12 16 11 17 10 18 4 20 20 22 17 24
REMARK H PARENT 10 19 4 21 20 23 17 25
REMARK Flexibility Score: inf
ROOT
ATOM      1  C   UNL     1      14.844   3.686   9.259  1.00  0.00     0.180 A 
ATOM      2  C   UNL     1      14.074   4.791   8.850  1.00  0.00     0.208 A 
ATOM      3  C   UNL     1      13.032   4.589   7.931  1.00  0.00     0.238 A 
ATOM      4  O   UNL     1      12.329   5.570   7.565  1.00  0.00    -0.285 OA
ATOM      5  C   UNL     1      12.791   3.296   7.424  1.00  0.00     0.111 A 
ATOM      6  C   UNL     1      11.765   3.009   6.492  1.00  0.00     0.134 A 
ATOM      7  C   UNL     1      11.595   1.695   6.027  1.00  0.00     0.093 A 
ATOM      8  C   UNL     1      12.432   0.667   6.475  1.00  0.00     0.123 A 
ATOM      9  C   UNL     1      13.445   0.946   7.393  1.00  0.00     0.094 A 
ATOM     10  C   UNL     1      13.629   2.247   7.870  1.00  0.00     0.146 A 
ATOM     11  O   UNL     1      14.598   2.483   8.748  1.00  0.00    -0.452 OA
ENDROOT
BRANCH   1  12
ATOM     12  C   UNL     1      15.947   3.814  10.239  1.00  0.00     0.021 A 
ATOM     13  C   UNL     1      15.647   3.999  11.599  1.00  0.00     0.016 A 
ATOM     14  C   UNL     1      16.672   4.146  12.538  1.00  0.00     0.047 A 
ATOM     15  C   UNL     1      18.009   4.125  12.129  1.00  0.00     0.115 A 
ATOM     16  C   UNL     1      17.294   3.816   9.831  1.00  0.00     0.016 A 
ATOM     17  C   UNL     1      18.317   3.964  10.772  1.00  0.00     0.047 A 
BRANCH  15  18
ATOM     18  O   UNL     1      19.020   4.273  13.075  1.00  0.00    -0.508 OA
ATOM     19  H   UNL     1      18.917   4.897  13.866  1.00  0.00     0.293 HD
ENDBRANCH  15  18
ENDBRANCH   1  12
BRANCH   2  20
ATOM     20  O   UNL     1      14.364   6.070   9.330  1.00  0.00    -0.502 OA
ATOM     21  H   UNL     1      15.175   6.595   9.023  1.00  0.00     0.293 HD
ENDBRANCH   2  20
BRANCH   6  22
ATOM     22  O   UNL     1      10.916   4.013   6.026  1.00  0.00    -0.507 OA
ATOM     23  H   UNL     1      10.926   4.313   5.058  1.00  0.00     0.293 HD
ENDBRANCH   6  22
BRANCH   8  24
ATOM     24  O   UNL     1      12.264  -0.636   6.012  1.00  0.00    -0.508 OA
ATOM     25  H   UNL     1      12.591  -1.434   6.544  1.00  0.00     0.293 HD
ENDBRANCH   8  24
TORSDOF 5
ENDMDL
