MODEL 1
REMARK VINA RESULT:    -3.452      0.000      0.000
REMARK INTER + INTRA:          -6.463
REMARK INTER:                  -5.268
REMARK INTRA:                  -1.195
REMARK UNBOUND:                -1.195
REMARK SMILES CCCCCCCCCCC(=O)[O-]
REMARK SMILES IDX 7 1 8 2 9 3 10 4 11 5 12 6 13 7 6 8 5 9 4 10 3 11 2 12 1 13
REMARK H PARENT
REMARK Flexibility Score: inf
ROOT
ATOM      1  C   UNL     1      30.529  51.193  38.407  1.00  0.00     0.000 C 
ENDROOT
BRANCH   1   2
ATOM      2  C   UNL     1      30.497  50.426  39.737  1.00  0.00     0.000 C 
BRANCH   2   3
ATOM      3  C   UNL     1      29.287  49.480  39.853  1.00  0.00     0.006 C 
BRANCH   3   4
ATOM      4  C   UNL     1      29.241  48.671  41.158  1.00  0.00     0.053 C 
BRANCH   4   5
ATOM      5  C   UNL     1      30.139  47.474  41.110  1.00  0.00     0.041 C 
ATOM      6  O   UNL     1      29.821  46.470  40.421  1.00  0.00    -0.550 OA
ATOM      7  O   UNL     1      31.345  47.482  41.800  1.00  0.00    -0.550 OA
ENDBRANCH   4   5
ENDBRANCH   3   4
ENDBRANCH   2   3
ENDBRANCH   1   2
BRANCH   1   8
ATOM      8  C   UNL     1      29.945  52.604  38.573  1.00  0.00     0.000 C 
BRANCH   8   9
ATOM      9  C   UNL     1      28.480  52.708  38.109  1.00  0.00    -0.000 C 
BRANCH   9  10
ATOM     10  C   UNL     1      27.449  52.895  39.237  1.00  0.00    -0.000 C 
BRANCH  10  11
ATOM     11  C   UNL     1      28.083  53.373  40.555  1.00  0.00    -0.000 C 
BRANCH  11  12
ATOM     12  C   UNL     1      27.797  52.418  41.725  1.00  0.00    -0.003 C 
ATOM     13  C   UNL     1      26.531  51.587  41.515  1.00  0.00     0.004 C 
ENDBRANCH  11  12
ENDBRANCH  10  11
ENDBRANCH   9  10
ENDBRANCH   8   9
ENDBRANCH   1   8
TORSDOF 9
ENDMDL
MODEL 2
REMARK VINA RESULT:    -3.308      1.150      2.828
REMARK INTER + INTRA:          -6.243
REMARK INTER:                  -5.202
REMARK INTRA:                  -1.042
REMARK UNBOUND:                -1.195
REMARK SMILES CCCCCCCCCCC(=O)[O-]
REMARK SMILES IDX 7 1 8 2 9 3 10 4 11 5 12 6 13 7 6 8 5 9 4 10 3 11 2 12 1 13
REMARK H PARENT
REMARK Flexibility Score: inf
ROOT
ATOM      1  C   UNL     1      28.128  50.032  41.366  1.00  0.00     0.000 C 
ENDROOT
BRANCH   1   2
ATOM      2  C   UNL     1      29.551  50.245  41.903  1.00  0.00     0.000 C 
BRANCH   2   3
ATOM      3  C   UNL     1      30.516  49.114  41.503  1.00  0.00     0.006 C 
BRANCH   3   4
ATOM      4  C   UNL     1      29.932  48.112  40.496  1.00  0.00     0.053 C 
BRANCH   4   5
ATOM      5  C   UNL     1      30.181  46.693  40.907  1.00  0.00     0.041 C 
ATOM      6  O   UNL     1      29.215  45.925  41.150  1.00  0.00    -0.550 OA
ATOM      7  O   UNL     1      31.482  46.212  40.990  1.00  0.00    -0.550 OA
ENDBRANCH   4   5
ENDBRANCH   3   4
ENDBRANCH   2   3
ENDBRANCH   1   2
BRANCH   1   8
ATOM      8  C   UNL     1      27.235  51.240  41.685  1.00  0.00     0.000 C 
BRANCH   8   9
ATOM      9  C   UNL     1      27.087  52.211  40.498  1.00  0.00    -0.000 C 
BRANCH   9  10
ATOM     10  C   UNL     1      27.555  51.657  39.140  1.00  0.00    -0.000 C 
BRANCH  10  11
ATOM     11  C   UNL     1      28.381  52.671  38.331  1.00  0.00    -0.000 C 
BRANCH  11  12
ATOM     12  C   UNL     1      29.875  52.633  38.692  1.00  0.00    -0.003 C 
ATOM     13  C   UNL     1      30.508  51.262  38.450  1.00  0.00     0.004 C 
ENDBRANCH  11  12
ENDBRANCH  10  11
ENDBRANCH   9  10
ENDBRANCH   8   9
ENDBRANCH   1   8
TORSDOF 9
ENDMDL
MODEL 3
REMARK VINA RESULT:    -3.163      2.786      4.841
REMARK INTER + INTRA:          -6.022
REMARK INTER:                  -5.143
REMARK INTRA:                  -0.879
REMARK UNBOUND:                -1.195
REMARK SMILES CCCCCCCCCCC(=O)[O-]
REMARK SMILES IDX 7 1 8 2 9 3 10 4 11 5 12 6 13 7 6 8 5 9 4 10 3 11 2 12 1 13
REMARK H PARENT
REMARK Flexibility Score: inf
ROOT
ATOM      1  C   UNL     1      28.619  52.432  38.043  1.00  0.00     0.000 C 
ENDROOT
BRANCH   1   2
ATOM      2  C   UNL     1      27.715  53.157  39.051  1.00  0.00     0.000 C 
BRANCH   2   3
ATOM      3  C   UNL     1      27.283  52.257  40.222  1.00  0.00     0.006 C 
BRANCH   3   4
ATOM      4  C   UNL     1      27.394  52.920  41.603  1.00  0.00     0.053 C 
BRANCH   4   5
ATOM      5  C   UNL     1      28.708  53.614  41.789  1.00  0.00     0.041 C 
ATOM      6  O   UNL     1      29.762  52.945  41.942  1.00  0.00    -0.550 OA
ATOM      7  O   UNL     1      28.770  55.002  41.762  1.00  0.00    -0.550 OA
ENDBRANCH   4   5
ENDBRANCH   3   4
ENDBRANCH   2   3
ENDBRANCH   1   2
BRANCH   1   8
ATOM      8  C   UNL     1      30.056  52.322  38.574  1.00  0.00     0.000 C 
BRANCH   8   9
ATOM      9  C   UNL     1      30.581  50.874  38.598  1.00  0.00    -0.000 C 
BRANCH   9  10
ATOM     10  C   UNL     1      30.467  50.162  39.959  1.00  0.00    -0.000 C 
BRANCH  10  11
ATOM     11  C   UNL     1      29.280  49.187  40.027  1.00  0.00    -0.000 C 
BRANCH  11  12
ATOM     12  C   UNL     1      29.448  48.131  41.132  1.00  0.00    -0.003 C 
ATOM     13  C   UNL     1      30.370  46.983  40.718  1.00  0.00     0.004 C 
ENDBRANCH  11  12
ENDBRANCH  10  11
ENDBRANCH   9  10
ENDBRANCH   8   9
ENDBRANCH   1   8
TORSDOF 9
ENDMDL
MODEL 4
REMARK VINA RESULT:    -3.135      2.816      5.180
REMARK INTER + INTRA:          -5.979
REMARK INTER:                  -5.226
REMARK INTRA:                  -0.754
REMARK UNBOUND:                -1.195
REMARK SMILES CCCCCCCCCCC(=O)[O-]
REMARK SMILES IDX 7 1 8 2 9 3 10 4 11 5 12 6 13 7 6 8 5 9 4 10 3 11 2 12 1 13
REMARK H PARENT
REMARK Flexibility Score: inf
ROOT
ATOM      1  C   UNL     1      30.251  51.040  38.457  1.00  0.00     0.000 C 
ENDROOT
BRANCH   1   2
ATOM      2  C   UNL     1      29.939  52.531  38.658  1.00  0.00     0.000 C 
BRANCH   2   3
ATOM      3  C   UNL     1      28.447  52.860  38.469  1.00  0.00     0.006 C 
BRANCH   3   4
ATOM      4  C   UNL     1      27.491  51.884  39.170  1.00  0.00     0.053 C 
BRANCH   4   5
ATOM      5  C   UNL     1      27.078  52.376  40.523  1.00  0.00     0.041 C 
ATOM      6  O   UNL     1      27.696  53.329  41.067  1.00  0.00    -0.550 OA
ATOM      7  O   UNL     1      25.989  51.803  41.169  1.00  0.00    -0.550 OA
ENDBRANCH   4   5
ENDBRANCH   3   4
ENDBRANCH   2   3
ENDBRANCH   1   2
BRANCH   1   8
ATOM      8  C   UNL     1      31.064  50.486  39.637  1.00  0.00     0.000 C 
BRANCH   8   9
ATOM      9  C   UNL     1      30.187  49.816  40.711  1.00  0.00    -0.000 C 
BRANCH   9  10
ATOM     10  C   UNL     1      29.195  48.763  40.181  1.00  0.00    -0.000 C 
BRANCH  10  11
ATOM     11  C   UNL     1      29.677  47.320  40.406  1.00  0.00    -0.000 C 
BRANCH  11  12
ATOM     12  C   UNL     1      30.717  47.217  41.533  1.00  0.00    -0.003 C 
ATOM     13  C   UNL     1      31.704  46.068  41.325  1.00  0.00     0.004 C 
ENDBRANCH  11  12
ENDBRANCH  10  11
ENDBRANCH   9  10
ENDBRANCH   8   9
ENDBRANCH   1   8
TORSDOF 9
ENDMDL
MODEL 5
REMARK VINA RESULT:    -3.133     16.841     18.208
REMARK INTER + INTRA:          -5.976
REMARK INTER:                  -5.307
REMARK INTRA:                  -0.669
REMARK UNBOUND:                -1.195
REMARK SMILES CCCCCCCCCCC(=O)[O-]
REMARK SMILES IDX 7 1 8 2 9 3 10 4 11 5 12 6 13 7 6 8 5 9 4 10 3 11 2 12 1 13
REMARK H PARENT
REMARK Flexibility Score: inf
ROOT
ATOM      1  C   UNL     1      26.336  41.967  24.957  1.00  0.00     0.000 C 
ENDROOT
BRANCH   1   2
ATOM      2  C   UNL     1      26.408  41.868  26.487  1.00  0.00     0.000 C 
BRANCH   2   3
ATOM      3  C   UNL     1      27.685  42.503  27.068  1.00  0.00     0.006 C 
BRANCH   3   4
ATOM      4  C   UNL     1      28.531  43.272  26.043  1.00  0.00     0.053 C 
BRANCH   4   5
ATOM      5  C   UNL     1      29.972  43.345  26.445  1.00  0.00     0.041 C 
ATOM      6  O   UNL     1      30.476  42.441  27.161  1.00  0.00    -0.550 OA
ATOM      7  O   UNL     1      30.765  44.396  26.001  1.00  0.00    -0.550 OA
ENDBRANCH   4   5
ENDBRANCH   3   4
ENDBRANCH   2   3
ENDBRANCH   1   2
BRANCH   1   8
ATOM      8  C   UNL     1      25.402  40.893  24.380  1.00  0.00     0.000 C 
BRANCH   8   9
ATOM      9  C   UNL     1      25.210  39.692  25.325  1.00  0.00    -0.000 C 
BRANCH   9  10
ATOM     10  C   UNL     1      26.012  38.432  24.951  1.00  0.00    -0.000 C 
BRANCH  10  11
ATOM     11  C   UNL     1      27.306  38.280  25.769  1.00  0.00    -0.000 C 
BRANCH  11  12
ATOM     12  C   UNL     1      28.295  37.294  25.127  1.00  0.00    -0.003 C 
ATOM     13  C   UNL     1      27.941  36.959  23.678  1.00  0.00     0.004 C 
ENDBRANCH  11  12
ENDBRANCH  10  11
ENDBRANCH   9  10
ENDBRANCH   8   9
ENDBRANCH   1   8
TORSDOF 9
ENDMDL
MODEL 6
REMARK VINA RESULT:    -3.119     16.052     17.338
REMARK INTER + INTRA:          -5.955
REMARK INTER:                  -5.103
REMARK INTRA:                  -0.852
REMARK UNBOUND:                -1.195
REMARK SMILES CCCCCCCCCCC(=O)[O-]
REMARK SMILES IDX 7 1 8 2 9 3 10 4 11 5 12 6 13 7 6 8 5 9 4 10 3 11 2 12 1 13
REMARK H PARENT
REMARK Flexibility Score: inf
ROOT
ATOM      1  C   UNL     1      26.196  41.616  25.338  1.00  0.00     0.000 C 
ENDROOT
BRANCH   1   2
ATOM      2  C   UNL     1      26.240  41.745  26.868  1.00  0.00     0.000 C 
BRANCH   2   3
ATOM      3  C   UNL     1      27.560  42.354  27.378  1.00  0.00     0.006 C 
BRANCH   3   4
ATOM      4  C   UNL     1      28.233  43.320  26.391  1.00  0.00     0.053 C 
BRANCH   4   5
ATOM      5  C   UNL     1      29.721  43.348  26.560  1.00  0.00     0.041 C 
ATOM      6  O   UNL     1      30.288  42.523  27.322  1.00  0.00    -0.550 OA
ATOM      7  O   UNL     1      30.484  44.266  25.848  1.00  0.00    -0.550 OA
ENDBRANCH   4   5
ENDBRANCH   3   4
ENDBRANCH   2   3
ENDBRANCH   1   2
BRANCH   1   8
ATOM      8  C   UNL     1      25.266  40.470  24.911  1.00  0.00     0.000 C 
BRANCH   8   9
ATOM      9  C   UNL     1      25.978  39.106  24.854  1.00  0.00    -0.000 C 
BRANCH   9  10
ATOM     10  C   UNL     1      25.401  38.028  25.790  1.00  0.00    -0.000 C 
BRANCH  10  11
ATOM     11  C   UNL     1      26.033  38.051  27.192  1.00  0.00    -0.000 C 
BRANCH  11  12
ATOM     12  C   UNL     1      25.040  38.497  28.277  1.00  0.00    -0.003 C 
ATOM     13  C   UNL     1      25.726  39.170  29.467  1.00  0.00     0.004 C 
ENDBRANCH  11  12
ENDBRANCH  10  11
ENDBRANCH   9  10
ENDBRANCH   8   9
ENDBRANCH   1   8
TORSDOF 9
ENDMDL
MODEL 7
REMARK VINA RESULT:    -3.094     16.963     18.132
REMARK INTER + INTRA:          -5.917
REMARK INTER:                  -5.167
REMARK INTRA:                  -0.750
REMARK UNBOUND:                -1.195
REMARK SMILES CCCCCCCCCCC(=O)[O-]
REMARK SMILES IDX 7 1 8 2 9 3 10 4 11 5 12 6 13 7 6 8 5 9 4 10 3 11 2 12 1 13
REMARK H PARENT
REMARK Flexibility Score: inf
ROOT
ATOM      1  C   UNL     1      25.651  41.200  24.588  1.00  0.00     0.000 C 
ENDROOT
BRANCH   1   2
ATOM      2  C   UNL     1      25.552  40.455  25.927  1.00  0.00     0.000 C 
BRANCH   2   3
ATOM      3  C   UNL     1      26.441  39.199  25.980  1.00  0.00     0.006 C 
BRANCH   3   4
ATOM      4  C   UNL     1      26.175  38.189  24.853  1.00  0.00     0.053 C 
BRANCH   4   5
ATOM      5  C   UNL     1      27.434  37.533  24.378  1.00  0.00     0.041 C 
ATOM      6  O   UNL     1      28.373  37.304  25.185  1.00  0.00    -0.550 OA
ATOM      7  O   UNL     1      27.556  37.144  23.050  1.00  0.00    -0.550 OA
ENDBRANCH   4   5
ENDBRANCH   3   4
ENDBRANCH   2   3
ENDBRANCH   1   2
BRANCH   1   8
ATOM      8  C   UNL     1      26.381  42.541  24.759  1.00  0.00     0.000 C 
BRANCH   8   9
ATOM      9  C   UNL     1      26.551  42.950  26.234  1.00  0.00    -0.000 C 
BRANCH   9  10
ATOM     10  C   UNL     1      27.981  43.357  26.638  1.00  0.00    -0.000 C 
BRANCH  10  11
ATOM     11  C   UNL     1      28.965  42.175  26.627  1.00  0.00    -0.000 C 
BRANCH  11  12
ATOM     12  C   UNL     1      30.371  42.586  26.162  1.00  0.00    -0.003 C 
ATOM     13  C   UNL     1      30.491  44.086  25.892  1.00  0.00     0.004 C 
ENDBRANCH  11  12
ENDBRANCH  10  11
ENDBRANCH   9  10
ENDBRANCH   8   9
ENDBRANCH   1   8
TORSDOF 9
ENDMDL
MODEL 8
REMARK VINA RESULT:    -3.059      0.980      3.233
REMARK INTER + INTRA:          -5.863
REMARK INTER:                  -4.655
REMARK INTRA:                  -1.209
REMARK UNBOUND:                -1.195
REMARK SMILES CCCCCCCCCCC(=O)[O-]
REMARK SMILES IDX 7 1 8 2 9 3 10 4 11 5 12 6 13 7 6 8 5 9 4 10 3 11 2 12 1 13
REMARK H PARENT
REMARK Flexibility Score: inf
ROOT
ATOM      1  C   UNL     1      26.720  52.290  41.419  1.00  0.00     0.000 C 
ENDROOT
BRANCH   1   2
ATOM      2  C   UNL     1      26.927  50.856  41.928  1.00  0.00     0.000 C 
BRANCH   2   3
ATOM      3  C   UNL     1      28.362  50.344  41.705  1.00  0.00     0.006 C 
BRANCH   3   4
ATOM      4  C   UNL     1      28.529  49.450  40.467  1.00  0.00     0.053 C 
BRANCH   4   5
ATOM      5  C   UNL     1      29.725  48.555  40.578  1.00  0.00     0.041 C 
ATOM      6  O   UNL     1      30.820  49.009  41.000  1.00  0.00    -0.550 OA
ATOM      7  O   UNL     1      29.619  47.209  40.246  1.00  0.00    -0.550 OA
ENDBRANCH   4   5
ENDBRANCH   3   4
ENDBRANCH   2   3
ENDBRANCH   1   2
BRANCH   1   8
ATOM      8  C   UNL     1      27.982  53.137  41.638  1.00  0.00     0.000 C 
BRANCH   8   9
ATOM      9  C   UNL     1      28.488  53.809  40.348  1.00  0.00    -0.000 C 
BRANCH   9  10
ATOM     10  C   UNL     1      27.815  53.322  39.051  1.00  0.00    -0.000 C 
BRANCH  10  11
ATOM     11  C   UNL     1      28.747  52.463  38.178  1.00  0.00    -0.000 C 
BRANCH  11  12
ATOM     12  C   UNL     1      30.152  52.319  38.785  1.00  0.00    -0.003 C 
ATOM     13  C   UNL     1      30.935  51.146  38.194  1.00  0.00     0.004 C 
ENDBRANCH  11  12
ENDBRANCH  10  11
ENDBRANCH   9  10
ENDBRANCH   8   9
ENDBRANCH   1   8
TORSDOF 9
ENDMDL
MODEL 9
REMARK VINA RESULT:    -2.976     16.166     17.589
REMARK INTER + INTRA:          -5.736
REMARK INTER:                  -4.678
REMARK INTRA:                  -1.058
REMARK UNBOUND:                -1.195
REMARK SMILES CCCCCCCCCCC(=O)[O-]
REMARK SMILES IDX 7 1 8 2 9 3 10 4 11 5 12 6 13 7 6 8 5 9 4 10 3 11 2 12 1 13
REMARK H PARENT
REMARK Flexibility Score: inf
ROOT
ATOM      1  C   UNL     1      25.236  41.209  27.484  1.00  0.00     0.000 C 
ENDROOT
BRANCH   1   2
ATOM      2  C   UNL     1      26.715  41.608  27.589  1.00  0.00     0.000 C 
BRANCH   2   3
ATOM      3  C   UNL     1      27.384  41.788  26.213  1.00  0.00     0.006 C 
BRANCH   3   4
ATOM      4  C   UNL     1      28.023  43.168  25.997  1.00  0.00     0.053 C 
BRANCH   4   5
ATOM      5  C   UNL     1      29.471  43.182  26.380  1.00  0.00     0.041 C 
ATOM      6  O   UNL     1      30.134  42.113  26.393  1.00  0.00    -0.550 OA
ATOM      7  O   UNL     1      30.096  44.384  26.691  1.00  0.00    -0.550 OA
ENDBRANCH   4   5
ENDBRANCH   3   4
ENDBRANCH   2   3
ENDBRANCH   1   2
BRANCH   1   8
ATOM      8  C   UNL     1      24.885  40.128  28.518  1.00  0.00     0.000 C 
BRANCH   8   9
ATOM      9  C   UNL     1      25.692  38.830  28.329  1.00  0.00    -0.000 C 
BRANCH   9  10
ATOM     10  C   UNL     1      25.464  38.108  26.988  1.00  0.00    -0.000 C 
BRANCH  10  11
ATOM     11  C   UNL     1      26.729  38.054  26.115  1.00  0.00    -0.000 C 
BRANCH  11  12
ATOM     12  C   UNL     1      26.438  38.372  24.639  1.00  0.00    -0.003 C 
ATOM     13  C   UNL     1      25.172  39.208  24.451  1.00  0.00     0.004 C 
ENDBRANCH  11  12
ENDBRANCH  10  11
ENDBRANCH   9  10
ENDBRANCH   8   9
ENDBRANCH   1   8
TORSDOF 9
ENDMDL
