MODEL 1
REMARK VINA RESULT:    -3.343      0.000      0.000
REMARK INTER + INTRA:          -3.772
REMARK INTER:                  -3.734
REMARK INTRA:                  -0.038
REMARK UNBOUND:                -0.038
REMARK SMILES CCCC(=O)[O-]
REMARK SMILES IDX 3 1 4 2 5 3 6 4 2 5 1 6
REMARK H PARENT
REMARK Flexibility Score: inf
ROOT
ATOM      1  C   UNL     1     -29.048   3.750  33.741  1.00  0.00     0.052 C 
ENDROOT
BRANCH   1   2
ATOM      2  C   UNL     1     -30.408   3.351  33.257  1.00  0.00     0.041 C 
ATOM      3  O   UNL     1     -30.580   3.022  32.053  1.00  0.00    -0.550 OA
ATOM      4  O   UNL     1     -31.492   3.377  34.125  1.00  0.00    -0.550 OA
ENDBRANCH   1   2
BRANCH   1   5
ATOM      5  C   UNL     1     -28.181   2.529  34.075  1.00  0.00     0.003 C 
ATOM      6  C   UNL     1     -27.132   2.249  33.000  1.00  0.00     0.004 C 
ENDBRANCH   1   5
TORSDOF 2
ENDMDL
MODEL 2
REMARK VINA RESULT:    -3.340      1.954      3.337
REMARK INTER + INTRA:          -3.768
REMARK INTER:                  -3.699
REMARK INTRA:                  -0.069
REMARK UNBOUND:                -0.038
REMARK SMILES CCCC(=O)[O-]
REMARK SMILES IDX 3 1 4 2 5 3 6 4 2 5 1 6
REMARK H PARENT
REMARK Flexibility Score: inf
ROOT
ATOM      1  C   UNL     1     -30.196   3.403  33.400  1.00  0.00     0.052 C 
ENDROOT
BRANCH   1   2
ATOM      2  C   UNL     1     -29.336   2.212  33.108  1.00  0.00     0.041 C 
ATOM      3  O   UNL     1     -28.966   1.453  34.044  1.00  0.00    -0.550 OA
ATOM      4  O   UNL     1     -28.915   1.957  31.810  1.00  0.00    -0.550 OA
ENDBRANCH   1   2
BRANCH   1   5
ATOM      5  C   UNL     1     -31.591   2.994  33.889  1.00  0.00     0.003 C 
ATOM      6  C   UNL     1     -32.406   2.296  32.801  1.00  0.00     0.004 C 
ENDBRANCH   1   5
TORSDOF 2
ENDMDL
MODEL 3
REMARK VINA RESULT:    -3.282      1.064      1.776
REMARK INTER + INTRA:          -3.704
REMARK INTER:                  -3.646
REMARK INTRA:                  -0.058
REMARK UNBOUND:                -0.038
REMARK SMILES CCCC(=O)[O-]
REMARK SMILES IDX 3 1 4 2 5 3 6 4 2 5 1 6
REMARK H PARENT
REMARK Flexibility Score: inf
ROOT
ATOM      1  C   UNL     1     -29.467   1.624  33.355  1.00  0.00     0.052 C 
ENDROOT
BRANCH   1   2
ATOM      2  C   UNL     1     -30.214   2.635  32.540  1.00  0.00     0.041 C 
ATOM      3  O   UNL     1     -30.982   3.459  33.103  1.00  0.00    -0.550 OA
ATOM      4  O   UNL     1     -30.089   2.645  31.157  1.00  0.00    -0.550 OA
ENDBRANCH   1   2
BRANCH   1   5
ATOM      5  C   UNL     1     -28.292   2.257  34.112  1.00  0.00     0.003 C 
ATOM      6  C   UNL     1     -27.122   2.596  33.189  1.00  0.00     0.004 C 
ENDBRANCH   1   5
TORSDOF 2
ENDMDL
MODEL 4
REMARK VINA RESULT:    -3.269      1.753      2.226
REMARK INTER + INTRA:          -3.689
REMARK INTER:                  -3.623
REMARK INTRA:                  -0.067
REMARK UNBOUND:                -0.038
REMARK SMILES CCCC(=O)[O-]
REMARK SMILES IDX 3 1 4 2 5 3 6 4 2 5 1 6
REMARK H PARENT
REMARK Flexibility Score: inf
ROOT
ATOM      1  C   UNL     1     -27.969   1.403  33.079  1.00  0.00     0.052 C 
ENDROOT
BRANCH   1   2
ATOM      2  C   UNL     1     -29.253   1.471  32.310  1.00  0.00     0.041 C 
ATOM      3  O   UNL     1     -29.239   1.453  31.051  1.00  0.00    -0.550 OA
ATOM      4  O   UNL     1     -30.463   1.590  32.983  1.00  0.00    -0.550 OA
ENDBRANCH   1   2
BRANCH   1   5
ATOM      5  C   UNL     1     -27.112   2.658  32.870  1.00  0.00     0.003 C 
ATOM      6  C   UNL     1     -27.847   3.937  33.267  1.00  0.00     0.004 C 
ENDBRANCH   1   5
TORSDOF 2
ENDMDL
MODEL 5
REMARK VINA RESULT:    -3.265      2.531      2.950
REMARK INTER + INTRA:          -3.685
REMARK INTER:                  -3.616
REMARK INTRA:                  -0.069
REMARK UNBOUND:                -0.038
REMARK SMILES CCCC(=O)[O-]
REMARK SMILES IDX 3 1 4 2 5 3 6 4 2 5 1 6
REMARK H PARENT
REMARK Flexibility Score: inf
ROOT
ATOM      1  C   UNL     1     -28.696   1.633  33.865  1.00  0.00     0.052 C 
ENDROOT
BRANCH   1   2
ATOM      2  C   UNL     1     -27.869   2.861  33.635  1.00  0.00     0.041 C 
ATOM      3  O   UNL     1     -26.680   2.756  33.231  1.00  0.00    -0.550 OA
ATOM      4  O   UNL     1     -28.398   4.118  33.899  1.00  0.00    -0.550 OA
ENDBRANCH   1   2
BRANCH   1   5
ATOM      5  C   UNL     1     -29.923   1.592  32.944  1.00  0.00     0.003 C 
ATOM      6  C   UNL     1     -29.538   1.483  31.469  1.00  0.00     0.004 C 
ENDBRANCH   1   5
TORSDOF 2
ENDMDL
MODEL 6
REMARK VINA RESULT:    -3.256     10.004     10.574
REMARK INTER + INTRA:          -3.674
REMARK INTER:                  -3.606
REMARK INTRA:                  -0.068
REMARK UNBOUND:                -0.038
REMARK SMILES CCCC(=O)[O-]
REMARK SMILES IDX 3 1 4 2 5 3 6 4 2 5 1 6
REMARK H PARENT
REMARK Flexibility Score: inf
ROOT
ATOM      1  C   UNL     1     -26.641  -1.197  23.879  1.00  0.00     0.052 C 
ENDROOT
BRANCH   1   2
ATOM      2  C   UNL     1     -27.917  -1.783  24.398  1.00  0.00     0.041 C 
ATOM      3  O   UNL     1     -28.509  -2.687  23.751  1.00  0.00    -0.550 OA
ATOM      4  O   UNL     1     -28.474  -1.306  25.578  1.00  0.00    -0.550 OA
ENDBRANCH   1   2
BRANCH   1   5
ATOM      5  C   UNL     1     -26.740   0.324  23.706  1.00  0.00     0.003 C 
ATOM      6  C   UNL     1     -27.861   0.728  22.749  1.00  0.00     0.004 C 
ENDBRANCH   1   5
TORSDOF 2
ENDMDL
MODEL 7
REMARK VINA RESULT:    -3.228     10.617     11.199
REMARK INTER + INTRA:          -3.644
REMARK INTER:                  -3.596
REMARK INTRA:                  -0.048
REMARK UNBOUND:                -0.038
REMARK SMILES CCCC(=O)[O-]
REMARK SMILES IDX 3 1 4 2 5 3 6 4 2 5 1 6
REMARK H PARENT
REMARK Flexibility Score: inf
ROOT
ATOM      1  C   UNL     1     -27.587  -1.898  24.341  1.00  0.00     0.052 C 
ENDROOT
BRANCH   1   2
ATOM      2  C   UNL     1     -28.739  -2.194  23.431  1.00  0.00     0.041 C 
ATOM      3  O   UNL     1     -29.901  -2.321  23.901  1.00  0.00    -0.550 OA
ATOM      4  O   UNL     1     -28.526  -2.364  22.069  1.00  0.00    -0.550 OA
ENDBRANCH   1   2
BRANCH   1   5
ATOM      5  C   UNL     1     -26.484  -1.107  23.626  1.00  0.00     0.003 C 
ATOM      6  C   UNL     1     -26.776   0.392  23.587  1.00  0.00     0.004 C 
ENDBRANCH   1   5
TORSDOF 2
ENDMDL
MODEL 8
REMARK VINA RESULT:    -3.211      9.739     10.251
REMARK INTER + INTRA:          -3.625
REMARK INTER:                  -3.587
REMARK INTRA:                  -0.038
REMARK UNBOUND:                -0.038
REMARK SMILES CCCC(=O)[O-]
REMARK SMILES IDX 3 1 4 2 5 3 6 4 2 5 1 6
REMARK H PARENT
REMARK Flexibility Score: inf
ROOT
ATOM      1  C   UNL     1     -28.016   0.768  22.819  1.00  0.00     0.052 C 
ENDROOT
BRANCH   1   2
ATOM      2  C   UNL     1     -29.278   0.849  23.621  1.00  0.00     0.041 C 
ATOM      3  O   UNL     1     -29.228   0.894  24.879  1.00  0.00    -0.550 OA
ATOM      4  O   UNL     1     -30.512   0.841  22.983  1.00  0.00    -0.550 OA
ENDBRANCH   1   2
BRANCH   1   5
ATOM      5  C   UNL     1     -26.803   0.440  23.698  1.00  0.00     0.003 C 
ATOM      6  C   UNL     1     -26.483  -1.054  23.713  1.00  0.00     0.004 C 
ENDBRANCH   1   5
TORSDOF 2
ENDMDL
MODEL 9
REMARK VINA RESULT:    -3.179     10.948     11.395
REMARK INTER + INTRA:          -3.589
REMARK INTER:                  -3.577
REMARK INTRA:                  -0.012
REMARK UNBOUND:                -0.038
REMARK SMILES CCCC(=O)[O-]
REMARK SMILES IDX 3 1 4 2 5 3 6 4 2 5 1 6
REMARK H PARENT
REMARK Flexibility Score: inf
ROOT
ATOM      1  C   UNL     1     -28.667  -2.274  23.996  1.00  0.00     0.052 C 
ENDROOT
BRANCH   1   2
ATOM      2  C   UNL     1     -27.414  -1.544  23.624  1.00  0.00     0.041 C 
ATOM      3  O   UNL     1     -26.377  -1.665  24.330  1.00  0.00    -0.550 OA
ATOM      4  O   UNL     1     -27.399  -0.702  22.520  1.00  0.00    -0.550 OA
ENDBRANCH   1   2
BRANCH   1   5
ATOM      5  C   UNL     1     -29.874  -1.784  23.185  1.00  0.00     0.003 C 
ATOM      6  C   UNL     1     -31.177  -1.858  23.980  1.00  0.00     0.004 C 
ENDBRANCH   1   5
TORSDOF 2
ENDMDL
