MODEL 1
REMARK VINA RESULT:    -3.159      0.000      0.000
REMARK INTER + INTRA:          -4.176
REMARK INTER:                  -4.082
REMARK INTRA:                  -0.094
REMARK UNBOUND:                -0.094
REMARK SMILES C=CC(=O)CCCCC
REMARK SMILES IDX 6 1 7 2 8 3 9 4 5 5 3 6 4 7 2 8 1 9
REMARK H PARENT
REMARK Flexibility Score: inf
ROOT
ATOM      1  C   UNL     1     -32.500  -0.588  60.086  1.00  0.00     0.008 C 
ENDROOT
BRANCH   1   2
ATOM      2  C   UNL     1     -32.412  -2.123  60.061  1.00  0.00     0.000 C 
BRANCH   2   3
ATOM      3  C   UNL     1     -32.546  -2.746  61.459  1.00  0.00    -0.003 C 
ATOM      4  C   UNL     1     -33.933  -3.349  61.659  1.00  0.00     0.004 C 
ENDBRANCH   2   3
ENDBRANCH   1   2
BRANCH   1   5
ATOM      5  C   UNL     1     -31.879   0.062  58.838  1.00  0.00     0.080 C 
BRANCH   5   6
ATOM      6  C   UNL     1     -32.493   1.403  58.505  1.00  0.00     0.155 C 
ATOM      7  O   UNL     1     -33.284   1.955  59.317  1.00  0.00    -0.295 OA
BRANCH   6   8
ATOM      8  C   UNL     1     -32.210   2.095  57.230  1.00  0.00     0.039 C 
ATOM      9  C   UNL     1     -33.047   2.100  56.193  1.00  0.00     0.012 C 
ENDBRANCH   6   8
ENDBRANCH   5   6
ENDBRANCH   1   5
TORSDOF 5
ENDMDL
MODEL 2
REMARK VINA RESULT:    -3.151      1.509      5.109
REMARK INTER + INTRA:          -4.166
REMARK INTER:                  -4.010
REMARK INTRA:                  -0.156
REMARK UNBOUND:                -0.094
REMARK SMILES C=CC(=O)CCCCC
REMARK SMILES IDX 6 1 7 2 8 3 9 4 5 5 3 6 4 7 2 8 1 9
REMARK H PARENT
REMARK Flexibility Score: inf
ROOT
ATOM      1  C   UNL     1     -32.072   0.688  58.082  1.00  0.00     0.008 C 
ENDROOT
BRANCH   1   2
ATOM      2  C   UNL     1     -31.990   1.977  57.248  1.00  0.00     0.000 C 
BRANCH   2   3
ATOM      3  C   UNL     1     -33.373   2.509  56.843  1.00  0.00    -0.003 C 
ATOM      4  C   UNL     1     -33.643   2.262  55.361  1.00  0.00     0.004 C 
ENDBRANCH   2   3
ENDBRANCH   1   2
BRANCH   1   5
ATOM      5  C   UNL     1     -31.875   0.941  59.586  1.00  0.00     0.080 C 
BRANCH   5   6
ATOM      6  C   UNL     1     -32.027  -0.311  60.418  1.00  0.00     0.155 C 
ATOM      7  O   UNL     1     -32.001  -0.242  61.677  1.00  0.00    -0.295 OA
BRANCH   6   8
ATOM      8  C   UNL     1     -32.188  -1.644  59.799  1.00  0.00     0.039 C 
ATOM      9  C   UNL     1     -32.382  -2.762  60.497  1.00  0.00     0.012 C 
ENDBRANCH   6   8
ENDBRANCH   5   6
ENDBRANCH   1   5
TORSDOF 5
ENDMDL
MODEL 3
REMARK VINA RESULT:    -3.129      1.647      5.215
REMARK INTER + INTRA:          -4.138
REMARK INTER:                  -3.937
REMARK INTRA:                  -0.201
REMARK UNBOUND:                -0.094
REMARK SMILES C=CC(=O)CCCCC
REMARK SMILES IDX 6 1 7 2 8 3 9 4 5 5 3 6 4 7 2 8 1 9
REMARK H PARENT
REMARK Flexibility Score: inf
ROOT
ATOM      1  C   UNL     1     -33.475   0.435  59.978  1.00  0.00     0.008 C 
ENDROOT
BRANCH   1   2
ATOM      2  C   UNL     1     -32.598   1.496  59.294  1.00  0.00     0.000 C 
BRANCH   2   3
ATOM      3  C   UNL     1     -32.007   1.006  57.963  1.00  0.00    -0.003 C 
ATOM      4  C   UNL     1     -32.518   1.844  56.794  1.00  0.00     0.004 C 
ENDBRANCH   2   3
ENDBRANCH   1   2
BRANCH   1   5
ATOM      5  C   UNL     1     -32.719  -0.351  61.063  1.00  0.00     0.080 C 
BRANCH   5   6
ATOM      6  C   UNL     1     -32.639  -1.831  60.769  1.00  0.00     0.155 C 
ATOM      7  O   UNL     1     -32.281  -2.231  59.628  1.00  0.00    -0.295 OA
BRANCH   6   8
ATOM      8  C   UNL     1     -32.991  -2.847  61.784  1.00  0.00     0.039 C 
ATOM      9  C   UNL     1     -34.173  -3.462  61.832  1.00  0.00     0.012 C 
ENDBRANCH   6   8
ENDBRANCH   5   6
ENDBRANCH   1   5
TORSDOF 5
ENDMDL
MODEL 4
REMARK VINA RESULT:    -3.027      1.329      2.235
REMARK INTER + INTRA:          -4.007
REMARK INTER:                  -3.883
REMARK INTRA:                  -0.124
REMARK UNBOUND:                -0.094
REMARK SMILES C=CC(=O)CCCCC
REMARK SMILES IDX 6 1 7 2 8 3 9 4 5 5 3 6 4 7 2 8 1 9
REMARK H PARENT
REMARK Flexibility Score: inf
ROOT
ATOM      1  C   UNL     1     -32.724   0.923  58.637  1.00  0.00     0.008 C 
ENDROOT
BRANCH   1   2
ATOM      2  C   UNL     1     -31.900  -0.291  59.096  1.00  0.00     0.000 C 
BRANCH   2   3
ATOM      3  C   UNL     1     -32.568  -1.057  60.248  1.00  0.00    -0.003 C 
ATOM      4  C   UNL     1     -32.463  -2.565  60.037  1.00  0.00     0.004 C 
ENDBRANCH   2   3
ENDBRANCH   1   2
BRANCH   1   5
ATOM      5  C   UNL     1     -32.151   1.585  57.371  1.00  0.00     0.080 C 
BRANCH   5   6
ATOM      6  C   UNL     1     -33.077   2.623  56.780  1.00  0.00     0.155 C 
ATOM      7  O   UNL     1     -33.330   3.681  57.417  1.00  0.00    -0.295 OA
BRANCH   6   8
ATOM      8  C   UNL     1     -33.724   2.432  55.465  1.00  0.00     0.039 C 
ATOM      9  C   UNL     1     -35.038   2.280  55.305  1.00  0.00     0.012 C 
ENDBRANCH   6   8
ENDBRANCH   5   6
ENDBRANCH   1   5
TORSDOF 5
ENDMDL
MODEL 5
REMARK VINA RESULT:    -2.996     21.426     23.424
REMARK INTER + INTRA:          -3.967
REMARK INTER:                  -3.356
REMARK INTRA:                  -0.610
REMARK UNBOUND:                -0.094
REMARK SMILES C=CC(=O)CCCCC
REMARK SMILES IDX 6 1 7 2 8 3 9 4 5 5 3 6 4 7 2 8 1 9
REMARK H PARENT
REMARK Flexibility Score: inf
ROOT
ATOM      1  C   UNL     1     -52.002  -0.022  44.278  1.00  0.00     0.008 C 
ENDROOT
BRANCH   1   2
ATOM      2  C   UNL     1     -51.978  -1.499  43.850  1.00  0.00     0.000 C 
BRANCH   2   3
ATOM      3  C   UNL     1     -50.996  -1.766  42.699  1.00  0.00    -0.003 C 
ATOM      4  C   UNL     1     -50.760  -0.503  41.876  1.00  0.00     0.004 C 
ENDBRANCH   2   3
ENDBRANCH   1   2
BRANCH   1   5
ATOM      5  C   UNL     1     -51.133   0.250  45.518  1.00  0.00     0.080 C 
BRANCH   5   6
ATOM      6  C   UNL     1     -49.765   0.790  45.170  1.00  0.00     0.155 C 
ATOM      7  O   UNL     1     -49.623   2.005  44.862  1.00  0.00    -0.295 OA
BRANCH   6   8
ATOM      8  C   UNL     1     -48.565  -0.074  45.158  1.00  0.00     0.039 C 
ATOM      9  C   UNL     1     -48.578  -1.356  45.521  1.00  0.00     0.012 C 
ENDBRANCH   6   8
ENDBRANCH   5   6
ENDBRANCH   1   5
TORSDOF 5
ENDMDL
MODEL 6
REMARK VINA RESULT:    -2.953     21.051     22.876
REMARK INTER + INTRA:          -3.910
REMARK INTER:                  -3.471
REMARK INTRA:                  -0.439
REMARK UNBOUND:                -0.094
REMARK SMILES C=CC(=O)CCCCC
REMARK SMILES IDX 6 1 7 2 8 3 9 4 5 5 3 6 4 7 2 8 1 9
REMARK H PARENT
REMARK Flexibility Score: inf
ROOT
ATOM      1  C   UNL     1     -49.347   0.504  45.270  1.00  0.00     0.008 C 
ENDROOT
BRANCH   1   2
ATOM      2  C   UNL     1     -48.101  -0.333  44.937  1.00  0.00     0.000 C 
BRANCH   2   3
ATOM      3  C   UNL     1     -48.215  -1.784  45.428  1.00  0.00    -0.003 C 
ATOM      4  C   UNL     1     -46.838  -2.434  45.541  1.00  0.00     0.004 C 
ENDBRANCH   2   3
ENDBRANCH   1   2
BRANCH   1   5
ATOM      5  C   UNL     1     -50.632  -0.341  45.325  1.00  0.00     0.080 C 
BRANCH   5   6
ATOM      6  C   UNL     1     -51.490  -0.186  44.091  1.00  0.00     0.155 C 
ATOM      7  O   UNL     1     -52.123   0.886  43.891  1.00  0.00    -0.295 OA
BRANCH   6   8
ATOM      8  C   UNL     1     -51.634  -1.274  43.101  1.00  0.00     0.039 C 
ATOM      9  C   UNL     1     -50.609  -1.991  42.640  1.00  0.00     0.012 C 
ENDBRANCH   6   8
ENDBRANCH   5   6
ENDBRANCH   1   5
TORSDOF 5
ENDMDL
MODEL 7
REMARK VINA RESULT:    -2.920      3.120      4.294
REMARK INTER + INTRA:          -3.868
REMARK INTER:                  -3.614
REMARK INTRA:                  -0.254
REMARK UNBOUND:                -0.094
REMARK SMILES C=CC(=O)CCCCC
REMARK SMILES IDX 6 1 7 2 8 3 9 4 5 5 3 6 4 7 2 8 1 9
REMARK H PARENT
REMARK Flexibility Score: inf
ROOT
ATOM      1  C   UNL     1     -32.483   2.291  56.829  1.00  0.00     0.008 C 
ENDROOT
BRANCH   1   2
ATOM      2  C   UNL     1     -31.875   1.018  57.441  1.00  0.00     0.000 C 
BRANCH   2   3
ATOM      3  C   UNL     1     -32.247   0.838  58.921  1.00  0.00    -0.003 C 
ATOM      4  C   UNL     1     -33.690   1.260  59.179  1.00  0.00     0.004 C 
ENDBRANCH   2   3
ENDBRANCH   1   2
BRANCH   1   5
ATOM      5  C   UNL     1     -33.363   1.997  55.602  1.00  0.00     0.080 C 
BRANCH   5   6
ATOM      6  C   UNL     1     -34.555   2.921  55.498  1.00  0.00     0.155 C 
ATOM      7  O   UNL     1     -35.598   2.543  54.900  1.00  0.00    -0.295 OA
BRANCH   6   8
ATOM      8  C   UNL     1     -34.534   4.286  56.066  1.00  0.00     0.039 C 
ATOM      9  C   UNL     1     -34.741   5.387  55.345  1.00  0.00     0.012 C 
ENDBRANCH   6   8
ENDBRANCH   5   6
ENDBRANCH   1   5
TORSDOF 5
ENDMDL
MODEL 8
REMARK VINA RESULT:    -2.887      4.008      5.026
REMARK INTER + INTRA:          -3.825
REMARK INTER:                  -3.225
REMARK INTRA:                  -0.599
REMARK UNBOUND:                -0.094
REMARK SMILES C=CC(=O)CCCCC
REMARK SMILES IDX 6 1 7 2 8 3 9 4 5 5 3 6 4 7 2 8 1 9
REMARK H PARENT
REMARK Flexibility Score: inf
ROOT
ATOM      1  C   UNL     1     -32.987   1.717  56.352  1.00  0.00     0.008 C 
ENDROOT
BRANCH   1   2
ATOM      2  C   UNL     1     -33.618   2.686  55.339  1.00  0.00     0.000 C 
BRANCH   2   3
ATOM      3  C   UNL     1     -35.143   2.787  55.488  1.00  0.00    -0.003 C 
ATOM      4  C   UNL     1     -35.620   2.070  56.748  1.00  0.00     0.004 C 
ENDBRANCH   2   3
ENDBRANCH   1   2
BRANCH   1   5
ATOM      5  C   UNL     1     -31.925   2.392  57.237  1.00  0.00     0.080 C 
BRANCH   5   6
ATOM      6  C   UNL     1     -32.487   2.909  58.541  1.00  0.00     0.155 C 
ATOM      7  O   UNL     1     -32.841   2.101  59.442  1.00  0.00    -0.295 OA
BRANCH   6   8
ATOM      8  C   UNL     1     -32.658   4.355  58.798  1.00  0.00     0.039 C 
ATOM      9  C   UNL     1     -33.602   5.098  58.221  1.00  0.00     0.012 C 
ENDBRANCH   6   8
ENDBRANCH   5   6
ENDBRANCH   1   5
TORSDOF 5
ENDMDL
MODEL 9
REMARK VINA RESULT:    -2.881     23.237     24.294
REMARK INTER + INTRA:          -3.817
REMARK INTER:                  -3.245
REMARK INTRA:                  -0.572
REMARK UNBOUND:                -0.094
REMARK SMILES C=CC(=O)CCCCC
REMARK SMILES IDX 6 1 7 2 8 3 9 4 5 5 3 6 4 7 2 8 1 9
REMARK H PARENT
REMARK Flexibility Score: inf
ROOT
ATOM      1  C   UNL     1     -50.881  -0.867  44.893  1.00  0.00     0.008 C 
ENDROOT
BRANCH   1   2
ATOM      2  C   UNL     1     -52.060  -1.631  44.269  1.00  0.00     0.000 C 
BRANCH   2   3
ATOM      3  C   UNL     1     -52.101  -1.506  42.738  1.00  0.00    -0.003 C 
ATOM      4  C   UNL     1     -50.703  -1.630  42.140  1.00  0.00     0.004 C 
ENDBRANCH   2   3
ENDBRANCH   1   2
BRANCH   1   5
ATOM      5  C   UNL     1     -51.289   0.514  45.435  1.00  0.00     0.080 C 
BRANCH   5   6
ATOM      6  C   UNL     1     -50.942   1.642  44.490  1.00  0.00     0.155 C 
ATOM      7  O   UNL     1     -49.791   2.156  44.515  1.00  0.00    -0.295 OA
BRANCH   6   8
ATOM      8  C   UNL     1     -51.927   2.187  43.533  1.00  0.00     0.039 C 
ATOM      9  C   UNL     1     -51.776   2.133  42.209  1.00  0.00     0.012 C 
ENDBRANCH   6   8
ENDBRANCH   5   6
ENDBRANCH   1   5
TORSDOF 5
ENDMDL
