MODEL 1
REMARK VINA RESULT:    -7.842      0.000      0.000
REMARK INTER + INTRA:         -14.777
REMARK INTER:                 -12.197
REMARK INTRA:                  -2.580
REMARK UNBOUND:                -2.580
REMARK SMILES C[C@@]12C[C@@]3(O)O[C@@H](O1)[C@]1(COC(=O)c4ccccc4)[C@H]3C[C@@]12O[C@@H]1O[C@@H](CO)[C@@H](O)[C@H](O)[C@@H]1O
REMARK SMILES IDX 1 1 2 2 3 3 4 4 20 5 21 6 22 7 9 8 7 9 8 10 6 11 23 12 24 13
REMARK SMILES IDX 33 14 25 15 31 16 26 17 29 18 34 19 32 21 27 23 28 24 30 26
REMARK SMILES IDX 5 28 10 30 11 31 12 32 13 33 14 34 15 35 19 36 16 37 18 38
REMARK SMILES IDX 17 39
REMARK H PARENT 34 20 32 22 28 25 30 27 5 29
REMARK Flexibility Score: inf
ROOT
ATOM      1  C   UNL     1     177.510 182.439 171.424  1.00  0.00     0.046 C 
ATOM      2  C   UNL     1     177.612 181.493 172.655  1.00  0.00     0.104 C 
ATOM      3  C   UNL     1     176.092 181.427 173.137  1.00  0.00     0.104 C 
ATOM      4  C   UNL     1     176.087 180.301 174.217  1.00  0.00     0.175 C 
ATOM      5  C   UNL     1     177.270 180.519 175.240  1.00  0.00     0.070 C 
ATOM      6  C   UNL     1     177.731 181.920 175.269  1.00  0.00     0.050 C 
ATOM      7  C   UNL     1     178.632 181.645 174.061  1.00  0.00     0.115 C 
ATOM      8  C   UNL     1     178.455 180.063 174.454  1.00  0.00     0.096 C 
ATOM      9  C   UNL     1     177.828 179.327 173.247  1.00  0.00     0.267 C 
ATOM     10  O   UNL     1     177.906 180.214 172.137  1.00  0.00    -0.342 OA
ATOM     11  O   UNL     1     176.432 179.121 173.583  1.00  0.00    -0.320 OA
ENDROOT
BRANCH   7  12
ATOM     12  O   UNL     1     180.033 182.291 174.175  1.00  0.00    -0.339 OA
BRANCH  12  13
ATOM     13  C   UNL     1     181.109 182.286 173.151  1.00  0.00     0.282 C 
ATOM     14  C   UNL     1     181.567 183.670 172.491  1.00  0.00     0.202 C 
ATOM     15  O   UNL     1     182.217 181.420 173.473  1.00  0.00    -0.341 OA
ATOM     16  C   UNL     1     182.115 184.384 173.783  1.00  0.00     0.179 C 
ATOM     17  C   UNL     1     183.273 181.986 174.283  1.00  0.00     0.178 C 
ATOM     18  C   UNL     1     183.377 183.577 174.361  1.00  0.00     0.177 C 
BRANCH  14  19
ATOM     19  O   UNL     1     180.372 184.395 172.188  1.00  0.00    -0.385 OA
ATOM     20  H   UNL     1     179.966 183.921 171.369  1.00  0.00     0.211 HD
ENDBRANCH  14  19
BRANCH  16  21
ATOM     21  O   UNL     1     181.040 184.842 174.651  1.00  0.00    -0.387 OA
ATOM     22  H   UNL     1     180.423 184.259 175.274  1.00  0.00     0.211 HD
ENDBRANCH  16  21
BRANCH  17  23
ATOM     23  C   UNL     1     184.634 181.380 173.853  1.00  0.00     0.191 C 
BRANCH  23  24
ATOM     24  O   UNL     1     185.225 180.554 174.862  1.00  0.00    -0.394 OA
ATOM     25  H   UNL     1     184.432 180.217 175.370  1.00  0.00     0.210 HD
ENDBRANCH  23  24
ENDBRANCH  17  23
BRANCH  18  26
ATOM     26  O   UNL     1     184.587 184.024 173.754  1.00  0.00    -0.387 OA
ATOM     27  H   UNL     1     184.318 184.525 172.913  1.00  0.00     0.211 HD
ENDBRANCH  18  26
ENDBRANCH  12  13
ENDBRANCH   7  12
BRANCH   4  28
ATOM     28  O   UNL     1     174.850 180.261 174.906  1.00  0.00    -0.365 OA
ATOM     29  H   UNL     1     174.111 180.517 174.266  1.00  0.00     0.214 HD
ENDBRANCH   4  28
BRANCH   8  30
ATOM     30  C   UNL     1     179.189 178.994 175.337  1.00  0.00     0.249 C 
BRANCH  30  31
ATOM     31  O   UNL     1     180.621 179.028 175.116  1.00  0.00    -0.461 OA
BRANCH  31  32
ATOM     32  C   UNL     1     181.552 179.384 176.161  1.00  0.00     0.338 C 
ATOM     33  O   UNL     1     182.780 179.052 175.994  1.00  0.00    -0.246 OA
BRANCH  32  34
ATOM     34  C   UNL     1     181.100 179.952 177.457  1.00  0.00     0.060 A 
ATOM     35  C   UNL     1     181.058 179.124 178.636  1.00  0.00     0.015 A 
ATOM     36  C   UNL     1     180.541 181.272 177.544  1.00  0.00     0.015 A 
ATOM     37  C   UNL     1     180.375 179.595 179.794  1.00  0.00     0.001 A 
ATOM     38  C   UNL     1     179.989 181.744 178.748  1.00  0.00     0.001 A 
ATOM     39  C   UNL     1     179.842 180.896 179.856  1.00  0.00     0.000 A 
ENDBRANCH  32  34
ENDBRANCH  31  32
ENDBRANCH  30  31
ENDBRANCH   8  30
TORSDOF 12
ENDMDL
MODEL 2
REMARK VINA RESULT:    -7.834      2.061      6.470
REMARK INTER + INTRA:         -14.764
REMARK INTER:                 -12.182
REMARK INTRA:                  -2.582
REMARK UNBOUND:                -2.580
REMARK SMILES C[C@@]12C[C@@]3(O)O[C@@H](O1)[C@]1(COC(=O)c4ccccc4)[C@H]3C[C@@]12O[C@@H]1O[C@@H](CO)[C@@H](O)[C@H](O)[C@@H]1O
REMARK SMILES IDX 1 1 2 2 3 3 4 4 20 5 21 6 22 7 9 8 7 9 8 10 6 11 23 12 24 13
REMARK SMILES IDX 33 14 25 15 31 16 26 17 29 18 34 19 32 21 27 23 28 24 30 26
REMARK SMILES IDX 5 28 10 30 11 31 12 32 13 33 14 34 15 35 19 36 16 37 18 38
REMARK SMILES IDX 17 39
REMARK H PARENT 34 20 32 22 28 25 30 27 5 29
REMARK Flexibility Score: inf
ROOT
ATOM      1  C   UNL     1     183.230 178.274 171.441  1.00  0.00     0.046 C 
ATOM      2  C   UNL     1     183.115 179.218 172.671  1.00  0.00     0.104 C 
ATOM      3  C   UNL     1     184.631 179.297 173.162  1.00  0.00     0.104 C 
ATOM      4  C   UNL     1     184.621 180.422 174.242  1.00  0.00     0.175 C 
ATOM      5  C   UNL     1     183.435 180.196 175.258  1.00  0.00     0.070 C 
ATOM      6  C   UNL     1     182.984 178.792 175.285  1.00  0.00     0.050 C 
ATOM      7  C   UNL     1     182.088 179.059 174.072  1.00  0.00     0.115 C 
ATOM      8  C   UNL     1     182.250 180.643 174.466  1.00  0.00     0.096 C 
ATOM      9  C   UNL     1     182.879 181.383 173.262  1.00  0.00     0.267 C 
ATOM     10  O   UNL     1     182.814 180.495 172.151  1.00  0.00    -0.342 OA
ATOM     11  O   UNL     1     184.271 181.600 173.606  1.00  0.00    -0.320 OA
ENDROOT
BRANCH   7  12
ATOM     12  O   UNL     1     180.691 178.403 174.178  1.00  0.00    -0.339 OA
BRANCH  12  13
ATOM     13  C   UNL     1     179.623 178.393 173.146  1.00  0.00     0.282 C 
ATOM     14  C   UNL     1     179.176 177.001 172.496  1.00  0.00     0.202 C 
ATOM     15  O   UNL     1     178.510 179.259 173.450  1.00  0.00    -0.341 OA
ATOM     16  C   UNL     1     178.620 176.299 173.790  1.00  0.00     0.179 C 
ATOM     17  C   UNL     1     177.449 178.697 174.257  1.00  0.00     0.178 C 
ATOM     18  C   UNL     1     177.350 177.107 174.350  1.00  0.00     0.177 C 
BRANCH  14  19
ATOM     19  O   UNL     1     180.376 176.277 172.210  1.00  0.00    -0.385 OA
ATOM     20  H   UNL     1     180.224 175.335 172.595  1.00  0.00     0.211 HD
ENDBRANCH  14  19
BRANCH  16  21
ATOM     21  O   UNL     1     179.689 175.854 174.672  1.00  0.00    -0.387 OA
ATOM     22  H   UNL     1     180.719 176.056 174.589  1.00  0.00     0.211 HD
ENDBRANCH  16  21
BRANCH  17  23
ATOM     23  C   UNL     1     176.090 179.294 173.809  1.00  0.00     0.191 C 
BRANCH  23  24
ATOM     24  O   UNL     1     175.491 180.133 174.802  1.00  0.00    -0.394 OA
ATOM     25  H   UNL     1     176.123 180.055 175.574  1.00  0.00     0.210 HD
ENDBRANCH  23  24
ENDBRANCH  17  23
BRANCH  18  26
ATOM     26  O   UNL     1     176.147 176.649 173.738  1.00  0.00    -0.387 OA
ATOM     27  H   UNL     1     176.427 176.034 172.980  1.00  0.00     0.211 HD
ENDBRANCH  18  26
ENDBRANCH  12  13
ENDBRANCH   7  12
BRANCH   4  28
ATOM     28  O   UNL     1     185.855 180.472 174.938  1.00  0.00    -0.365 OA
ATOM     29  H   UNL     1     186.349 179.603 174.790  1.00  0.00     0.214 HD
ENDBRANCH   4  28
BRANCH   8  30
ATOM     30  C   UNL     1     181.504 181.707 175.345  1.00  0.00     0.249 C 
BRANCH  30  31
ATOM     31  O   UNL     1     180.075 181.677 175.099  1.00  0.00    -0.461 OA
BRANCH  31  32
ATOM     32  C   UNL     1     179.126 181.323 176.127  1.00  0.00     0.338 C 
ATOM     33  O   UNL     1     177.903 181.662 175.942  1.00  0.00    -0.246 OA
BRANCH  32  34
ATOM     34  C   UNL     1     179.554 180.746 177.428  1.00  0.00     0.060 A 
ATOM     35  C   UNL     1     179.574 181.567 178.613  1.00  0.00     0.015 A 
ATOM     36  C   UNL     1     180.111 179.426 177.517  1.00  0.00     0.015 A 
ATOM     37  C   UNL     1     180.236 181.089 179.780  1.00  0.00     0.001 A 
ATOM     38  C   UNL     1     180.640 178.946 178.729  1.00  0.00     0.001 A 
ATOM     39  C   UNL     1     180.768 179.788 179.845  1.00  0.00     0.000 A 
ENDBRANCH  32  34
ENDBRANCH  31  32
ENDBRANCH  30  31
ENDBRANCH   8  30
TORSDOF 12
ENDMDL
MODEL 3
REMARK VINA RESULT:    -7.543      1.355      2.787
REMARK INTER + INTRA:         -14.312
REMARK INTER:                 -11.616
REMARK INTRA:                  -2.695
REMARK UNBOUND:                -2.580
REMARK SMILES C[C@@]12C[C@@]3(O)O[C@@H](O1)[C@]1(COC(=O)c4ccccc4)[C@H]3C[C@@]12O[C@@H]1O[C@@H](CO)[C@@H](O)[C@H](O)[C@@H]1O
REMARK SMILES IDX 1 1 2 2 3 3 4 4 20 5 21 6 22 7 9 8 7 9 8 10 6 11 23 12 24 13
REMARK SMILES IDX 33 14 25 15 31 16 26 17 29 18 34 19 32 21 27 23 28 24 30 26
REMARK SMILES IDX 5 28 10 30 11 31 12 32 13 33 14 34 15 35 19 36 16 37 18 38
REMARK SMILES IDX 17 39
REMARK H PARENT 34 20 32 22 28 25 30 27 5 29
REMARK Flexibility Score: inf
ROOT
ATOM      1  C   UNL     1     177.134 182.394 171.111  1.00  0.00     0.046 C 
ATOM      2  C   UNL     1     177.357 181.493 172.360  1.00  0.00     0.104 C 
ATOM      3  C   UNL     1     175.863 181.298 172.887  1.00  0.00     0.104 C 
ATOM      4  C   UNL     1     175.992 180.204 173.992  1.00  0.00     0.175 C 
ATOM      5  C   UNL     1     177.177 180.555 174.974  1.00  0.00     0.070 C 
ATOM      6  C   UNL     1     177.507 181.992 174.959  1.00  0.00     0.050 C 
ATOM      7  C   UNL     1     178.396 181.772 173.732  1.00  0.00     0.115 C 
ATOM      8  C   UNL     1     178.378 180.191 174.164  1.00  0.00     0.096 C 
ATOM      9  C   UNL     1     177.788 179.371 172.993  1.00  0.00     0.267 C 
ATOM     10  O   UNL     1     177.754 180.234 171.861  1.00  0.00    -0.342 OA
ATOM     11  O   UNL     1     176.427 179.046 173.374  1.00  0.00    -0.320 OA
ENDROOT
BRANCH   7  12
ATOM     12  O   UNL     1     179.734 182.547 173.790  1.00  0.00    -0.339 OA
BRANCH  12  13
ATOM     13  C   UNL     1     179.917 184.020 173.843  1.00  0.00     0.282 C 
ATOM     14  C   UNL     1     181.373 184.617 174.134  1.00  0.00     0.202 C 
ATOM     15  O   UNL     1     179.211 184.733 172.806  1.00  0.00    -0.341 OA
ATOM     16  C   UNL     1     182.117 184.070 172.860  1.00  0.00     0.179 C 
ATOM     17  C   UNL     1     179.899 184.899 171.545  1.00  0.00     0.178 C 
ATOM     18  C   UNL     1     181.484 184.719 171.535  1.00  0.00     0.177 C 
BRANCH  14  19
ATOM     19  O   UNL     1     181.927 183.845 175.204  1.00  0.00    -0.385 OA
ATOM     20  H   UNL     1     182.018 182.890 174.832  1.00  0.00     0.211 HD
ENDBRANCH  14  19
BRANCH  16  21
ATOM     21  O   UNL     1     182.388 182.643 172.955  1.00  0.00    -0.387 OA
ATOM     22  H   UNL     1     182.107 181.985 173.728  1.00  0.00     0.211 HD
ENDBRANCH  16  21
BRANCH  17  23
ATOM     23  C   UNL     1     179.510 186.265 170.922  1.00  0.00     0.191 C 
BRANCH  23  24
ATOM     24  O   UNL     1     179.407 187.315 171.889  1.00  0.00    -0.394 OA
ATOM     25  H   UNL     1     179.522 188.142 171.337  1.00  0.00     0.210 HD
ENDBRANCH  23  24
ENDBRANCH  17  23
BRANCH  18  26
ATOM     26  O   UNL     1     182.121 185.955 171.221  1.00  0.00    -0.387 OA
ATOM     27  H   UNL     1     181.863 186.176 170.264  1.00  0.00     0.211 HD
ENDBRANCH  18  26
ENDBRANCH  12  13
ENDBRANCH   7  12
BRANCH   4  28
ATOM     28  O   UNL     1     174.783 180.067 174.718  1.00  0.00    -0.365 OA
ATOM     29  H   UNL     1     175.000 179.973 175.700  1.00  0.00     0.214 HD
ENDBRANCH   4  28
BRANCH   8  30
ATOM     30  C   UNL     1     179.231 179.215 175.049  1.00  0.00     0.249 C 
BRANCH  30  31
ATOM     31  O   UNL     1     180.649 179.464 174.880  1.00  0.00    -0.461 OA
BRANCH  31  32
ATOM     32  C   UNL     1     181.384 180.345 175.757  1.00  0.00     0.338 C 
ATOM     33  O   UNL     1     182.422 180.924 175.275  1.00  0.00    -0.246 OA
BRANCH  32  34
ATOM     34  C   UNL     1     181.070 180.456 177.205  1.00  0.00     0.060 A 
ATOM     35  C   UNL     1     181.420 179.386 178.106  1.00  0.00     0.015 A 
ATOM     36  C   UNL     1     180.274 181.534 177.720  1.00  0.00     0.015 A 
ATOM     37  C   UNL     1     180.879 179.381 179.423  1.00  0.00     0.001 A 
ATOM     38  C   UNL     1     179.868 181.551 179.067  1.00  0.00     0.001 A 
ATOM     39  C   UNL     1     180.107 180.453 179.907  1.00  0.00     0.000 A 
ENDBRANCH  32  34
ENDBRANCH  31  32
ENDBRANCH  30  31
ENDBRANCH   8  30
TORSDOF 12
ENDMDL
MODEL 4
REMARK VINA RESULT:    -7.522      2.244      4.824
REMARK INTER + INTRA:         -14.280
REMARK INTER:                 -12.174
REMARK INTRA:                  -2.106
REMARK UNBOUND:                -2.580
REMARK SMILES C[C@@]12C[C@@]3(O)O[C@@H](O1)[C@]1(COC(=O)c4ccccc4)[C@H]3C[C@@]12O[C@@H]1O[C@@H](CO)[C@@H](O)[C@H](O)[C@@H]1O
REMARK SMILES IDX 1 1 2 2 3 3 4 4 20 5 21 6 22 7 9 8 7 9 8 10 6 11 23 12 24 13
REMARK SMILES IDX 33 14 25 15 31 16 26 17 29 18 34 19 32 21 27 23 28 24 30 26
REMARK SMILES IDX 5 28 10 30 11 31 12 32 13 33 14 34 15 35 19 36 16 37 18 38
REMARK SMILES IDX 17 39
REMARK H PARENT 34 20 32 22 28 25 30 27 5 29
REMARK Flexibility Score: inf
ROOT
ATOM      1  C   UNL     1     176.530 177.576 172.587  1.00  0.00     0.046 C 
ATOM      2  C   UNL     1     177.900 177.444 173.311  1.00  0.00     0.104 C 
ATOM      3  C   UNL     1     177.602 176.275 174.356  1.00  0.00     0.104 C 
ATOM      4  C   UNL     1     179.005 175.928 174.945  1.00  0.00     0.175 C 
ATOM      5  C   UNL     1     179.761 177.245 175.372  1.00  0.00     0.070 C 
ATOM      6  C   UNL     1     178.834 178.367 175.615  1.00  0.00     0.050 C 
ATOM      7  C   UNL     1     178.828 178.683 174.117  1.00  0.00     0.115 C 
ATOM      8  C   UNL     1     180.206 177.796 174.057  1.00  0.00     0.096 C 
ATOM      9  C   UNL     1     179.987 176.618 173.079  1.00  0.00     0.267 C 
ATOM     10  O   UNL     1     178.788 176.893 172.363  1.00  0.00    -0.342 OA
ATOM     11  O   UNL     1     179.778 175.444 173.905  1.00  0.00    -0.320 OA
ENDROOT
BRANCH   7  12
ATOM     12  O   UNL     1     178.899 180.196 173.803  1.00  0.00    -0.339 OA
BRANCH  12  13
ATOM     13  C   UNL     1     177.870 181.224 174.101  1.00  0.00     0.282 C 
ATOM     14  C   UNL     1     178.196 182.764 173.813  1.00  0.00     0.202 C 
ATOM     15  O   UNL     1     176.535 180.846 173.705  1.00  0.00    -0.341 OA
ATOM     16  C   UNL     1     178.379 182.684 172.252  1.00  0.00     0.179 C 
ATOM     17  C   UNL     1     176.148 181.150 172.346  1.00  0.00     0.178 C 
ATOM     18  C   UNL     1     176.996 182.250 171.561  1.00  0.00     0.177 C 
BRANCH  14  19
ATOM     19  O   UNL     1     179.522 183.000 174.295  1.00  0.00    -0.385 OA
ATOM     20  H   UNL     1     179.642 184.021 174.276  1.00  0.00     0.211 HD
ENDBRANCH  14  19
BRANCH  16  21
ATOM     21  O   UNL     1     179.644 182.066 171.881  1.00  0.00    -0.387 OA
ATOM     22  H   UNL     1     179.894 181.612 170.965  1.00  0.00     0.211 HD
ENDBRANCH  16  21
BRANCH  17  23
ATOM     23  C   UNL     1     174.640 181.506 172.306  1.00  0.00     0.191 C 
BRANCH  23  24
ATOM     24  O   UNL     1     174.071 181.400 170.997  1.00  0.00    -0.394 OA
ATOM     25  H   UNL     1     173.087 181.367 171.181  1.00  0.00     0.210 HD
ENDBRANCH  23  24
ENDBRANCH  17  23
BRANCH  18  26
ATOM     26  O   UNL     1     176.189 183.391 171.281  1.00  0.00    -0.387 OA
ATOM     27  H   UNL     1     175.235 183.132 171.514  1.00  0.00     0.211 HD
ENDBRANCH  18  26
ENDBRANCH  12  13
ENDBRANCH   7  12
BRANCH   4  28
ATOM     28  O   UNL     1     178.890 175.051 176.052  1.00  0.00    -0.365 OA
ATOM     29  H   UNL     1     178.970 174.098 175.725  1.00  0.00     0.214 HD
ENDBRANCH   4  28
BRANCH   8  30
ATOM     30  C   UNL     1     181.752 178.037 174.176  1.00  0.00     0.249 C 
BRANCH  30  31
ATOM     31  O   UNL     1     182.034 179.301 174.826  1.00  0.00    -0.461 OA
BRANCH  31  32
ATOM     32  C   UNL     1     182.494 179.376 176.192  1.00  0.00     0.338 C 
ATOM     33  O   UNL     1     183.615 178.814 176.468  1.00  0.00    -0.246 OA
BRANCH  32  34
ATOM     34  C   UNL     1     181.644 179.922 177.281  1.00  0.00     0.060 A 
ATOM     35  C   UNL     1     181.513 179.207 178.527  1.00  0.00     0.015 A 
ATOM     36  C   UNL     1     180.806 181.070 177.075  1.00  0.00     0.015 A 
ATOM     37  C   UNL     1     180.496 179.592 179.446  1.00  0.00     0.001 A 
ATOM     38  C   UNL     1     179.902 181.492 178.068  1.00  0.00     0.001 A 
ATOM     39  C   UNL     1     179.692 180.725 179.225  1.00  0.00     0.000 A 
ENDBRANCH  32  34
ENDBRANCH  31  32
ENDBRANCH  30  31
ENDBRANCH   8  30
TORSDOF 12
ENDMDL
MODEL 5
REMARK VINA RESULT:    -7.495      2.259      5.074
REMARK INTER + INTRA:         -14.237
REMARK INTER:                 -12.123
REMARK INTRA:                  -2.114
REMARK UNBOUND:                -2.580
REMARK SMILES C[C@@]12C[C@@]3(O)O[C@@H](O1)[C@]1(COC(=O)c4ccccc4)[C@H]3C[C@@]12O[C@@H]1O[C@@H](CO)[C@@H](O)[C@H](O)[C@@H]1O
REMARK SMILES IDX 1 1 2 2 3 3 4 4 20 5 21 6 22 7 9 8 7 9 8 10 6 11 23 12 24 13
REMARK SMILES IDX 33 14 25 15 31 16 26 17 29 18 34 19 32 21 27 23 28 24 30 26
REMARK SMILES IDX 5 28 10 30 11 31 12 32 13 33 14 34 15 35 19 36 16 37 18 38
REMARK SMILES IDX 17 39
REMARK H PARENT 34 20 32 22 28 25 30 27 5 29
REMARK Flexibility Score: inf
ROOT
ATOM      1  C   UNL     1     184.147 183.176 172.515  1.00  0.00     0.046 C 
ATOM      2  C   UNL     1     182.782 183.280 173.254  1.00  0.00     0.104 C 
ATOM      3  C   UNL     1     183.076 184.438 174.312  1.00  0.00     0.104 C 
ATOM      4  C   UNL     1     181.675 184.759 174.919  1.00  0.00     0.175 C 
ATOM      5  C   UNL     1     180.939 183.426 175.335  1.00  0.00     0.070 C 
ATOM      6  C   UNL     1     181.883 182.313 175.554  1.00  0.00     0.050 C 
ATOM      7  C   UNL     1     181.879 182.018 174.051  1.00  0.00     0.115 C 
ATOM      8  C   UNL     1     180.489 182.888 174.017  1.00  0.00     0.096 C 
ATOM      9  C   UNL     1     180.683 184.082 173.054  1.00  0.00     0.267 C 
ATOM     10  O   UNL     1     181.878 183.832 172.322  1.00  0.00    -0.342 OA
ATOM     11  O   UNL     1     180.885 185.247 173.894  1.00  0.00    -0.320 OA
ENDROOT
BRANCH   7  12
ATOM     12  O   UNL     1     181.824 180.509 173.717  1.00  0.00    -0.339 OA
BRANCH  12  13
ATOM     13  C   UNL     1     182.851 179.483 174.028  1.00  0.00     0.282 C 
ATOM     14  C   UNL     1     182.544 177.946 173.706  1.00  0.00     0.202 C 
ATOM     15  O   UNL     1     184.194 179.876 173.676  1.00  0.00    -0.341 OA
ATOM     16  C   UNL     1     182.404 178.050 172.142  1.00  0.00     0.179 C 
ATOM     17  C   UNL     1     184.621 179.596 172.322  1.00  0.00     0.178 C 
ATOM     18  C   UNL     1     183.803 178.503 171.496  1.00  0.00     0.177 C 
BRANCH  14  19
ATOM     19  O   UNL     1     181.206 177.694 174.147  1.00  0.00    -0.385 OA
ATOM     20  H   UNL     1     180.916 178.549 174.639  1.00  0.00     0.211 HD
ENDBRANCH  14  19
BRANCH  16  21
ATOM     21  O   UNL     1     181.146 178.665 171.745  1.00  0.00    -0.387 OA
ATOM     22  H   UNL     1     180.171 178.332 171.960  1.00  0.00     0.211 HD
ENDBRANCH  16  21
BRANCH  17  23
ATOM     23  C   UNL     1     186.132 179.250 172.320  1.00  0.00     0.191 C 
BRANCH  23  24
ATOM     24  O   UNL     1     186.728 179.341 171.022  1.00  0.00    -0.394 OA
ATOM     25  H   UNL     1     187.487 178.691 171.076  1.00  0.00     0.210 HD
ENDBRANCH  23  24
ENDBRANCH  17  23
BRANCH  18  26
ATOM     26  O   UNL     1     184.626 177.372 171.221  1.00  0.00    -0.387 OA
ATOM     27  H   UNL     1     184.168 176.859 170.475  1.00  0.00     0.211 HD
ENDBRANCH  18  26
ENDBRANCH  12  13
ENDBRANCH   7  12
BRANCH   4  28
ATOM     28  O   UNL     1     181.789 185.621 176.038  1.00  0.00    -0.365 OA
ATOM     29  H   UNL     1     181.636 185.085 176.881  1.00  0.00     0.214 HD
ENDBRANCH   4  28
BRANCH   8  30
ATOM     30  C   UNL     1     178.947 182.625 174.148  1.00  0.00     0.249 C 
BRANCH  30  31
ATOM     31  O   UNL     1     178.688 181.347 174.781  1.00  0.00    -0.461 OA
BRANCH  31  32
ATOM     32  C   UNL     1     178.241 181.245 176.150  1.00  0.00     0.338 C 
ATOM     33  O   UNL     1     177.113 181.782 176.442  1.00  0.00    -0.246 OA
BRANCH  32  34
ATOM     34  C   UNL     1     179.111 180.701 177.224  1.00  0.00     0.060 A 
ATOM     35  C   UNL     1     179.259 181.414 178.468  1.00  0.00     0.015 A 
ATOM     36  C   UNL     1     179.950 179.557 177.002  1.00  0.00     0.015 A 
ATOM     37  C   UNL     1     180.292 181.032 179.370  1.00  0.00     0.001 A 
ATOM     38  C   UNL     1     180.871 179.137 177.979  1.00  0.00     0.001 A 
ATOM     39  C   UNL     1     181.097 179.902 179.134  1.00  0.00     0.000 A 
ENDBRANCH  32  34
ENDBRANCH  31  32
ENDBRANCH  30  31
ENDBRANCH   8  30
TORSDOF 12
ENDMDL
MODEL 6
REMARK VINA RESULT:    -7.483      2.968      6.483
REMARK INTER + INTRA:         -14.219
REMARK INTER:                 -11.442
REMARK INTRA:                  -2.777
REMARK UNBOUND:                -2.580
REMARK SMILES C[C@@]12C[C@@]3(O)O[C@@H](O1)[C@]1(COC(=O)c4ccccc4)[C@H]3C[C@@]12O[C@@H]1O[C@@H](CO)[C@@H](O)[C@H](O)[C@@H]1O
REMARK SMILES IDX 1 1 2 2 3 3 4 4 20 5 21 6 22 7 9 8 7 9 8 10 6 11 23 12 24 13
REMARK SMILES IDX 33 14 25 15 31 16 26 17 29 18 34 19 32 21 27 23 28 24 30 26
REMARK SMILES IDX 5 28 10 30 11 31 12 32 13 33 14 34 15 35 19 36 16 37 18 38
REMARK SMILES IDX 17 39
REMARK H PARENT 34 20 32 22 28 25 30 27 5 29
REMARK Flexibility Score: inf
ROOT
ATOM      1  C   UNL     1     183.664 178.058 171.145  1.00  0.00     0.046 C 
ATOM      2  C   UNL     1     183.353 179.056 172.297  1.00  0.00     0.104 C 
ATOM      3  C   UNL     1     184.811 179.336 172.883  1.00  0.00     0.104 C 
ATOM      4  C   UNL     1     184.597 180.516 173.881  1.00  0.00     0.175 C 
ATOM      5  C   UNL     1     183.368 180.219 174.826  1.00  0.00     0.070 C 
ATOM      6  C   UNL     1     183.072 178.777 174.918  1.00  0.00     0.050 C 
ATOM      7  C   UNL     1     182.246 178.867 173.631  1.00  0.00     0.115 C 
ATOM      8  C   UNL     1     182.206 180.480 173.925  1.00  0.00     0.096 C 
ATOM      9  C   UNL     1     182.839 181.212 172.719  1.00  0.00     0.267 C 
ATOM     10  O   UNL     1     182.956 180.257 171.671  1.00  0.00    -0.342 OA
ATOM     11  O   UNL     1     184.170 181.606 173.142  1.00  0.00    -0.320 OA
ENDROOT
BRANCH   7  12
ATOM     12  O   UNL     1     180.925 178.065 173.686  1.00  0.00    -0.339 OA
BRANCH  12  13
ATOM     13  C   UNL     1     180.773 176.588 173.735  1.00  0.00     0.282 C 
ATOM     14  C   UNL     1     179.359 175.960 174.144  1.00  0.00     0.202 C 
ATOM     15  O   UNL     1     181.399 175.900 172.633  1.00  0.00    -0.341 OA
ATOM     16  C   UNL     1     178.497 176.507 172.946  1.00  0.00     0.179 C 
ATOM     17  C   UNL     1     180.608 175.735 171.434  1.00  0.00     0.178 C 
ATOM     18  C   UNL     1     179.024 175.885 171.563  1.00  0.00     0.177 C 
BRANCH  14  19
ATOM     19  O   UNL     1     178.887 176.709 175.268  1.00  0.00    -0.385 OA
ATOM     20  H   UNL     1     179.257 176.222 176.095  1.00  0.00     0.211 HD
ENDBRANCH  14  19
BRANCH  16  21
ATOM     21  O   UNL     1     178.211 177.928 173.083  1.00  0.00    -0.387 OA
ATOM     22  H   UNL     1     178.243 178.509 173.960  1.00  0.00     0.211 HD
ENDBRANCH  16  21
BRANCH  17  23
ATOM     23  C   UNL     1     180.965 174.383 170.762  1.00  0.00     0.191 C 
BRANCH  23  24
ATOM     24  O   UNL     1     181.154 173.321 171.703  1.00  0.00    -0.394 OA
ATOM     25  H   UNL     1     180.217 173.085 171.966  1.00  0.00     0.210 HD
ENDBRANCH  23  24
ENDBRANCH  17  23
BRANCH  18  26
ATOM     26  O   UNL     1     178.385 174.641 171.290  1.00  0.00    -0.387 OA
ATOM     27  H   UNL     1     178.707 173.990 171.999  1.00  0.00     0.211 HD
ENDBRANCH  18  26
ENDBRANCH  12  13
ENDBRANCH   7  12
BRANCH   4  28
ATOM     28  O   UNL     1     185.761 180.748 174.655  1.00  0.00    -0.365 OA
ATOM     29  H   UNL     1     186.490 180.122 174.343  1.00  0.00     0.214 HD
ENDBRANCH   4  28
BRANCH   8  30
ATOM     30  C   UNL     1     181.283 181.504 174.675  1.00  0.00     0.249 C 
BRANCH  30  31
ATOM     31  O   UNL     1     179.901 181.066 174.665  1.00  0.00    -0.461 OA
BRANCH  31  32
ATOM     32  C   UNL     1     179.351 180.237 175.711  1.00  0.00     0.338 C 
ATOM     33  O   UNL     1     178.308 179.546 175.428  1.00  0.00    -0.246 OA
BRANCH  32  34
ATOM     34  C   UNL     1     179.849 180.300 177.110  1.00  0.00     0.060 A 
ATOM     35  C   UNL     1     180.578 179.190 177.671  1.00  0.00     0.015 A 
ATOM     36  C   UNL     1     179.485 181.377 177.988  1.00  0.00     0.015 A 
ATOM     37  C   UNL     1     180.809 179.148 179.075  1.00  0.00     0.001 A 
ATOM     38  C   UNL     1     179.847 181.353 179.347  1.00  0.00     0.001 A 
ATOM     39  C   UNL     1     180.449 180.219 179.914  1.00  0.00     0.000 A 
ENDBRANCH  32  34
ENDBRANCH  31  32
ENDBRANCH  30  31
ENDBRANCH   8  30
TORSDOF 12
ENDMDL
MODEL 7
REMARK VINA RESULT:    -7.348      1.942      3.243
REMARK INTER + INTRA:         -14.008
REMARK INTER:                 -11.429
REMARK INTRA:                  -2.579
REMARK UNBOUND:                -2.580
REMARK SMILES C[C@@]12C[C@@]3(O)O[C@@H](O1)[C@]1(COC(=O)c4ccccc4)[C@H]3C[C@@]12O[C@@H]1O[C@@H](CO)[C@@H](O)[C@H](O)[C@@H]1O
REMARK SMILES IDX 1 1 2 2 3 3 4 4 20 5 21 6 22 7 9 8 7 9 8 10 6 11 23 12 24 13
REMARK SMILES IDX 33 14 25 15 31 16 26 17 29 18 34 19 32 21 27 23 28 24 30 26
REMARK SMILES IDX 5 28 10 30 11 31 12 32 13 33 14 34 15 35 19 36 16 37 18 38
REMARK SMILES IDX 17 39
REMARK H PARENT 34 20 32 22 28 25 30 27 5 29
REMARK Flexibility Score: inf
ROOT
ATOM      1  C   UNL     1     176.724 178.523 172.341  1.00  0.00     0.046 C 
ATOM      2  C   UNL     1     178.024 178.084 173.074  1.00  0.00     0.104 C 
ATOM      3  C   UNL     1     177.523 176.797 173.875  1.00  0.00     0.104 C 
ATOM      4  C   UNL     1     178.836 176.167 174.436  1.00  0.00     0.175 C 
ATOM      5  C   UNL     1     179.725 177.274 175.123  1.00  0.00     0.070 C 
ATOM      6  C   UNL     1     178.934 178.448 175.538  1.00  0.00     0.050 C 
ATOM      7  C   UNL     1     179.052 179.024 174.124  1.00  0.00     0.115 C 
ATOM      8  C   UNL     1     180.309 177.986 173.948  1.00  0.00     0.096 C 
ATOM      9  C   UNL     1     180.001 177.041 172.763  1.00  0.00     0.267 C 
ATOM     10  O   UNL     1     178.888 177.597 172.070  1.00  0.00    -0.342 OA
ATOM     11  O   UNL     1     179.600 175.777 173.351  1.00  0.00    -0.320 OA
ENDROOT
BRANCH   7  12
ATOM     12  O   UNL     1     179.330 180.545 174.096  1.00  0.00    -0.339 OA
BRANCH  12  13
ATOM     13  C   UNL     1     179.858 181.341 172.959  1.00  0.00     0.282 C 
ATOM     14  C   UNL     1     178.894 182.382 172.219  1.00  0.00     0.202 C 
ATOM     15  O   UNL     1     181.187 181.857 173.175  1.00  0.00    -0.341 OA
ATOM     16  C   UNL     1     178.624 183.359 173.423  1.00  0.00     0.179 C 
ATOM     17  C   UNL     1     181.290 183.133 173.848  1.00  0.00     0.178 C 
ATOM     18  C   UNL     1     179.993 184.064 173.875  1.00  0.00     0.177 C 
BRANCH  14  19
ATOM     19  O   UNL     1     177.640 181.721 172.034  1.00  0.00    -0.385 OA
ATOM     20  H   UNL     1     177.593 181.501 171.029  1.00  0.00     0.211 HD
ENDBRANCH  14  19
BRANCH  16  21
ATOM     21  O   UNL     1     177.704 182.785 174.395  1.00  0.00    -0.387 OA
ATOM     22  H   UNL     1     177.854 181.937 175.000  1.00  0.00     0.211 HD
ENDBRANCH  16  21
BRANCH  17  23
ATOM     23  C   UNL     1     182.502 183.918 173.283  1.00  0.00     0.191 C 
BRANCH  23  24
ATOM     24  O   UNL     1     182.785 185.116 174.013  1.00  0.00    -0.394 OA
ATOM     25  H   UNL     1     183.648 185.426 173.610  1.00  0.00     0.210 HD
ENDBRANCH  23  24
ENDBRANCH  17  23
BRANCH  18  26
ATOM     26  O   UNL     1     180.223 185.255 173.126  1.00  0.00    -0.387 OA
ATOM     27  H   UNL     1     179.735 185.999 173.614  1.00  0.00     0.211 HD
ENDBRANCH  18  26
ENDBRANCH  12  13
ENDBRANCH   7  12
BRANCH   4  28
ATOM     28  O   UNL     1     178.550 175.130 175.359  1.00  0.00    -0.365 OA
ATOM     29  H   UNL     1     178.812 175.436 176.286  1.00  0.00     0.214 HD
ENDBRANCH   4  28
BRANCH   8  30
ATOM     30  C   UNL     1     181.864 177.994 174.160  1.00  0.00     0.249 C 
BRANCH  30  31
ATOM     31  O   UNL     1     182.304 179.244 174.748  1.00  0.00    -0.461 OA
BRANCH  31  32
ATOM     32  C   UNL     1     182.698 179.344 176.133  1.00  0.00     0.338 C 
ATOM     33  O   UNL     1     183.815 178.809 176.468  1.00  0.00    -0.246 OA
BRANCH  32  34
ATOM     34  C   UNL     1     181.786 179.885 177.174  1.00  0.00     0.060 A 
ATOM     35  C   UNL     1     181.522 179.126 178.371  1.00  0.00     0.015 A 
ATOM     36  C   UNL     1     181.021 181.080 176.954  1.00  0.00     0.015 A 
ATOM     37  C   UNL     1     180.451 179.521 179.223  1.00  0.00     0.001 A 
ATOM     38  C   UNL     1     180.058 181.503 177.889  1.00  0.00     0.001 A 
ATOM     39  C   UNL     1     179.720 180.700 178.990  1.00  0.00     0.000 A 
ENDBRANCH  32  34
ENDBRANCH  31  32
ENDBRANCH  30  31
ENDBRANCH   8  30
TORSDOF 12
ENDMDL
MODEL 8
REMARK VINA RESULT:    -7.313      2.135      5.557
REMARK INTER + INTRA:         -13.955
REMARK INTER:                 -11.528
REMARK INTRA:                  -2.427
REMARK UNBOUND:                -2.580
REMARK SMILES C[C@@]12C[C@@]3(O)O[C@@H](O1)[C@]1(COC(=O)c4ccccc4)[C@H]3C[C@@]12O[C@@H]1O[C@@H](CO)[C@@H](O)[C@H](O)[C@@H]1O
REMARK SMILES IDX 1 1 2 2 3 3 4 4 20 5 21 6 22 7 9 8 7 9 8 10 6 11 23 12 24 13
REMARK SMILES IDX 33 14 25 15 31 16 26 17 29 18 34 19 32 21 27 23 28 24 30 26
REMARK SMILES IDX 5 28 10 30 11 31 12 32 13 33 14 34 15 35 19 36 16 37 18 38
REMARK SMILES IDX 17 39
REMARK H PARENT 34 20 32 22 28 25 30 27 5 29
REMARK Flexibility Score: inf
ROOT
ATOM      1  C   UNL     1     183.976 182.223 172.208  1.00  0.00     0.046 C 
ATOM      2  C   UNL     1     182.703 182.674 172.980  1.00  0.00     0.104 C 
ATOM      3  C   UNL     1     183.236 183.963 173.756  1.00  0.00     0.104 C 
ATOM      4  C   UNL     1     181.945 184.603 174.354  1.00  0.00     0.175 C 
ATOM      5  C   UNL     1     181.073 183.505 175.078  1.00  0.00     0.070 C 
ATOM      6  C   UNL     1     181.873 182.330 175.474  1.00  0.00     0.050 C 
ATOM      7  C   UNL     1     181.706 181.746 174.069  1.00  0.00     0.115 C 
ATOM      8  C   UNL     1     180.448 182.788 173.926  1.00  0.00     0.096 C 
ATOM      9  C   UNL     1     180.722 183.724 172.726  1.00  0.00     0.267 C 
ATOM     10  O   UNL     1     181.809 183.158 172.001  1.00  0.00    -0.342 OA
ATOM     11  O   UNL     1     181.147 184.990 173.292  1.00  0.00    -0.320 OA
ENDROOT
BRANCH   7  12
ATOM     12  O   UNL     1     181.420 180.225 174.060  1.00  0.00    -0.339 OA
BRANCH  12  13
ATOM     13  C   UNL     1     180.996 179.398 172.902  1.00  0.00     0.282 C 
ATOM     14  C   UNL     1     182.016 178.328 172.290  1.00  0.00     0.202 C 
ATOM     15  O   UNL     1     179.647 178.897 173.006  1.00  0.00    -0.341 OA
ATOM     16  C   UNL     1     182.162 177.388 173.543  1.00  0.00     0.179 C 
ATOM     17  C   UNL     1     179.470 177.642 173.704  1.00  0.00     0.178 C 
ATOM     18  C   UNL     1     180.749 176.706 173.883  1.00  0.00     0.177 C 
BRANCH  14  19
ATOM     19  O   UNL     1     183.289 178.976 172.206  1.00  0.00    -0.385 OA
ATOM     20  H   UNL     1     183.078 179.973 172.061  1.00  0.00     0.211 HD
ENDBRANCH  14  19
BRANCH  16  21
ATOM     21  O   UNL     1     182.989 177.986 174.581  1.00  0.00    -0.387 OA
ATOM     22  H   UNL     1     182.670 178.475 175.457  1.00  0.00     0.211 HD
ENDBRANCH  16  21
BRANCH  17  23
ATOM     23  C   UNL     1     178.311 176.848 173.049  1.00  0.00     0.191 C 
BRANCH  23  24
ATOM     24  O   UNL     1     177.923 175.695 173.804  1.00  0.00    -0.394 OA
ATOM     25  H   UNL     1     177.363 175.179 173.154  1.00  0.00     0.210 HD
ENDBRANCH  23  24
ENDBRANCH  17  23
BRANCH  18  26
ATOM     26  O   UNL     1     180.582 175.494 173.152  1.00  0.00    -0.387 OA
ATOM     27  H   UNL     1     181.514 175.178 172.902  1.00  0.00     0.211 HD
ENDBRANCH  18  26
ENDBRANCH  12  13
ENDBRANCH   7  12
BRANCH   4  28
ATOM     28  O   UNL     1     182.266 185.645 175.260  1.00  0.00    -0.365 OA
ATOM     29  H   UNL     1     181.498 185.764 175.907  1.00  0.00     0.214 HD
ENDBRANCH   4  28
BRANCH   8  30
ATOM     30  C   UNL     1     178.901 182.789 174.189  1.00  0.00     0.249 C 
BRANCH  30  31
ATOM     31  O   UNL     1     178.473 181.541 174.789  1.00  0.00    -0.461 OA
BRANCH  31  32
ATOM     32  C   UNL     1     178.118 181.442 176.185  1.00  0.00     0.338 C 
ATOM     33  O   UNL     1     176.991 181.942 176.543  1.00  0.00    -0.246 OA
BRANCH  32  34
ATOM     34  C   UNL     1     179.074 180.945 177.208  1.00  0.00     0.060 A 
ATOM     35  C   UNL     1     179.776 179.703 177.001  1.00  0.00     0.015 A 
ATOM     36  C   UNL     1     179.205 181.585 178.487  1.00  0.00     0.015 A 
ATOM     37  C   UNL     1     180.471 179.107 178.092  1.00  0.00     0.001 A 
ATOM     38  C   UNL     1     180.009 181.024 179.496  1.00  0.00     0.001 A 
ATOM     39  C   UNL     1     180.592 179.758 179.333  1.00  0.00     0.000 A 
ENDBRANCH  32  34
ENDBRANCH  31  32
ENDBRANCH  30  31
ENDBRANCH   8  30
TORSDOF 12
ENDMDL
MODEL 9
REMARK VINA RESULT:    -7.215      1.734      2.214
REMARK INTER + INTRA:         -13.802
REMARK INTER:                 -11.100
REMARK INTRA:                  -2.702
REMARK UNBOUND:                -2.580
REMARK SMILES C[C@@]12C[C@@]3(O)O[C@@H](O1)[C@]1(COC(=O)c4ccccc4)[C@H]3C[C@@]12O[C@@H]1O[C@@H](CO)[C@@H](O)[C@H](O)[C@@H]1O
REMARK SMILES IDX 1 1 2 2 3 3 4 4 20 5 21 6 22 7 9 8 7 9 8 10 6 11 23 12 24 13
REMARK SMILES IDX 33 14 25 15 31 16 26 17 29 18 34 19 32 21 27 23 28 24 30 26
REMARK SMILES IDX 5 28 10 30 11 31 12 32 13 33 14 34 15 35 19 36 16 37 18 38
REMARK SMILES IDX 17 39
REMARK H PARENT 34 20 32 22 28 25 30 27 5 29
REMARK Flexibility Score: inf
ROOT
ATOM      1  C   UNL     1     177.978 180.818 170.915  1.00  0.00     0.046 C 
ATOM      2  C   UNL     1     178.040 180.269 172.370  1.00  0.00     0.104 C 
ATOM      3  C   UNL     1     176.575 180.608 172.904  1.00  0.00     0.104 C 
ATOM      4  C   UNL     1     176.491 179.865 174.274  1.00  0.00     0.175 C 
ATOM      5  C   UNL     1     177.777 180.165 175.139  1.00  0.00     0.070 C 
ATOM      6  C   UNL     1     178.448 181.412 174.727  1.00  0.00     0.050 C 
ATOM      7  C   UNL     1     179.189 180.647 173.626  1.00  0.00     0.115 C 
ATOM      8  C   UNL     1     178.806 179.303 174.485  1.00  0.00     0.096 C 
ATOM      9  C   UNL     1     177.972 178.366 173.580  1.00  0.00     0.267 C 
ATOM     10  O   UNL     1     178.089 178.864 172.251  1.00  0.00    -0.342 OA
ATOM     11  O   UNL     1     176.596 178.510 174.013  1.00  0.00    -0.320 OA
ENDROOT
BRANCH   7  12
ATOM     12  O   UNL     1     180.676 181.047 173.488  1.00  0.00    -0.339 OA
BRANCH  12  13
ATOM     13  C   UNL     1     181.563 180.818 172.319  1.00  0.00     0.282 C 
ATOM     14  C   UNL     1     182.923 181.652 172.193  1.00  0.00     0.202 C 
ATOM     15  O   UNL     1     181.718 179.428 171.968  1.00  0.00    -0.341 OA
ATOM     16  C   UNL     1     183.653 181.118 173.481  1.00  0.00     0.179 C 
ATOM     17  C   UNL     1     182.767 178.698 172.645  1.00  0.00     0.178 C 
ATOM     18  C   UNL     1     183.930 179.543 173.340  1.00  0.00     0.177 C 
BRANCH  14  19
ATOM     19  O   UNL     1     182.605 183.007 172.524  1.00  0.00    -0.385 OA
ATOM     20  H   UNL     1     181.902 183.299 171.832  1.00  0.00     0.211 HD
ENDBRANCH  14  19
BRANCH  16  21
ATOM     21  O   UNL     1     183.099 181.689 174.700  1.00  0.00    -0.387 OA
ATOM     22  H   UNL     1     183.616 182.180 175.474  1.00  0.00     0.211 HD
ENDBRANCH  16  21
BRANCH  17  23
ATOM     23  C   UNL     1     183.372 177.648 171.678  1.00  0.00     0.191 C 
BRANCH  23  24
ATOM     24  O   UNL     1     184.024 176.570 172.356  1.00  0.00    -0.394 OA
ATOM     25  H   UNL     1     184.913 176.961 172.599  1.00  0.00     0.210 HD
ENDBRANCH  23  24
ENDBRANCH  17  23
BRANCH  18  26
ATOM     26  O   UNL     1     185.174 179.302 172.688  1.00  0.00    -0.387 OA
ATOM     27  H   UNL     1     185.712 178.703 173.307  1.00  0.00     0.211 HD
ENDBRANCH  18  26
ENDBRANCH  12  13
ENDBRANCH   7  12
BRANCH   4  28
ATOM     28  O   UNL     1     175.326 180.240 174.987  1.00  0.00    -0.365 OA
ATOM     29  H   UNL     1     175.155 181.225 174.840  1.00  0.00     0.214 HD
ENDBRANCH   4  28
BRANCH   8  30
ATOM     30  C   UNL     1     179.442 178.428 175.622  1.00  0.00     0.249 C 
BRANCH  30  31
ATOM     31  O   UNL     1     180.889 178.446 175.547  1.00  0.00    -0.461 OA
BRANCH  31  32
ATOM     32  C   UNL     1     181.696 179.215 176.465  1.00  0.00     0.338 C 
ATOM     33  O   UNL     1     182.970 179.150 176.326  1.00  0.00    -0.246 OA
BRANCH  32  34
ATOM     34  C   UNL     1     181.105 179.918 177.633  1.00  0.00     0.060 A 
ATOM     35  C   UNL     1     180.902 179.215 178.875  1.00  0.00     0.015 A 
ATOM     36  C   UNL     1     180.572 181.247 177.518  1.00  0.00     0.015 A 
ATOM     37  C   UNL     1     180.096 179.810 179.887  1.00  0.00     0.001 A 
ATOM     38  C   UNL     1     179.892 181.846 178.594  1.00  0.00     0.001 A 
ATOM     39  C   UNL     1     179.591 181.117 179.755  1.00  0.00     0.000 A 
ENDBRANCH  32  34
ENDBRANCH  31  32
ENDBRANCH  30  31
ENDBRANCH   8  30
TORSDOF 12
ENDMDL
