MODEL 1
REMARK VINA RESULT:    -4.483      0.000      0.000
REMARK INTER + INTRA:          -6.688
REMARK INTER:                  -6.318
REMARK INTRA:                  -0.370
REMARK UNBOUND:                -0.370
REMARK SMILES CCCCCCCCC(=O)[O-]
REMARK SMILES IDX 6 1 7 2 8 3 9 4 10 5 11 6 5 7 4 8 3 9 2 10 1 11
REMARK H PARENT
REMARK Flexibility Score: inf
ROOT
ATOM      1  C   UNL     1       8.170  20.439  29.405  1.00  0.00     0.000 C 
ENDROOT
BRANCH   1   2
ATOM      2  C   UNL     1       8.075  21.913  29.829  1.00  0.00     0.006 C 
BRANCH   2   3
ATOM      3  C   UNL     1       7.875  22.036  31.341  1.00  0.00     0.053 C 
BRANCH   3   4
ATOM      4  C   UNL     1       8.854  23.006  31.923  1.00  0.00     0.041 C 
ATOM      5  O   UNL     1       9.888  23.326  31.278  1.00  0.00    -0.550 OA
ATOM      6  O   UNL     1       8.651  23.518  33.198  1.00  0.00    -0.550 OA
ENDBRANCH   3   4
ENDBRANCH   2   3
ENDBRANCH   1   2
BRANCH   1   7
ATOM      7  C   UNL     1       8.600  19.517  30.557  1.00  0.00     0.000 C 
BRANCH   7   8
ATOM      8  C   UNL     1       9.391  18.292  30.072  1.00  0.00    -0.000 C 
BRANCH   8   9
ATOM      9  C   UNL     1       9.795  17.397  31.254  1.00  0.00    -0.000 C 
BRANCH   9  10
ATOM     10  C   UNL     1      10.052  18.197  32.539  1.00  0.00    -0.003 C 
ATOM     11  C   UNL     1      10.056  17.321  33.792  1.00  0.00     0.004 C 
ENDBRANCH   9  10
ENDBRANCH   8   9
ENDBRANCH   7   8
ENDBRANCH   1   7
TORSDOF 7
ENDMDL
MODEL 2
REMARK VINA RESULT:    -4.461      1.011      1.885
REMARK INTER + INTRA:          -6.657
REMARK INTER:                  -6.274
REMARK INTRA:                  -0.383
REMARK UNBOUND:                -0.370
REMARK SMILES CCCCCCCCC(=O)[O-]
REMARK SMILES IDX 6 1 7 2 8 3 9 4 10 5 11 6 5 7 4 8 3 9 2 10 1 11
REMARK H PARENT
REMARK Flexibility Score: inf
ROOT
ATOM      1  C   UNL     1       7.875  21.890  29.432  1.00  0.00     0.000 C 
ENDROOT
BRANCH   1   2
ATOM      2  C   UNL     1       7.877  22.236  30.929  1.00  0.00     0.006 C 
BRANCH   2   3
ATOM      3  C   UNL     1       9.145  23.004  31.312  1.00  0.00     0.053 C 
BRANCH   3   4
ATOM      4  C   UNL     1       9.786  22.390  32.516  1.00  0.00     0.041 C 
ATOM      5  O   UNL     1       9.254  22.515  33.650  1.00  0.00    -0.550 OA
ATOM      6  O   UNL     1      10.999  21.723  32.393  1.00  0.00    -0.550 OA
ENDBRANCH   3   4
ENDBRANCH   2   3
ENDBRANCH   1   2
BRANCH   1   7
ATOM      7  C   UNL     1       7.928  20.376  29.173  1.00  0.00     0.000 C 
BRANCH   7   8
ATOM      8  C   UNL     1       8.605  19.603  30.316  1.00  0.00    -0.000 C 
BRANCH   8   9
ATOM      9  C   UNL     1       9.365  18.382  29.776  1.00  0.00    -0.000 C 
BRANCH   9  10
ATOM     10  C   UNL     1       9.911  17.483  30.897  1.00  0.00    -0.003 C 
ATOM     11  C   UNL     1      10.045  18.217  32.231  1.00  0.00     0.004 C 
ENDBRANCH   9  10
ENDBRANCH   8   9
ENDBRANCH   7   8
ENDBRANCH   1   7
TORSDOF 7
ENDMDL
MODEL 3
REMARK VINA RESULT:    -4.459      2.839      4.886
REMARK INTER + INTRA:          -6.653
REMARK INTER:                  -6.257
REMARK INTRA:                  -0.397
REMARK UNBOUND:                -0.370
REMARK SMILES CCCCCCCCC(=O)[O-]
REMARK SMILES IDX 6 1 7 2 8 3 9 4 10 5 11 6 5 7 4 8 3 9 2 10 1 11
REMARK H PARENT
REMARK Flexibility Score: inf
ROOT
ATOM      1  C   UNL     1       9.450  18.442  30.253  1.00  0.00     0.000 C 
ENDROOT
BRANCH   1   2
ATOM      2  C   UNL     1       9.759  17.642  31.527  1.00  0.00     0.006 C 
BRANCH   2   3
ATOM      3  C   UNL     1       8.947  18.167  32.714  1.00  0.00     0.053 C 
BRANCH   3   4
ATOM      4  C   UNL     1       9.456  17.588  33.996  1.00  0.00     0.041 C 
ATOM      5  O   UNL     1      10.601  17.065  34.045  1.00  0.00    -0.550 OA
ATOM      6  O   UNL     1       8.646  17.580  35.124  1.00  0.00    -0.550 OA
ENDBRANCH   3   4
ENDBRANCH   2   3
ENDBRANCH   1   2
BRANCH   1   7
ATOM      7  C   UNL     1       8.419  19.556  30.487  1.00  0.00     0.000 C 
BRANCH   7   8
ATOM      8  C   UNL     1       8.158  20.396  29.227  1.00  0.00    -0.000 C 
BRANCH   8   9
ATOM      9  C   UNL     1       7.875  21.861  29.594  1.00  0.00    -0.000 C 
BRANCH   9  10
ATOM     10  C   UNL     1       7.876  22.100  31.111  1.00  0.00    -0.003 C 
ATOM     11  C   UNL     1       8.991  23.043  31.562  1.00  0.00     0.004 C 
ENDBRANCH   9  10
ENDBRANCH   8   9
ENDBRANCH   7   8
ENDBRANCH   1   7
TORSDOF 7
ENDMDL
MODEL 4
REMARK VINA RESULT:    -4.324      1.611      4.091
REMARK INTER + INTRA:          -6.464
REMARK INTER:                  -6.013
REMARK INTRA:                  -0.451
REMARK UNBOUND:                -0.370
REMARK SMILES CCCCCCCCC(=O)[O-]
REMARK SMILES IDX 6 1 7 2 8 3 9 4 10 5 11 6 5 7 4 8 3 9 2 10 1 11
REMARK H PARENT
REMARK Flexibility Score: inf
ROOT
ATOM      1  C   UNL     1       9.984  17.775  30.802  1.00  0.00     0.000 C 
ENDROOT
BRANCH   1   2
ATOM      2  C   UNL     1       9.423  18.051  32.205  1.00  0.00     0.006 C 
BRANCH   2   3
ATOM      3  C   UNL     1      10.429  18.835  33.052  1.00  0.00     0.053 C 
BRANCH   3   4
ATOM      4  C   UNL     1       9.815  20.102  33.558  1.00  0.00     0.041 C 
ATOM      5  O   UNL     1       8.583  20.151  33.815  1.00  0.00    -0.550 OA
ATOM      6  O   UNL     1      10.594  21.244  33.698  1.00  0.00    -0.550 OA
ENDBRANCH   3   4
ENDBRANCH   2   3
ENDBRANCH   1   2
BRANCH   1   7
ATOM      7  C   UNL     1       9.179  18.472  29.693  1.00  0.00     0.000 C 
BRANCH   7   8
ATOM      8  C   UNL     1       8.411  19.701  30.203  1.00  0.00    -0.000 C 
BRANCH   8   9
ATOM      9  C   UNL     1       7.955  20.586  29.033  1.00  0.00    -0.000 C 
BRANCH   9  10
ATOM     10  C   UNL     1       7.875  22.073  29.413  1.00  0.00    -0.003 C 
ATOM     11  C   UNL     1       8.105  22.315  30.905  1.00  0.00     0.004 C 
ENDBRANCH   9  10
ENDBRANCH   8   9
ENDBRANCH   7   8
ENDBRANCH   1   7
TORSDOF 7
ENDMDL
MODEL 5
REMARK VINA RESULT:    -4.321      1.639      2.689
REMARK INTER + INTRA:          -6.460
REMARK INTER:                  -5.984
REMARK INTRA:                  -0.475
REMARK UNBOUND:                -0.370
REMARK SMILES CCCCCCCCC(=O)[O-]
REMARK SMILES IDX 6 1 7 2 8 3 9 4 10 5 11 6 5 7 4 8 3 9 2 10 1 11
REMARK H PARENT
REMARK Flexibility Score: inf
ROOT
ATOM      1  C   UNL     1       7.930  22.277  31.610  1.00  0.00     0.000 C 
ENDROOT
BRANCH   1   2
ATOM      2  C   UNL     1       8.822  23.435  32.084  1.00  0.00     0.006 C 
BRANCH   2   3
ATOM      3  C   UNL     1      10.262  23.250  31.598  1.00  0.00     0.053 C 
BRANCH   3   4
ATOM      4  C   UNL     1      11.049  24.506  31.803  1.00  0.00     0.041 C 
ATOM      5  O   UNL     1      11.349  25.234  30.820  1.00  0.00    -0.550 OA
ATOM      6  O   UNL     1      11.495  24.846  33.074  1.00  0.00    -0.550 OA
ENDBRANCH   3   4
ENDBRANCH   2   3
ENDBRANCH   1   2
BRANCH   1   7
ATOM      7  C   UNL     1       8.209  21.870  30.154  1.00  0.00     0.000 C 
BRANCH   7   8
ATOM      8  C   UNL     1       8.230  20.346  29.959  1.00  0.00    -0.000 C 
BRANCH   8   9
ATOM      9  C   UNL     1       8.480  19.627  31.293  1.00  0.00    -0.000 C 
BRANCH   9  10
ATOM     10  C   UNL     1       9.810  18.858  31.309  1.00  0.00    -0.003 C 
ATOM     11  C   UNL     1       9.884  17.780  30.227  1.00  0.00     0.004 C 
ENDBRANCH   9  10
ENDBRANCH   8   9
ENDBRANCH   7   8
ENDBRANCH   1   7
TORSDOF 7
ENDMDL
MODEL 6
REMARK VINA RESULT:    -4.302      2.410      4.523
REMARK INTER + INTRA:          -6.432
REMARK INTER:                  -6.047
REMARK INTRA:                  -0.385
REMARK UNBOUND:                -0.370
REMARK SMILES CCCCCCCCC(=O)[O-]
REMARK SMILES IDX 6 1 7 2 8 3 9 4 10 5 11 6 5 7 4 8 3 9 2 10 1 11
REMARK H PARENT
REMARK Flexibility Score: inf
ROOT
ATOM      1  C   UNL     1       8.127  20.332  29.345  1.00  0.00     0.000 C 
ENDROOT
BRANCH   1   2
ATOM      2  C   UNL     1       8.303  19.609  30.689  1.00  0.00     0.006 C 
BRANCH   2   3
ATOM      3  C   UNL     1       9.325  18.476  30.571  1.00  0.00     0.053 C 
BRANCH   3   4
ATOM      4  C   UNL     1      10.063  18.298  31.860  1.00  0.00     0.041 C 
ATOM      5  O   UNL     1      10.036  17.190  32.459  1.00  0.00    -0.550 OA
ATOM      6  O   UNL     1      10.739  19.371  32.427  1.00  0.00    -0.550 OA
ENDBRANCH   3   4
ENDBRANCH   2   3
ENDBRANCH   1   2
BRANCH   1   7
ATOM      7  C   UNL     1       7.948  21.850  29.505  1.00  0.00     0.000 C 
BRANCH   7   8
ATOM      8  C   UNL     1       7.876  22.285  30.977  1.00  0.00    -0.000 C 
BRANCH   8   9
ATOM      9  C   UNL     1       9.172  22.993  31.403  1.00  0.00    -0.000 C 
BRANCH   9  10
ATOM     10  C   UNL     1       9.560  22.688  32.858  1.00  0.00    -0.003 C 
ATOM     11  C   UNL     1       8.809  23.558  33.866  1.00  0.00     0.004 C 
ENDBRANCH   9  10
ENDBRANCH   8   9
ENDBRANCH   7   8
ENDBRANCH   1   7
TORSDOF 7
ENDMDL
MODEL 7
REMARK VINA RESULT:    -4.216      3.248      5.270
REMARK INTER + INTRA:          -6.311
REMARK INTER:                  -5.859
REMARK INTRA:                  -0.453
REMARK UNBOUND:                -0.370
REMARK SMILES CCCCCCCCC(=O)[O-]
REMARK SMILES IDX 6 1 7 2 8 3 9 4 10 5 11 6 5 7 4 8 3 9 2 10 1 11
REMARK H PARENT
REMARK Flexibility Score: inf
ROOT
ATOM      1  C   UNL     1       9.580  17.789  33.140  1.00  0.00     0.000 C 
ENDROOT
BRANCH   1   2
ATOM      2  C   UNL     1       8.295  18.215  33.866  1.00  0.00     0.006 C 
BRANCH   2   3
ATOM      3  C   UNL     1       8.071  17.370  35.123  1.00  0.00     0.053 C 
BRANCH   3   4
ATOM      4  C   UNL     1       9.171  17.597  36.111  1.00  0.00     0.041 C 
ATOM      5  O   UNL     1       9.369  18.746  36.586  1.00  0.00    -0.550 OA
ATOM      6  O   UNL     1      10.009  16.548  36.469  1.00  0.00    -0.550 OA
ENDBRANCH   3   4
ENDBRANCH   2   3
ENDBRANCH   1   2
BRANCH   1   7
ATOM      7  C   UNL     1       9.988  18.771  32.030  1.00  0.00     0.000 C 
BRANCH   7   8
ATOM      8  C   UNL     1       9.413  18.386  30.658  1.00  0.00    -0.000 C 
BRANCH   8   9
ATOM      9  C   UNL     1       8.601  19.545  30.059  1.00  0.00    -0.000 C 
BRANCH   9  10
ATOM     10  C   UNL     1       8.254  20.621  31.099  1.00  0.00    -0.003 C 
ATOM     11  C   UNL     1       8.431  22.042  30.563  1.00  0.00     0.004 C 
ENDBRANCH   9  10
ENDBRANCH   8   9
ENDBRANCH   7   8
ENDBRANCH   1   7
TORSDOF 7
ENDMDL
MODEL 8
REMARK VINA RESULT:    -4.204      1.870      2.658
REMARK INTER + INTRA:          -6.294
REMARK INTER:                  -5.868
REMARK INTRA:                  -0.426
REMARK UNBOUND:                -0.370
REMARK SMILES CCCCCCCCC(=O)[O-]
REMARK SMILES IDX 6 1 7 2 8 3 9 4 10 5 11 6 5 7 4 8 3 9 2 10 1 11
REMARK H PARENT
REMARK Flexibility Score: inf
ROOT
ATOM      1  C   UNL     1       8.345  22.460  30.905  1.00  0.00     0.000 C 
ENDROOT
BRANCH   1   2
ATOM      2  C   UNL     1       9.154  22.212  32.187  1.00  0.00     0.006 C 
BRANCH   2   3
ATOM      3  C   UNL     1      10.498  22.942  32.136  1.00  0.00     0.053 C 
BRANCH   3   4
ATOM      4  C   UNL     1      11.591  22.067  32.664  1.00  0.00     0.041 C 
ATOM      5  O   UNL     1      12.711  22.561  32.961  1.00  0.00    -0.550 OA
ATOM      6  O   UNL     1      11.388  20.698  32.780  1.00  0.00    -0.550 OA
ENDBRANCH   3   4
ENDBRANCH   2   3
ENDBRANCH   1   2
BRANCH   1   7
ATOM      7  C   UNL     1       8.105  21.176  30.095  1.00  0.00     0.000 C 
BRANCH   7   8
ATOM      8  C   UNL     1       8.610  19.918  30.818  1.00  0.00    -0.000 C 
BRANCH   8   9
ATOM      9  C   UNL     1       8.930  18.800  29.813  1.00  0.00    -0.000 C 
BRANCH   9  10
ATOM     10  C   UNL     1       9.846  17.718  30.406  1.00  0.00    -0.003 C 
ATOM     11  C   UNL     1       9.839  17.709  31.934  1.00  0.00     0.004 C 
ENDBRANCH   9  10
ENDBRANCH   8   9
ENDBRANCH   7   8
ENDBRANCH   1   7
TORSDOF 7
ENDMDL
MODEL 9
REMARK VINA RESULT:    -4.192      1.636      3.024
REMARK INTER + INTRA:          -6.278
REMARK INTER:                  -5.572
REMARK INTRA:                  -0.706
REMARK UNBOUND:                -0.370
REMARK SMILES CCCCCCCCC(=O)[O-]
REMARK SMILES IDX 6 1 7 2 8 3 9 4 10 5 11 6 5 7 4 8 3 9 2 10 1 11
REMARK H PARENT
REMARK Flexibility Score: inf
ROOT
ATOM      1  C   UNL     1       9.431  20.170  34.347  1.00  0.00     0.000 C 
ENDROOT
BRANCH   1   2
ATOM      2  C   UNL     1       8.989  21.271  33.371  1.00  0.00     0.006 C 
BRANCH   2   3
ATOM      3  C   UNL     1      10.170  21.762  32.529  1.00  0.00     0.053 C 
BRANCH   3   4
ATOM      4  C   UNL     1       9.716  22.782  31.533  1.00  0.00     0.041 C 
ATOM      5  O   UNL     1       8.690  22.572  30.833  1.00  0.00    -0.550 OA
ATOM      6  O   UNL     1      10.455  23.943  31.342  1.00  0.00    -0.550 OA
ENDBRANCH   3   4
ENDBRANCH   2   3
ENDBRANCH   1   2
BRANCH   1   7
ATOM      7  C   UNL     1       8.553  18.912  34.259  1.00  0.00     0.000 C 
BRANCH   7   8
ATOM      8  C   UNL     1       8.396  18.399  32.819  1.00  0.00    -0.000 C 
BRANCH   8   9
ATOM      9  C   UNL     1       9.701  17.762  32.318  1.00  0.00    -0.000 C 
BRANCH   9  10
ATOM     10  C   UNL     1       9.861  17.865  30.794  1.00  0.00    -0.003 C 
ATOM     11  C   UNL     1       8.997  18.967  30.181  1.00  0.00     0.004 C 
ENDBRANCH   9  10
ENDBRANCH   8   9
ENDBRANCH   7   8
ENDBRANCH   1   7
TORSDOF 7
ENDMDL
