MODEL 1
REMARK VINA RESULT:    -5.143      0.000      0.000
REMARK INTER + INTRA:          -6.439
REMARK INTER:                  -6.045
REMARK INTRA:                  -0.393
REMARK UNBOUND:                -0.393
REMARK SMILES C=C[C@]1(C)CC[C@@H](C(=C)C)C[C@H]1C(=C)C
REMARK SMILES IDX 7 1 6 2 5 3 3 4 12 5 11 6 4 7 8 8 10 9 9 10 13 11 14 12
REMARK SMILES IDX 15 13 2 14 1 15
REMARK H PARENT
REMARK Flexibility Score: inf
ROOT
ATOM      1  C   UNL     1       4.408   8.646  15.434  1.00  0.00     0.015 C 
ATOM      2  C   UNL     1       3.851   7.214  15.378  1.00  0.00     0.009 C 
ATOM      3  C   UNL     1       4.222   6.530  14.053  1.00  0.00     0.012 C 
ATOM      4  C   UNL     1       5.758   6.489  13.793  1.00  0.00    -0.008 C 
ATOM      5  C   UNL     1       6.331   7.951  13.917  1.00  0.00     0.024 C 
ATOM      6  C   UNL     1       5.934   8.648  15.241  1.00  0.00     0.017 C 
ATOM      7  C   UNL     1       6.436   5.505  14.783  1.00  0.00     0.016 C 
ENDROOT
BRANCH   1   8
ATOM      8  C   UNL     1       4.016   9.337  16.733  1.00  0.00    -0.077 C 
ATOM      9  C   UNL     1       2.574   9.434  17.168  1.00  0.00     0.039 C 
ATOM     10  C   UNL     1       4.961   9.872  17.524  1.00  0.00     0.008 C 
ENDBRANCH   1   8
BRANCH   5  11
ATOM     11  C   UNL     1       7.838   8.066  13.655  1.00  0.00    -0.077 C 
ATOM     12  C   UNL     1       8.752   7.665  14.555  1.00  0.00     0.008 C 
ATOM     13  C   UNL     1       8.333   8.700  12.379  1.00  0.00     0.039 C 
ENDBRANCH   5  11
BRANCH   4  14
ATOM     14  C   UNL     1       5.986   5.984  12.368  1.00  0.00    -0.028 C 
ATOM     15  C   UNL     1       5.314   6.453  11.307  1.00  0.00     0.004 C 
ENDBRANCH   4  14
TORSDOF 3
ENDMDL
MODEL 2
REMARK VINA RESULT:    -5.079      1.828      5.121
REMARK INTER + INTRA:          -6.362
REMARK INTER:                  -5.969
REMARK INTRA:                  -0.393
REMARK UNBOUND:                -0.393
REMARK SMILES C=C[C@]1(C)CC[C@@H](C(=C)C)C[C@H]1C(=C)C
REMARK SMILES IDX 7 1 6 2 5 3 3 4 12 5 11 6 4 7 8 8 10 9 9 10 13 11 14 12
REMARK SMILES IDX 15 13 2 14 1 15
REMARK H PARENT
REMARK Flexibility Score: inf
ROOT
ATOM      1  C   UNL     1       6.223   6.481  14.854  1.00  0.00     0.015 C 
ATOM      2  C   UNL     1       4.930   7.097  14.295  1.00  0.00     0.009 C 
ATOM      3  C   UNL     1       3.812   7.078  15.348  1.00  0.00     0.012 C 
ATOM      4  C   UNL     1       4.197   7.814  16.666  1.00  0.00    -0.008 C 
ATOM      5  C   UNL     1       5.557   7.221  17.196  1.00  0.00     0.024 C 
ATOM      6  C   UNL     1       6.676   7.217  16.126  1.00  0.00     0.017 C 
ATOM      7  C   UNL     1       4.280   9.343  16.413  1.00  0.00     0.016 C 
ENDROOT
BRANCH   1   8
ATOM      8  C   UNL     1       7.325   6.470  13.803  1.00  0.00    -0.077 C 
ATOM      9  C   UNL     1       7.393   5.395  12.746  1.00  0.00     0.039 C 
ATOM     10  C   UNL     1       8.261   7.434  13.797  1.00  0.00     0.008 C 
ENDBRANCH   1   8
BRANCH   5  11
ATOM     11  C   UNL     1       6.047   7.837  18.513  1.00  0.00    -0.077 C 
ATOM     12  C   UNL     1       6.824   8.933  18.544  1.00  0.00     0.008 C 
ATOM     13  C   UNL     1       5.705   7.177  19.825  1.00  0.00     0.039 C 
ENDBRANCH   5  11
BRANCH   4  14
ATOM     14  C   UNL     1       3.102   7.547  17.698  1.00  0.00    -0.028 C 
ATOM     15  C   UNL     1       2.373   8.519  18.265  1.00  0.00     0.004 C 
ENDBRANCH   4  14
TORSDOF 3
ENDMDL
MODEL 3
REMARK VINA RESULT:    -5.029     12.050     14.256
REMARK INTER + INTRA:          -6.305
REMARK INTER:                  -6.083
REMARK INTRA:                  -0.222
REMARK UNBOUND:                -0.393
REMARK SMILES C=C[C@]1(C)CC[C@@H](C(=C)C)C[C@H]1C(=C)C
REMARK SMILES IDX 7 1 6 2 5 3 3 4 12 5 11 6 4 7 8 8 10 9 9 10 13 11 14 12
REMARK SMILES IDX 15 13 2 14 1 15
REMARK H PARENT
REMARK Flexibility Score: inf
ROOT
ATOM      1  C   UNL     1      16.294   8.529  24.593  1.00  0.00     0.015 C 
ATOM      2  C   UNL     1      15.491   9.471  23.681  1.00  0.00     0.009 C 
ATOM      3  C   UNL     1      14.327   8.728  23.009  1.00  0.00     0.012 C 
ATOM      4  C   UNL     1      13.357   8.058  24.028  1.00  0.00    -0.008 C 
ATOM      5  C   UNL     1      14.197   7.145  25.000  1.00  0.00     0.024 C 
ATOM      6  C   UNL     1      15.385   7.889  25.656  1.00  0.00     0.017 C 
ATOM      7  C   UNL     1      12.555   9.146  24.790  1.00  0.00     0.016 C 
ENDROOT
BRANCH   1   8
ATOM      8  C   UNL     1      17.467   9.255  25.236  1.00  0.00    -0.077 C 
ATOM      9  C   UNL     1      18.880   9.060  24.741  1.00  0.00     0.039 C 
ATOM     10  C   UNL     1      17.259  10.096  26.263  1.00  0.00     0.008 C 
ENDBRANCH   1   8
BRANCH   5  11
ATOM     11  C   UNL     1      13.362   6.395  26.045  1.00  0.00    -0.077 C 
ATOM     12  C   UNL     1      12.645   7.038  26.983  1.00  0.00     0.008 C 
ATOM     13  C   UNL     1      13.374   4.887  26.077  1.00  0.00     0.039 C 
ENDBRANCH   5  11
BRANCH   4  14
ATOM     14  C   UNL     1      12.376   7.183  23.247  1.00  0.00    -0.028 C 
ATOM     15  C   UNL     1      11.045   7.324  23.324  1.00  0.00     0.004 C 
ENDBRANCH   4  14
TORSDOF 3
ENDMDL
MODEL 4
REMARK VINA RESULT:    -4.936      1.233      5.324
REMARK INTER + INTRA:          -6.195
REMARK INTER:                  -5.892
REMARK INTRA:                  -0.303
REMARK UNBOUND:                -0.393
REMARK SMILES C=C[C@]1(C)CC[C@@H](C(=C)C)C[C@H]1C(=C)C
REMARK SMILES IDX 7 1 6 2 5 3 3 4 12 5 11 6 4 7 8 8 10 9 9 10 13 11 14 12
REMARK SMILES IDX 15 13 2 14 1 15
REMARK H PARENT
REMARK Flexibility Score: inf
ROOT
ATOM      1  C   UNL     1       6.431   7.234  13.137  1.00  0.00     0.015 C 
ATOM      2  C   UNL     1       7.589   7.898  13.900  1.00  0.00     0.009 C 
ATOM      3  C   UNL     1       7.084   9.073  14.751  1.00  0.00     0.012 C 
ATOM      4  C   UNL     1       5.975   8.664  15.766  1.00  0.00    -0.008 C 
ATOM      5  C   UNL     1       4.823   7.926  14.984  1.00  0.00     0.024 C 
ATOM      6  C   UNL     1       5.336   6.759  14.107  1.00  0.00     0.017 C 
ATOM      7  C   UNL     1       6.583   7.783  16.888  1.00  0.00     0.016 C 
ENDROOT
BRANCH   1   8
ATOM      8  C   UNL     1       6.932   6.088  12.268  1.00  0.00    -0.077 C 
ATOM      9  C   UNL     1       6.394   5.863  10.876  1.00  0.00     0.039 C 
ATOM     10  C   UNL     1       7.878   5.254  12.732  1.00  0.00     0.008 C 
ENDBRANCH   1   8
BRANCH   5  11
ATOM     11  C   UNL     1       3.642   7.489  15.860  1.00  0.00    -0.077 C 
ATOM     12  C   UNL     1       2.534   8.239  15.992  1.00  0.00     0.008 C 
ATOM     13  C   UNL     1       3.726   6.209  16.653  1.00  0.00     0.039 C 
ENDBRANCH   5  11
BRANCH   4  14
ATOM     14  C   UNL     1       5.412   9.939  16.395  1.00  0.00    -0.028 C 
ATOM     15  C   UNL     1       5.318  10.125  17.719  1.00  0.00     0.004 C 
ENDBRANCH   4  14
TORSDOF 3
ENDMDL
MODEL 5
REMARK VINA RESULT:    -4.936      3.168      6.009
REMARK INTER + INTRA:          -6.194
REMARK INTER:                  -5.808
REMARK INTRA:                  -0.386
REMARK UNBOUND:                -0.393
REMARK SMILES C=C[C@]1(C)CC[C@@H](C(=C)C)C[C@H]1C(=C)C
REMARK SMILES IDX 7 1 6 2 5 3 3 4 12 5 11 6 4 7 8 8 10 9 9 10 13 11 14 12
REMARK SMILES IDX 15 13 2 14 1 15
REMARK H PARENT
REMARK Flexibility Score: inf
ROOT
ATOM      1  C   UNL     1       4.766   8.792  20.568  1.00  0.00     0.015 C 
ATOM      2  C   UNL     1       3.375   9.293  20.990  1.00  0.00     0.009 C 
ATOM      3  C   UNL     1       2.692  10.053  19.842  1.00  0.00     0.012 C 
ATOM      4  C   UNL     1       2.555   9.205  18.542  1.00  0.00    -0.008 C 
ATOM      5  C   UNL     1       3.974   8.642  18.154  1.00  0.00     0.024 C 
ATOM      6  C   UNL     1       4.672   7.900  19.319  1.00  0.00     0.017 C 
ATOM      7  C   UNL     1       1.511   8.077  18.754  1.00  0.00     0.016 C 
ENDROOT
BRANCH   1   8
ATOM      8  C   UNL     1       5.459   8.066  21.713  1.00  0.00    -0.077 C 
ATOM      9  C   UNL     1       5.905   8.800  22.954  1.00  0.00     0.039 C 
ATOM     10  C   UNL     1       5.679   6.743  21.637  1.00  0.00     0.008 C 
ENDBRANCH   1   8
BRANCH   5  11
ATOM     11  C   UNL     1       3.994   7.806  16.868  1.00  0.00    -0.077 C 
ATOM     12  C   UNL     1       3.781   6.479  16.874  1.00  0.00     0.008 C 
ATOM     13  C   UNL     1       4.319   8.463  15.549  1.00  0.00     0.039 C 
ENDBRANCH   5  11
BRANCH   4  14
ATOM     14  C   UNL     1       2.062  10.125  17.424  1.00  0.00    -0.028 C 
ATOM     15  C   UNL     1       0.966   9.872  16.694  1.00  0.00     0.004 C 
ENDBRANCH   4  14
TORSDOF 3
ENDMDL
MODEL 6
REMARK VINA RESULT:    -4.889     12.557     14.882
REMARK INTER + INTRA:          -6.139
REMARK INTER:                  -5.852
REMARK INTRA:                  -0.288
REMARK UNBOUND:                -0.393
REMARK SMILES C=C[C@]1(C)CC[C@@H](C(=C)C)C[C@H]1C(=C)C
REMARK SMILES IDX 7 1 6 2 5 3 3 4 12 5 11 6 4 7 8 8 10 9 9 10 13 11 14 12
REMARK SMILES IDX 15 13 2 14 1 15
REMARK H PARENT
REMARK Flexibility Score: inf
ROOT
ATOM      1  C   UNL     1      12.876   7.302  26.356  1.00  0.00     0.015 C 
ATOM      2  C   UNL     1      13.296   5.825  26.425  1.00  0.00     0.009 C 
ATOM      3  C   UNL     1      12.975   5.225  27.802  1.00  0.00     0.012 C 
ATOM      4  C   UNL     1      11.470   5.344  28.188  1.00  0.00    -0.008 C 
ATOM      5  C   UNL     1      11.032   6.852  28.051  1.00  0.00     0.024 C 
ATOM      6  C   UNL     1      11.380   7.462  26.672  1.00  0.00     0.017 C 
ATOM      7  C   UNL     1      10.619   4.401  27.297  1.00  0.00     0.016 C 
ENDROOT
BRANCH   1   8
ATOM      8  C   UNL     1      13.222   7.909  25.003  1.00  0.00    -0.077 C 
ATOM      9  C   UNL     1      12.452   7.542  23.757  1.00  0.00     0.039 C 
ATOM     10  C   UNL     1      14.226   8.795  24.898  1.00  0.00     0.008 C 
ENDBRANCH   1   8
BRANCH   5  11
ATOM     11  C   UNL     1       9.571   7.124  28.429  1.00  0.00    -0.077 C 
ATOM     12  C   UNL     1       8.546   6.728  27.655  1.00  0.00     0.008 C 
ATOM     13  C   UNL     1       9.250   7.909  29.677  1.00  0.00     0.039 C 
ENDBRANCH   5  11
BRANCH   4  14
ATOM     14  C   UNL     1      11.316   4.912  29.646  1.00  0.00    -0.028 C 
ATOM     15  C   UNL     1      10.377   4.050  30.061  1.00  0.00     0.004 C 
ENDBRANCH   4  14
TORSDOF 3
ENDMDL
MODEL 7
REMARK VINA RESULT:    -4.815     11.312     13.572
REMARK INTER + INTRA:          -6.053
REMARK INTER:                  -5.829
REMARK INTRA:                  -0.223
REMARK UNBOUND:                -0.393
REMARK SMILES C=C[C@]1(C)CC[C@@H](C(=C)C)C[C@H]1C(=C)C
REMARK SMILES IDX 7 1 6 2 5 3 3 4 12 5 11 6 4 7 8 8 10 9 9 10 13 11 14 12
REMARK SMILES IDX 15 13 2 14 1 15
REMARK H PARENT
REMARK Flexibility Score: inf
ROOT
ATOM      1  C   UNL     1      13.186   8.981  22.856  1.00  0.00     0.015 C 
ATOM      2  C   UNL     1      14.622   9.396  22.495  1.00  0.00     0.009 C 
ATOM      3  C   UNL     1      15.475   9.584  23.758  1.00  0.00     0.012 C 
ATOM      4  C   UNL     1      15.524   8.314  24.660  1.00  0.00    -0.008 C 
ATOM      5  C   UNL     1      14.048   7.859  24.971  1.00  0.00     0.024 C 
ATOM      6  C   UNL     1      13.182   7.695  23.699  1.00  0.00     0.017 C 
ATOM      7  C   UNL     1      16.349   7.201  23.962  1.00  0.00     0.016 C 
ENDROOT
BRANCH   1   8
ATOM      8  C   UNL     1      12.329   8.824  21.607  1.00  0.00    -0.077 C 
ATOM      9  C   UNL     1      11.766   7.483  21.203  1.00  0.00     0.039 C 
ATOM     10  C   UNL     1      12.053   9.892  20.840  1.00  0.00     0.008 C 
ENDBRANCH   1   8
BRANCH   5  11
ATOM     11  C   UNL     1      13.943   6.628  25.880  1.00  0.00    -0.077 C 
ATOM     12  C   UNL     1      13.509   5.439  25.427  1.00  0.00     0.008 C 
ATOM     13  C   UNL     1      14.277   6.744  27.347  1.00  0.00     0.039 C 
ENDBRANCH   5  11
BRANCH   4  14
ATOM     14  C   UNL     1      16.216   8.688  25.971  1.00  0.00    -0.028 C 
ATOM     15  C   UNL     1      16.970   9.787  26.116  1.00  0.00     0.004 C 
ENDBRANCH   4  14
TORSDOF 3
ENDMDL
MODEL 8
REMARK VINA RESULT:    -4.773     10.994     12.892
REMARK INTER + INTRA:          -6.003
REMARK INTER:                  -5.647
REMARK INTRA:                  -0.356
REMARK UNBOUND:                -0.393
REMARK SMILES C=C[C@]1(C)CC[C@@H](C(=C)C)C[C@H]1C(=C)C
REMARK SMILES IDX 7 1 6 2 5 3 3 4 12 5 11 6 4 7 8 8 10 9 9 10 13 11 14 12
REMARK SMILES IDX 15 13 2 14 1 15
REMARK H PARENT
REMARK Flexibility Score: inf
ROOT
ATOM      1  C   UNL     1      11.703   6.041  26.326  1.00  0.00     0.015 C 
ATOM      2  C   UNL     1      12.823   6.871  26.974  1.00  0.00     0.009 C 
ATOM      3  C   UNL     1      13.941   7.172  25.964  1.00  0.00     0.012 C 
ATOM      4  C   UNL     1      13.433   7.910  24.689  1.00  0.00    -0.008 C 
ATOM      5  C   UNL     1      12.242   7.085  24.069  1.00  0.00     0.024 C 
ATOM      6  C   UNL     1      11.129   6.761  25.095  1.00  0.00     0.017 C 
ATOM      7  C   UNL     1      13.020   9.362  25.047  1.00  0.00     0.016 C 
ENDROOT
BRANCH   1   8
ATOM      8  C   UNL     1      10.609   5.715  27.334  1.00  0.00    -0.077 C 
ATOM      9  C   UNL     1       9.998   4.337  27.414  1.00  0.00     0.039 C 
ATOM     10  C   UNL     1      10.169   6.660  28.182  1.00  0.00     0.008 C 
ENDBRANCH   1   8
BRANCH   5  11
ATOM     11  C   UNL     1      11.658   7.684  22.783  1.00  0.00    -0.077 C 
ATOM     12  C   UNL     1      10.663   8.587  22.802  1.00  0.00     0.008 C 
ATOM     13  C   UNL     1      12.161   7.217  21.440  1.00  0.00     0.039 C 
ENDBRANCH   5  11
BRANCH   4  14
ATOM     14  C   UNL     1      14.580   7.962  23.680  1.00  0.00    -0.028 C 
ATOM     15  C   UNL     1      15.824   7.548  23.961  1.00  0.00     0.004 C 
ENDBRANCH   4  14
TORSDOF 3
ENDMDL
MODEL 9
REMARK VINA RESULT:    -4.745     10.724     12.651
REMARK INTER + INTRA:          -5.971
REMARK INTER:                  -5.606
REMARK INTRA:                  -0.365
REMARK UNBOUND:                -0.393
REMARK SMILES C=C[C@]1(C)CC[C@@H](C(=C)C)C[C@H]1C(=C)C
REMARK SMILES IDX 7 1 6 2 5 3 3 4 12 5 11 6 4 7 8 8 10 9 9 10 13 11 14 12
REMARK SMILES IDX 15 13 2 14 1 15
REMARK H PARENT
REMARK Flexibility Score: inf
ROOT
ATOM      1  C   UNL     1      13.213   6.337  25.670  1.00  0.00     0.015 C 
ATOM      2  C   UNL     1      14.321   7.403  25.707  1.00  0.00     0.009 C 
ATOM      3  C   UNL     1      14.699   7.854  24.289  1.00  0.00     0.012 C 
ATOM      4  C   UNL     1      13.489   8.407  23.478  1.00  0.00    -0.008 C 
ATOM      5  C   UNL     1      12.335   7.336  23.500  1.00  0.00     0.024 C 
ATOM      6  C   UNL     1      11.973   6.863  24.928  1.00  0.00     0.017 C 
ATOM      7  C   UNL     1      13.038   9.771  24.064  1.00  0.00     0.016 C 
ENDROOT
BRANCH   1   8
ATOM      8  C   UNL     1      12.858   5.865  27.073  1.00  0.00    -0.077 C 
ATOM      9  C   UNL     1      11.423   5.650  27.491  1.00  0.00     0.039 C 
ATOM     10  C   UNL     1      13.829   5.624  27.969  1.00  0.00     0.008 C 
ENDBRANCH   1   8
BRANCH   5  11
ATOM     11  C   UNL     1      11.082   7.737  22.710  1.00  0.00    -0.077 C 
ATOM     12  C   UNL     1      10.158   8.574  23.213  1.00  0.00     0.008 C 
ATOM     13  C   UNL     1      10.829   7.142  21.348  1.00  0.00     0.039 C 
ENDBRANCH   5  11
BRANCH   4  14
ATOM     14  C   UNL     1      13.942   8.621  22.033  1.00  0.00    -0.028 C 
ATOM     15  C   UNL     1      13.942   9.820  21.433  1.00  0.00     0.004 C 
ENDBRANCH   4  14
TORSDOF 3
ENDMDL
