MODEL 1
REMARK VINA RESULT:    -0.669      0.000      0.000
REMARK INTER + INTRA:          -0.253
REMARK INTER:                  -0.748
REMARK INTRA:                   0.494
REMARK UNBOUND:                 0.494
REMARK SMILES O=C([O-])C=Cc1ccccc1
REMARK SMILES IDX 4 1 5 2 2 3 1 4 3 5 6 6 7 7 11 8 8 9 10 10 9 11
REMARK H PARENT
REMARK Flexibility Score: inf
ROOT
ATOM      1  C   UNL     1      20.165  19.875  50.146  1.00  0.00     0.025 C 
ATOM      2  C   UNL     1      19.039  20.170  49.479  1.00  0.00     0.010 C 
ENDROOT
BRANCH   1   3
ATOM      3  C   UNL     1      20.427  20.191  51.563  1.00  0.00     0.064 C 
ATOM      4  O   UNL     1      21.477  20.813  51.871  1.00  0.00    -0.545 OA
ATOM      5  O   UNL     1      19.507  19.882  52.558  1.00  0.00    -0.545 OA
ENDBRANCH   1   3
BRANCH   2   6
ATOM      6  C   UNL     1      17.795  20.687  50.085  1.00  0.00    -0.026 A 
ATOM      7  C   UNL     1      17.375  22.012  49.868  1.00  0.00     0.008 A 
ATOM      8  C   UNL     1      17.075  19.876  50.975  1.00  0.00     0.008 A 
ATOM      9  C   UNL     1      16.222  22.497  50.492  1.00  0.00     0.001 A 
ATOM     10  C   UNL     1      15.922  20.365  51.599  1.00  0.00     0.001 A 
ATOM     11  C   UNL     1      15.494  21.672  51.354  1.00  0.00     0.000 A 
ENDBRANCH   2   6
TORSDOF 2
ENDMDL
MODEL 2
REMARK VINA RESULT:     1.953     17.103     18.612
REMARK INTER + INTRA:           2.676
REMARK INTER:                   2.950
REMARK INTRA:                  -0.274
REMARK UNBOUND:                 0.494
REMARK SMILES O=C([O-])C=Cc1ccccc1
REMARK SMILES IDX 4 1 5 2 2 3 1 4 3 5 6 6 7 7 11 8 8 9 10 10 9 11
REMARK H PARENT
REMARK Flexibility Score: inf
ROOT
ATOM      1  C   UNL     1      15.102  39.004  46.349  1.00  0.00     0.025 C 
ATOM      2  C   UNL     1      16.232  38.860  45.642  1.00  0.00     0.010 C 
ENDROOT
BRANCH   1   3
ATOM      3  C   UNL     1      14.942  38.684  47.780  1.00  0.00     0.064 C 
ATOM      4  O   UNL     1      14.884  39.622  48.618  1.00  0.00    -0.545 OA
ATOM      5  O   UNL     1      14.781  37.375  48.218  1.00  0.00    -0.545 OA
ENDBRANCH   1   3
BRANCH   2   6
ATOM      6  C   UNL     1      17.560  38.540  46.205  1.00  0.00    -0.026 A 
ATOM      7  C   UNL     1      18.435  39.555  46.630  1.00  0.00     0.008 A 
ATOM      8  C   UNL     1      17.997  37.206  46.220  1.00  0.00     0.008 A 
ATOM      9  C   UNL     1      19.707  39.232  47.113  1.00  0.00     0.001 A 
ATOM     10  C   UNL     1      19.270  36.887  46.702  1.00  0.00     0.001 A 
ATOM     11  C   UNL     1      20.123  37.899  47.153  1.00  0.00     0.000 A 
ENDBRANCH   2   6
TORSDOF 2
ENDMDL
