MODEL 1
REMARK VINA RESULT:    15.504      0.000      0.000
REMARK INTER + INTRA:          29.783
REMARK INTER:                  29.099
REMARK INTRA:                   0.684
REMARK UNBOUND:                 0.684
REMARK SMILES O=C([O-])CCCCCCCCCCCCCCC(=O)[O-]
REMARK SMILES IDX 10 1 9 2 8 3 7 4 6 5 5 6 4 7 2 8 1 9 3 10 11 11 12 12 13 13
REMARK SMILES IDX 14 14 15 15 16 16 17 17 18 18 19 19 20 20
REMARK H PARENT
REMARK Flexibility Score: inf
ROOT
ATOM      1  C   UNL     1      15.410   5.491   8.107  1.00  0.00     0.000 C 
ENDROOT
BRANCH   1   2
ATOM      2  C   UNL     1      15.671   5.649   6.601  1.00  0.00     0.000 C 
BRANCH   2   3
ATOM      3  C   UNL     1      17.044   5.100   6.156  1.00  0.00     0.000 C 
BRANCH   3   4
ATOM      4  C   UNL     1      18.047   5.036   7.322  1.00  0.00     0.000 C 
BRANCH   4   5
ATOM      5  C   UNL     1      18.119   6.351   8.112  1.00  0.00     0.000 C 
BRANCH   5   6
ATOM      6  C   UNL     1      18.007   6.136   9.630  1.00  0.00     0.006 C 
BRANCH   6   7
ATOM      7  C   UNL     1      18.120   7.451  10.412  1.00  0.00     0.053 C 
BRANCH   7   8
ATOM      8  C   UNL     1      17.062   8.431  10.004  1.00  0.00     0.041 C 
ATOM      9  O   UNL     1      17.384   9.526   9.472  1.00  0.00    -0.550 OA
ATOM     10  O   UNL     1      15.721   8.118  10.180  1.00  0.00    -0.550 OA
ENDBRANCH   7   8
ENDBRANCH   6   7
ENDBRANCH   5   6
ENDBRANCH   4   5
ENDBRANCH   3   4
ENDBRANCH   2   3
ENDBRANCH   1   2
BRANCH   1  11
ATOM     11  C   UNL     1      14.331   6.456   8.630  1.00  0.00     0.000 C 
BRANCH  11  12
ATOM     12  C   UNL     1      14.010   7.584   7.625  1.00  0.00     0.000 C 
BRANCH  12  13
ATOM     13  C   UNL     1      12.725   7.343   6.811  1.00  0.00     0.000 C 
BRANCH  13  14
ATOM     14  C   UNL     1      11.557   6.724   7.603  1.00  0.00     0.000 C 
BRANCH  14  15
ATOM     15  C   UNL     1      10.914   5.488   6.949  1.00  0.00     0.000 C 
BRANCH  15  16
ATOM     16  C   UNL     1       9.953   4.745   7.892  1.00  0.00     0.006 C 
BRANCH  16  17
ATOM     17  C   UNL     1      10.654   4.265   9.171  1.00  0.00     0.053 C 
BRANCH  17  18
ATOM     18  C   UNL     1      10.725   2.771   9.237  1.00  0.00     0.041 C 
ATOM     19  O   UNL     1      11.199   2.203  10.255  1.00  0.00    -0.550 OA
ATOM     20  O   UNL     1      10.235   2.003   8.186  1.00  0.00    -0.550 OA
ENDBRANCH  17  18
ENDBRANCH  16  17
ENDBRANCH  15  16
ENDBRANCH  14  15
ENDBRANCH  13  14
ENDBRANCH  12  13
ENDBRANCH  11  12
ENDBRANCH   1  11
TORSDOF 15
ENDMDL
MODEL 2
REMARK VINA RESULT:    15.974      1.002      1.637
REMARK INTER + INTRA:          30.665
REMARK INTER:                  30.056
REMARK INTRA:                   0.609
REMARK UNBOUND:                 0.684
REMARK SMILES O=C([O-])CCCCCCCCCCCCCCC(=O)[O-]
REMARK SMILES IDX 10 1 9 2 8 3 7 4 6 5 5 6 4 7 2 8 1 9 3 10 11 11 12 12 13 13
REMARK SMILES IDX 14 14 15 15 16 16 17 17 18 18 19 19 20 20
REMARK H PARENT
REMARK Flexibility Score: inf
ROOT
ATOM      1  C   UNL     1      14.187   6.018   8.138  1.00  0.00     0.000 C 
ENDROOT
BRANCH   1   2
ATOM      2  C   UNL     1      15.578   6.081   7.486  1.00  0.00     0.000 C 
BRANCH   2   3
ATOM      3  C   UNL     1      15.850   4.917   6.509  1.00  0.00     0.000 C 
BRANCH   3   4
ATOM      4  C   UNL     1      17.341   4.535   6.465  1.00  0.00     0.000 C 
BRANCH   4   5
ATOM      5  C   UNL     1      18.071   4.849   7.779  1.00  0.00     0.000 C 
BRANCH   5   6
ATOM      6  C   UNL     1      18.114   6.356   8.086  1.00  0.00     0.006 C 
BRANCH   6   7
ATOM      7  C   UNL     1      18.124   6.639   9.594  1.00  0.00     0.053 C 
BRANCH   7   8
ATOM      8  C   UNL     1      17.313   7.853   9.934  1.00  0.00     0.041 C 
ATOM      9  O   UNL     1      17.832   8.999   9.874  1.00  0.00    -0.550 OA
ATOM     10  O   UNL     1      15.976   7.721  10.282  1.00  0.00    -0.550 OA
ENDBRANCH   7   8
ENDBRANCH   6   7
ENDBRANCH   5   6
ENDBRANCH   4   5
ENDBRANCH   3   4
ENDBRANCH   2   3
ENDBRANCH   1   2
BRANCH   1  11
ATOM     11  C   UNL     1      13.420   7.348   8.037  1.00  0.00     0.000 C 
BRANCH  11  12
ATOM     12  C   UNL     1      11.989   7.164   7.487  1.00  0.00     0.000 C 
BRANCH  12  13
ATOM     13  C   UNL     1      11.464   5.719   7.592  1.00  0.00     0.000 C 
BRANCH  13  14
ATOM     14  C   UNL     1      10.199   5.421   6.765  1.00  0.00     0.000 C 
BRANCH  14  15
ATOM     15  C   UNL     1       9.967   3.933   6.447  1.00  0.00     0.000 C 
BRANCH  15  16
ATOM     16  C   UNL     1      11.054   3.019   7.040  1.00  0.00     0.006 C 
BRANCH  16  17
ATOM     17  C   UNL     1      10.501   2.105   8.142  1.00  0.00     0.053 C 
BRANCH  17  18
ATOM     18  C   UNL     1      10.634   2.729   9.498  1.00  0.00     0.041 C 
ATOM     19  O   UNL     1      10.075   3.829   9.747  1.00  0.00    -0.550 OA
ATOM     20  O   UNL     1      11.346   2.077  10.497  1.00  0.00    -0.550 OA
ENDBRANCH  17  18
ENDBRANCH  16  17
ENDBRANCH  15  16
ENDBRANCH  14  15
ENDBRANCH  13  14
ENDBRANCH  12  13
ENDBRANCH  11  12
ENDBRANCH   1  11
TORSDOF 15
ENDMDL
MODEL 3
REMARK VINA RESULT:    16.539      0.723      7.243
REMARK INTER + INTRA:          31.726
REMARK INTER:                  32.570
REMARK INTRA:                  -0.844
REMARK UNBOUND:                 0.684
REMARK SMILES O=C([O-])CCCCCCCCCCCCCCC(=O)[O-]
REMARK SMILES IDX 10 1 9 2 8 3 7 4 6 5 5 6 4 7 2 8 1 9 3 10 11 11 12 12 13 13
REMARK SMILES IDX 14 14 15 15 16 16 17 17 18 18 19 19 20 20
REMARK H PARENT
REMARK Flexibility Score: inf
ROOT
ATOM      1  C   UNL     1      14.290   5.795   8.799  1.00  0.00     0.000 C 
ENDROOT
BRANCH   1   2
ATOM      2  C   UNL     1      14.204   7.140   8.059  1.00  0.00     0.000 C 
BRANCH   2   3
ATOM      3  C   UNL     1      12.786   7.464   7.539  1.00  0.00     0.000 C 
BRANCH   3   4
ATOM      4  C   UNL     1      11.863   6.233   7.572  1.00  0.00     0.000 C 
BRANCH   4   5
ATOM      5  C   UNL     1      10.724   6.375   8.593  1.00  0.00     0.000 C 
BRANCH   5   6
ATOM      6  C   UNL     1      10.173   5.016   9.057  1.00  0.00     0.006 C 
BRANCH   6   7
ATOM      7  C   UNL     1      10.371   3.920   8.003  1.00  0.00     0.053 C 
BRANCH   7   8
ATOM      8  C   UNL     1      10.662   2.592   8.634  1.00  0.00     0.041 C 
ATOM      9  O   UNL     1      10.911   2.516   9.866  1.00  0.00    -0.550 OA
ATOM     10  O   UNL     1      10.623   1.435   7.867  1.00  0.00    -0.550 OA
ENDBRANCH   7   8
ENDBRANCH   6   7
ENDBRANCH   5   6
ENDBRANCH   4   5
ENDBRANCH   3   4
ENDBRANCH   2   3
ENDBRANCH   1   2
BRANCH   1  11
ATOM     11  C   UNL     1      15.113   4.745   8.034  1.00  0.00     0.000 C 
BRANCH  11  12
ATOM     12  C   UNL     1      15.376   5.153   6.568  1.00  0.00     0.000 C 
BRANCH  12  13
ATOM     13  C   UNL     1      16.805   4.840   6.084  1.00  0.00     0.000 C 
BRANCH  13  14
ATOM     14  C   UNL     1      17.888   4.871   7.179  1.00  0.00     0.000 C 
BRANCH  14  15
ATOM     15  C   UNL     1      18.098   6.243   7.844  1.00  0.00     0.000 C 
BRANCH  15  16
ATOM     16  C   UNL     1      17.536   6.305   9.276  1.00  0.00     0.006 C 
BRANCH  16  17
ATOM     17  C   UNL     1      18.123   7.476  10.076  1.00  0.00     0.053 C 
BRANCH  17  18
ATOM     18  C   UNL     1      17.447   8.770   9.741  1.00  0.00     0.041 C 
ATOM     19  O   UNL     1      17.995   9.586   8.955  1.00  0.00    -0.550 OA
ATOM     20  O   UNL     1      16.195   9.059  10.270  1.00  0.00    -0.550 OA
ENDBRANCH  17  18
ENDBRANCH  16  17
ENDBRANCH  15  16
ENDBRANCH  14  15
ENDBRANCH  13  14
ENDBRANCH  12  13
ENDBRANCH  11  12
ENDBRANCH   1  11
TORSDOF 15
ENDMDL
MODEL 4
REMARK VINA RESULT:    16.908      1.103      7.170
REMARK INTER + INTRA:          32.419
REMARK INTER:                  31.513
REMARK INTRA:                   0.905
REMARK UNBOUND:                 0.684
REMARK SMILES O=C([O-])CCCCCCCCCCCCCCC(=O)[O-]
REMARK SMILES IDX 10 1 9 2 8 3 7 4 6 5 5 6 4 7 2 8 1 9 3 10 11 11 12 12 13 13
REMARK SMILES IDX 14 14 15 15 16 16 17 17 18 18 19 19 20 20
REMARK H PARENT
REMARK Flexibility Score: inf
ROOT
ATOM      1  C   UNL     1      15.186   6.003   7.383  1.00  0.00     0.000 C 
ENDROOT
BRANCH   1   2
ATOM      2  C   UNL     1      13.939   6.901   7.320  1.00  0.00     0.000 C 
BRANCH   2   3
ATOM      3  C   UNL     1      12.850   6.509   8.343  1.00  0.00     0.000 C 
BRANCH   3   4
ATOM      4  C   UNL     1      11.432   6.653   7.762  1.00  0.00     0.000 C 
BRANCH   4   5
ATOM      5  C   UNL     1      11.155   5.659   6.625  1.00  0.00     0.000 C 
BRANCH   5   6
ATOM      6  C   UNL     1      10.146   4.569   7.024  1.00  0.00     0.006 C 
BRANCH   6   7
ATOM      7  C   UNL     1      10.817   3.396   7.751  1.00  0.00     0.053 C 
BRANCH   7   8
ATOM      8  C   UNL     1      10.488   3.389   9.213  1.00  0.00     0.041 C 
ATOM      9  O   UNL     1      10.871   2.438   9.944  1.00  0.00    -0.550 OA
ATOM     10  O   UNL     1       9.789   4.450   9.773  1.00  0.00    -0.550 OA
ENDBRANCH   7   8
ENDBRANCH   6   7
ENDBRANCH   5   6
ENDBRANCH   4   5
ENDBRANCH   3   4
ENDBRANCH   2   3
ENDBRANCH   1   2
BRANCH   1  11
ATOM     11  C   UNL     1      15.515   5.345   6.032  1.00  0.00     0.000 C 
BRANCH  11  12
ATOM     12  C   UNL     1      16.713   4.374   6.124  1.00  0.00     0.000 C 
BRANCH  12  13
ATOM     13  C   UNL     1      17.544   4.534   7.411  1.00  0.00     0.000 C 
BRANCH  13  14
ATOM     14  C   UNL     1      18.098   5.951   7.659  1.00  0.00     0.000 C 
BRANCH  14  15
ATOM     15  C   UNL     1      18.066   6.411   9.127  1.00  0.00     0.000 C 
BRANCH  15  16
ATOM     16  C   UNL     1      16.640   6.479   9.702  1.00  0.00     0.006 C 
BRANCH  16  17
ATOM     17  C   UNL     1      16.113   7.918   9.770  1.00  0.00     0.053 C 
BRANCH  17  18
ATOM     18  C   UNL     1      17.225   8.910   9.920  1.00  0.00     0.041 C 
ATOM     19  O   UNL     1      18.104   8.747  10.807  1.00  0.00    -0.550 OA
ATOM     20  O   UNL     1      17.311   9.996   9.057  1.00  0.00    -0.550 OA
ENDBRANCH  17  18
ENDBRANCH  16  17
ENDBRANCH  15  16
ENDBRANCH  14  15
ENDBRANCH  13  14
ENDBRANCH  12  13
ENDBRANCH  11  12
ENDBRANCH   1  11
TORSDOF 15
ENDMDL
MODEL 5
REMARK VINA RESULT:    17.524      1.588      7.506
REMARK INTER + INTRA:          33.574
REMARK INTER:                  34.092
REMARK INTRA:                  -0.517
REMARK UNBOUND:                 0.684
REMARK SMILES O=C([O-])CCCCCCCCCCCCCCC(=O)[O-]
REMARK SMILES IDX 10 1 9 2 8 3 7 4 6 5 5 6 4 7 2 8 1 9 3 10 11 11 12 12 13 13
REMARK SMILES IDX 14 14 15 15 16 16 17 17 18 18 19 19 20 20
REMARK H PARENT
REMARK Flexibility Score: inf
ROOT
ATOM      1  C   UNL     1      13.925   5.218   8.076  1.00  0.00     0.000 C 
ENDROOT
BRANCH   1   2
ATOM      2  C   UNL     1      13.825   6.661   7.556  1.00  0.00     0.000 C 
BRANCH   2   3
ATOM      3  C   UNL     1      12.450   7.312   7.815  1.00  0.00     0.000 C 
BRANCH   3   4
ATOM      4  C   UNL     1      11.287   6.350   7.510  1.00  0.00     0.000 C 
BRANCH   4   5
ATOM      5  C   UNL     1      11.119   5.266   8.585  1.00  0.00     0.000 C 
BRANCH   5   6
ATOM      6  C   UNL     1      10.586   3.942   8.012  1.00  0.00     0.006 C 
BRANCH   6   7
ATOM      7  C   UNL     1      10.378   4.009   6.494  1.00  0.00     0.053 C 
BRANCH   7   8
ATOM      8  C   UNL     1       8.968   3.675   6.112  1.00  0.00     0.041 C 
ATOM      9  O   UNL     1       8.636   2.480   5.896  1.00  0.00    -0.550 OA
ATOM     10  O   UNL     1       8.014   4.681   6.031  1.00  0.00    -0.550 OA
ENDBRANCH   7   8
ENDBRANCH   6   7
ENDBRANCH   5   6
ENDBRANCH   4   5
ENDBRANCH   3   4
ENDBRANCH   2   3
ENDBRANCH   1   2
BRANCH   1  11
ATOM     11  C   UNL     1      14.684   4.288   7.114  1.00  0.00     0.000 C 
BRANCH  11  12
ATOM     12  C   UNL     1      15.650   5.058   6.186  1.00  0.00     0.000 C 
BRANCH  12  13
ATOM     13  C   UNL     1      16.963   4.306   5.896  1.00  0.00     0.000 C 
BRANCH  13  14
ATOM     14  C   UNL     1      18.118   4.608   6.871  1.00  0.00     0.000 C 
BRANCH  14  15
ATOM     15  C   UNL     1      18.111   6.028   7.464  1.00  0.00     0.000 C 
BRANCH  15  16
ATOM     16  C   UNL     1      17.270   6.135   8.748  1.00  0.00     0.006 C 
BRANCH  16  17
ATOM     17  C   UNL     1      17.849   7.160   9.733  1.00  0.00     0.053 C 
BRANCH  17  18
ATOM     18  C   UNL     1      17.061   8.434   9.732  1.00  0.00     0.041 C 
ATOM     19  O   UNL     1      15.812   8.408   9.889  1.00  0.00    -0.550 OA
ATOM     20  O   UNL     1      17.712   9.655   9.593  1.00  0.00    -0.550 OA
ENDBRANCH  17  18
ENDBRANCH  16  17
ENDBRANCH  15  16
ENDBRANCH  14  15
ENDBRANCH  13  14
ENDBRANCH  12  13
ENDBRANCH  11  12
ENDBRANCH   1  11
TORSDOF 15
ENDMDL
MODEL 6
REMARK VINA RESULT:    17.680      1.157      7.166
REMARK INTER + INTRA:          33.868
REMARK INTER:                  33.887
REMARK INTRA:                  -0.019
REMARK UNBOUND:                 0.684
REMARK SMILES O=C([O-])CCCCCCCCCCCCCCC(=O)[O-]
REMARK SMILES IDX 10 1 9 2 8 3 7 4 6 5 5 6 4 7 2 8 1 9 3 10 11 11 12 12 13 13
REMARK SMILES IDX 14 14 15 15 16 16 17 17 18 18 19 19 20 20
REMARK H PARENT
REMARK Flexibility Score: inf
ROOT
ATOM      1  C   UNL     1      12.232   6.128   7.961  1.00  0.00     0.000 C 
ENDROOT
BRANCH   1   2
ATOM      2  C   UNL     1      10.704   6.221   7.820  1.00  0.00     0.000 C 
BRANCH   2   3
ATOM      3  C   UNL     1      10.218   6.150   6.357  1.00  0.00     0.000 C 
BRANCH   3   4
ATOM      4  C   UNL     1       9.411   4.869   6.076  1.00  0.00     0.000 C 
BRANCH   4   5
ATOM      5  C   UNL     1      10.302   3.625   5.948  1.00  0.00     0.000 C 
BRANCH   5   6
ATOM      6  C   UNL     1      11.156   3.376   7.202  1.00  0.00     0.006 C 
BRANCH   6   7
ATOM      7  C   UNL     1      10.522   2.339   8.138  1.00  0.00     0.053 C 
BRANCH   7   8
ATOM      8  C   UNL     1      10.540   2.796   9.565  1.00  0.00     0.041 C 
ATOM      9  O   UNL     1      11.245   2.191  10.415  1.00  0.00    -0.550 OA
ATOM     10  O   UNL     1       9.806   3.910   9.947  1.00  0.00    -0.550 OA
ENDBRANCH   7   8
ENDBRANCH   6   7
ENDBRANCH   5   6
ENDBRANCH   4   5
ENDBRANCH   3   4
ENDBRANCH   2   3
ENDBRANCH   1   2
BRANCH   1  11
ATOM     11  C   UNL     1      12.947   7.437   7.584  1.00  0.00     0.000 C 
BRANCH  11  12
ATOM     12  C   UNL     1      14.468   7.247   7.394  1.00  0.00     0.000 C 
BRANCH  12  13
ATOM     13  C   UNL     1      14.967   5.837   7.763  1.00  0.00     0.000 C 
BRANCH  13  14
ATOM     14  C   UNL     1      16.112   5.299   6.883  1.00  0.00     0.000 C 
BRANCH  14  15
ATOM     15  C   UNL     1      17.527   5.572   7.422  1.00  0.00     0.000 C 
BRANCH  15  16
ATOM     16  C   UNL     1      17.566   5.715   8.954  1.00  0.00     0.006 C 
BRANCH  16  17
ATOM     17  C   UNL     1      18.125   7.075   9.394  1.00  0.00     0.053 C 
BRANCH  17  18
ATOM     18  C   UNL     1      17.033   8.020   9.793  1.00  0.00     0.041 C 
ATOM     19  O   UNL     1      17.170   9.258   9.614  1.00  0.00    -0.550 OA
ATOM     20  O   UNL     1      15.849   7.528  10.329  1.00  0.00    -0.550 OA
ENDBRANCH  17  18
ENDBRANCH  16  17
ENDBRANCH  15  16
ENDBRANCH  14  15
ENDBRANCH  13  14
ENDBRANCH  12  13
ENDBRANCH  11  12
ENDBRANCH   1  11
TORSDOF 15
ENDMDL
