MODEL 1
REMARK VINA RESULT:    -4.553      0.000      0.000
REMARK INTER + INTRA:          -8.863
REMARK INTER:                  -8.012
REMARK INTRA:                  -0.850
REMARK UNBOUND:                -0.850
REMARK SMILES CCCCCCCCCCCCCCC(=O)[O-]
REMARK SMILES IDX 9 1 10 2 11 3 12 4 13 5 14 6 15 7 16 8 17 9 8 10 7 11 6 12
REMARK SMILES IDX 5 13 4 14 3 15 2 16 1 17
REMARK H PARENT
REMARK Flexibility Score: inf
ROOT
ATOM      1  C   UNL     1       1.193  -0.441   7.464  1.00  0.00     0.000 C 
ENDROOT
BRANCH   1   2
ATOM      2  C   UNL     1       1.535   0.936   8.047  1.00  0.00     0.000 C 
BRANCH   2   3
ATOM      3  C   UNL     1       1.533   2.014   6.956  1.00  0.00     0.000 C 
BRANCH   3   4
ATOM      4  C   UNL     1       0.834   3.290   7.447  1.00  0.00     0.000 C 
BRANCH   4   5
ATOM      5  C   UNL     1       1.037   4.485   6.496  1.00  0.00     0.006 C 
BRANCH   5   6
ATOM      6  C   UNL     1      -0.066   5.551   6.576  1.00  0.00     0.053 C 
BRANCH   6   7
ATOM      7  C   UNL     1      -0.677   5.830   5.237  1.00  0.00     0.041 C 
ATOM      8  O   UNL     1      -0.068   5.510   4.183  1.00  0.00    -0.550 OA
ATOM      9  O   UNL     1      -1.937   6.411   5.154  1.00  0.00    -0.550 OA
ENDBRANCH   6   7
ENDBRANCH   5   6
ENDBRANCH   4   5
ENDBRANCH   3   4
ENDBRANCH   2   3
ENDBRANCH   1   2
BRANCH   1  10
ATOM     10  C   UNL     1       1.456  -0.477   5.951  1.00  0.00     0.000 C 
BRANCH  10  11
ATOM     11  C   UNL     1       0.691  -1.607   5.242  1.00  0.00    -0.000 C 
BRANCH  11  12
ATOM     12  C   UNL     1      -0.216  -2.397   6.201  1.00  0.00    -0.000 C 
BRANCH  12  13
ATOM     13  C   UNL     1      -1.682  -2.448   5.734  1.00  0.00    -0.000 C 
BRANCH  13  14
ATOM     14  C   UNL     1      -1.940  -1.916   4.311  1.00  0.00    -0.000 C 
BRANCH  14  15
ATOM     15  C   UNL     1      -3.418  -1.576   4.056  1.00  0.00    -0.000 C 
BRANCH  15  16
ATOM     16  C   UNL     1      -4.294  -1.792   5.300  1.00  0.00    -0.003 C 
ATOM     17  C   UNL     1      -5.010  -0.518   5.750  1.00  0.00     0.004 C 
ENDBRANCH  15  16
ENDBRANCH  14  15
ENDBRANCH  13  14
ENDBRANCH  12  13
ENDBRANCH  11  12
ENDBRANCH  10  11
ENDBRANCH   1  10
TORSDOF 13
ENDMDL
MODEL 2
REMARK VINA RESULT:    -4.402      0.919      1.587
REMARK INTER + INTRA:          -8.597
REMARK INTER:                  -7.764
REMARK INTRA:                  -0.833
REMARK UNBOUND:                -0.850
REMARK SMILES CCCCCCCCCCCCCCC(=O)[O-]
REMARK SMILES IDX 9 1 10 2 11 3 12 4 13 5 14 6 15 7 16 8 17 9 8 10 7 11 6 12
REMARK SMILES IDX 5 13 4 14 3 15 2 16 1 17
REMARK H PARENT
REMARK Flexibility Score: inf
ROOT
ATOM      1  C   UNL     1       1.888   0.075   8.007  1.00  0.00     0.000 C 
ENDROOT
BRANCH   1   2
ATOM      2  C   UNL     1       1.494   1.185   7.025  1.00  0.00     0.000 C 
BRANCH   2   3
ATOM      3  C   UNL     1       1.971   2.556   7.521  1.00  0.00     0.000 C 
BRANCH   3   4
ATOM      4  C   UNL     1       0.779   3.458   7.874  1.00  0.00     0.000 C 
BRANCH   4   5
ATOM      5  C   UNL     1       0.505   4.530   6.803  1.00  0.00     0.006 C 
BRANCH   5   6
ATOM      6  C   UNL     1       1.340   4.374   5.523  1.00  0.00     0.053 C 
BRANCH   6   7
ATOM      7  C   UNL     1       0.756   5.135   4.373  1.00  0.00     0.041 C 
ATOM      8  O   UNL     1      -0.443   5.516   4.409  1.00  0.00    -0.550 OA
ATOM      9  O   UNL     1       1.548   5.455   3.276  1.00  0.00    -0.550 OA
ENDBRANCH   6   7
ENDBRANCH   5   6
ENDBRANCH   4   5
ENDBRANCH   3   4
ENDBRANCH   2   3
ENDBRANCH   1   2
BRANCH   1  10
ATOM     10  C   UNL     1       1.569  -1.310   7.427  1.00  0.00     0.000 C 
BRANCH  10  11
ATOM     11  C   UNL     1       1.717  -1.363   5.897  1.00  0.00    -0.000 C 
BRANCH  11  12
ATOM     12  C   UNL     1       0.435  -1.842   5.197  1.00  0.00    -0.000 C 
BRANCH  12  13
ATOM     13  C   UNL     1      -0.586  -2.459   6.170  1.00  0.00    -0.000 C 
BRANCH  13  14
ATOM     14  C   UNL     1      -2.048  -2.453   5.683  1.00  0.00    -0.000 C 
BRANCH  14  15
ATOM     15  C   UNL     1      -2.204  -1.887   4.262  1.00  0.00    -0.000 C 
BRANCH  15  16
ATOM     16  C   UNL     1      -3.609  -1.320   4.006  1.00  0.00    -0.003 C 
ATOM     17  C   UNL     1      -4.452  -1.226   5.279  1.00  0.00     0.004 C 
ENDBRANCH  15  16
ENDBRANCH  14  15
ENDBRANCH  13  14
ENDBRANCH  12  13
ENDBRANCH  11  12
ENDBRANCH  10  11
ENDBRANCH   1  10
TORSDOF 13
ENDMDL
MODEL 3
REMARK VINA RESULT:    -4.370      4.594      6.060
REMARK INTER + INTRA:          -8.541
REMARK INTER:                  -6.623
REMARK INTRA:                  -1.918
REMARK UNBOUND:                -0.850
REMARK SMILES CCCCCCCCCCCCCCC(=O)[O-]
REMARK SMILES IDX 9 1 10 2 11 3 12 4 13 5 14 6 15 7 16 8 17 9 8 10 7 11 6 12
REMARK SMILES IDX 5 13 4 14 3 15 2 16 1 17
REMARK H PARENT
REMARK Flexibility Score: inf
ROOT
ATOM      1  C   UNL     1      -2.629  -4.995   5.099  1.00  0.00     0.000 C 
ENDROOT
BRANCH   1   2
ATOM      2  C   UNL     1      -3.046  -4.531   6.500  1.00  0.00     0.000 C 
BRANCH   2   3
ATOM      3  C   UNL     1      -2.166  -3.371   6.983  1.00  0.00     0.000 C 
BRANCH   3   4
ATOM      4  C   UNL     1      -0.754  -3.467   6.386  1.00  0.00     0.000 C 
BRANCH   4   5
ATOM      5  C   UNL     1       0.041  -2.154   6.520  1.00  0.00     0.006 C 
BRANCH   5   6
ATOM      6  C   UNL     1       0.737  -1.702   5.227  1.00  0.00     0.053 C 
BRANCH   6   7
ATOM      7  C   UNL     1       2.225  -1.634   5.384  1.00  0.00     0.041 C 
ATOM      8  O   UNL     1       2.733  -0.961   6.319  1.00  0.00    -0.550 OA
ATOM      9  O   UNL     1       3.049  -2.342   4.518  1.00  0.00    -0.550 OA
ENDBRANCH   6   7
ENDBRANCH   5   6
ENDBRANCH   4   5
ENDBRANCH   3   4
ENDBRANCH   2   3
ENDBRANCH   1   2
BRANCH   1  10
ATOM     10  C   UNL     1      -3.834  -5.020   4.147  1.00  0.00     0.000 C 
BRANCH  10  11
ATOM     11  C   UNL     1      -3.790  -3.892   3.103  1.00  0.00    -0.000 C 
BRANCH  11  12
ATOM     12  C   UNL     1      -2.489  -3.075   3.172  1.00  0.00    -0.000 C 
BRANCH  12  13
ATOM     13  C   UNL     1      -2.698  -1.661   3.746  1.00  0.00    -0.000 C 
BRANCH  13  14
ATOM     14  C   UNL     1      -4.167  -1.244   3.951  1.00  0.00    -0.000 C 
BRANCH  14  15
ATOM     15  C   UNL     1      -4.476  -0.829   5.399  1.00  0.00    -0.000 C 
BRANCH  15  16
ATOM     16  C   UNL     1      -5.841  -1.344   5.879  1.00  0.00    -0.003 C 
ATOM     17  C   UNL     1      -6.493  -0.425   6.913  1.00  0.00     0.004 C 
ENDBRANCH  15  16
ENDBRANCH  14  15
ENDBRANCH  13  14
ENDBRANCH  12  13
ENDBRANCH  11  12
ENDBRANCH  10  11
ENDBRANCH   1  10
TORSDOF 13
ENDMDL
MODEL 4
REMARK VINA RESULT:    -4.325      4.476      6.051
REMARK INTER + INTRA:          -8.463
REMARK INTER:                  -6.377
REMARK INTRA:                  -2.086
REMARK UNBOUND:                -0.850
REMARK SMILES CCCCCCCCCCCCCCC(=O)[O-]
REMARK SMILES IDX 9 1 10 2 11 3 12 4 13 5 14 6 15 7 16 8 17 9 8 10 7 11 6 12
REMARK SMILES IDX 5 13 4 14 3 15 2 16 1 17
REMARK H PARENT
REMARK Flexibility Score: inf
ROOT
ATOM      1  C   UNL     1      -3.573  -3.892   7.446  1.00  0.00     0.000 C 
ENDROOT
BRANCH   1   2
ATOM      2  C   UNL     1      -2.344  -2.982   7.568  1.00  0.00     0.000 C 
BRANCH   2   3
ATOM      3  C   UNL     1      -1.163  -3.538   6.762  1.00  0.00     0.000 C 
BRANCH   3   4
ATOM      4  C   UNL     1       0.067  -2.628   6.892  1.00  0.00     0.000 C 
BRANCH   4   5
ATOM      5  C   UNL     1       0.448  -1.946   5.565  1.00  0.00     0.006 C 
BRANCH   5   6
ATOM      6  C   UNL     1       1.588  -0.922   5.684  1.00  0.00     0.053 C 
BRANCH   6   7
ATOM      7  C   UNL     1       2.935  -1.562   5.550  1.00  0.00     0.041 C 
ATOM      8  O   UNL     1       3.818  -1.371   6.427  1.00  0.00    -0.550 OA
ATOM      9  O   UNL     1       3.204  -2.398   4.473  1.00  0.00    -0.550 OA
ENDBRANCH   6   7
ENDBRANCH   5   6
ENDBRANCH   4   5
ENDBRANCH   3   4
ENDBRANCH   2   3
ENDBRANCH   1   2
BRANCH   1  10
ATOM     10  C   UNL     1      -4.769  -3.126   6.863  1.00  0.00     0.000 C 
BRANCH  10  11
ATOM     11  C   UNL     1      -4.428  -1.668   6.516  1.00  0.00    -0.000 C 
BRANCH  11  12
ATOM     12  C   UNL     1      -5.216  -1.151   5.301  1.00  0.00    -0.000 C 
BRANCH  12  13
ATOM     13  C   UNL     1      -4.413  -1.224   3.989  1.00  0.00    -0.000 C 
BRANCH  13  14
ATOM     14  C   UNL     1      -2.910  -1.514   4.152  1.00  0.00    -0.000 C 
BRANCH  14  15
ATOM     15  C   UNL     1      -2.437  -2.719   3.322  1.00  0.00    -0.000 C 
BRANCH  15  16
ATOM     16  C   UNL     1      -3.466  -3.859   3.301  1.00  0.00    -0.003 C 
ATOM     17  C   UNL     1      -2.951  -5.137   3.964  1.00  0.00     0.004 C 
ENDBRANCH  15  16
ENDBRANCH  14  15
ENDBRANCH  13  14
ENDBRANCH  12  13
ENDBRANCH  11  12
ENDBRANCH  10  11
ENDBRANCH   1  10
TORSDOF 13
ENDMDL
MODEL 5
REMARK VINA RESULT:    -4.184      2.390      3.674
REMARK INTER + INTRA:          -8.214
REMARK INTER:                  -6.490
REMARK INTRA:                  -1.724
REMARK UNBOUND:                -0.850
REMARK SMILES CCCCCCCCCCCCCCC(=O)[O-]
REMARK SMILES IDX 9 1 10 2 11 3 12 4 13 5 14 6 15 7 16 8 17 9 8 10 7 11 6 12
REMARK SMILES IDX 5 13 4 14 3 15 2 16 1 17
REMARK H PARENT
REMARK Flexibility Score: inf
ROOT
ATOM      1  C   UNL     1       2.023   0.111   8.695  1.00  0.00     0.000 C 
ENDROOT
BRANCH   1   2
ATOM      2  C   UNL     1       2.594   1.053   7.628  1.00  0.00     0.000 C 
BRANCH   2   3
ATOM      3  C   UNL     1       1.471   1.781   6.877  1.00  0.00     0.000 C 
BRANCH   3   4
ATOM      4  C   UNL     1       1.012   3.026   7.650  1.00  0.00     0.000 C 
BRANCH   4   5
ATOM      5  C   UNL     1       0.696   4.218   6.726  1.00  0.00     0.006 C 
BRANCH   5   6
ATOM      6  C   UNL     1       1.838   4.597   5.770  1.00  0.00     0.053 C 
BRANCH   6   7
ATOM      7  C   UNL     1       1.330   5.013   4.424  1.00  0.00     0.041 C 
ATOM      8  O   UNL     1       2.120   5.104   3.448  1.00  0.00    -0.550 OA
ATOM      9  O   UNL     1      -0.024   5.267   4.239  1.00  0.00    -0.550 OA
ENDBRANCH   6   7
ENDBRANCH   5   6
ENDBRANCH   4   5
ENDBRANCH   3   4
ENDBRANCH   2   3
ENDBRANCH   1   2
BRANCH   1  10
ATOM     10  C   UNL     1       2.927  -1.116   8.885  1.00  0.00     0.000 C 
BRANCH  10  11
ATOM     11  C   UNL     1       4.254  -1.001   8.117  1.00  0.00    -0.000 C 
BRANCH  11  12
ATOM     12  C   UNL     1       4.477  -2.173   7.146  1.00  0.00    -0.000 C 
BRANCH  12  13
ATOM     13  C   UNL     1       4.333  -1.763   5.669  1.00  0.00    -0.000 C 
BRANCH  13  14
ATOM     14  C   UNL     1       3.156  -2.411   4.917  1.00  0.00    -0.000 C 
BRANCH  14  15
ATOM     15  C   UNL     1       1.792  -1.820   5.314  1.00  0.00    -0.000 C 
BRANCH  15  16
ATOM     16  C   UNL     1       0.981  -2.765   6.214  1.00  0.00    -0.003 C 
ATOM     17  C   UNL     1      -0.257  -2.096   6.813  1.00  0.00     0.004 C 
ENDBRANCH  15  16
ENDBRANCH  14  15
ENDBRANCH  13  14
ENDBRANCH  12  13
ENDBRANCH  11  12
ENDBRANCH  10  11
ENDBRANCH   1  10
TORSDOF 13
ENDMDL
MODEL 6
REMARK VINA RESULT:    -4.177      6.478      9.170
REMARK INTER + INTRA:          -8.203
REMARK INTER:                  -7.406
REMARK INTRA:                  -0.797
REMARK UNBOUND:                -0.850
REMARK SMILES CCCCCCCCCCCCCCC(=O)[O-]
REMARK SMILES IDX 9 1 10 2 11 3 12 4 13 5 14 6 15 7 16 8 17 9 8 10 7 11 6 12
REMARK SMILES IDX 5 13 4 14 3 15 2 16 1 17
REMARK H PARENT
REMARK Flexibility Score: inf
ROOT
ATOM      1  C   UNL     1      -3.150  -5.136   2.684  1.00  0.00     0.000 C 
ENDROOT
BRANCH   1   2
ATOM      2  C   UNL     1      -2.898  -5.836   1.343  1.00  0.00     0.000 C 
BRANCH   2   3
ATOM      3  C   UNL     1      -2.380  -4.847   0.292  1.00  0.00     0.000 C 
BRANCH   3   4
ATOM      4  C   UNL     1      -2.920  -5.195  -1.103  1.00  0.00     0.000 C 
BRANCH   4   5
ATOM      5  C   UNL     1      -2.035  -4.647  -2.239  1.00  0.00     0.006 C 
BRANCH   5   6
ATOM      6  C   UNL     1      -0.619  -4.245  -1.799  1.00  0.00     0.053 C 
BRANCH   6   7
ATOM      7  C   UNL     1       0.425  -5.165  -2.353  1.00  0.00     0.041 C 
ATOM      8  O   UNL     1       1.564  -5.226  -1.820  1.00  0.00    -0.550 OA
ATOM      9  O   UNL     1       0.128  -5.980  -3.439  1.00  0.00    -0.550 OA
ENDBRANCH   6   7
ENDBRANCH   5   6
ENDBRANCH   4   5
ENDBRANCH   3   4
ENDBRANCH   2   3
ENDBRANCH   1   2
BRANCH   1  10
ATOM     10  C   UNL     1      -2.551  -3.721   2.686  1.00  0.00     0.000 C 
BRANCH  10  11
ATOM     11  C   UNL     1      -1.880  -3.362   4.021  1.00  0.00    -0.000 C 
BRANCH  11  12
ATOM     12  C   UNL     1      -2.404  -2.040   4.608  1.00  0.00    -0.000 C 
BRANCH  12  13
ATOM     13  C   UNL     1      -3.567  -1.442   3.794  1.00  0.00    -0.000 C 
BRANCH  13  14
ATOM     14  C   UNL     1      -4.580  -0.613   4.605  1.00  0.00    -0.000 C 
BRANCH  14  15
ATOM     15  C   UNL     1      -5.368  -1.456   5.622  1.00  0.00    -0.000 C 
BRANCH  15  16
ATOM     16  C   UNL     1      -5.391  -0.821   7.021  1.00  0.00    -0.003 C 
ATOM     17  C   UNL     1      -6.271   0.427   7.093  1.00  0.00     0.004 C 
ENDBRANCH  15  16
ENDBRANCH  14  15
ENDBRANCH  13  14
ENDBRANCH  12  13
ENDBRANCH  11  12
ENDBRANCH  10  11
ENDBRANCH   1  10
TORSDOF 13
ENDMDL
MODEL 7
REMARK VINA RESULT:    -4.098      2.510      3.724
REMARK INTER + INTRA:          -8.062
REMARK INTER:                  -6.861
REMARK INTRA:                  -1.202
REMARK UNBOUND:                -0.850
REMARK SMILES CCCCCCCCCCCCCCC(=O)[O-]
REMARK SMILES IDX 9 1 10 2 11 3 12 4 13 5 14 6 15 7 16 8 17 9 8 10 7 11 6 12
REMARK SMILES IDX 5 13 4 14 3 15 2 16 1 17
REMARK H PARENT
REMARK Flexibility Score: inf
ROOT
ATOM      1  C   UNL     1       1.832   1.247   7.095  1.00  0.00     0.000 C 
ENDROOT
BRANCH   1   2
ATOM      2  C   UNL     1       1.625   2.749   6.864  1.00  0.00     0.000 C 
BRANCH   2   3
ATOM      3  C   UNL     1       0.641   3.333   7.885  1.00  0.00     0.000 C 
BRANCH   3   4
ATOM      4  C   UNL     1       0.182   4.737   7.464  1.00  0.00     0.000 C 
BRANCH   4   5
ATOM      5  C   UNL     1       0.510   5.056   5.993  1.00  0.00     0.006 C 
BRANCH   5   6
ATOM      6  C   UNL     1      -0.672   5.619   5.189  1.00  0.00     0.053 C 
BRANCH   6   7
ATOM      7  C   UNL     1      -0.693   7.116   5.193  1.00  0.00     0.041 C 
ATOM      8  O   UNL     1      -0.622   7.755   4.111  1.00  0.00    -0.550 OA
ATOM      9  O   UNL     1      -0.826   7.807   6.392  1.00  0.00    -0.550 OA
ENDBRANCH   6   7
ENDBRANCH   5   6
ENDBRANCH   4   5
ENDBRANCH   3   4
ENDBRANCH   2   3
ENDBRANCH   1   2
BRANCH   1  10
ATOM     10  C   UNL     1       2.799   0.999   8.262  1.00  0.00     0.000 C 
BRANCH  10  11
ATOM     11  C   UNL     1       3.083  -0.494   8.491  1.00  0.00    -0.000 C 
BRANCH  11  12
ATOM     12  C   UNL     1       4.029  -1.084   7.431  1.00  0.00    -0.000 C 
BRANCH  12  13
ATOM     13  C   UNL     1       3.927  -2.617   7.323  1.00  0.00    -0.000 C 
BRANCH  13  14
ATOM     14  C   UNL     1       2.809  -3.139   6.402  1.00  0.00    -0.000 C 
BRANCH  14  15
ATOM     15  C   UNL     1       2.508  -2.193   5.227  1.00  0.00    -0.000 C 
BRANCH  15  16
ATOM     16  C   UNL     1       1.042  -1.734   5.201  1.00  0.00    -0.003 C 
ATOM     17  C   UNL     1       0.275  -2.128   6.464  1.00  0.00     0.004 C 
ENDBRANCH  15  16
ENDBRANCH  14  15
ENDBRANCH  13  14
ENDBRANCH  12  13
ENDBRANCH  11  12
ENDBRANCH  10  11
ENDBRANCH   1  10
TORSDOF 13
ENDMDL
MODEL 8
REMARK VINA RESULT:    -4.081      4.613      6.974
REMARK INTER + INTRA:          -8.032
REMARK INTER:                  -6.354
REMARK INTRA:                  -1.679
REMARK UNBOUND:                -0.850
REMARK SMILES CCCCCCCCCCCCCCC(=O)[O-]
REMARK SMILES IDX 9 1 10 2 11 3 12 4 13 5 14 6 15 7 16 8 17 9 8 10 7 11 6 12
REMARK SMILES IDX 5 13 4 14 3 15 2 16 1 17
REMARK H PARENT
REMARK Flexibility Score: inf
ROOT
ATOM      1  C   UNL     1      -2.797  -5.454   4.532  1.00  0.00     0.000 C 
ENDROOT
BRANCH   1   2
ATOM      2  C   UNL     1      -3.605  -4.268   3.993  1.00  0.00     0.000 C 
BRANCH   2   3
ATOM      3  C   UNL     1      -2.720  -3.328   3.163  1.00  0.00     0.000 C 
BRANCH   3   4
ATOM      4  C   UNL     1      -3.054  -1.858   3.457  1.00  0.00     0.000 C 
BRANCH   4   5
ATOM      5  C   UNL     1      -4.464  -1.674   4.050  1.00  0.00     0.006 C 
BRANCH   5   6
ATOM      6  C   UNL     1      -4.512  -0.780   5.299  1.00  0.00     0.053 C 
BRANCH   6   7
ATOM      7  C   UNL     1      -5.694  -1.087   6.166  1.00  0.00     0.041 C 
ATOM      8  O   UNL     1      -6.707  -1.653   5.679  1.00  0.00    -0.550 OA
ATOM      9  O   UNL     1      -5.662  -0.779   7.521  1.00  0.00    -0.550 OA
ENDBRANCH   6   7
ENDBRANCH   5   6
ENDBRANCH   4   5
ENDBRANCH   3   4
ENDBRANCH   2   3
ENDBRANCH   1   2
BRANCH   1  10
ATOM     10  C   UNL     1      -1.853  -5.010   5.659  1.00  0.00     0.000 C 
BRANCH  10  11
ATOM     11  C   UNL     1      -2.565  -4.174   6.735  1.00  0.00    -0.000 C 
BRANCH  11  12
ATOM     12  C   UNL     1      -1.889  -2.812   6.966  1.00  0.00    -0.000 C 
BRANCH  12  13
ATOM     13  C   UNL     1      -0.418  -2.788   6.511  1.00  0.00    -0.000 C 
BRANCH  13  14
ATOM     14  C   UNL     1      -0.105  -1.833   5.344  1.00  0.00    -0.000 C 
BRANCH  14  15
ATOM     15  C   UNL     1       1.357  -1.354   5.336  1.00  0.00    -0.000 C 
BRANCH  15  16
ATOM     16  C   UNL     1       2.356  -2.513   5.471  1.00  0.00    -0.003 C 
ATOM     17  C   UNL     1       3.720  -2.196   4.857  1.00  0.00     0.004 C 
ENDBRANCH  15  16
ENDBRANCH  14  15
ENDBRANCH  13  14
ENDBRANCH  12  13
ENDBRANCH  11  12
ENDBRANCH  10  11
ENDBRANCH   1  10
TORSDOF 13
ENDMDL
MODEL 9
REMARK VINA RESULT:    -4.048      4.521      5.790
REMARK INTER + INTRA:          -7.975
REMARK INTER:                  -7.183
REMARK INTRA:                  -0.791
REMARK UNBOUND:                -0.850
REMARK SMILES CCCCCCCCCCCCCCC(=O)[O-]
REMARK SMILES IDX 9 1 10 2 11 3 12 4 13 5 14 6 15 7 16 8 17 9 8 10 7 11 6 12
REMARK SMILES IDX 5 13 4 14 3 15 2 16 1 17
REMARK H PARENT
REMARK Flexibility Score: inf
ROOT
ATOM      1  C   UNL     1      -1.673  -2.792   5.951  1.00  0.00     0.000 C 
ENDROOT
BRANCH   1   2
ATOM      2  C   UNL     1      -0.166  -2.629   6.186  1.00  0.00     0.000 C 
BRANCH   2   3
ATOM      3  C   UNL     1       0.453  -1.673   5.159  1.00  0.00     0.000 C 
BRANCH   3   4
ATOM      4  C   UNL     1       1.794  -1.120   5.662  1.00  0.00     0.000 C 
BRANCH   4   5
ATOM      5  C   UNL     1       2.996  -1.976   5.221  1.00  0.00     0.006 C 
BRANCH   5   6
ATOM      6  C   UNL     1       4.124  -2.067   6.261  1.00  0.00     0.053 C 
BRANCH   6   7
ATOM      7  C   UNL     1       3.663  -1.662   7.627  1.00  0.00     0.041 C 
ATOM      8  O   UNL     1       2.982  -2.457   8.328  1.00  0.00    -0.550 OA
ATOM      9  O   UNL     1       4.014  -0.420   8.141  1.00  0.00    -0.550 OA
ENDBRANCH   6   7
ENDBRANCH   5   6
ENDBRANCH   4   5
ENDBRANCH   3   4
ENDBRANCH   2   3
ENDBRANCH   1   2
BRANCH   1  10
ATOM     10  C   UNL     1      -1.946  -3.733   4.768  1.00  0.00     0.000 C 
BRANCH  10  11
ATOM     11  C   UNL     1      -2.768  -3.063   3.654  1.00  0.00    -0.000 C 
BRANCH  11  12
ATOM     12  C   UNL     1      -3.000  -1.565   3.912  1.00  0.00    -0.000 C 
BRANCH  12  13
ATOM     13  C   UNL     1      -4.491  -1.202   4.037  1.00  0.00    -0.000 C 
BRANCH  13  14
ATOM     14  C   UNL     1      -5.146  -1.562   5.384  1.00  0.00    -0.000 C 
BRANCH  14  15
ATOM     15  C   UNL     1      -5.272  -0.357   6.331  1.00  0.00    -0.000 C 
BRANCH  15  16
ATOM     16  C   UNL     1      -6.721  -0.111   6.780  1.00  0.00    -0.003 C 
ATOM     17  C   UNL     1      -6.838   0.994   7.830  1.00  0.00     0.004 C 
ENDBRANCH  15  16
ENDBRANCH  14  15
ENDBRANCH  13  14
ENDBRANCH  12  13
ENDBRANCH  11  12
ENDBRANCH  10  11
ENDBRANCH   1  10
TORSDOF 13
ENDMDL
