MODEL 1
REMARK VINA RESULT:    -5.865      0.000      0.000
REMARK INTER + INTRA:          -6.933
REMARK INTER:                  -6.894
REMARK INTRA:                  -0.039
REMARK UNBOUND:                -0.039
REMARK SMILES O=c1c(O)c(-c2ccc(O)cc2)oc2cc(O)cc(O)c12
REMARK SMILES IDX 5 1 3 2 2 3 1 4 21 5 19 6 18 7 16 8 15 9 14 10 13 11 6 12
REMARK SMILES IDX 7 13 8 14 9 15 12 16 11 17 10 18 4 20 20 22 17 24
REMARK H PARENT 10 19 4 21 20 23 17 25
REMARK Flexibility Score: inf
ROOT
ATOM      1  C   UNL     1      18.786  50.403  77.080  1.00  0.00     0.180 A 
ATOM      2  C   UNL     1      19.429  51.514  76.509  1.00  0.00     0.208 A 
ATOM      3  C   UNL     1      20.157  51.343  75.320  1.00  0.00     0.238 A 
ATOM      4  O   UNL     1      20.775  52.331  74.842  1.00  0.00    -0.285 OA
ATOM      5  C   UNL     1      20.219  50.068  74.708  1.00  0.00     0.111 A 
ATOM      6  C   UNL     1      20.893  49.789  73.482  1.00  0.00     0.134 A 
ATOM      7  C   UNL     1      21.000  48.466  73.038  1.00  0.00     0.093 A 
ATOM      8  C   UNL     1      20.400  47.420  73.743  1.00  0.00     0.123 A 
ATOM      9  C   UNL     1      19.689  47.689  74.910  1.00  0.00     0.094 A 
ATOM     10  C   UNL     1      19.596  48.995  75.397  1.00  0.00     0.146 A 
ATOM     11  O   UNL     1      18.918  49.206  76.519  1.00  0.00    -0.452 OA
ENDROOT
BRANCH   1  12
ATOM     12  C   UNL     1      17.981  50.508  78.318  1.00  0.00     0.021 A 
ATOM     13  C   UNL     1      16.622  50.151  78.292  1.00  0.00     0.016 A 
ATOM     14  C   UNL     1      15.838  50.263  79.443  1.00  0.00     0.047 A 
ATOM     15  C   UNL     1      16.395  50.748  80.631  1.00  0.00     0.115 A 
ATOM     16  C   UNL     1      18.531  51.013  79.511  1.00  0.00     0.016 A 
ATOM     17  C   UNL     1      17.744  51.126  80.661  1.00  0.00     0.047 A 
BRANCH  15  18
ATOM     18  O   UNL     1      15.602  50.854  81.770  1.00  0.00    -0.508 OA
ATOM     19  H   UNL     1      14.941  50.130  82.025  1.00  0.00     0.293 HD
ENDBRANCH  15  18
ENDBRANCH   1  12
BRANCH   2  20
ATOM     20  O   UNL     1      19.374  52.759  77.140  1.00  0.00    -0.502 OA
ATOM     21  H   UNL     1      19.901  52.969  77.979  1.00  0.00     0.293 HD
ENDBRANCH   2  20
BRANCH   6  22
ATOM     22  O   UNL     1      21.447  50.772  72.655  1.00  0.00    -0.507 OA
ATOM     23  H   UNL     1      21.724  50.627  71.697  1.00  0.00     0.293 HD
ENDBRANCH   6  22
BRANCH   8  24
ATOM     24  O   UNL     1      20.498  46.107  73.286  1.00  0.00    -0.508 OA
ATOM     25  H   UNL     1      20.233  45.854  72.341  1.00  0.00     0.293 HD
ENDBRANCH   8  24
TORSDOF 5
ENDMDL
MODEL 2
REMARK VINA RESULT:    -5.516      3.067      7.089
REMARK INTER + INTRA:          -6.522
REMARK INTER:                  -6.228
REMARK INTRA:                  -0.294
REMARK UNBOUND:                -0.039
REMARK SMILES O=c1c(O)c(-c2ccc(O)cc2)oc2cc(O)cc(O)c12
REMARK SMILES IDX 5 1 3 2 2 3 1 4 21 5 19 6 18 7 16 8 15 9 14 10 13 11 6 12
REMARK SMILES IDX 7 13 8 14 9 15 12 16 11 17 10 18 4 20 20 22 17 24
REMARK H PARENT 10 19 4 21 20 23 17 25
REMARK Flexibility Score: inf
ROOT
ATOM      1  C   UNL     1      17.594  49.448  79.621  1.00  0.00     0.180 A 
ATOM      2  C   UNL     1      17.150  50.013  80.829  1.00  0.00     0.208 A 
ATOM      3  C   UNL     1      16.178  49.335  81.582  1.00  0.00     0.238 A 
ATOM      4  O   UNL     1      15.746  49.873  82.635  1.00  0.00    -0.285 OA
ATOM      5  C   UNL     1      15.674  48.093  81.127  1.00  0.00     0.111 A 
ATOM      6  C   UNL     1      14.717  47.300  81.829  1.00  0.00     0.134 A 
ATOM      7  C   UNL     1      14.193  46.153  81.222  1.00  0.00     0.093 A 
ATOM      8  C   UNL     1      14.639  45.735  79.966  1.00  0.00     0.123 A 
ATOM      9  C   UNL     1      15.616  46.470  79.299  1.00  0.00     0.094 A 
ATOM     10  C   UNL     1      16.132  47.638  79.863  1.00  0.00     0.146 A 
ATOM     11  O   UNL     1      17.054  48.315  79.188  1.00  0.00    -0.452 OA
ENDROOT
BRANCH   1  12
ATOM     12  C   UNL     1      18.634  50.090  78.785  1.00  0.00     0.021 A 
ATOM     13  C   UNL     1      18.250  50.874  77.685  1.00  0.00     0.016 A 
ATOM     14  C   UNL     1      19.216  51.471  76.870  1.00  0.00     0.047 A 
ATOM     15  C   UNL     1      20.576  51.281  77.132  1.00  0.00     0.115 A 
ATOM     16  C   UNL     1      20.004  49.885  79.034  1.00  0.00     0.016 A 
ATOM     17  C   UNL     1      20.968  50.483  78.216  1.00  0.00     0.047 A 
BRANCH  15  18
ATOM     18  O   UNL     1      21.527  51.881  76.312  1.00  0.00    -0.508 OA
ATOM     19  H   UNL     1      22.517  51.826  76.522  1.00  0.00     0.293 HD
ENDBRANCH  15  18
ENDBRANCH   1  12
BRANCH   2  20
ATOM     20  O   UNL     1      17.645  51.251  81.249  1.00  0.00    -0.502 OA
ATOM     21  H   UNL     1      18.485  51.340  81.808  1.00  0.00     0.293 HD
ENDBRANCH   2  20
BRANCH   6  22
ATOM     22  O   UNL     1      14.274  47.579  83.125  1.00  0.00    -0.507 OA
ATOM     23  H   UNL     1      14.659  48.295  83.723  1.00  0.00     0.293 HD
ENDBRANCH   6  22
BRANCH   8  24
ATOM     24  O   UNL     1      14.123  44.582  79.376  1.00  0.00    -0.508 OA
ATOM     25  H   UNL     1      13.147  44.513  79.115  1.00  0.00     0.293 HD
ENDBRANCH   8  24
TORSDOF 5
ENDMDL
MODEL 3
REMARK VINA RESULT:    -5.465      1.532      3.180
REMARK INTER + INTRA:          -6.462
REMARK INTER:                  -6.168
REMARK INTRA:                  -0.295
REMARK UNBOUND:                -0.039
REMARK SMILES O=c1c(O)c(-c2ccc(O)cc2)oc2cc(O)cc(O)c12
REMARK SMILES IDX 5 1 3 2 2 3 1 4 21 5 19 6 18 7 16 8 15 9 14 10 13 11 6 12
REMARK SMILES IDX 7 13 8 14 9 15 12 16 11 17 10 18 4 20 20 22 17 24
REMARK H PARENT 10 19 4 21 20 23 17 25
REMARK Flexibility Score: inf
ROOT
ATOM      1  C   UNL     1      18.352  48.717  76.883  1.00  0.00     0.180 A 
ATOM      2  C   UNL     1      18.427  47.320  76.756  1.00  0.00     0.208 A 
ATOM      3  C   UNL     1      19.118  46.770  75.664  1.00  0.00     0.238 A 
ATOM      4  O   UNL     1      19.135  45.519  75.527  1.00  0.00    -0.285 OA
ATOM      5  C   UNL     1      19.740  47.625  74.722  1.00  0.00     0.111 A 
ATOM      6  C   UNL     1      20.500  47.178  73.600  1.00  0.00     0.134 A 
ATOM      7  C   UNL     1      20.959  48.109  72.662  1.00  0.00     0.093 A 
ATOM      8  C   UNL     1      20.741  49.478  72.839  1.00  0.00     0.123 A 
ATOM      9  C   UNL     1      20.051  49.929  73.962  1.00  0.00     0.094 A 
ATOM     10  C   UNL     1      19.550  49.020  74.897  1.00  0.00     0.146 A 
ATOM     11  O   UNL     1      18.888  49.492  75.948  1.00  0.00    -0.452 OA
ENDROOT
BRANCH   1  12
ATOM     12  C   UNL     1      17.663  49.370  78.019  1.00  0.00     0.021 A 
ATOM     13  C   UNL     1      16.303  49.704  77.905  1.00  0.00     0.016 A 
ATOM     14  C   UNL     1      15.639  50.340  78.957  1.00  0.00     0.047 A 
ATOM     15  C   UNL     1      16.326  50.666  80.130  1.00  0.00     0.115 A 
ATOM     16  C   UNL     1      18.355  49.717  79.195  1.00  0.00     0.016 A 
ATOM     17  C   UNL     1      17.688  50.355  80.245  1.00  0.00     0.047 A 
BRANCH  15  18
ATOM     18  O   UNL     1      15.653  51.300  81.171  1.00  0.00    -0.508 OA
ATOM     19  H   UNL     1      16.111  51.987  81.757  1.00  0.00     0.293 HD
ENDBRANCH  15  18
ENDBRANCH   1  12
BRANCH   2  20
ATOM     20  O   UNL     1      17.787  46.494  77.685  1.00  0.00    -0.502 OA
ATOM     21  H   UNL     1      16.861  46.694  78.045  1.00  0.00     0.293 HD
ENDBRANCH   2  20
BRANCH   6  22
ATOM     22  O   UNL     1      20.852  45.843  73.379  1.00  0.00    -0.507 OA
ATOM     23  H   UNL     1      20.408  45.235  72.708  1.00  0.00     0.293 HD
ENDBRANCH   6  22
BRANCH   8  24
ATOM     24  O   UNL     1      21.215  50.400  71.908  1.00  0.00    -0.508 OA
ATOM     25  H   UNL     1      22.060  50.934  72.074  1.00  0.00     0.293 HD
ENDBRANCH   8  24
TORSDOF 5
ENDMDL
MODEL 4
REMARK VINA RESULT:    -5.314      1.937      6.725
REMARK INTER + INTRA:          -6.285
REMARK INTER:                  -6.018
REMARK INTRA:                  -0.266
REMARK UNBOUND:                -0.039
REMARK SMILES O=c1c(O)c(-c2ccc(O)cc2)oc2cc(O)cc(O)c12
REMARK SMILES IDX 5 1 3 2 2 3 1 4 21 5 19 6 18 7 16 8 15 9 14 10 13 11 6 12
REMARK SMILES IDX 7 13 8 14 9 15 12 16 11 17 10 18 4 20 20 22 17 24
REMARK H PARENT 10 19 4 21 20 23 17 25
REMARK Flexibility Score: inf
ROOT
ATOM      1  C   UNL     1      20.204  49.757  75.791  1.00  0.00     0.180 A 
ATOM      2  C   UNL     1      21.036  50.172  76.845  1.00  0.00     0.208 A 
ATOM      3  C   UNL     1      20.462  50.454  78.096  1.00  0.00     0.238 A 
ATOM      4  O   UNL     1      21.205  50.876  79.020  1.00  0.00    -0.285 OA
ATOM      5  C   UNL     1      19.067  50.302  78.281  1.00  0.00     0.111 A 
ATOM      6  C   UNL     1      18.385  50.522  79.515  1.00  0.00     0.134 A 
ATOM      7  C   UNL     1      16.986  50.469  79.550  1.00  0.00     0.093 A 
ATOM      8  C   UNL     1      16.250  50.140  78.409  1.00  0.00     0.123 A 
ATOM      9  C   UNL     1      16.910  49.867  77.214  1.00  0.00     0.094 A 
ATOM     10  C   UNL     1      18.302  49.947  77.139  1.00  0.00     0.146 A 
ATOM     11  O   UNL     1      18.891  49.688  75.978  1.00  0.00    -0.452 OA
ENDROOT
BRANCH   1  12
ATOM     12  C   UNL     1      20.737  49.418  74.452  1.00  0.00     0.021 A 
ATOM     13  C   UNL     1      20.996  50.444  73.529  1.00  0.00     0.016 A 
ATOM     14  C   UNL     1      21.479  50.144  72.252  1.00  0.00     0.047 A 
ATOM     15  C   UNL     1      21.695  48.815  71.875  1.00  0.00     0.115 A 
ATOM     16  C   UNL     1      20.938  48.080  74.061  1.00  0.00     0.016 A 
ATOM     17  C   UNL     1      21.420  47.783  72.782  1.00  0.00     0.047 A 
BRANCH  15  18
ATOM     18  O   UNL     1      22.176  48.530  70.600  1.00  0.00    -0.508 OA
ATOM     19  H   UNL     1      21.617  48.702  69.772  1.00  0.00     0.293 HD
ENDBRANCH  15  18
ENDBRANCH   1  12
BRANCH   2  20
ATOM     20  O   UNL     1      22.408  50.336  76.635  1.00  0.00    -0.502 OA
ATOM     21  H   UNL     1      22.851  50.131  75.747  1.00  0.00     0.293 HD
ENDBRANCH   2  20
BRANCH   6  22
ATOM     22  O   UNL     1      19.031  50.765  80.731  1.00  0.00    -0.507 OA
ATOM     23  H   UNL     1      19.352  51.670  81.040  1.00  0.00     0.293 HD
ENDBRANCH   6  22
BRANCH   8  24
ATOM     24  O   UNL     1      14.858  50.074  78.456  1.00  0.00    -0.508 OA
ATOM     25  H   UNL     1      14.286  50.402  77.687  1.00  0.00     0.293 HD
ENDBRANCH   8  24
TORSDOF 5
ENDMDL
MODEL 5
REMARK VINA RESULT:    -5.287      3.044      6.868
REMARK INTER + INTRA:          -6.253
REMARK INTER:                  -5.981
REMARK INTRA:                  -0.272
REMARK UNBOUND:                -0.039
REMARK SMILES O=c1c(O)c(-c2ccc(O)cc2)oc2cc(O)cc(O)c12
REMARK SMILES IDX 5 1 3 2 2 3 1 4 21 5 19 6 18 7 16 8 15 9 14 10 13 11 6 12
REMARK SMILES IDX 7 13 8 14 9 15 12 16 11 17 10 18 4 20 20 22 17 24
REMARK H PARENT 10 19 4 21 20 23 17 25
REMARK Flexibility Score: inf
ROOT
ATOM      1  C   UNL     1      18.924  49.439  78.958  1.00  0.00     0.180 A 
ATOM      2  C   UNL     1      19.661  49.260  80.141  1.00  0.00     0.208 A 
ATOM      3  C   UNL     1      19.118  48.475  81.171  1.00  0.00     0.238 A 
ATOM      4  O   UNL     1      19.760  48.364  82.249  1.00  0.00    -0.285 OA
ATOM      5  C   UNL     1      17.853  47.865  80.999  1.00  0.00     0.111 A 
ATOM      6  C   UNL     1      17.225  47.017  81.960  1.00  0.00     0.134 A 
ATOM      7  C   UNL     1      15.916  46.573  81.739  1.00  0.00     0.093 A 
ATOM      8  C   UNL     1      15.236  46.895  80.561  1.00  0.00     0.123 A 
ATOM      9  C   UNL     1      15.862  47.674  79.591  1.00  0.00     0.094 A 
ATOM     10  C   UNL     1      17.155  48.160  79.800  1.00  0.00     0.146 A 
ATOM     11  O   UNL     1      17.711  48.908  78.853  1.00  0.00    -0.452 OA
ENDROOT
BRANCH   1  12
ATOM     12  C   UNL     1      19.440  50.231  77.819  1.00  0.00     0.021 A 
ATOM     13  C   UNL     1      19.274  51.625  77.814  1.00  0.00     0.016 A 
ATOM     14  C   UNL     1      19.734  52.390  76.738  1.00  0.00     0.047 A 
ATOM     15  C   UNL     1      20.351  51.771  75.647  1.00  0.00     0.115 A 
ATOM     16  C   UNL     1      20.044  49.611  76.709  1.00  0.00     0.016 A 
ATOM     17  C   UNL     1      20.502  50.378  75.634  1.00  0.00     0.047 A 
BRANCH  15  18
ATOM     18  O   UNL     1      20.804  52.545  74.582  1.00  0.00    -0.508 OA
ATOM     19  H   UNL     1      21.278  52.128  73.789  1.00  0.00     0.293 HD
ENDBRANCH  15  18
ENDBRANCH   1  12
BRANCH   2  20
ATOM     20  O   UNL     1      20.899  49.890  80.299  1.00  0.00    -0.502 OA
ATOM     21  H   UNL     1      21.776  49.425  80.097  1.00  0.00     0.293 HD
ENDBRANCH   2  20
BRANCH   6  22
ATOM     22  O   UNL     1      17.850  46.562  83.125  1.00  0.00    -0.507 OA
ATOM     23  H   UNL     1      17.710  46.955  84.043  1.00  0.00     0.293 HD
ENDBRANCH   6  22
BRANCH   8  24
ATOM     24  O   UNL     1      13.938  46.437  80.342  1.00  0.00    -0.508 OA
ATOM     25  H   UNL     1      13.151  46.808  80.860  1.00  0.00     0.293 HD
ENDBRANCH   8  24
TORSDOF 5
ENDMDL
MODEL 6
REMARK VINA RESULT:    -5.260      2.186      6.986
REMARK INTER + INTRA:          -6.221
REMARK INTER:                  -5.948
REMARK INTRA:                  -0.273
REMARK UNBOUND:                -0.039
REMARK SMILES O=c1c(O)c(-c2ccc(O)cc2)oc2cc(O)cc(O)c12
REMARK SMILES IDX 5 1 3 2 2 3 1 4 21 5 19 6 18 7 16 8 15 9 14 10 13 11 6 12
REMARK SMILES IDX 7 13 8 14 9 15 12 16 11 17 10 18 4 20 20 22 17 24
REMARK H PARENT 10 19 4 21 20 23 17 25
REMARK Flexibility Score: inf
ROOT
ATOM      1  C   UNL     1      19.711  49.811  77.842  1.00  0.00     0.180 A 
ATOM      2  C   UNL     1      20.709  49.352  78.718  1.00  0.00     0.208 A 
ATOM      3  C   UNL     1      20.415  49.241  80.087  1.00  0.00     0.238 A 
ATOM      4  O   UNL     1      21.329  48.881  80.874  1.00  0.00    -0.285 OA
ATOM      5  C   UNL     1      19.123  49.574  80.559  1.00  0.00     0.111 A 
ATOM      6  C   UNL     1      18.703  49.460  81.919  1.00  0.00     0.134 A 
ATOM      7  C   UNL     1      17.444  49.941  82.295  1.00  0.00     0.093 A 
ATOM      8  C   UNL     1      16.564  50.472  81.348  1.00  0.00     0.123 A 
ATOM      9  C   UNL     1      16.942  50.533  80.009  1.00  0.00     0.094 A 
ATOM     10  C   UNL     1      18.206  50.093  79.610  1.00  0.00     0.146 A 
ATOM     11  O   UNL     1      18.530  50.178  78.324  1.00  0.00    -0.452 OA
ENDROOT
BRANCH   1  12
ATOM     12  C   UNL     1      19.937  49.932  76.383  1.00  0.00     0.021 A 
ATOM     13  C   UNL     1      19.565  48.875  75.536  1.00  0.00     0.016 A 
ATOM     14  C   UNL     1      19.789  48.960  74.159  1.00  0.00     0.047 A 
ATOM     15  C   UNL     1      20.400  50.091  73.612  1.00  0.00     0.115 A 
ATOM     16  C   UNL     1      20.569  51.061  75.830  1.00  0.00     0.016 A 
ATOM     17  C   UNL     1      20.793  51.142  74.452  1.00  0.00     0.047 A 
BRANCH  15  18
ATOM     18  O   UNL     1      20.617  50.162  72.239  1.00  0.00    -0.508 OA
ATOM     19  H   UNL     1      20.963  49.366  71.715  1.00  0.00     0.293 HD
ENDBRANCH  15  18
ENDBRANCH   1  12
BRANCH   2  20
ATOM     20  O   UNL     1      21.984  49.050  78.234  1.00  0.00    -0.502 OA
ATOM     21  H   UNL     1      22.209  48.157  77.811  1.00  0.00     0.293 HD
ENDBRANCH   2  20
BRANCH   6  22
ATOM     22  O   UNL     1      19.469  48.863  82.924  1.00  0.00    -0.507 OA
ATOM     23  H   UNL     1      19.977  49.366  83.636  1.00  0.00     0.293 HD
ENDBRANCH   6  22
BRANCH   8  24
ATOM     24  O   UNL     1      15.305  50.934  81.728  1.00  0.00    -0.508 OA
ATOM     25  H   UNL     1      14.578  50.299  82.038  1.00  0.00     0.293 HD
ENDBRANCH   8  24
TORSDOF 5
ENDMDL
MODEL 7
REMARK VINA RESULT:    -5.244      2.140      6.878
REMARK INTER + INTRA:          -6.203
REMARK INTER:                  -5.918
REMARK INTRA:                  -0.285
REMARK UNBOUND:                -0.039
REMARK SMILES O=c1c(O)c(-c2ccc(O)cc2)oc2cc(O)cc(O)c12
REMARK SMILES IDX 5 1 3 2 2 3 1 4 21 5 19 6 18 7 16 8 15 9 14 10 13 11 6 12
REMARK SMILES IDX 7 13 8 14 9 15 12 16 11 17 10 18 4 20 20 22 17 24
REMARK H PARENT 10 19 4 21 20 23 17 25
REMARK Flexibility Score: inf
ROOT
ATOM      1  C   UNL     1      18.563  49.865  77.697  1.00  0.00     0.180 A 
ATOM      2  C   UNL     1      17.207  50.196  77.864  1.00  0.00     0.208 A 
ATOM      3  C   UNL     1      16.607  50.002  79.118  1.00  0.00     0.238 A 
ATOM      4  O   UNL     1      15.380  50.250  79.246  1.00  0.00    -0.285 OA
ATOM      5  C   UNL     1      17.374  49.496  80.195  1.00  0.00     0.111 A 
ATOM      6  C   UNL     1      16.880  49.298  81.519  1.00  0.00     0.134 A 
ATOM      7  C   UNL     1      17.690  48.669  82.472  1.00  0.00     0.093 A 
ATOM      8  C   UNL     1      18.999  48.290  82.166  1.00  0.00     0.123 A 
ATOM      9  C   UNL     1      19.511  48.532  80.893  1.00  0.00     0.094 A 
ATOM     10  C   UNL     1      18.714  49.126  79.911  1.00  0.00     0.146 A 
ATOM     11  O   UNL     1      19.238  49.330  78.708  1.00  0.00    -0.452 OA
ENDROOT
BRANCH   1  12
ATOM     12  C   UNL     1      19.272  50.063  76.413  1.00  0.00     0.021 A 
ATOM     13  C   UNL     1      19.946  51.272  76.174  1.00  0.00     0.016 A 
ATOM     14  C   UNL     1      20.604  51.489  74.960  1.00  0.00     0.047 A 
ATOM     15  C   UNL     1      20.583  50.510  73.963  1.00  0.00     0.115 A 
ATOM     16  C   UNL     1      19.238  49.088  75.398  1.00  0.00     0.016 A 
ATOM     17  C   UNL     1      19.895  49.309  74.184  1.00  0.00     0.047 A 
BRANCH  15  18
ATOM     18  O   UNL     1      21.242  50.739  72.758  1.00  0.00    -0.508 OA
ATOM     19  H   UNL     1      21.143  51.615  72.258  1.00  0.00     0.293 HD
ENDBRANCH  15  18
ENDBRANCH   1  12
BRANCH   2  20
ATOM     20  O   UNL     1      16.463  50.674  76.782  1.00  0.00    -0.502 OA
ATOM     21  H   UNL     1      16.880  50.878  75.881  1.00  0.00     0.293 HD
ENDBRANCH   2  20
BRANCH   6  22
ATOM     22  O   UNL     1      15.621  49.722  81.953  1.00  0.00    -0.507 OA
ATOM     23  H   UNL     1      15.297  49.680  82.908  1.00  0.00     0.293 HD
ENDBRANCH   6  22
BRANCH   8  24
ATOM     24  O   UNL     1      19.805  47.678  83.125  1.00  0.00    -0.508 OA
ATOM     25  H   UNL     1      20.080  46.706  83.044  1.00  0.00     0.293 HD
ENDBRANCH   8  24
TORSDOF 5
ENDMDL
MODEL 8
REMARK VINA RESULT:    -5.137      1.830      2.225
REMARK INTER + INTRA:          -6.077
REMARK INTER:                  -5.787
REMARK INTRA:                  -0.290
REMARK UNBOUND:                -0.039
REMARK SMILES O=c1c(O)c(-c2ccc(O)cc2)oc2cc(O)cc(O)c12
REMARK SMILES IDX 5 1 3 2 2 3 1 4 21 5 19 6 18 7 16 8 15 9 14 10 13 11 6 12
REMARK SMILES IDX 7 13 8 14 9 15 12 16 11 17 10 18 4 20 20 22 17 24
REMARK H PARENT 10 19 4 21 20 23 17 25
REMARK Flexibility Score: inf
ROOT
ATOM      1  C   UNL     1      18.486  49.342  77.844  1.00  0.00     0.180 A 
ATOM      2  C   UNL     1      18.933  50.674  77.833  1.00  0.00     0.208 A 
ATOM      3  C   UNL     1      19.625  51.152  76.709  1.00  0.00     0.238 A 
ATOM      4  O   UNL     1      20.069  52.329  76.728  1.00  0.00    -0.285 OA
ATOM      5  C   UNL     1      19.848  50.297  75.603  1.00  0.00     0.111 A 
ATOM      6  C   UNL     1      20.502  50.687  74.396  1.00  0.00     0.134 A 
ATOM      7  C   UNL     1      20.784  49.722  73.421  1.00  0.00     0.093 A 
ATOM      8  C   UNL     1      20.376  48.396  73.581  1.00  0.00     0.123 A 
ATOM      9  C   UNL     1      19.684  48.018  74.730  1.00  0.00     0.094 A 
ATOM     10  C   UNL     1      19.421  48.950  75.736  1.00  0.00     0.146 A 
ATOM     11  O   UNL     1      18.768  48.546  76.819  1.00  0.00    -0.452 OA
ENDROOT
BRANCH   1  12
ATOM     12  C   UNL     1      17.728  48.773  78.981  1.00  0.00     0.021 A 
ATOM     13  C   UNL     1      18.421  48.172  80.045  1.00  0.00     0.016 A 
ATOM     14  C   UNL     1      17.724  47.610  81.118  1.00  0.00     0.047 A 
ATOM     15  C   UNL     1      16.326  47.626  81.136  1.00  0.00     0.115 A 
ATOM     16  C   UNL     1      16.320  48.770  78.995  1.00  0.00     0.016 A 
ATOM     17  C   UNL     1      15.625  48.205  80.070  1.00  0.00     0.047 A 
BRANCH  15  18
ATOM     18  O   UNL     1      15.645  47.063  82.211  1.00  0.00    -0.508 OA
ATOM     19  H   UNL     1      14.654  47.223  82.353  1.00  0.00     0.293 HD
ENDBRANCH  15  18
ENDBRANCH   1  12
BRANCH   2  20
ATOM     20  O   UNL     1      18.721  51.495  78.944  1.00  0.00    -0.502 OA
ATOM     21  H   UNL     1      19.049  51.252  79.872  1.00  0.00     0.293 HD
ENDBRANCH   2  20
BRANCH   6  22
ATOM     22  O   UNL     1      20.868  52.002  74.097  1.00  0.00    -0.507 OA
ATOM     23  H   UNL     1      21.808  52.365  74.157  1.00  0.00     0.293 HD
ENDBRANCH   6  22
BRANCH   8  24
ATOM     24  O   UNL     1      20.646  47.446  72.598  1.00  0.00    -0.508 OA
ATOM     25  H   UNL     1      21.067  47.703  71.713  1.00  0.00     0.293 HD
ENDBRANCH   8  24
TORSDOF 5
ENDMDL
MODEL 9
REMARK VINA RESULT:    -5.114      1.901      3.251
REMARK INTER + INTRA:          -6.050
REMARK INTER:                  -5.797
REMARK INTRA:                  -0.253
REMARK UNBOUND:                -0.039
REMARK SMILES O=c1c(O)c(-c2ccc(O)cc2)oc2cc(O)cc(O)c12
REMARK SMILES IDX 5 1 3 2 2 3 1 4 21 5 19 6 18 7 16 8 15 9 14 10 13 11 6 12
REMARK SMILES IDX 7 13 8 14 9 15 12 16 11 17 10 18 4 20 20 22 17 24
REMARK H PARENT 10 19 4 21 20 23 17 25
REMARK Flexibility Score: inf
ROOT
ATOM      1  C   UNL     1      20.357  49.401  74.880  1.00  0.00     0.180 A 
ATOM      2  C   UNL     1      20.814  50.226  73.839  1.00  0.00     0.208 A 
ATOM      3  C   UNL     1      21.276  49.633  72.652  1.00  0.00     0.238 A 
ATOM      4  O   UNL     1      21.734  50.375  71.745  1.00  0.00    -0.285 OA
ATOM      5  C   UNL     1      21.259  48.224  72.516  1.00  0.00     0.111 A 
ATOM      6  C   UNL     1      21.666  47.519  71.344  1.00  0.00     0.134 A 
ATOM      7  C   UNL     1      21.731  46.120  71.368  1.00  0.00     0.093 A 
ATOM      8  C   UNL     1      21.341  45.400  72.500  1.00  0.00     0.123 A 
ATOM      9  C   UNL     1      20.887  46.078  73.629  1.00  0.00     0.094 A 
ATOM     10  C   UNL     1      20.845  47.474  73.647  1.00  0.00     0.146 A 
ATOM     11  O   UNL     1      20.415  48.081  74.748  1.00  0.00    -0.452 OA
ENDROOT
BRANCH   1  12
ATOM     12  C   UNL     1      19.832  49.952  76.150  1.00  0.00     0.021 A 
ATOM     13  C   UNL     1      20.729  50.376  77.144  1.00  0.00     0.016 A 
ATOM     14  C   UNL     1      20.254  50.879  78.359  1.00  0.00     0.047 A 
ATOM     15  C   UNL     1      18.880  50.950  78.604  1.00  0.00     0.115 A 
ATOM     16  C   UNL     1      18.449  50.008  76.409  1.00  0.00     0.016 A 
ATOM     17  C   UNL     1      17.978  50.510  77.626  1.00  0.00     0.047 A 
BRANCH  15  18
ATOM     18  O   UNL     1      18.421  51.453  79.818  1.00  0.00    -0.508 OA
ATOM     19  H   UNL     1      18.926  51.294  80.682  1.00  0.00     0.293 HD
ENDBRANCH  15  18
ENDBRANCH   1  12
BRANCH   2  20
ATOM     20  O   UNL     1      20.842  51.613  74.002  1.00  0.00    -0.502 OA
ATOM     21  H   UNL     1      20.909  52.053  74.912  1.00  0.00     0.293 HD
ENDBRANCH   2  20
BRANCH   6  22
ATOM     22  O   UNL     1      21.987  48.138  70.133  1.00  0.00    -0.507 OA
ATOM     23  H   UNL     1      22.687  47.809  69.486  1.00  0.00     0.293 HD
ENDBRANCH   6  22
BRANCH   8  24
ATOM     24  O   UNL     1      21.394  44.008  72.510  1.00  0.00    -0.508 OA
ATOM     25  H   UNL     1      20.907  43.464  73.212  1.00  0.00     0.293 HD
ENDBRANCH   8  24
TORSDOF 5
ENDMDL
