MODEL 1
REMARK VINA RESULT:    -2.359      0.000      0.000
REMARK INTER + INTRA:          -2.359
REMARK INTER:                  -2.359
REMARK INTRA:                   0.000
REMARK UNBOUND:                 0.000
REMARK SMILES CC(=O)[O-]
REMARK SMILES IDX 1 1 2 2 3 3 4 4
REMARK H PARENT
REMARK Flexibility Score: inf
ROOT
ATOM      1  C   UNL     1       0.051  13.088   9.178  1.00  0.00     0.063 C 
ATOM      2  C   UNL     1       1.175  12.297   9.755  1.00  0.00     0.038 C 
ATOM      3  O   UNL     1       0.946  11.403  10.611  1.00  0.00    -0.550 OA
ATOM      4  O   UNL     1       2.485  12.581   9.389  1.00  0.00    -0.550 OA
ENDROOT
TORSDOF 0
ENDMDL
MODEL 2
REMARK VINA RESULT:    -2.316      0.099      1.620
REMARK INTER + INTRA:          -2.316
REMARK INTER:                  -2.316
REMARK INTRA:                   0.000
REMARK UNBOUND:                 0.000
REMARK SMILES CC(=O)[O-]
REMARK SMILES IDX 1 1 2 2 3 3 4 4
REMARK H PARENT
REMARK Flexibility Score: inf
ROOT
ATOM      1  C   UNL     1       0.049  13.052   9.087  1.00  0.00     0.063 C 
ATOM      2  C   UNL     1       1.193  12.354   9.740  1.00  0.00     0.038 C 
ATOM      3  O   UNL     1       2.377  12.656   9.432  1.00  0.00    -0.550 OA
ATOM      4  O   UNL     1       0.957  11.332  10.650  1.00  0.00    -0.550 OA
ENDROOT
TORSDOF 0
ENDMDL
MODEL 3
REMARK VINA RESULT:    -2.225     19.085     19.389
REMARK INTER + INTRA:          -2.225
REMARK INTER:                  -2.225
REMARK INTRA:                   0.000
REMARK UNBOUND:                 0.000
REMARK SMILES CC(=O)[O-]
REMARK SMILES IDX 1 1 2 2 3 3 4 4
REMARK H PARENT
REMARK Flexibility Score: inf
ROOT
ATOM      1  C   UNL     1      -3.722  10.526  -9.125  1.00  0.00     0.063 C 
ATOM      2  C   UNL     1      -4.986  10.119  -8.446  1.00  0.00     0.038 C 
ATOM      3  O   UNL     1      -5.967   9.717  -9.125  1.00  0.00    -0.550 OA
ATOM      4  O   UNL     1      -5.102  10.232  -7.067  1.00  0.00    -0.550 OA
ENDROOT
TORSDOF 0
ENDMDL
MODEL 4
REMARK VINA RESULT:    -2.214     18.602     18.866
REMARK INTER + INTRA:          -2.214
REMARK INTER:                  -2.214
REMARK INTRA:                   0.000
REMARK UNBOUND:                 0.000
REMARK SMILES CC(=O)[O-]
REMARK SMILES IDX 1 1 2 2 3 3 4 4
REMARK H PARENT
REMARK Flexibility Score: inf
ROOT
ATOM      1  C   UNL     1      -4.881   9.835  -9.125  1.00  0.00     0.063 C 
ATOM      2  C   UNL     1      -5.330   9.738  -7.706  1.00  0.00     0.038 C 
ATOM      3  O   UNL     1      -5.960   8.722  -7.311  1.00  0.00    -0.550 OA
ATOM      4  O   UNL     1      -5.103  10.792  -6.831  1.00  0.00    -0.550 OA
ENDROOT
TORSDOF 0
ENDMDL
MODEL 5
REMARK VINA RESULT:    -2.211     18.978     19.280
REMARK INTER + INTRA:          -2.211
REMARK INTER:                  -2.211
REMARK INTRA:                   0.000
REMARK UNBOUND:                 0.000
REMARK SMILES CC(=O)[O-]
REMARK SMILES IDX 1 1 2 2 3 3 4 4
REMARK H PARENT
REMARK Flexibility Score: inf
ROOT
ATOM      1  C   UNL     1      -3.780  10.453  -9.109  1.00  0.00     0.063 C 
ATOM      2  C   UNL     1      -4.970  10.114  -8.277  1.00  0.00     0.038 C 
ATOM      3  O   UNL     1      -4.970  10.364  -7.043  1.00  0.00    -0.550 OA
ATOM      4  O   UNL     1      -6.060   9.473  -8.851  1.00  0.00    -0.550 OA
ENDROOT
TORSDOF 0
ENDMDL
MODEL 6
REMARK VINA RESULT:    -2.180      1.637      1.810
REMARK INTER + INTRA:          -2.180
REMARK INTER:                  -2.180
REMARK INTRA:                   0.000
REMARK UNBOUND:                 0.000
REMARK SMILES CC(=O)[O-]
REMARK SMILES IDX 1 1 2 2 3 3 4 4
REMARK H PARENT
REMARK Flexibility Score: inf
ROOT
ATOM      1  C   UNL     1       1.086  11.730   9.929  1.00  0.00     0.063 C 
ATOM      2  C   UNL     1       2.460  11.265   9.584  1.00  0.00     0.038 C 
ATOM      3  O   UNL     1       2.859  10.132   9.965  1.00  0.00    -0.550 OA
ATOM      4  O   UNL     1       3.324  12.101   8.889  1.00  0.00    -0.550 OA
ENDROOT
TORSDOF 0
ENDMDL
MODEL 7
REMARK VINA RESULT:    -2.162     18.884     19.188
REMARK INTER + INTRA:          -2.162
REMARK INTER:                  -2.162
REMARK INTRA:                   0.000
REMARK UNBOUND:                 0.000
REMARK SMILES CC(=O)[O-]
REMARK SMILES IDX 1 1 2 2 3 3 4 4
REMARK H PARENT
REMARK Flexibility Score: inf
ROOT
ATOM      1  C   UNL     1      -5.753   9.508  -6.762  1.00  0.00     0.063 C 
ATOM      2  C   UNL     1      -5.254   9.754  -8.146  1.00  0.00     0.038 C 
ATOM      3  O   UNL     1      -6.043   9.685  -9.124  1.00  0.00    -0.550 OA
ATOM      4  O   UNL     1      -3.906  10.008  -8.364  1.00  0.00    -0.550 OA
ENDROOT
TORSDOF 0
ENDMDL
MODEL 8
REMARK VINA RESULT:    -2.151      5.934      6.510
REMARK INTER + INTRA:          -2.151
REMARK INTER:                  -2.151
REMARK INTRA:                   0.000
REMARK UNBOUND:                 0.000
REMARK SMILES CC(=O)[O-]
REMARK SMILES IDX 1 1 2 2 3 3 4 4
REMARK H PARENT
REMARK Flexibility Score: inf
ROOT
ATOM      1  C   UNL     1       5.945  11.719   4.524  1.00  0.00     0.063 C 
ATOM      2  C   UNL     1       5.773  10.867   5.735  1.00  0.00     0.038 C 
ATOM      3  O   UNL     1       6.781  10.410   6.335  1.00  0.00    -0.550 OA
ATOM      4  O   UNL     1       4.498  10.532   6.174  1.00  0.00    -0.550 OA
ENDROOT
TORSDOF 0
ENDMDL
MODEL 9
REMARK VINA RESULT:    -2.100      3.635      4.059
REMARK INTER + INTRA:          -2.100
REMARK INTER:                  -2.100
REMARK INTRA:                   0.000
REMARK UNBOUND:                 0.000
REMARK SMILES CC(=O)[O-]
REMARK SMILES IDX 1 1 2 2 3 3 4 4
REMARK H PARENT
REMARK Flexibility Score: inf
ROOT
ATOM      1  C   UNL     1       3.030  10.429   7.627  1.00  0.00     0.063 C 
ATOM      2  C   UNL     1       3.965   9.889   8.655  1.00  0.00     0.038 C 
ATOM      3  O   UNL     1       4.750   8.949   8.365  1.00  0.00    -0.550 OA
ATOM      4  O   UNL     1       3.933  10.385   9.952  1.00  0.00    -0.550 OA
ENDROOT
TORSDOF 0
ENDMDL
