MODEL 1
REMARK VINA RESULT:    -5.369      0.000      0.000
REMARK INTER + INTRA:          -6.769
REMARK INTER:                  -6.467
REMARK INTRA:                  -0.302
REMARK UNBOUND:                -0.302
REMARK SMILES O=c1c(O)c(-c2ccc(O)c(O)c2)oc2cc(O)cc(O)c12
REMARK SMILES IDX 5 1 3 2 2 3 1 4 22 5 20 6 19 7 17 8 16 9 15 10 14 11 6 12
REMARK SMILES IDX 7 13 8 14 9 15 13 16 11 17 10 18 12 20 4 22 21 24 18 26
REMARK H PARENT 10 19 12 21 4 23 21 25 18 27
REMARK Flexibility Score: inf
ROOT
ATOM      1  C   UNL     1      16.946  -6.096  27.512  1.00  0.00     0.180 A 
ATOM      2  C   UNL     1      15.912  -5.449  28.217  1.00  0.00     0.208 A 
ATOM      3  C   UNL     1      16.207  -4.274  28.925  1.00  0.00     0.238 A 
ATOM      4  O   UNL     1      15.287  -3.681  29.552  1.00  0.00    -0.285 OA
ATOM      5  C   UNL     1      17.527  -3.778  28.934  1.00  0.00     0.111 A 
ATOM      6  C   UNL     1      17.907  -2.603  29.627  1.00  0.00     0.134 A 
ATOM      7  C   UNL     1      19.244  -2.179  29.595  1.00  0.00     0.093 A 
ATOM      8  C   UNL     1      20.205  -2.905  28.887  1.00  0.00     0.123 A 
ATOM      9  C   UNL     1      19.835  -4.066  28.201  1.00  0.00     0.094 A 
ATOM     10  C   UNL     1      18.507  -4.504  28.219  1.00  0.00     0.146 A 
ATOM     11  O   UNL     1      18.181  -5.607  27.555  1.00  0.00    -0.452 OA
ENDROOT
BRANCH   1  12
ATOM     12  C   UNL     1      16.710  -7.328  26.726  1.00  0.00     0.025 A 
ATOM     13  C   UNL     1      17.125  -8.566  27.241  1.00  0.00     0.016 A 
ATOM     14  C   UNL     1      16.931  -9.739  26.508  1.00  0.00     0.051 A 
ATOM     15  C   UNL     1      16.335  -9.690  25.241  1.00  0.00     0.157 A 
ATOM     16  C   UNL     1      16.131  -7.281  25.445  1.00  0.00     0.062 A 
ATOM     17  C   UNL     1      15.937  -8.454  24.705  1.00  0.00     0.158 A 
BRANCH  15  18
ATOM     18  O   UNL     1      16.141 -10.863  24.512  1.00  0.00    -0.504 OA
ATOM     19  H   UNL     1      16.585 -11.734  24.780  1.00  0.00     0.293 HD
ENDBRANCH  15  18
BRANCH  17  20
ATOM     20  O   UNL     1      15.355  -8.370  23.441  1.00  0.00    -0.504 OA
ATOM     21  H   UNL     1      14.456  -7.931  23.291  1.00  0.00     0.293 HD
ENDBRANCH  17  20
ENDBRANCH   1  12
BRANCH   2  22
ATOM     22  O   UNL     1      14.623  -5.989  28.233  1.00  0.00    -0.502 OA
ATOM     23  H   UNL     1      14.227  -6.424  29.058  1.00  0.00     0.293 HD
ENDBRANCH   2  22
BRANCH   6  24
ATOM     24  O   UNL     1      16.972  -1.857  30.344  1.00  0.00    -0.507 OA
ATOM     25  H   UNL     1      16.842  -0.865  30.179  1.00  0.00     0.293 HD
ENDBRANCH   6  24
BRANCH   8  26
ATOM     26  O   UNL     1      21.526  -2.463  28.872  1.00  0.00    -0.508 OA
ATOM     27  H   UNL     1      22.078  -2.412  29.720  1.00  0.00     0.293 HD
ENDBRANCH   8  26
TORSDOF 6
ENDMDL
MODEL 2
REMARK VINA RESULT:    -5.046      6.990      9.863
REMARK INTER + INTRA:          -6.381
REMARK INTER:                  -6.092
REMARK INTRA:                  -0.289
REMARK UNBOUND:                -0.302
REMARK SMILES O=c1c(O)c(-c2ccc(O)c(O)c2)oc2cc(O)cc(O)c12
REMARK SMILES IDX 5 1 3 2 2 3 1 4 22 5 20 6 19 7 17 8 16 9 15 10 14 11 6 12
REMARK SMILES IDX 7 13 8 14 9 15 13 16 11 17 10 18 12 20 4 22 21 24 18 26
REMARK H PARENT 10 19 12 21 4 23 21 25 18 27
REMARK Flexibility Score: inf
ROOT
ATOM      1  C   UNL     1      22.184   1.563  28.549  1.00  0.00     0.180 A 
ATOM      2  C   UNL     1      21.354   2.628  28.953  1.00  0.00     0.208 A 
ATOM      3  C   UNL     1      21.234   3.747  28.116  1.00  0.00     0.238 A 
ATOM      4  O   UNL     1      20.485   4.702  28.462  1.00  0.00    -0.285 OA
ATOM      5  C   UNL     1      21.955   3.795  26.906  1.00  0.00     0.111 A 
ATOM      6  C   UNL     1      21.892   4.889  26.009  1.00  0.00     0.134 A 
ATOM      7  C   UNL     1      22.648   4.865  24.828  1.00  0.00     0.093 A 
ATOM      8  C   UNL     1      23.464   3.772  24.526  1.00  0.00     0.123 A 
ATOM      9  C   UNL     1      23.531   2.689  25.408  1.00  0.00     0.094 A 
ATOM     10  C   UNL     1      22.783   2.693  26.590  1.00  0.00     0.146 A 
ATOM     11  O   UNL     1      22.861   1.650  27.408  1.00  0.00    -0.452 OA
ENDROOT
BRANCH   1  12
ATOM     12  C   UNL     1      22.348   0.340  29.367  1.00  0.00     0.025 A 
ATOM     13  C   UNL     1      23.219   0.357  30.468  1.00  0.00     0.016 A 
ATOM     14  C   UNL     1      23.405  -0.791  31.241  1.00  0.00     0.051 A 
ATOM     15  C   UNL     1      22.736  -1.978  30.916  1.00  0.00     0.157 A 
ATOM     16  C   UNL     1      21.695  -0.859  29.031  1.00  0.00     0.062 A 
ATOM     17  C   UNL     1      21.881  -2.013  29.802  1.00  0.00     0.158 A 
BRANCH  15  18
ATOM     18  O   UNL     1      22.923  -3.122  31.691  1.00  0.00    -0.504 OA
ATOM     19  H   UNL     1      23.656  -3.791  31.483  1.00  0.00     0.293 HD
ENDBRANCH  15  18
BRANCH  17  20
ATOM     20  O   UNL     1      21.213  -3.183  29.443  1.00  0.00    -0.504 OA
ATOM     21  H   UNL     1      20.212  -3.207  29.293  1.00  0.00     0.293 HD
ENDBRANCH  17  20
ENDBRANCH   1  12
BRANCH   2  22
ATOM     22  O   UNL     1      20.689   2.577  30.181  1.00  0.00    -0.502 OA
ATOM     23  H   UNL     1      20.902   1.880  30.884  1.00  0.00     0.293 HD
ENDBRANCH   2  22
BRANCH   6  24
ATOM     24  O   UNL     1      21.087   5.995  26.282  1.00  0.00    -0.507 OA
ATOM     25  H   UNL     1      20.311   5.943  26.931  1.00  0.00     0.293 HD
ENDBRANCH   6  24
BRANCH   8  26
ATOM     26  O   UNL     1      24.205   3.773  23.348  1.00  0.00    -0.508 OA
ATOM     27  H   UNL     1      24.281   4.603  22.769  1.00  0.00     0.293 HD
ENDBRANCH   8  26
TORSDOF 6
ENDMDL
MODEL 3
REMARK VINA RESULT:    -5.010      1.623      7.125
REMARK INTER + INTRA:          -6.338
REMARK INTER:                  -6.039
REMARK INTRA:                  -0.299
REMARK UNBOUND:                -0.302
REMARK SMILES O=c1c(O)c(-c2ccc(O)c(O)c2)oc2cc(O)cc(O)c12
REMARK SMILES IDX 5 1 3 2 2 3 1 4 22 5 20 6 19 7 17 8 16 9 15 10 14 11 6 12
REMARK SMILES IDX 7 13 8 14 9 15 13 16 11 17 10 18 12 20 4 22 21 24 18 26
REMARK H PARENT 10 19 12 21 4 23 21 25 18 27
REMARK Flexibility Score: inf
ROOT
ATOM      1  C   UNL     1      17.639  -6.658  27.748  1.00  0.00     0.180 A 
ATOM      2  C   UNL     1      17.827  -7.852  28.472  1.00  0.00     0.208 A 
ATOM      3  C   UNL     1      17.393  -9.061  27.909  1.00  0.00     0.238 A 
ATOM      4  O   UNL     1      17.566 -10.137  28.544  1.00  0.00    -0.285 OA
ATOM      5  C   UNL     1      16.764  -9.058  26.647  1.00  0.00     0.111 A 
ATOM      6  C   UNL     1      16.295 -10.233  26.013  1.00  0.00     0.134 A 
ATOM      7  C   UNL     1      15.670 -10.145  24.760  1.00  0.00     0.093 A 
ATOM      8  C   UNL     1      15.506  -8.909  24.130  1.00  0.00     0.123 A 
ATOM      9  C   UNL     1      15.968  -7.744  24.753  1.00  0.00     0.094 A 
ATOM     10  C   UNL     1      16.594  -7.811  26.001  1.00  0.00     0.146 A 
ATOM     11  O   UNL     1      17.028  -6.691  26.567  1.00  0.00    -0.452 OA
ENDROOT
BRANCH   1  12
ATOM     12  C   UNL     1      18.086  -5.345  28.266  1.00  0.00     0.025 A 
ATOM     13  C   UNL     1      17.138  -4.444  28.775  1.00  0.00     0.016 A 
ATOM     14  C   UNL     1      17.534  -3.192  29.250  1.00  0.00     0.051 A 
ATOM     15  C   UNL     1      18.883  -2.815  29.207  1.00  0.00     0.157 A 
ATOM     16  C   UNL     1      19.436  -4.955  28.206  1.00  0.00     0.062 A 
ATOM     17  C   UNL     1      19.837  -3.699  28.678  1.00  0.00     0.158 A 
BRANCH  15  18
ATOM     18  O   UNL     1      19.276  -1.564  29.684  1.00  0.00    -0.504 OA
ATOM     19  H   UNL     1      19.452  -0.789  29.056  1.00  0.00     0.293 HD
ENDBRANCH  15  18
BRANCH  17  20
ATOM     20  O   UNL     1      21.184  -3.347  28.608  1.00  0.00    -0.504 OA
ATOM     21  H   UNL     1      21.488  -2.444  28.267  1.00  0.00     0.293 HD
ENDBRANCH  17  20
ENDBRANCH   1  12
BRANCH   2  22
ATOM     22  O   UNL     1      18.409  -7.822  29.743  1.00  0.00    -0.502 OA
ATOM     23  H   UNL     1      18.028  -8.340  30.525  1.00  0.00     0.293 HD
ENDBRANCH   2  22
BRANCH   6  24
ATOM     24  O   UNL     1      16.443 -11.483  26.615  1.00  0.00    -0.507 OA
ATOM     25  H   UNL     1      17.318 -11.993  26.576  1.00  0.00     0.293 HD
ENDBRANCH   6  24
BRANCH   8  26
ATOM     26  O   UNL     1      14.882  -8.848  22.887  1.00  0.00    -0.508 OA
ATOM     27  H   UNL     1      15.107  -9.505  22.148  1.00  0.00     0.293 HD
ENDBRANCH   8  26
TORSDOF 6
ENDMDL
MODEL 4
REMARK VINA RESULT:    -4.971      9.193     12.363
REMARK INTER + INTRA:          -6.290
REMARK INTER:                  -6.256
REMARK INTRA:                  -0.034
REMARK UNBOUND:                -0.302
REMARK SMILES O=c1c(O)c(-c2ccc(O)c(O)c2)oc2cc(O)cc(O)c12
REMARK SMILES IDX 5 1 3 2 2 3 1 4 22 5 20 6 19 7 17 8 16 9 15 10 14 11 6 12
REMARK SMILES IDX 7 13 8 14 9 15 13 16 11 17 10 18 12 20 4 22 21 24 18 26
REMARK H PARENT 10 19 12 21 4 23 21 25 18 27
REMARK Flexibility Score: inf
ROOT
ATOM      1  C   UNL     1      23.597   3.951  25.828  1.00  0.00     0.180 A 
ATOM      2  C   UNL     1      22.431   4.559  26.333  1.00  0.00     0.208 A 
ATOM      3  C   UNL     1      21.771   3.963  27.418  1.00  0.00     0.238 A 
ATOM      4  O   UNL     1      20.732   4.504  27.885  1.00  0.00    -0.285 OA
ATOM      5  C   UNL     1      22.274   2.765  27.968  1.00  0.00     0.111 A 
ATOM      6  C   UNL     1      21.667   2.100  29.059  1.00  0.00     0.134 A 
ATOM      7  C   UNL     1      22.222   0.906  29.543  1.00  0.00     0.093 A 
ATOM      8  C   UNL     1      23.370   0.366  28.958  1.00  0.00     0.123 A 
ATOM      9  C   UNL     1      23.975   1.020  27.879  1.00  0.00     0.094 A 
ATOM     10  C   UNL     1      23.437   2.211  27.384  1.00  0.00     0.146 A 
ATOM     11  O   UNL     1      24.033   2.814  26.362  1.00  0.00    -0.452 OA
ENDROOT
BRANCH   1  12
ATOM     12  C   UNL     1      24.359   4.529  24.698  1.00  0.00     0.025 A 
ATOM     13  C   UNL     1      24.780   5.867  24.761  1.00  0.00     0.016 A 
ATOM     14  C   UNL     1      25.483   6.439  23.698  1.00  0.00     0.051 A 
ATOM     15  C   UNL     1      25.760   5.688  22.549  1.00  0.00     0.157 A 
ATOM     16  C   UNL     1      24.622   3.785  23.534  1.00  0.00     0.062 A 
ATOM     17  C   UNL     1      25.323   4.356  22.465  1.00  0.00     0.158 A 
BRANCH  15  18
ATOM     18  O   UNL     1      26.463   6.261  21.490  1.00  0.00    -0.504 OA
ATOM     19  H   UNL     1      26.788   7.221  21.526  1.00  0.00     0.293 HD
ENDBRANCH  15  18
BRANCH  17  20
ATOM     20  O   UNL     1      25.570   3.587  21.329  1.00  0.00    -0.504 OA
ATOM     21  H   UNL     1      26.112   2.733  21.364  1.00  0.00     0.293 HD
ENDBRANCH  17  20
ENDBRANCH   1  12
BRANCH   2  22
ATOM     22  O   UNL     1      21.925   5.719  25.738  1.00  0.00    -0.502 OA
ATOM     23  H   UNL     1      21.022   5.744  25.281  1.00  0.00     0.293 HD
ENDBRANCH   2  22
BRANCH   6  24
ATOM     24  O   UNL     1      20.519   2.612  29.665  1.00  0.00    -0.507 OA
ATOM     25  H   UNL     1      20.322   2.462  30.647  1.00  0.00     0.293 HD
ENDBRANCH   6  24
BRANCH   8  26
ATOM     26  O   UNL     1      23.902  -0.820  29.456  1.00  0.00    -0.508 OA
ATOM     27  H   UNL     1      24.157  -0.919  30.433  1.00  0.00     0.293 HD
ENDBRANCH   8  26
TORSDOF 6
ENDMDL
MODEL 5
REMARK VINA RESULT:    -4.836      6.798     10.104
REMARK INTER + INTRA:          -6.128
REMARK INTER:                  -5.805
REMARK INTRA:                  -0.324
REMARK UNBOUND:                -0.302
REMARK SMILES O=c1c(O)c(-c2ccc(O)c(O)c2)oc2cc(O)cc(O)c12
REMARK SMILES IDX 5 1 3 2 2 3 1 4 22 5 20 6 19 7 17 8 16 9 15 10 14 11 6 12
REMARK SMILES IDX 7 13 8 14 9 15 13 16 11 17 10 18 12 20 4 22 21 24 18 26
REMARK H PARENT 10 19 12 21 4 23 21 25 18 27
REMARK Flexibility Score: inf
ROOT
ATOM      1  C   UNL     1      22.754   1.232  28.597  1.00  0.00     0.180 A 
ATOM      2  C   UNL     1      23.821   1.390  27.690  1.00  0.00     0.208 A 
ATOM      3  C   UNL     1      23.909   2.577  26.948  1.00  0.00     0.238 A 
ATOM      4  O   UNL     1      24.866   2.733  26.141  1.00  0.00    -0.285 OA
ATOM      5  C   UNL     1      22.926   3.575  27.107  1.00  0.00     0.111 A 
ATOM      6  C   UNL     1      22.941   4.797  26.394  1.00  0.00     0.134 A 
ATOM      7  C   UNL     1      21.920   5.737  26.602  1.00  0.00     0.093 A 
ATOM      8  C   UNL     1      20.886   5.478  27.506  1.00  0.00     0.123 A 
ATOM      9  C   UNL     1      20.867   4.271  28.214  1.00  0.00     0.094 A 
ATOM     10  C   UNL     1      21.876   3.323  28.022  1.00  0.00     0.146 A 
ATOM     11  O   UNL     1      21.836   2.188  28.710  1.00  0.00    -0.452 OA
ENDROOT
BRANCH   1  12
ATOM     12  C   UNL     1      22.602   0.017  29.429  1.00  0.00     0.025 A 
ATOM     13  C   UNL     1      23.204  -0.031  30.696  1.00  0.00     0.016 A 
ATOM     14  C   UNL     1      23.092  -1.174  31.490  1.00  0.00     0.051 A 
ATOM     15  C   UNL     1      22.390  -2.293  31.023  1.00  0.00     0.157 A 
ATOM     16  C   UNL     1      21.916  -1.115  28.955  1.00  0.00     0.062 A 
ATOM     17  C   UNL     1      21.803  -2.264  29.747  1.00  0.00     0.158 A 
BRANCH  15  18
ATOM     18  O   UNL     1      22.277  -3.432  31.819  1.00  0.00    -0.504 OA
ATOM     19  H   UNL     1      21.382  -3.879  31.984  1.00  0.00     0.293 HD
ENDBRANCH  15  18
BRANCH  17  20
ATOM     20  O   UNL     1      21.111  -3.366  29.248  1.00  0.00    -0.504 OA
ATOM     21  H   UNL     1      20.424  -3.281  28.509  1.00  0.00     0.293 HD
ENDBRANCH  17  20
ENDBRANCH   1  12
BRANCH   2  22
ATOM     22  O   UNL     1      24.755   0.365  27.514  1.00  0.00    -0.502 OA
ATOM     23  H   UNL     1      24.566  -0.447  26.939  1.00  0.00     0.293 HD
ENDBRANCH   2  22
BRANCH   6  24
ATOM     24  O   UNL     1      23.958   5.086  25.483  1.00  0.00    -0.507 OA
ATOM     25  H   UNL     1      24.318   6.026  25.366  1.00  0.00     0.293 HD
ENDBRANCH   6  24
BRANCH   8  26
ATOM     26  O   UNL     1      19.884   6.426  27.694  1.00  0.00    -0.508 OA
ATOM     27  H   UNL     1      19.835   7.265  27.127  1.00  0.00     0.293 HD
ENDBRANCH   8  26
TORSDOF 6
ENDMDL
MODEL 6
REMARK VINA RESULT:    -4.766      8.223     11.155
REMARK INTER + INTRA:          -6.043
REMARK INTER:                  -5.720
REMARK INTRA:                  -0.323
REMARK UNBOUND:                -0.302
REMARK SMILES O=c1c(O)c(-c2ccc(O)c(O)c2)oc2cc(O)cc(O)c12
REMARK SMILES IDX 5 1 3 2 2 3 1 4 22 5 20 6 19 7 17 8 16 9 15 10 14 11 6 12
REMARK SMILES IDX 7 13 8 14 9 15 13 16 11 17 10 18 12 20 4 22 21 24 18 26
REMARK H PARENT 10 19 12 21 4 23 21 25 18 27
REMARK Flexibility Score: inf
ROOT
ATOM      1  C   UNL     1      23.340   1.721  28.053  1.00  0.00     0.180 A 
ATOM      2  C   UNL     1      23.907   0.447  28.258  1.00  0.00     0.208 A 
ATOM      3  C   UNL     1      23.356  -0.389  29.240  1.00  0.00     0.238 A 
ATOM      4  O   UNL     1      23.848  -1.535  29.426  1.00  0.00    -0.285 OA
ATOM      5  C   UNL     1      22.266   0.065  30.012  1.00  0.00     0.111 A 
ATOM      6  C   UNL     1      21.656  -0.715  31.023  1.00  0.00     0.134 A 
ATOM      7  C   UNL     1      20.580  -0.188  31.754  1.00  0.00     0.093 A 
ATOM      8  C   UNL     1      20.104   1.099  31.494  1.00  0.00     0.123 A 
ATOM      9  C   UNL     1      20.703   1.874  30.495  1.00  0.00     0.094 A 
ATOM     10  C   UNL     1      21.775   1.366  29.754  1.00  0.00     0.146 A 
ATOM     11  O   UNL     1      22.322   2.121  28.809  1.00  0.00    -0.452 OA
ENDROOT
BRANCH   1  12
ATOM     12  C   UNL     1      23.853   2.653  27.023  1.00  0.00     0.025 A 
ATOM     13  C   UNL     1      23.315   2.613  25.727  1.00  0.00     0.016 A 
ATOM     14  C   UNL     1      23.798   3.469  24.734  1.00  0.00     0.051 A 
ATOM     15  C   UNL     1      24.836   4.366  25.017  1.00  0.00     0.157 A 
ATOM     16  C   UNL     1      24.909   3.540  27.298  1.00  0.00     0.062 A 
ATOM     17  C   UNL     1      25.397   4.398  26.304  1.00  0.00     0.158 A 
BRANCH  15  18
ATOM     18  O   UNL     1      25.314   5.220  24.024  1.00  0.00    -0.504 OA
ATOM     19  H   UNL     1      25.994   4.910  23.339  1.00  0.00     0.293 HD
ENDBRANCH  15  18
BRANCH  17  20
ATOM     20  O   UNL     1      26.442   5.267  26.613  1.00  0.00    -0.504 OA
ATOM     21  H   UNL     1      26.762   5.976  25.965  1.00  0.00     0.293 HD
ENDBRANCH  17  20
ENDBRANCH   1  12
BRANCH   2  22
ATOM     22  O   UNL     1      25.018   0.041  27.514  1.00  0.00    -0.502 OA
ATOM     23  H   UNL     1      25.819  -0.410  27.939  1.00  0.00     0.293 HD
ENDBRANCH   2  22
BRANCH   6  24
ATOM     24  O   UNL     1      22.108  -2.004  31.308  1.00  0.00    -0.507 OA
ATOM     25  H   UNL     1      21.872  -2.472  32.175  1.00  0.00     0.293 HD
ENDBRANCH   6  24
BRANCH   8  26
ATOM     26  O   UNL     1      19.036   1.599  32.234  1.00  0.00    -0.508 OA
ATOM     27  H   UNL     1      18.079   1.510  31.910  1.00  0.00     0.293 HD
ENDBRANCH   8  26
TORSDOF 6
ENDMDL
MODEL 7
REMARK VINA RESULT:    -4.680      6.199     10.180
REMARK INTER + INTRA:          -5.940
REMARK INTER:                  -5.610
REMARK INTRA:                  -0.330
REMARK UNBOUND:                -0.302
REMARK SMILES O=c1c(O)c(-c2ccc(O)c(O)c2)oc2cc(O)cc(O)c12
REMARK SMILES IDX 5 1 3 2 2 3 1 4 22 5 20 6 19 7 17 8 16 9 15 10 14 11 6 12
REMARK SMILES IDX 7 13 8 14 9 15 13 16 11 17 10 18 12 20 4 22 21 24 18 26
REMARK H PARENT 10 19 12 21 4 23 21 25 18 27
REMARK Flexibility Score: inf
ROOT
ATOM      1  C   UNL     1      22.311   1.442  28.584  1.00  0.00     0.180 A 
ATOM      2  C   UNL     1      21.689   2.169  29.619  1.00  0.00     0.208 A 
ATOM      3  C   UNL     1      20.955   1.471  30.590  1.00  0.00     0.238 A 
ATOM      4  O   UNL     1      20.403   2.110  31.527  1.00  0.00    -0.285 OA
ATOM      5  C   UNL     1      20.839   0.068  30.504  1.00  0.00     0.111 A 
ATOM      6  C   UNL     1      20.115  -0.708  31.440  1.00  0.00     0.134 A 
ATOM      7  C   UNL     1      20.039  -2.099  31.279  1.00  0.00     0.093 A 
ATOM      8  C   UNL     1      20.670  -2.728  30.203  1.00  0.00     0.123 A 
ATOM      9  C   UNL     1      21.387  -1.966  29.275  1.00  0.00     0.094 A 
ATOM     10  C   UNL     1      21.476  -0.578  29.419  1.00  0.00     0.146 A 
ATOM     11  O   UNL     1      22.167   0.121  28.526  1.00  0.00    -0.452 OA
ENDROOT
BRANCH   1  12
ATOM     12  C   UNL     1      23.117   2.103  27.533  1.00  0.00     0.025 A 
ATOM     13  C   UNL     1      22.495   2.520  26.346  1.00  0.00     0.016 A 
ATOM     14  C   UNL     1      23.240   3.127  25.333  1.00  0.00     0.051 A 
ATOM     15  C   UNL     1      24.621   3.312  25.483  1.00  0.00     0.157 A 
ATOM     16  C   UNL     1      24.506   2.271  27.673  1.00  0.00     0.062 A 
ATOM     17  C   UNL     1      25.257   2.878  26.658  1.00  0.00     0.158 A 
BRANCH  15  18
ATOM     18  O   UNL     1      25.361   3.921  24.470  1.00  0.00    -0.504 OA
ATOM     19  H   UNL     1      26.191   3.485  24.085  1.00  0.00     0.293 HD
ENDBRANCH  15  18
BRANCH  17  20
ATOM     20  O   UNL     1      26.631   3.033  26.832  1.00  0.00    -0.504 OA
ATOM     21  H   UNL     1      27.296   2.338  26.514  1.00  0.00     0.293 HD
ENDBRANCH  17  20
ENDBRANCH   1  12
BRANCH   2  22
ATOM     22  O   UNL     1      21.777   3.563  29.654  1.00  0.00    -0.502 OA
ATOM     23  H   UNL     1      21.236   4.156  29.037  1.00  0.00     0.293 HD
ENDBRANCH   2  22
BRANCH   6  24
ATOM     24  O   UNL     1      19.473  -0.110  32.525  1.00  0.00    -0.507 OA
ATOM     25  H   UNL     1      19.068   0.817  32.460  1.00  0.00     0.293 HD
ENDBRANCH   6  24
BRANCH   8  26
ATOM     26  O   UNL     1      20.578  -4.111  30.066  1.00  0.00    -0.508 OA
ATOM     27  H   UNL     1      20.123  -4.684  30.767  1.00  0.00     0.293 HD
ENDBRANCH   8  26
TORSDOF 6
ENDMDL
MODEL 8
REMARK VINA RESULT:    -4.672      9.962     12.630
REMARK INTER + INTRA:          -5.930
REMARK INTER:                  -5.868
REMARK INTRA:                  -0.062
REMARK UNBOUND:                -0.302
REMARK SMILES O=c1c(O)c(-c2ccc(O)c(O)c2)oc2cc(O)cc(O)c12
REMARK SMILES IDX 5 1 3 2 2 3 1 4 22 5 20 6 19 7 17 8 16 9 15 10 14 11 6 12
REMARK SMILES IDX 7 13 8 14 9 15 13 16 11 17 10 18 12 20 4 22 21 24 18 26
REMARK H PARENT 10 19 12 21 4 23 21 25 18 27
REMARK Flexibility Score: inf
ROOT
ATOM      1  C   UNL     1      23.407   4.138  26.039  1.00  0.00     0.180 A 
ATOM      2  C   UNL     1      23.616   2.851  26.571  1.00  0.00     0.208 A 
ATOM      3  C   UNL     1      22.816   2.422  27.640  1.00  0.00     0.238 A 
ATOM      4  O   UNL     1      22.987   1.267  28.118  1.00  0.00    -0.285 OA
ATOM      5  C   UNL     1      21.837   3.288  28.171  1.00  0.00     0.111 A 
ATOM      6  C   UNL     1      20.993   2.933  29.250  1.00  0.00     0.134 A 
ATOM      7  C   UNL     1      20.049   3.855  29.728  1.00  0.00     0.093 A 
ATOM      8  C   UNL     1      19.935   5.121  29.149  1.00  0.00     0.123 A 
ATOM      9  C   UNL     1      20.766   5.477  28.082  1.00  0.00     0.094 A 
ATOM     10  C   UNL     1      21.712   4.572  27.591  1.00  0.00     0.146 A 
ATOM     11  O   UNL     1      22.486   4.933  26.574  1.00  0.00    -0.452 OA
ENDROOT
BRANCH   1  12
ATOM     12  C   UNL     1      24.198   4.656  24.899  1.00  0.00     0.025 A 
ATOM     13  C   UNL     1      24.809   5.915  24.997  1.00  0.00     0.016 A 
ATOM     14  C   UNL     1      25.543   6.432  23.927  1.00  0.00     0.051 A 
ATOM     15  C   UNL     1      25.662   5.705  22.735  1.00  0.00     0.157 A 
ATOM     16  C   UNL     1      24.302   3.938  23.693  1.00  0.00     0.062 A 
ATOM     17  C   UNL     1      25.035   4.454  22.617  1.00  0.00     0.158 A 
BRANCH  15  18
ATOM     18  O   UNL     1      26.397   6.223  21.669  1.00  0.00    -0.504 OA
ATOM     19  H   UNL     1      26.174   7.123  21.259  1.00  0.00     0.293 HD
ENDBRANCH  15  18
BRANCH  17  20
ATOM     20  O   UNL     1      25.122   3.713  21.440  1.00  0.00    -0.504 OA
ATOM     21  H   UNL     1      25.525   4.094  20.593  1.00  0.00     0.293 HD
ENDBRANCH  17  20
ENDBRANCH   1  12
BRANCH   2  22
ATOM     22  O   UNL     1      24.626   2.031  26.060  1.00  0.00    -0.502 OA
ATOM     23  H   UNL     1      24.637   1.029  26.206  1.00  0.00     0.293 HD
ENDBRANCH   2  22
BRANCH   6  24
ATOM     24  O   UNL     1      21.083   1.677  29.850  1.00  0.00    -0.507 OA
ATOM     25  H   UNL     1      20.260   1.120  30.048  1.00  0.00     0.293 HD
ENDBRANCH   6  24
BRANCH   8  26
ATOM     26  O   UNL     1      18.991   6.019  29.642  1.00  0.00    -0.508 OA
ATOM     27  H   UNL     1      18.115   6.186  29.159  1.00  0.00     0.293 HD
ENDBRANCH   8  26
TORSDOF 6
ENDMDL
MODEL 9
REMARK VINA RESULT:    -4.642      8.540     11.280
REMARK INTER + INTRA:          -5.894
REMARK INTER:                  -5.578
REMARK INTRA:                  -0.317
REMARK UNBOUND:                -0.302
REMARK SMILES O=c1c(O)c(-c2ccc(O)c(O)c2)oc2cc(O)cc(O)c12
REMARK SMILES IDX 5 1 3 2 2 3 1 4 22 5 20 6 19 7 17 8 16 9 15 10 14 11 6 12
REMARK SMILES IDX 7 13 8 14 9 15 13 16 11 17 10 18 12 20 4 22 21 24 18 26
REMARK H PARENT 10 19 12 21 4 23 21 25 18 27
REMARK Flexibility Score: inf
ROOT
ATOM      1  C   UNL     1      23.057   2.081  27.904  1.00  0.00     0.180 A 
ATOM      2  C   UNL     1      24.251   2.277  27.181  1.00  0.00     0.208 A 
ATOM      3  C   UNL     1      24.257   3.196  26.120  1.00  0.00     0.238 A 
ATOM      4  O   UNL     1      25.322   3.387  25.473  1.00  0.00    -0.285 OA
ATOM      5  C   UNL     1      23.073   3.886  25.788  1.00  0.00     0.111 A 
ATOM      6  C   UNL     1      22.994   4.824  24.732  1.00  0.00     0.134 A 
ATOM      7  C   UNL     1      21.776   5.463  24.458  1.00  0.00     0.093 A 
ATOM      8  C   UNL     1      20.637   5.182  25.216  1.00  0.00     0.123 A 
ATOM      9  C   UNL     1      20.709   4.256  26.262  1.00  0.00     0.094 A 
ATOM     10  C   UNL     1      21.914   3.610  26.552  1.00  0.00     0.146 A 
ATOM     11  O   UNL     1      21.956   2.738  27.553  1.00  0.00    -0.452 OA
ENDROOT
BRANCH   1  12
ATOM     12  C   UNL     1      22.976   1.143  29.047  1.00  0.00     0.025 A 
ATOM     13  C   UNL     1      22.704  -0.213  28.810  1.00  0.00     0.016 A 
ATOM     14  C   UNL     1      22.602  -1.111  29.875  1.00  0.00     0.051 A 
ATOM     15  C   UNL     1      22.754  -0.664  31.194  1.00  0.00     0.157 A 
ATOM     16  C   UNL     1      23.108   1.593  30.374  1.00  0.00     0.062 A 
ATOM     17  C   UNL     1      23.004   0.696  31.444  1.00  0.00     0.158 A 
BRANCH  15  18
ATOM     18  O   UNL     1      22.654  -1.564  32.255  1.00  0.00    -0.504 OA
ATOM     19  H   UNL     1      23.477  -1.943  32.709  1.00  0.00     0.293 HD
ENDBRANCH  15  18
BRANCH  17  20
ATOM     20  O   UNL     1      23.145   1.174  32.746  1.00  0.00    -0.504 OA
ATOM     21  H   UNL     1      24.026   1.530  33.096  1.00  0.00     0.293 HD
ENDBRANCH  17  20
ENDBRANCH   1  12
BRANCH   2  22
ATOM     22  O   UNL     1      25.397   1.544  27.499  1.00  0.00    -0.502 OA
ATOM     23  H   UNL     1      25.929   1.708  28.344  1.00  0.00     0.293 HD
ENDBRANCH   2  22
BRANCH   6  24
ATOM     24  O   UNL     1      24.113   5.127  23.955  1.00  0.00    -0.507 OA
ATOM     25  H   UNL     1      24.991   5.413  24.372  1.00  0.00     0.293 HD
ENDBRANCH   6  24
BRANCH   8  26
ATOM     26  O   UNL     1      19.439   5.829  24.924  1.00  0.00    -0.508 OA
ATOM     27  H   UNL     1      19.139   5.982  23.967  1.00  0.00     0.293 HD
ENDBRANCH   8  26
TORSDOF 6
ENDMDL
