MODEL 1
REMARK VINA RESULT:    -3.328      0.000      0.000
REMARK INTER + INTRA:          -3.761
REMARK INTER:                  -3.717
REMARK INTRA:                  -0.044
REMARK UNBOUND:                -0.044
REMARK SMILES CCCC(=O)[O-]
REMARK SMILES IDX 3 1 4 2 5 3 6 4 2 5 1 6
REMARK H PARENT
REMARK Flexibility Score: inf
ROOT
ATOM      1  C   UNL     1      17.663  67.552  26.623  1.00  0.00     0.052 C 
ENDROOT
BRANCH   1   2
ATOM      2  C   UNL     1      16.875  68.668  26.014  1.00  0.00     0.041 C 
ATOM      3  O   UNL     1      16.852  68.819  24.764  1.00  0.00    -0.550 OA
ATOM      4  O   UNL     1      16.205  69.571  26.829  1.00  0.00    -0.550 OA
ENDBRANCH   1   2
BRANCH   1   5
ATOM      5  C   UNL     1      17.592  66.304  25.739  1.00  0.00     0.003 C 
ATOM      6  C   UNL     1      16.407  65.422  26.124  1.00  0.00     0.004 C 
ENDBRANCH   1   5
TORSDOF 2
ENDMDL
MODEL 2
REMARK VINA RESULT:    -3.162     12.924     14.081
REMARK INTER + INTRA:          -3.576
REMARK INTER:                  -3.548
REMARK INTRA:                  -0.028
REMARK UNBOUND:                -0.044
REMARK SMILES CCCC(=O)[O-]
REMARK SMILES IDX 3 1 4 2 5 3 6 4 2 5 1 6
REMARK H PARENT
REMARK Flexibility Score: inf
ROOT
ATOM      1  C   UNL     1      19.861  78.088  18.170  1.00  0.00     0.052 C 
ENDROOT
BRANCH   1   2
ATOM      2  C   UNL     1      20.958  77.085  17.999  1.00  0.00     0.041 C 
ATOM      3  O   UNL     1      21.695  76.780  18.973  1.00  0.00    -0.550 OA
ATOM      4  O   UNL     1      21.196  76.520  16.753  1.00  0.00    -0.550 OA
ENDBRANCH   1   2
BRANCH   1   5
ATOM      5  C   UNL     1      20.127  79.323  17.306  1.00  0.00     0.003 C 
ATOM      6  C   UNL     1      20.581  80.506  18.158  1.00  0.00     0.004 C 
ENDBRANCH   1   5
TORSDOF 2
ENDMDL
MODEL 3
REMARK VINA RESULT:    -3.162      8.205      8.847
REMARK INTER + INTRA:          -3.576
REMARK INTER:                  -3.570
REMARK INTRA:                  -0.006
REMARK UNBOUND:                -0.044
REMARK SMILES CCCC(=O)[O-]
REMARK SMILES IDX 3 1 4 2 5 3 6 4 2 5 1 6
REMARK H PARENT
REMARK Flexibility Score: inf
ROOT
ATOM      1  C   UNL     1      17.238  67.248  35.326  1.00  0.00     0.052 C 
ENDROOT
BRANCH   1   2
ATOM      2  C   UNL     1      17.193  68.576  34.638  1.00  0.00     0.041 C 
ATOM      3  O   UNL     1      17.596  69.610  35.232  1.00  0.00    -0.550 OA
ATOM      4  O   UNL     1      16.662  68.680  33.359  1.00  0.00    -0.550 OA
ENDBRANCH   1   2
BRANCH   1   5
ATOM      5  C   UNL     1      17.967  66.220  34.457  1.00  0.00     0.003 C 
ATOM      6  C   UNL     1      18.482  65.054  35.297  1.00  0.00     0.004 C 
ENDBRANCH   1   5
TORSDOF 2
ENDMDL
MODEL 4
REMARK VINA RESULT:    -3.162     12.949     14.144
REMARK INTER + INTRA:          -3.576
REMARK INTER:                  -3.521
REMARK INTRA:                  -0.055
REMARK UNBOUND:                -0.044
REMARK SMILES CCCC(=O)[O-]
REMARK SMILES IDX 3 1 4 2 5 3 6 4 2 5 1 6
REMARK H PARENT
REMARK Flexibility Score: inf
ROOT
ATOM      1  C   UNL     1      20.429  78.324  16.969  1.00  0.00     0.052 C 
ENDROOT
BRANCH   1   2
ATOM      2  C   UNL     1      20.195  77.602  18.258  1.00  0.00     0.041 C 
ATOM      3  O   UNL     1      19.041  77.556  18.758  1.00  0.00    -0.550 OA
ATOM      4  O   UNL     1      21.260  77.019  18.932  1.00  0.00    -0.550 OA
ENDBRANCH   1   2
BRANCH   1   5
ATOM      5  C   UNL     1      19.988  79.785  17.087  1.00  0.00     0.003 C 
ATOM      6  C   UNL     1      20.765  80.508  18.186  1.00  0.00     0.004 C 
ENDBRANCH   1   5
TORSDOF 2
ENDMDL
MODEL 5
REMARK VINA RESULT:    -3.160     12.339     12.978
REMARK INTER + INTRA:          -3.574
REMARK INTER:                  -3.535
REMARK INTRA:                  -0.038
REMARK UNBOUND:                -0.044
REMARK SMILES CCCC(=O)[O-]
REMARK SMILES IDX 3 1 4 2 5 3 6 4 2 5 1 6
REMARK H PARENT
REMARK Flexibility Score: inf
ROOT
ATOM      1  C   UNL     1      10.440  76.785  30.744  1.00  0.00     0.052 C 
ENDROOT
BRANCH   1   2
ATOM      2  C   UNL     1       9.070  76.661  31.331  1.00  0.00     0.041 C 
ATOM      3  O   UNL     1       8.617  75.531  31.650  1.00  0.00    -0.550 OA
ATOM      4  O   UNL     1       8.274  77.789  31.483  1.00  0.00    -0.550 OA
ENDBRANCH   1   2
BRANCH   1   5
ATOM      5  C   UNL     1      10.355  77.069  29.242  1.00  0.00     0.003 C 
ATOM      6  C   UNL     1      10.803  78.494  28.924  1.00  0.00     0.004 C 
ENDBRANCH   1   5
TORSDOF 2
ENDMDL
MODEL 6
REMARK VINA RESULT:    -3.150     12.411     13.176
REMARK INTER + INTRA:          -3.563
REMARK INTER:                  -3.536
REMARK INTRA:                  -0.027
REMARK UNBOUND:                -0.044
REMARK SMILES CCCC(=O)[O-]
REMARK SMILES IDX 3 1 4 2 5 3 6 4 2 5 1 6
REMARK H PARENT
REMARK Flexibility Score: inf
ROOT
ATOM      1  C   UNL     1      10.337  76.824  30.474  1.00  0.00     0.052 C 
ENDROOT
BRANCH   1   2
ATOM      2  C   UNL     1       9.048  76.609  31.201  1.00  0.00     0.041 C 
ATOM      3  O   UNL     1       8.677  75.444  31.501  1.00  0.00    -0.550 OA
ATOM      4  O   UNL     1       8.232  77.690  31.506  1.00  0.00    -0.550 OA
ENDBRANCH   1   2
BRANCH   1   5
ATOM      5  C   UNL     1      11.378  77.451  31.405  1.00  0.00     0.003 C 
ATOM      6  C   UNL     1      11.466  78.961  31.197  1.00  0.00     0.004 C 
ENDBRANCH   1   5
TORSDOF 2
ENDMDL
MODEL 7
REMARK VINA RESULT:    -3.110     12.176     12.928
REMARK INTER + INTRA:          -3.518
REMARK INTER:                  -3.449
REMARK INTRA:                  -0.069
REMARK UNBOUND:                -0.044
REMARK SMILES CCCC(=O)[O-]
REMARK SMILES IDX 3 1 4 2 5 3 6 4 2 5 1 6
REMARK H PARENT
REMARK Flexibility Score: inf
ROOT
ATOM      1  C   UNL     1      10.147  76.822  29.950  1.00  0.00     0.052 C 
ENDROOT
BRANCH   1   2
ATOM      2  C   UNL     1      10.688  77.088  31.320  1.00  0.00     0.041 C 
ATOM      3  O   UNL     1       9.914  77.106  32.313  1.00  0.00    -0.550 OA
ATOM      4  O   UNL     1      12.038  77.360  31.494  1.00  0.00    -0.550 OA
ENDBRANCH   1   2
BRANCH   1   5
ATOM      5  C   UNL     1      10.582  77.925  28.981  1.00  0.00     0.003 C 
ATOM      6  C   UNL     1       9.945  79.263  29.347  1.00  0.00     0.004 C 
ENDBRANCH   1   5
TORSDOF 2
ENDMDL
MODEL 8
REMARK VINA RESULT:    -3.110     12.123     12.644
REMARK INTER + INTRA:          -3.518
REMARK INTER:                  -3.448
REMARK INTRA:                  -0.070
REMARK UNBOUND:                -0.044
REMARK SMILES CCCC(=O)[O-]
REMARK SMILES IDX 3 1 4 2 5 3 6 4 2 5 1 6
REMARK H PARENT
REMARK Flexibility Score: inf
ROOT
ATOM      1  C   UNL     1      10.830  77.141  30.802  1.00  0.00     0.052 C 
ENDROOT
BRANCH   1   2
ATOM      2  C   UNL     1      10.256  77.686  29.533  1.00  0.00     0.041 C 
ATOM      3  O   UNL     1      10.412  77.064  28.449  1.00  0.00    -0.550 OA
ATOM      4  O   UNL     1       9.589  78.904  29.538  1.00  0.00    -0.550 OA
ENDBRANCH   1   2
BRANCH   1   5
ATOM      5  C   UNL     1       9.722  76.904  31.832  1.00  0.00     0.003 C 
ATOM      6  C   UNL     1       8.795  75.773  31.394  1.00  0.00     0.004 C 
ENDBRANCH   1   5
TORSDOF 2
ENDMDL
MODEL 9
REMARK VINA RESULT:    -3.064      2.510      3.351
REMARK INTER + INTRA:          -3.467
REMARK INTER:                  -3.460
REMARK INTRA:                  -0.007
REMARK UNBOUND:                -0.044
REMARK SMILES CCCC(=O)[O-]
REMARK SMILES IDX 3 1 4 2 5 3 6 4 2 5 1 6
REMARK H PARENT
REMARK Flexibility Score: inf
ROOT
ATOM      1  C   UNL     1      16.941  66.841  24.612  1.00  0.00     0.052 C 
ENDROOT
BRANCH   1   2
ATOM      2  C   UNL     1      16.791  66.206  25.958  1.00  0.00     0.041 C 
ATOM      3  O   UNL     1      17.600  66.482  26.882  1.00  0.00    -0.550 OA
ATOM      4  O   UNL     1      15.785  65.274  26.178  1.00  0.00    -0.550 OA
ENDBRANCH   1   2
BRANCH   1   5
ATOM      5  C   UNL     1      16.901  68.367  24.733  1.00  0.00     0.003 C 
ATOM      6  C   UNL     1      16.910  69.030  23.358  1.00  0.00     0.004 C 
ENDBRANCH   1   5
TORSDOF 2
ENDMDL
