MODEL 1
REMARK VINA RESULT:    -5.079      0.000      0.000
REMARK INTER + INTRA:          -8.567
REMARK INTER:                  -8.048
REMARK INTRA:                  -0.519
REMARK UNBOUND:                -0.519
REMARK SMILES CCCCCCCCCCCC(=O)[O-]
REMARK SMILES IDX 7 1 8 2 9 3 10 4 11 5 12 6 13 7 14 8 6 9 5 10 4 11 3 12 2 13
REMARK SMILES IDX 1 14
REMARK H PARENT
REMARK Flexibility Score: inf
ROOT
ATOM      1  C   UNL     1      20.869  29.382  36.508  1.00  0.00     0.000 C 
ENDROOT
BRANCH   1   2
ATOM      2  C   UNL     1      20.247  28.005  36.797  1.00  0.00     0.000 C 
BRANCH   2   3
ATOM      3  C   UNL     1      18.705  27.960  36.778  1.00  0.00     0.000 C 
BRANCH   3   4
ATOM      4  C   UNL     1      18.093  26.665  36.209  1.00  0.00     0.006 C 
BRANCH   4   5
ATOM      5  C   UNL     1      18.947  25.408  36.437  1.00  0.00     0.053 C 
BRANCH   5   6
ATOM      6  C   UNL     1      19.274  24.713  35.152  1.00  0.00     0.041 C 
ATOM      7  O   UNL     1      18.352  24.241  34.435  1.00  0.00    -0.550 OA
ATOM      8  O   UNL     1      20.593  24.616  34.730  1.00  0.00    -0.550 OA
ENDBRANCH   5   6
ENDBRANCH   4   5
ENDBRANCH   3   4
ENDBRANCH   2   3
ENDBRANCH   1   2
BRANCH   1   9
ATOM      9  C   UNL     1      19.985  30.548  36.983  1.00  0.00     0.000 C 
BRANCH   9  10
ATOM     10  C   UNL     1      20.618  31.925  36.718  1.00  0.00    -0.000 C 
BRANCH  10  11
ATOM     11  C   UNL     1      21.873  31.914  35.820  1.00  0.00    -0.000 C 
BRANCH  11  12
ATOM     12  C   UNL     1      22.166  33.236  35.091  1.00  0.00    -0.000 C 
BRANCH  12  13
ATOM     13  C   UNL     1      20.898  33.918  34.561  1.00  0.00    -0.003 C 
ATOM     14  C   UNL     1      20.981  34.138  33.052  1.00  0.00     0.004 C 
ENDBRANCH  12  13
ENDBRANCH  11  12
ENDBRANCH  10  11
ENDBRANCH   9  10
ENDBRANCH   1   9
TORSDOF 10
ENDMDL
MODEL 2
REMARK VINA RESULT:    -4.432     15.845     18.189
REMARK INTER + INTRA:          -7.542
REMARK INTER:                  -6.864
REMARK INTRA:                  -0.678
REMARK UNBOUND:                -0.519
REMARK SMILES CCCCCCCCCCCC(=O)[O-]
REMARK SMILES IDX 7 1 8 2 9 3 10 4 11 5 12 6 13 7 14 8 6 9 5 10 4 11 3 12 2 13
REMARK SMILES IDX 1 14
REMARK H PARENT
REMARK Flexibility Score: inf
ROOT
ATOM      1  C   UNL     1      22.443  22.392  19.917  1.00  0.00     0.000 C 
ENDROOT
BRANCH   1   2
ATOM      2  C   UNL     1      21.660  22.664  18.620  1.00  0.00     0.000 C 
BRANCH   2   3
ATOM      3  C   UNL     1      21.280  24.139  18.377  1.00  0.00     0.000 C 
BRANCH   3   4
ATOM      4  C   UNL     1      19.860  24.534  18.829  1.00  0.00     0.006 C 
BRANCH   4   5
ATOM      5  C   UNL     1      19.737  24.846  20.329  1.00  0.00     0.053 C 
BRANCH   5   6
ATOM      6  C   UNL     1      19.081  23.729  21.080  1.00  0.00     0.041 C 
ATOM      7  O   UNL     1      18.445  22.835  20.460  1.00  0.00    -0.550 OA
ATOM      8  O   UNL     1      19.197  23.657  22.462  1.00  0.00    -0.550 OA
ENDBRANCH   5   6
ENDBRANCH   4   5
ENDBRANCH   3   4
ENDBRANCH   2   3
ENDBRANCH   1   2
BRANCH   1   9
ATOM      9  C   UNL     1      21.822  21.269  20.765  1.00  0.00     0.000 C 
BRANCH   9  10
ATOM     10  C   UNL     1      22.866  20.496  21.591  1.00  0.00    -0.000 C 
BRANCH  10  11
ATOM     11  C   UNL     1      22.811  18.960  21.454  1.00  0.00    -0.000 C 
BRANCH  11  12
ATOM     12  C   UNL     1      24.181  18.262  21.374  1.00  0.00    -0.000 C 
BRANCH  12  13
ATOM     13  C   UNL     1      24.912  18.536  20.052  1.00  0.00    -0.003 C 
ATOM     14  C   UNL     1      25.052  17.260  19.227  1.00  0.00     0.004 C 
ENDBRANCH  12  13
ENDBRANCH  11  12
ENDBRANCH  10  11
ENDBRANCH   9  10
ENDBRANCH   1   9
TORSDOF 10
ENDMDL
MODEL 3
REMARK VINA RESULT:    -4.393     15.465     17.638
REMARK INTER + INTRA:          -7.479
REMARK INTER:                  -6.094
REMARK INTRA:                  -1.385
REMARK UNBOUND:                -0.519
REMARK SMILES CCCCCCCCCCCC(=O)[O-]
REMARK SMILES IDX 7 1 8 2 9 3 10 4 11 5 12 6 13 7 14 8 6 9 5 10 4 11 3 12 2 13
REMARK SMILES IDX 1 14
REMARK H PARENT
REMARK Flexibility Score: inf
ROOT
ATOM      1  C   UNL     1      19.121  22.177  17.203  1.00  0.00     0.000 C 
ENDROOT
BRANCH   1   2
ATOM      2  C   UNL     1      18.134  21.491  18.165  1.00  0.00     0.000 C 
BRANCH   2   3
ATOM      3  C   UNL     1      18.768  20.500  19.162  1.00  0.00     0.000 C 
BRANCH   3   4
ATOM      4  C   UNL     1      18.701  20.925  20.643  1.00  0.00     0.006 C 
BRANCH   4   5
ATOM      5  C   UNL     1      18.092  22.317  20.874  1.00  0.00     0.053 C 
BRANCH   5   6
ATOM      6  C   UNL     1      18.345  22.814  22.264  1.00  0.00     0.041 C 
ATOM      7  O   UNL     1      17.686  22.352  23.232  1.00  0.00    -0.550 OA
ATOM      8  O   UNL     1      19.332  23.764  22.494  1.00  0.00    -0.550 OA
ENDBRANCH   5   6
ENDBRANCH   4   5
ENDBRANCH   3   4
ENDBRANCH   2   3
ENDBRANCH   1   2
BRANCH   1   9
ATOM      9  C   UNL     1      19.372  23.653  17.556  1.00  0.00     0.000 C 
BRANCH   9  10
ATOM     10  C   UNL     1      20.864  23.978  17.742  1.00  0.00    -0.000 C 
BRANCH  10  11
ATOM     11  C   UNL     1      21.387  23.876  19.190  1.00  0.00    -0.000 C 
BRANCH  11  12
ATOM     12  C   UNL     1      22.116  22.564  19.531  1.00  0.00    -0.000 C 
BRANCH  12  13
ATOM     13  C   UNL     1      22.027  22.202  21.020  1.00  0.00    -0.003 C 
ATOM     14  C   UNL     1      22.535  20.785  21.273  1.00  0.00     0.004 C 
ENDBRANCH  12  13
ENDBRANCH  11  12
ENDBRANCH  10  11
ENDBRANCH   9  10
ENDBRANCH   1   9
TORSDOF 10
ENDMDL
MODEL 4
REMARK VINA RESULT:    -4.377     15.795     17.793
REMARK INTER + INTRA:          -7.454
REMARK INTER:                  -6.597
REMARK INTRA:                  -0.857
REMARK UNBOUND:                -0.519
REMARK SMILES CCCCCCCCCCCC(=O)[O-]
REMARK SMILES IDX 7 1 8 2 9 3 10 4 11 5 12 6 13 7 14 8 6 9 5 10 4 11 3 12 2 13
REMARK SMILES IDX 1 14
REMARK H PARENT
REMARK Flexibility Score: inf
ROOT
ATOM      1  C   UNL     1      22.501  22.380  19.880  1.00  0.00     0.000 C 
ENDROOT
BRANCH   1   2
ATOM      2  C   UNL     1      21.875  21.384  20.872  1.00  0.00     0.000 C 
BRANCH   2   3
ATOM      3  C   UNL     1      22.875  20.459  21.598  1.00  0.00     0.000 C 
BRANCH   3   4
ATOM      4  C   UNL     1      22.617  18.950  21.423  1.00  0.00     0.006 C 
BRANCH   4   5
ATOM      5  C   UNL     1      23.885  18.082  21.468  1.00  0.00     0.053 C 
BRANCH   5   6
ATOM      6  C   UNL     1      24.459  17.861  20.103  1.00  0.00     0.041 C 
ATOM      7  O   UNL     1      25.334  18.645  19.649  1.00  0.00    -0.550 OA
ATOM      8  O   UNL     1      24.053  16.770  19.345  1.00  0.00    -0.550 OA
ENDBRANCH   5   6
ENDBRANCH   4   5
ENDBRANCH   3   4
ENDBRANCH   2   3
ENDBRANCH   1   2
BRANCH   1   9
ATOM      9  C   UNL     1      21.527  22.808  18.769  1.00  0.00     0.000 C 
BRANCH   9  10
ATOM     10  C   UNL     1      21.117  24.288  18.871  1.00  0.00    -0.000 C 
BRANCH  10  11
ATOM     11  C   UNL     1      19.790  24.555  19.612  1.00  0.00    -0.000 C 
BRANCH  11  12
ATOM     12  C   UNL     1      18.781  23.394  19.586  1.00  0.00    -0.000 C 
BRANCH  12  13
ATOM     13  C   UNL     1      18.505  22.813  20.979  1.00  0.00    -0.003 C 
ATOM     14  C   UNL     1      19.256  23.590  22.057  1.00  0.00     0.004 C 
ENDBRANCH  12  13
ENDBRANCH  11  12
ENDBRANCH  10  11
ENDBRANCH   9  10
ENDBRANCH   1   9
TORSDOF 10
ENDMDL
MODEL 5
REMARK VINA RESULT:    -4.315     16.264     18.034
REMARK INTER + INTRA:          -7.356
REMARK INTER:                  -6.686
REMARK INTRA:                  -0.670
REMARK UNBOUND:                -0.519
REMARK SMILES CCCCCCCCCCCC(=O)[O-]
REMARK SMILES IDX 7 1 8 2 9 3 10 4 11 5 12 6 13 7 14 8 6 9 5 10 4 11 3 12 2 13
REMARK SMILES IDX 1 14
REMARK H PARENT
REMARK Flexibility Score: inf
ROOT
ATOM      1  C   UNL     1      21.907  21.537  21.004  1.00  0.00     0.000 C 
ENDROOT
BRANCH   1   2
ATOM      2  C   UNL     1      22.876  20.501  21.599  1.00  0.00     0.000 C 
BRANCH   2   3
ATOM      3  C   UNL     1      22.485  19.026  21.372  1.00  0.00     0.000 C 
BRANCH   3   4
ATOM      4  C   UNL     1      23.662  18.030  21.355  1.00  0.00     0.006 C 
BRANCH   4   5
ATOM      5  C   UNL     1      24.974  18.611  20.807  1.00  0.00     0.053 C 
BRANCH   5   6
ATOM      6  C   UNL     1      25.623  17.692  19.819  1.00  0.00     0.041 C 
ATOM      7  O   UNL     1      24.928  17.111  18.943  1.00  0.00    -0.550 OA
ATOM      8  O   UNL     1      26.999  17.501  19.844  1.00  0.00    -0.550 OA
ENDBRANCH   5   6
ENDBRANCH   4   5
ENDBRANCH   3   4
ENDBRANCH   2   3
ENDBRANCH   1   2
BRANCH   1   9
ATOM      9  C   UNL     1      22.498  22.280  19.793  1.00  0.00     0.000 C 
BRANCH   9  10
ATOM     10  C   UNL     1      21.424  22.744  18.794  1.00  0.00    -0.000 C 
BRANCH  10  11
ATOM     11  C   UNL     1      21.249  24.272  18.673  1.00  0.00    -0.000 C 
BRANCH  11  12
ATOM     12  C   UNL     1      20.219  24.890  19.635  1.00  0.00    -0.000 C 
BRANCH  12  13
ATOM     13  C   UNL     1      19.133  23.894  20.064  1.00  0.00    -0.003 C 
ATOM     14  C   UNL     1      19.131  23.700  21.578  1.00  0.00     0.004 C 
ENDBRANCH  12  13
ENDBRANCH  11  12
ENDBRANCH  10  11
ENDBRANCH   9  10
ENDBRANCH   1   9
TORSDOF 10
ENDMDL
MODEL 6
REMARK VINA RESULT:    -4.298     15.954     17.644
REMARK INTER + INTRA:          -7.329
REMARK INTER:                  -6.427
REMARK INTRA:                  -0.902
REMARK UNBOUND:                -0.519
REMARK SMILES CCCCCCCCCCCC(=O)[O-]
REMARK SMILES IDX 7 1 8 2 9 3 10 4 11 5 12 6 13 7 14 8 6 9 5 10 4 11 3 12 2 13
REMARK SMILES IDX 1 14
REMARK H PARENT
REMARK Flexibility Score: inf
ROOT
ATOM      1  C   UNL     1      21.362  22.935  21.501  1.00  0.00     0.000 C 
ENDROOT
BRANCH   1   2
ATOM      2  C   UNL     1      21.361  21.573  20.784  1.00  0.00     0.000 C 
BRANCH   2   3
ATOM      3  C   UNL     1      22.717  20.838  20.766  1.00  0.00     0.000 C 
BRANCH   3   4
ATOM      4  C   UNL     1      22.867  19.713  21.810  1.00  0.00     0.006 C 
BRANCH   4   5
ATOM      5  C   UNL     1      23.081  18.315  21.208  1.00  0.00     0.053 C 
BRANCH   5   6
ATOM      6  C   UNL     1      24.497  18.106  20.769  1.00  0.00     0.041 C 
ATOM      7  O   UNL     1      25.383  17.798  21.611  1.00  0.00    -0.550 OA
ATOM      8  O   UNL     1      24.833  18.220  19.426  1.00  0.00    -0.550 OA
ENDBRANCH   5   6
ENDBRANCH   4   5
ENDBRANCH   3   4
ENDBRANCH   2   3
ENDBRANCH   1   2
BRANCH   1   9
ATOM      9  C   UNL     1      19.971  23.591  21.538  1.00  0.00     0.000 C 
BRANCH   9  10
ATOM     10  C   UNL     1      19.890  24.869  20.685  1.00  0.00    -0.000 C 
BRANCH  10  11
ATOM     11  C   UNL     1      19.700  24.641  19.170  1.00  0.00    -0.000 C 
BRANCH  11  12
ATOM     12  C   UNL     1      20.998  24.632  18.344  1.00  0.00    -0.000 C 
BRANCH  12  13
ATOM     13  C   UNL     1      21.132  23.385  17.459  1.00  0.00    -0.003 C 
ATOM     14  C   UNL     1      19.892  22.501  17.563  1.00  0.00     0.004 C 
ENDBRANCH  12  13
ENDBRANCH  11  12
ENDBRANCH  10  11
ENDBRANCH   9  10
ENDBRANCH   1   9
TORSDOF 10
ENDMDL
MODEL 7
REMARK VINA RESULT:    -4.289     15.706     18.142
REMARK INTER + INTRA:          -7.316
REMARK INTER:                  -6.154
REMARK INTRA:                  -1.161
REMARK UNBOUND:                -0.519
REMARK SMILES CCCCCCCCCCCC(=O)[O-]
REMARK SMILES IDX 7 1 8 2 9 3 10 4 11 5 12 6 13 7 14 8 6 9 5 10 4 11 3 12 2 13
REMARK SMILES IDX 1 14
REMARK H PARENT
REMARK Flexibility Score: inf
ROOT
ATOM      1  C   UNL     1      19.096  22.488  16.964  1.00  0.00     0.000 C 
ENDROOT
BRANCH   1   2
ATOM      2  C   UNL     1      19.501  23.942  17.265  1.00  0.00     0.000 C 
BRANCH   2   3
ATOM      3  C   UNL     1      20.967  24.140  17.705  1.00  0.00     0.000 C 
BRANCH   3   4
ATOM      4  C   UNL     1      21.251  23.846  19.191  1.00  0.00     0.006 C 
BRANCH   4   5
ATOM      5  C   UNL     1      22.010  22.534  19.443  1.00  0.00     0.053 C 
BRANCH   5   6
ATOM      6  C   UNL     1      22.063  22.189  20.899  1.00  0.00     0.041 C 
ATOM      7  O   UNL     1      21.533  22.951  21.750  1.00  0.00    -0.550 OA
ATOM      8  O   UNL     1      22.668  21.009  21.313  1.00  0.00    -0.550 OA
ENDBRANCH   5   6
ENDBRANCH   4   5
ENDBRANCH   3   4
ENDBRANCH   2   3
ENDBRANCH   1   2
BRANCH   1   9
ATOM      9  C   UNL     1      18.149  21.900  18.024  1.00  0.00     0.000 C 
BRANCH   9  10
ATOM     10  C   UNL     1      18.694  20.611  18.664  1.00  0.00    -0.000 C 
BRANCH  10  11
ATOM     11  C   UNL     1      18.803  20.634  20.204  1.00  0.00    -0.000 C 
BRANCH  11  12
ATOM     12  C   UNL     1      18.299  21.923  20.875  1.00  0.00    -0.000 C 
BRANCH  12  13
ATOM     13  C   UNL     1      17.196  21.664  21.910  1.00  0.00    -0.003 C 
ATOM     14  C   UNL     1      17.496  22.379  23.225  1.00  0.00     0.004 C 
ENDBRANCH  12  13
ENDBRANCH  11  12
ENDBRANCH  10  11
ENDBRANCH   9  10
ENDBRANCH   1   9
TORSDOF 10
ENDMDL
MODEL 8
REMARK VINA RESULT:    -4.251     15.527     17.509
REMARK INTER + INTRA:          -7.255
REMARK INTER:                  -5.709
REMARK INTRA:                  -1.547
REMARK UNBOUND:                -0.519
REMARK SMILES CCCCCCCCCCCC(=O)[O-]
REMARK SMILES IDX 7 1 8 2 9 3 10 4 11 5 12 6 13 7 14 8 6 9 5 10 4 11 3 12 2 13
REMARK SMILES IDX 1 14
REMARK H PARENT
REMARK Flexibility Score: inf
ROOT
ATOM      1  C   UNL     1      20.367  24.335  17.799  1.00  0.00     0.000 C 
ENDROOT
BRANCH   1   2
ATOM      2  C   UNL     1      19.064  23.518  17.836  1.00  0.00     0.000 C 
BRANCH   2   3
ATOM      3  C   UNL     1      19.224  22.009  17.558  1.00  0.00     0.000 C 
BRANCH   3   4
ATOM      4  C   UNL     1      18.792  21.080  18.710  1.00  0.00     0.006 C 
BRANCH   4   5
ATOM      5  C   UNL     1      17.500  21.513  19.421  1.00  0.00     0.053 C 
BRANCH   5   6
ATOM      6  C   UNL     1      17.440  21.005  20.829  1.00  0.00     0.041 C 
ATOM      7  O   UNL     1      17.784  19.823  21.091  1.00  0.00    -0.550 OA
ATOM      8  O   UNL     1      17.035  21.849  21.855  1.00  0.00    -0.550 OA
ENDBRANCH   5   6
ENDBRANCH   4   5
ENDBRANCH   3   4
ENDBRANCH   2   3
ENDBRANCH   1   2
BRANCH   1   9
ATOM      9  C   UNL     1      20.648  25.071  19.120  1.00  0.00     0.000 C 
BRANCH   9  10
ATOM     10  C   UNL     1      19.615  24.751  20.215  1.00  0.00    -0.000 C 
BRANCH  10  11
ATOM     11  C   UNL     1      20.187  24.104  21.494  1.00  0.00    -0.000 C 
BRANCH  11  12
ATOM     12  C   UNL     1      20.585  22.624  21.356  1.00  0.00    -0.000 C 
BRANCH  12  13
ATOM     13  C   UNL     1      22.104  22.422  21.273  1.00  0.00    -0.003 C 
ATOM     14  C   UNL     1      22.538  22.092  19.847  1.00  0.00     0.004 C 
ENDBRANCH  12  13
ENDBRANCH  11  12
ENDBRANCH  10  11
ENDBRANCH   9  10
ENDBRANCH   1   9
TORSDOF 10
ENDMDL
MODEL 9
REMARK VINA RESULT:    -4.250     16.626     18.488
REMARK INTER + INTRA:          -7.253
REMARK INTER:                  -6.276
REMARK INTRA:                  -0.977
REMARK UNBOUND:                -0.519
REMARK SMILES CCCCCCCCCCCC(=O)[O-]
REMARK SMILES IDX 7 1 8 2 9 3 10 4 11 5 12 6 13 7 14 8 6 9 5 10 4 11 3 12 2 13
REMARK SMILES IDX 1 14
REMARK H PARENT
REMARK Flexibility Score: inf
ROOT
ATOM      1  C   UNL     1      21.161  23.414  19.959  1.00  0.00     0.000 C 
ENDROOT
BRANCH   1   2
ATOM      2  C   UNL     1      21.398  22.518  21.188  1.00  0.00     0.000 C 
BRANCH   2   3
ATOM      3  C   UNL     1      21.635  21.025  20.879  1.00  0.00     0.000 C 
BRANCH   3   4
ATOM      4  C   UNL     1      22.879  20.407  21.548  1.00  0.00     0.006 C 
BRANCH   4   5
ATOM      5  C   UNL     1      23.013  18.888  21.354  1.00  0.00     0.053 C 
BRANCH   5   6
ATOM      6  C   UNL     1      24.397  18.497  20.940  1.00  0.00     0.041 C 
ATOM      7  O   UNL     1      25.122  17.816  21.714  1.00  0.00    -0.550 OA
ATOM      8  O   UNL     1      24.876  18.856  19.687  1.00  0.00    -0.550 OA
ENDBRANCH   5   6
ENDBRANCH   4   5
ENDBRANCH   3   4
ENDBRANCH   2   3
ENDBRANCH   1   2
BRANCH   1   9
ATOM      9  C   UNL     1      21.784  22.841  18.674  1.00  0.00     0.000 C 
BRANCH   9  10
ATOM     10  C   UNL     1      21.308  23.568  17.404  1.00  0.00    -0.000 C 
BRANCH  10  11
ATOM     11  C   UNL     1      19.779  23.722  17.265  1.00  0.00    -0.000 C 
BRANCH  11  12
ATOM     12  C   UNL     1      19.022  22.429  16.911  1.00  0.00    -0.000 C 
BRANCH  12  13
ATOM     13  C   UNL     1      18.142  21.921  18.061  1.00  0.00    -0.003 C 
ATOM     14  C   UNL     1      18.687  20.616  18.636  1.00  0.00     0.004 C 
ENDBRANCH  12  13
ENDBRANCH  11  12
ENDBRANCH  10  11
ENDBRANCH   9  10
ENDBRANCH   1   9
TORSDOF 10
ENDMDL
