MODEL 1
REMARK VINA RESULT:    -4.052      0.000      0.000
REMARK INTER + INTRA:          -5.922
REMARK INTER:                  -5.473
REMARK INTRA:                  -0.449
REMARK UNBOUND:                -0.449
REMARK SMILES C[C@@H](O)[C@@H](O)[C@@H](O)[C@@H](O)C=O
REMARK SMILES IDX 4 1 2 2 1 3 3 4 6 6 8 7 10 8 11 9 9 10 7 12 5 14
REMARK H PARENT 3 5 9 11 7 13 5 15
REMARK Flexibility Score: inf
ROOT
ATOM      1  C   UNL     1      -3.824   5.941  -1.080  1.00  0.00     0.174 C 
ENDROOT
BRANCH   1   2
ATOM      2  C   UNL     1      -5.251   6.397  -0.667  1.00  0.00     0.142 C 
ATOM      3  C   UNL     1      -6.200   6.483  -1.871  1.00  0.00     0.041 C 
BRANCH   2   4
ATOM      4  O   UNL     1      -5.803   5.543   0.304  1.00  0.00    -0.391 OA
ATOM      5  H   UNL     1      -6.445   4.941  -0.156  1.00  0.00     0.211 HD
ENDBRANCH   2   4
ENDBRANCH   1   2
BRANCH   1   6
ATOM      6  C   UNL     1      -2.767   6.287   0.010  1.00  0.00     0.181 C 
BRANCH   6   7
ATOM      7  C   UNL     1      -1.332   5.870  -0.406  1.00  0.00     0.209 C 
BRANCH   7   8
ATOM      8  C   UNL     1      -0.493   7.078  -0.739  1.00  0.00     0.258 C 
ATOM      9  O   UNL     1       0.716   7.060  -0.570  1.00  0.00    -0.300 OA
ENDBRANCH   7   8
BRANCH   7  10
ATOM     10  O   UNL     1      -1.385   5.034  -1.533  1.00  0.00    -0.383 OA
ATOM     11  H   UNL     1      -2.244   5.223  -1.993  1.00  0.00     0.211 HD
ENDBRANCH   7  10
ENDBRANCH   6   7
BRANCH   6  12
ATOM     12  O   UNL     1      -3.110   5.690   1.237  1.00  0.00    -0.387 OA
ATOM     13  H   UNL     1      -3.596   6.370   1.775  1.00  0.00     0.211 HD
ENDBRANCH   6  12
ENDBRANCH   1   6
BRANCH   1  14
ATOM     14  O   UNL     1      -3.469   6.581  -2.282  1.00  0.00    -0.388 OA
ATOM     15  H   UNL     1      -3.737   5.983  -3.027  1.00  0.00     0.211 HD
ENDBRANCH   1  14
TORSDOF 8
ENDMDL
MODEL 2
REMARK VINA RESULT:    -3.972     14.838     16.045
REMARK INTER + INTRA:          -5.814
REMARK INTER:                  -5.375
REMARK INTRA:                  -0.439
REMARK UNBOUND:                -0.449
REMARK SMILES C[C@@H](O)[C@@H](O)[C@@H](O)[C@@H](O)C=O
REMARK SMILES IDX 4 1 2 2 1 3 3 4 6 6 8 7 10 8 11 9 9 10 7 12 5 14
REMARK H PARENT 3 5 9 11 7 13 5 15
REMARK Flexibility Score: inf
ROOT
ATOM      1  C   UNL     1       2.515  -5.116  -8.361  1.00  0.00     0.174 C 
ENDROOT
BRANCH   1   2
ATOM      2  C   UNL     1       1.602  -4.252  -9.275  1.00  0.00     0.142 C 
ATOM      3  C   UNL     1       0.448  -5.069  -9.874  1.00  0.00     0.041 C 
BRANCH   2   4
ATOM      4  O   UNL     1       1.082  -3.143  -8.584  1.00  0.00    -0.391 OA
ATOM      5  H   UNL     1       1.101  -2.368  -9.204  1.00  0.00     0.211 HD
ENDBRANCH   2   4
ENDBRANCH   1   2
BRANCH   1   6
ATOM      6  C   UNL     1       3.151  -6.306  -9.136  1.00  0.00     0.181 C 
BRANCH   6   7
ATOM      7  C   UNL     1       2.711  -7.682  -8.569  1.00  0.00     0.209 C 
BRANCH   7   8
ATOM      8  C   UNL     1       3.872  -8.644  -8.522  1.00  0.00     0.258 C 
ATOM      9  O   UNL     1       4.605  -8.686  -7.547  1.00  0.00    -0.300 OA
ENDBRANCH   7   8
BRANCH   7  10
ATOM     10  O   UNL     1       1.703  -8.232  -9.378  1.00  0.00    -0.383 OA
ATOM     11  H   UNL     1       1.844  -7.879 -10.295  1.00  0.00     0.211 HD
ENDBRANCH   7  10
ENDBRANCH   6   7
BRANCH   6  12
ATOM     12  O   UNL     1       4.554  -6.205  -9.132  1.00  0.00    -0.387 OA
ATOM     13  H   UNL     1       4.861  -6.339  -8.196  1.00  0.00     0.211 HD
ENDBRANCH   6  12
ENDBRANCH   1   6
BRANCH   1  14
ATOM     14  O   UNL     1       1.748  -5.620  -7.295  1.00  0.00    -0.388 OA
ATOM     15  H   UNL     1       1.881  -5.014  -6.520  1.00  0.00     0.211 HD
ENDBRANCH   1  14
TORSDOF 8
ENDMDL
MODEL 3
REMARK VINA RESULT:    -3.934     15.035     16.510
REMARK INTER + INTRA:          -5.764
REMARK INTER:                  -5.385
REMARK INTRA:                  -0.379
REMARK UNBOUND:                -0.449
REMARK SMILES C[C@@H](O)[C@@H](O)[C@@H](O)[C@@H](O)C=O
REMARK SMILES IDX 4 1 2 2 1 3 3 4 6 6 8 7 10 8 11 9 9 10 7 12 5 14
REMARK H PARENT 3 5 9 11 7 13 5 15
REMARK Flexibility Score: inf
ROOT
ATOM      1  C   UNL     1       3.859  -6.616  -8.877  1.00  0.00     0.174 C 
ENDROOT
BRANCH   1   2
ATOM      2  C   UNL     1       4.165  -8.132  -8.727  1.00  0.00     0.142 C 
ATOM      3  C   UNL     1       5.673  -8.419  -8.731  1.00  0.00     0.041 C 
BRANCH   2   4
ATOM      4  O   UNL     1       3.591  -8.660  -7.557  1.00  0.00    -0.391 OA
ATOM      5  H   UNL     1       3.351  -7.896  -6.970  1.00  0.00     0.211 HD
ENDBRANCH   2   4
ENDBRANCH   1   2
BRANCH   1   6
ATOM      6  C   UNL     1       2.454  -6.367  -9.499  1.00  0.00     0.181 C 
BRANCH   6   7
ATOM      7  C   UNL     1       1.769  -5.100  -8.923  1.00  0.00     0.209 C 
BRANCH   7   8
ATOM      8  C   UNL     1       2.219  -4.837  -7.508  1.00  0.00     0.258 C 
ATOM      9  O   UNL     1       1.559  -4.124  -6.768  1.00  0.00    -0.300 OA
ENDBRANCH   7   8
BRANCH   7  10
ATOM     10  O   UNL     1       0.374  -5.267  -8.928  1.00  0.00    -0.383 OA
ATOM     11  H   UNL     1       0.040  -4.937  -8.053  1.00  0.00     0.211 HD
ENDBRANCH   7  10
ENDBRANCH   6   7
BRANCH   6  12
ATOM     12  O   UNL     1       1.627  -7.492  -9.316  1.00  0.00    -0.387 OA
ATOM     13  H   UNL     1       1.268  -7.747 -10.206  1.00  0.00     0.211 HD
ENDBRANCH   6  12
ENDBRANCH   1   6
BRANCH   1  14
ATOM     14  O   UNL     1       4.836  -6.032  -9.703  1.00  0.00    -0.388 OA
ATOM     15  H   UNL     1       5.722  -6.345  -9.384  1.00  0.00     0.211 HD
ENDBRANCH   1  14
TORSDOF 8
ENDMDL
MODEL 4
REMARK VINA RESULT:    -3.704     12.705     14.514
REMARK INTER + INTRA:          -5.452
REMARK INTER:                  -4.901
REMARK INTRA:                  -0.551
REMARK UNBOUND:                -0.449
REMARK SMILES C[C@@H](O)[C@@H](O)[C@@H](O)[C@@H](O)C=O
REMARK SMILES IDX 4 1 2 2 1 3 3 4 6 6 8 7 10 8 11 9 9 10 7 12 5 14
REMARK H PARENT 3 5 9 11 7 13 5 15
REMARK Flexibility Score: inf
ROOT
ATOM      1  C   UNL     1       7.647  -1.166  -4.206  1.00  0.00     0.174 C 
ENDROOT
BRANCH   1   2
ATOM      2  C   UNL     1       8.187  -0.040  -3.281  1.00  0.00     0.142 C 
ATOM      3  C   UNL     1       9.420   0.655  -3.878  1.00  0.00     0.041 C 
BRANCH   2   4
ATOM      4  O   UNL     1       7.197   0.919  -3.005  1.00  0.00    -0.391 OA
ATOM      5  H   UNL     1       6.341   0.435  -2.866  1.00  0.00     0.211 HD
ENDBRANCH   2   4
ENDBRANCH   1   2
BRANCH   1   6
ATOM      6  C   UNL     1       8.590  -1.423  -5.417  1.00  0.00     0.181 C 
BRANCH   6   7
ATOM      7  C   UNL     1       7.808  -1.658  -6.736  1.00  0.00     0.209 C 
BRANCH   7   8
ATOM      8  C   UNL     1       8.648  -2.410  -7.737  1.00  0.00     0.258 C 
ATOM      9  O   UNL     1       8.618  -3.630  -7.781  1.00  0.00    -0.300 OA
ENDBRANCH   7   8
BRANCH   7  10
ATOM     10  O   UNL     1       7.435  -0.425  -7.297  1.00  0.00    -0.383 OA
ATOM     11  H   UNL     1       6.772  -0.016  -6.681  1.00  0.00     0.211 HD
ENDBRANCH   7  10
ENDBRANCH   6   7
BRANCH   6  12
ATOM     12  O   UNL     1       9.442  -2.512  -5.157  1.00  0.00    -0.387 OA
ATOM     13  H   UNL     1       9.476  -2.637  -4.172  1.00  0.00     0.211 HD
ENDBRANCH   6  12
ENDBRANCH   1   6
BRANCH   1  14
ATOM     14  O   UNL     1       6.377  -0.794  -4.685  1.00  0.00    -0.388 OA
ATOM     15  H   UNL     1       5.915  -0.308  -3.954  1.00  0.00     0.211 HD
ENDBRANCH   1  14
TORSDOF 8
ENDMDL
MODEL 5
REMARK VINA RESULT:    -3.560     11.245     12.629
REMARK INTER + INTRA:          -5.258
REMARK INTER:                  -4.423
REMARK INTRA:                  -0.835
REMARK UNBOUND:                -0.449
REMARK SMILES C[C@@H](O)[C@@H](O)[C@@H](O)[C@@H](O)C=O
REMARK SMILES IDX 4 1 2 2 1 3 3 4 6 6 8 7 10 8 11 9 9 10 7 12 5 14
REMARK H PARENT 3 5 9 11 7 13 5 15
REMARK Flexibility Score: inf
ROOT
ATOM      1  C   UNL     1      -7.839  -3.541  -7.875  1.00  0.00     0.174 C 
ENDROOT
BRANCH   1   2
ATOM      2  C   UNL     1      -8.735  -3.007  -9.026  1.00  0.00     0.142 C 
ATOM      3  C   UNL     1     -10.122  -3.667  -9.031  1.00  0.00     0.041 C 
BRANCH   2   4
ATOM      4  O   UNL     1      -8.881  -1.611  -8.960  1.00  0.00    -0.391 OA
ATOM      5  H   UNL     1      -8.741  -1.251  -9.874  1.00  0.00     0.211 HD
ENDBRANCH   2   4
ENDBRANCH   1   2
BRANCH   1   6
ATOM      6  C   UNL     1      -8.604  -3.586  -6.519  1.00  0.00     0.181 C 
BRANCH   6   7
ATOM      7  C   UNL     1      -8.153  -2.461  -5.550  1.00  0.00     0.209 C 
BRANCH   7   8
ATOM      8  C   UNL     1      -8.768  -2.643  -4.186  1.00  0.00     0.258 C 
ATOM      9  O   UNL     1      -8.233  -3.357  -3.353  1.00  0.00    -0.300 OA
ENDBRANCH   7   8
BRANCH   7  10
ATOM     10  O   UNL     1      -8.542  -1.210  -6.057  1.00  0.00    -0.383 OA
ATOM     11  H   UNL     1      -8.652  -0.604  -5.278  1.00  0.00     0.211 HD
ENDBRANCH   7  10
ENDBRANCH   6   7
BRANCH   6  12
ATOM     12  O   UNL     1      -8.451  -4.843  -5.907  1.00  0.00    -0.387 OA
ATOM     13  H   UNL     1      -8.121  -4.689  -4.983  1.00  0.00     0.211 HD
ENDBRANCH   6  12
ENDBRANCH   1   6
BRANCH   1  14
ATOM     14  O   UNL     1      -6.718  -2.702  -7.741  1.00  0.00    -0.388 OA
ATOM     15  H   UNL     1      -6.286  -2.639  -8.633  1.00  0.00     0.211 HD
ENDBRANCH   1  14
TORSDOF 8
ENDMDL
MODEL 6
REMARK VINA RESULT:    -3.560     12.859     14.585
REMARK INTER + INTRA:          -5.258
REMARK INTER:                  -4.659
REMARK INTRA:                  -0.599
REMARK UNBOUND:                -0.449
REMARK SMILES C[C@@H](O)[C@@H](O)[C@@H](O)[C@@H](O)C=O
REMARK SMILES IDX 4 1 2 2 1 3 3 4 6 6 8 7 10 8 11 9 9 10 7 12 5 14
REMARK H PARENT 3 5 9 11 7 13 5 15
REMARK Flexibility Score: inf
ROOT
ATOM      1  C   UNL     1       8.632  -1.753  -5.858  1.00  0.00     0.174 C 
ENDROOT
BRANCH   1   2
ATOM      2  C   UNL     1       8.618  -0.931  -7.177  1.00  0.00     0.142 C 
ATOM      3  C   UNL     1       8.973  -1.793  -8.397  1.00  0.00     0.041 C 
BRANCH   2   4
ATOM      4  O   UNL     1       7.373  -0.313  -7.386  1.00  0.00    -0.391 OA
ATOM      5  H   UNL     1       6.842  -0.904  -7.982  1.00  0.00     0.211 HD
ENDBRANCH   2   4
ENDBRANCH   1   2
BRANCH   1   6
ATOM      6  C   UNL     1       8.719  -0.834  -4.604  1.00  0.00     0.181 C 
BRANCH   6   7
ATOM      7  C   UNL     1       7.439  -0.905  -3.730  1.00  0.00     0.209 C 
BRANCH   7   8
ATOM      8  C   UNL     1       7.302  -2.259  -3.080  1.00  0.00     0.258 C 
ATOM      9  O   UNL     1       6.202  -2.701  -2.792  1.00  0.00    -0.300 OA
ENDBRANCH   7   8
BRANCH   7  10
ATOM     10  O   UNL     1       6.305  -0.670  -4.524  1.00  0.00    -0.383 OA
ATOM     11  H   UNL     1       6.629  -0.329  -5.398  1.00  0.00     0.211 HD
ENDBRANCH   7  10
ENDBRANCH   6   7
BRANCH   6  12
ATOM     12  O   UNL     1       8.974   0.497  -4.985  1.00  0.00    -0.387 OA
ATOM     13  H   UNL     1       9.888   0.727  -4.673  1.00  0.00     0.211 HD
ENDBRANCH   6  12
ENDBRANCH   1   6
BRANCH   1  14
ATOM     14  O   UNL     1       9.741  -2.618  -5.870  1.00  0.00    -0.388 OA
ATOM     15  H   UNL     1      10.160  -2.576  -4.971  1.00  0.00     0.211 HD
ENDBRANCH   1  14
TORSDOF 8
ENDMDL
MODEL 7
REMARK VINA RESULT:    -3.440     11.850     13.210
REMARK INTER + INTRA:          -5.095
REMARK INTER:                  -4.677
REMARK INTRA:                  -0.418
REMARK UNBOUND:                -0.449
REMARK SMILES C[C@@H](O)[C@@H](O)[C@@H](O)[C@@H](O)C=O
REMARK SMILES IDX 4 1 2 2 1 3 3 4 6 6 8 7 10 8 11 9 9 10 7 12 5 14
REMARK H PARENT 3 5 9 11 7 13 5 15
REMARK Flexibility Score: inf
ROOT
ATOM      1  C   UNL     1      -9.199  -3.316  -8.073  1.00  0.00     0.174 C 
ENDROOT
BRANCH   1   2
ATOM      2  C   UNL     1      -8.282  -3.661  -9.280  1.00  0.00     0.142 C 
ATOM      3  C   UNL     1      -6.800  -3.709  -8.882  1.00  0.00     0.041 C 
BRANCH   2   4
ATOM      4  O   UNL     1      -8.648  -4.883  -9.871  1.00  0.00    -0.391 OA
ATOM      5  H   UNL     1      -9.305  -5.322  -9.270  1.00  0.00     0.211 HD
ENDBRANCH   2   4
ENDBRANCH   1   2
BRANCH   1   6
ATOM      6  C   UNL     1      -8.376  -2.859  -6.833  1.00  0.00     0.181 C 
BRANCH   6   7
ATOM      7  C   UNL     1      -8.737  -3.663  -5.556  1.00  0.00     0.209 C 
BRANCH   7   8
ATOM      8  C   UNL     1      -8.433  -2.866  -4.312  1.00  0.00     0.258 C 
ATOM      9  O   UNL     1      -8.126  -3.430  -3.273  1.00  0.00    -0.300 OA
ENDBRANCH   7   8
BRANCH   7  10
ATOM     10  O   UNL     1      -7.997  -4.856  -5.518  1.00  0.00    -0.383 OA
ATOM     11  H   UNL     1      -7.042  -4.608  -5.628  1.00  0.00     0.211 HD
ENDBRANCH   7  10
ENDBRANCH   6   7
BRANCH   6  12
ATOM     12  O   UNL     1      -8.551  -1.481  -6.606  1.00  0.00    -0.387 OA
ATOM     13  H   UNL     1      -8.178  -1.277  -5.708  1.00  0.00     0.211 HD
ENDBRANCH   6  12
ENDBRANCH   1   6
BRANCH   1  14
ATOM     14  O   UNL     1      -9.951  -4.455  -7.729  1.00  0.00    -0.388 OA
ATOM     15  H   UNL     1     -10.759  -4.142  -7.245  1.00  0.00     0.211 HD
ENDBRANCH   1  14
TORSDOF 8
ENDMDL
MODEL 8
REMARK VINA RESULT:    -3.376     11.355     12.688
REMARK INTER + INTRA:          -5.009
REMARK INTER:                  -4.364
REMARK INTRA:                  -0.646
REMARK UNBOUND:                -0.449
REMARK SMILES C[C@@H](O)[C@@H](O)[C@@H](O)[C@@H](O)C=O
REMARK SMILES IDX 4 1 2 2 1 3 3 4 6 6 8 7 10 8 11 9 9 10 7 12 5 14
REMARK H PARENT 3 5 9 11 7 13 5 15
REMARK Flexibility Score: inf
ROOT
ATOM      1  C   UNL     1      -8.260  -3.727  -6.117  1.00  0.00     0.174 C 
ENDROOT
BRANCH   1   2
ATOM      2  C   UNL     1      -8.321  -2.926  -4.787  1.00  0.00     0.142 C 
ATOM      3  C   UNL     1      -8.758  -3.804  -3.605  1.00  0.00     0.041 C 
BRANCH   2   4
ATOM      4  O   UNL     1      -7.085  -2.325  -4.491  1.00  0.00    -0.391 OA
ATOM      5  H   UNL     1      -7.236  -1.346  -4.424  1.00  0.00     0.211 HD
ENDBRANCH   2   4
ENDBRANCH   1   2
BRANCH   1   6
ATOM      6  C   UNL     1      -8.527  -2.818  -7.353  1.00  0.00     0.181 C 
BRANCH   6   7
ATOM      7  C   UNL     1      -7.475  -3.024  -8.476  1.00  0.00     0.209 C 
BRANCH   7   8
ATOM      8  C   UNL     1      -7.964  -2.459  -9.785  1.00  0.00     0.258 C 
ATOM      9  O   UNL     1      -8.356  -1.305  -9.856  1.00  0.00    -0.300 OA
ENDBRANCH   7   8
BRANCH   7  10
ATOM     10  O   UNL     1      -7.220  -4.395  -8.644  1.00  0.00    -0.383 OA
ATOM     11  H   UNL     1      -8.058  -4.806  -8.983  1.00  0.00     0.211 HD
ENDBRANCH   7  10
ENDBRANCH   6   7
BRANCH   6  12
ATOM     12  O   UNL     1      -8.569  -1.465  -6.970  1.00  0.00    -0.387 OA
ATOM     13  H   UNL     1      -8.262  -0.925  -7.745  1.00  0.00     0.211 HD
ENDBRANCH   6  12
ENDBRANCH   1   6
BRANCH   1  14
ATOM     14  O   UNL     1      -9.228  -4.748  -6.082  1.00  0.00    -0.388 OA
ATOM     15  H   UNL     1      -9.134  -5.215  -5.211  1.00  0.00     0.211 HD
ENDBRANCH   1  14
TORSDOF 8
ENDMDL
MODEL 9
REMARK VINA RESULT:    -3.330      0.996      2.612
REMARK INTER + INTRA:          -4.947
REMARK INTER:                  -4.276
REMARK INTRA:                  -0.671
REMARK UNBOUND:                -0.449
REMARK SMILES C[C@@H](O)[C@@H](O)[C@@H](O)[C@@H](O)C=O
REMARK SMILES IDX 4 1 2 2 1 3 3 4 6 6 8 7 10 8 11 9 9 10 7 12 5 14
REMARK H PARENT 3 5 9 11 7 13 5 15
REMARK Flexibility Score: inf
ROOT
ATOM      1  C   UNL     1      -5.193   6.684  -1.167  1.00  0.00     0.174 C 
ENDROOT
BRANCH   1   2
ATOM      2  C   UNL     1      -6.058   6.386  -2.424  1.00  0.00     0.142 C 
ATOM      3  C   UNL     1      -7.548   6.668  -2.178  1.00  0.00     0.041 C 
BRANCH   2   4
ATOM      4  O   UNL     1      -5.619   7.125  -3.537  1.00  0.00    -0.391 OA
ATOM      5  H   UNL     1      -6.148   7.964  -3.567  1.00  0.00     0.211 HD
ENDBRANCH   2   4
ENDBRANCH   1   2
BRANCH   1   6
ATOM      6  C   UNL     1      -3.821   5.951  -1.223  1.00  0.00     0.181 C 
BRANCH   6   7
ATOM      7  C   UNL     1      -2.852   6.427  -0.107  1.00  0.00     0.209 C 
BRANCH   7   8
ATOM      8  C   UNL     1      -1.416   6.195  -0.503  1.00  0.00     0.258 C 
ATOM      9  O   UNL     1      -1.088   5.171  -1.080  1.00  0.00    -0.300 OA
ENDBRANCH   7   8
BRANCH   7  10
ATOM     10  O   UNL     1      -3.111   5.724   1.081  1.00  0.00    -0.383 OA
ATOM     11  H   UNL     1      -3.874   5.116   0.897  1.00  0.00     0.211 HD
ENDBRANCH   7  10
ENDBRANCH   6   7
BRANCH   6  12
ATOM     12  O   UNL     1      -3.224   6.117  -2.486  1.00  0.00    -0.387 OA
ATOM     13  H   UNL     1      -2.563   5.384  -2.603  1.00  0.00     0.211 HD
ENDBRANCH   6  12
ENDBRANCH   1   6
BRANCH   1  14
ATOM     14  O   UNL     1      -5.892   6.262  -0.021  1.00  0.00    -0.388 OA
ATOM     15  H   UNL     1      -6.437   5.474  -0.279  1.00  0.00     0.211 HD
ENDBRANCH   1  14
TORSDOF 8
ENDMDL
