MODEL 1
REMARK VINA RESULT:    -5.159      0.000      0.000
REMARK INTER + INTRA:          -5.884
REMARK INTER:                  -6.365
REMARK INTRA:                   0.482
REMARK UNBOUND:                 0.482
REMARK SMILES O=c1c(O)c(-c2cc(O)c(O)c(O)c2)oc2cc(O)cc(O)c12
REMARK SMILES IDX 5 1 3 2 2 3 1 4 23 5 21 6 20 7 18 8 17 9 16 10 15 11 6 12
REMARK SMILES IDX 7 13 8 14 14 15 10 16 12 17 9 18 11 20 13 22 4 24 22 26
REMARK SMILES IDX 19 28
REMARK H PARENT 9 19 11 21 13 23 4 25 22 27 19 29
REMARK Flexibility Score: inf
ROOT
ATOM      1  C   UNL     1      26.789  58.027 143.704  1.00  0.00     0.180 A 
ATOM      2  C   UNL     1      26.286  57.070 142.805  1.00  0.00     0.208 A 
ATOM      3  C   UNL     1      27.081  56.674 141.718  1.00  0.00     0.238 A 
ATOM      4  O   UNL     1      26.595  55.875 140.876  1.00  0.00    -0.285 OA
ATOM      5  C   UNL     1      28.390  57.197 141.573  1.00  0.00     0.111 A 
ATOM      6  C   UNL     1      29.300  56.832 140.535  1.00  0.00     0.134 A 
ATOM      7  C   UNL     1      30.530  57.494 140.432  1.00  0.00     0.093 A 
ATOM      8  C   UNL     1      30.909  58.460 141.365  1.00  0.00     0.123 A 
ATOM      9  C   UNL     1      30.052  58.783 142.414  1.00  0.00     0.094 A 
ATOM     10  C   UNL     1      28.801  58.169 142.523  1.00  0.00     0.146 A 
ATOM     11  O   UNL     1      28.007  58.523 143.525  1.00  0.00    -0.452 OA
ENDROOT
BRANCH   1  12
ATOM     12  C   UNL     1      26.005  58.504 144.866  1.00  0.00     0.029 A 
ATOM     13  C   UNL     1      24.847  57.810 145.248  1.00  0.00     0.062 A 
ATOM     14  C   UNL     1      24.098  58.224 146.354  1.00  0.00     0.162 A 
ATOM     15  C   UNL     1      26.426  59.604 145.631  1.00  0.00     0.062 A 
ATOM     16  C   UNL     1      24.511  59.339 147.104  1.00  0.00     0.200 A 
ATOM     17  C   UNL     1      25.682  60.027 146.742  1.00  0.00     0.162 A 
BRANCH  14  18
ATOM     18  O   UNL     1      22.945  57.516 146.692  1.00  0.00    -0.504 OA
ATOM     19  H   UNL     1      22.254  57.247 146.001  1.00  0.00     0.293 HD
ENDBRANCH  14  18
BRANCH  16  20
ATOM     20  O   UNL     1      23.756  59.748 148.205  1.00  0.00    -0.502 OA
ATOM     21  H   UNL     1      23.811  59.280 149.101  1.00  0.00     0.293 HD
ENDBRANCH  16  20
BRANCH  17  22
ATOM     22  O   UNL     1      26.107  61.123 147.491  1.00  0.00    -0.504 OA
ATOM     23  H   UNL     1      25.841  61.240 148.461  1.00  0.00     0.293 HD
ENDBRANCH  17  22
ENDBRANCH   1  12
BRANCH   2  24
ATOM     24  O   UNL     1      25.022  56.510 143.008  1.00  0.00    -0.502 OA
ATOM     25  H   UNL     1      24.469  56.699 143.835  1.00  0.00     0.293 HD
ENDBRANCH   2  24
BRANCH   6  26
ATOM     26  O   UNL     1      29.059  55.818 139.602  1.00  0.00    -0.507 OA
ATOM     27  H   UNL     1      28.723  54.895 139.827  1.00  0.00     0.293 HD
ENDBRANCH   6  26
BRANCH   8  28
ATOM     28  O   UNL     1      32.142  59.101 141.265  1.00  0.00    -0.508 OA
ATOM     29  H   UNL     1      32.979  58.598 140.991  1.00  0.00     0.293 HD
ENDBRANCH   8  28
TORSDOF 7
ENDMDL
MODEL 2
REMARK VINA RESULT:    -5.150      0.133      1.759
REMARK INTER + INTRA:          -5.872
REMARK INTER:                  -6.286
REMARK INTRA:                   0.414
REMARK UNBOUND:                 0.482
REMARK SMILES O=c1c(O)c(-c2cc(O)c(O)c(O)c2)oc2cc(O)cc(O)c12
REMARK SMILES IDX 5 1 3 2 2 3 1 4 23 5 21 6 20 7 18 8 17 9 16 10 15 11 6 12
REMARK SMILES IDX 7 13 8 14 14 15 10 16 12 17 9 18 11 20 13 22 4 24 22 26
REMARK SMILES IDX 19 28
REMARK H PARENT 9 19 11 21 13 23 4 25 22 27 19 29
REMARK Flexibility Score: inf
ROOT
ATOM      1  C   UNL     1      26.754  57.985 143.753  1.00  0.00     0.180 A 
ATOM      2  C   UNL     1      26.213  57.062 142.842  1.00  0.00     0.208 A 
ATOM      3  C   UNL     1      26.970  56.689 141.720  1.00  0.00     0.238 A 
ATOM      4  O   UNL     1      26.449  55.921 140.869  1.00  0.00    -0.285 OA
ATOM      5  C   UNL     1      28.280  57.200 141.552  1.00  0.00     0.111 A 
ATOM      6  C   UNL     1      29.155  56.856 140.476  1.00  0.00     0.134 A 
ATOM      7  C   UNL     1      30.389  57.506 140.355  1.00  0.00     0.093 A 
ATOM      8  C   UNL     1      30.808  58.439 141.306  1.00  0.00     0.123 A 
ATOM      9  C   UNL     1      29.986  58.741 142.389  1.00  0.00     0.094 A 
ATOM     10  C   UNL     1      28.732  58.139 142.516  1.00  0.00     0.146 A 
ATOM     11  O   UNL     1      27.972  58.472 143.552  1.00  0.00    -0.452 OA
ENDROOT
BRANCH   1  12
ATOM     12  C   UNL     1      26.010  58.437 144.951  1.00  0.00     0.029 A 
ATOM     13  C   UNL     1      26.468  59.555 145.664  1.00  0.00     0.062 A 
ATOM     14  C   UNL     1      25.775  60.018 146.788  1.00  0.00     0.162 A 
ATOM     15  C   UNL     1      24.823  57.806 145.357  1.00  0.00     0.062 A 
ATOM     16  C   UNL     1      24.598  59.370 147.203  1.00  0.00     0.200 A 
ATOM     17  C   UNL     1      24.120  58.264 146.481  1.00  0.00     0.162 A 
BRANCH  14  18
ATOM     18  O   UNL     1      26.270  61.124 147.478  1.00  0.00    -0.504 OA
ATOM     19  H   UNL     1      25.863  61.442 148.349  1.00  0.00     0.293 HD
ENDBRANCH  14  18
BRANCH  16  20
ATOM     20  O   UNL     1      23.913  59.837 148.326  1.00  0.00    -0.502 OA
ATOM     21  H   UNL     1      23.079  60.406 148.252  1.00  0.00     0.293 HD
ENDBRANCH  16  20
BRANCH  17  22
ATOM     22  O   UNL     1      22.946  57.626 146.877  1.00  0.00    -0.504 OA
ATOM     23  H   UNL     1      22.525  57.801 147.782  1.00  0.00     0.293 HD
ENDBRANCH  17  22
ENDBRANCH   1  12
BRANCH   2  24
ATOM     24  O   UNL     1      24.948  56.510 143.065  1.00  0.00    -0.502 OA
ATOM     25  H   UNL     1      24.816  55.626 143.540  1.00  0.00     0.293 HD
ENDBRANCH   2  24
BRANCH   6  26
ATOM     26  O   UNL     1      28.873  55.874 139.521  1.00  0.00    -0.507 OA
ATOM     27  H   UNL     1      28.990  54.883 139.661  1.00  0.00     0.293 HD
ENDBRANCH   6  26
BRANCH   8  28
ATOM     28  O   UNL     1      32.046  59.069 141.187  1.00  0.00    -0.508 OA
ATOM     29  H   UNL     1      32.847  58.765 141.729  1.00  0.00     0.293 HD
ENDBRANCH   8  28
TORSDOF 7
ENDMDL
MODEL 3
REMARK VINA RESULT:    -5.127      1.854      3.461
REMARK INTER + INTRA:          -5.845
REMARK INTER:                  -6.208
REMARK INTRA:                   0.363
REMARK UNBOUND:                 0.482
REMARK SMILES O=c1c(O)c(-c2cc(O)c(O)c(O)c2)oc2cc(O)cc(O)c12
REMARK SMILES IDX 5 1 3 2 2 3 1 4 23 5 21 6 20 7 18 8 17 9 16 10 15 11 6 12
REMARK SMILES IDX 7 13 8 14 14 15 10 16 12 17 9 18 11 20 13 22 4 24 22 26
REMARK SMILES IDX 19 28
REMARK H PARENT 9 19 11 21 13 23 4 25 22 27 19 29
REMARK Flexibility Score: inf
ROOT
ATOM      1  C   UNL     1      26.416  58.799 143.856  1.00  0.00     0.180 A 
ATOM      2  C   UNL     1      27.032  59.868 143.181  1.00  0.00     0.208 A 
ATOM      3  C   UNL     1      27.535  59.657 141.888  1.00  0.00     0.238 A 
ATOM      4  O   UNL     1      28.152  60.596 141.320  1.00  0.00    -0.285 OA
ATOM      5  C   UNL     1      27.367  58.397 141.262  1.00  0.00     0.111 A 
ATOM      6  C   UNL     1      27.797  58.084 139.937  1.00  0.00     0.134 A 
ATOM      7  C   UNL     1      27.672  56.772 139.462  1.00  0.00     0.093 A 
ATOM      8  C   UNL     1      27.076  55.778 140.240  1.00  0.00     0.123 A 
ATOM      9  C   UNL     1      26.602  56.086 141.514  1.00  0.00     0.094 A 
ATOM     10  C   UNL     1      26.747  57.376 142.031  1.00  0.00     0.146 A 
ATOM     11  O   UNL     1      26.302  57.621 143.257  1.00  0.00    -0.452 OA
ENDROOT
BRANCH   1  12
ATOM     12  C   UNL     1      25.875  58.941 145.227  1.00  0.00     0.029 A 
ATOM     13  C   UNL     1      26.375  59.949 146.064  1.00  0.00     0.062 A 
ATOM     14  C   UNL     1      25.869  60.121 147.356  1.00  0.00     0.162 A 
ATOM     15  C   UNL     1      24.829  58.125 145.688  1.00  0.00     0.062 A 
ATOM     16  C   UNL     1      24.837  59.288 147.822  1.00  0.00     0.200 A 
ATOM     17  C   UNL     1      24.313  58.291 146.982  1.00  0.00     0.162 A 
BRANCH  14  18
ATOM     18  O   UNL     1      26.403  61.125 148.163  1.00  0.00    -0.504 OA
ATOM     19  H   UNL     1      25.959  61.418 149.025  1.00  0.00     0.293 HD
ENDBRANCH  14  18
BRANCH  16  20
ATOM     20  O   UNL     1      24.337  59.464 149.114  1.00  0.00    -0.502 OA
ATOM     21  H   UNL     1      23.557  60.078 149.312  1.00  0.00     0.293 HD
ENDBRANCH  16  20
BRANCH  17  22
ATOM     22  O   UNL     1      23.278  57.471 147.431  1.00  0.00    -0.504 OA
ATOM     23  H   UNL     1      23.309  57.027 148.341  1.00  0.00     0.293 HD
ENDBRANCH  17  22
ENDBRANCH   1  12
BRANCH   2  24
ATOM     24  O   UNL     1      27.120  61.125 143.786  1.00  0.00    -0.502 OA
ATOM     25  H   UNL     1      27.714  61.303 144.586  1.00  0.00     0.293 HD
ENDBRANCH   2  24
BRANCH   6  26
ATOM     26  O   UNL     1      28.326  59.021 139.043  1.00  0.00    -0.507 OA
ATOM     27  H   UNL     1      29.214  58.935 138.575  1.00  0.00     0.293 HD
ENDBRANCH   6  26
BRANCH   8  28
ATOM     28  O   UNL     1      26.939  54.479 139.753  1.00  0.00    -0.508 OA
ATOM     29  H   UNL     1      26.143  54.207 139.189  1.00  0.00     0.293 HD
ENDBRANCH   8  28
TORSDOF 7
ENDMDL
MODEL 4
REMARK VINA RESULT:    -4.512      1.900      2.620
REMARK INTER + INTRA:          -5.086
REMARK INTER:                  -5.295
REMARK INTRA:                   0.209
REMARK UNBOUND:                 0.482
REMARK SMILES O=c1c(O)c(-c2cc(O)c(O)c(O)c2)oc2cc(O)cc(O)c12
REMARK SMILES IDX 5 1 3 2 2 3 1 4 23 5 21 6 20 7 18 8 17 9 16 10 15 11 6 12
REMARK SMILES IDX 7 13 8 14 14 15 10 16 12 17 9 18 11 20 13 22 4 24 22 26
REMARK SMILES IDX 19 28
REMARK H PARENT 9 19 11 21 13 23 4 25 22 27 19 29
REMARK Flexibility Score: inf
ROOT
ATOM      1  C   UNL     1      26.296  58.222 143.211  1.00  0.00     0.180 A 
ATOM      2  C   UNL     1      26.269  56.906 142.720  1.00  0.00     0.208 A 
ATOM      3  C   UNL     1      26.692  56.661 141.405  1.00  0.00     0.238 A 
ATOM      4  O   UNL     1      26.593  55.493 140.947  1.00  0.00    -0.285 OA
ATOM      5  C   UNL     1      27.191  57.726 140.615  1.00  0.00     0.111 A 
ATOM      6  C   UNL     1      27.690  57.586 139.284  1.00  0.00     0.134 A 
ATOM      7  C   UNL     1      28.059  58.727 138.561  1.00  0.00     0.093 A 
ATOM      8  C   UNL     1      28.008  59.995 139.143  1.00  0.00     0.123 A 
ATOM      9  C   UNL     1      27.576  60.137 140.459  1.00  0.00     0.094 A 
ATOM     10  C   UNL     1      27.164  59.022 141.193  1.00  0.00     0.146 A 
ATOM     11  O   UNL     1      26.738  59.205 142.437  1.00  0.00    -0.452 OA
ENDROOT
BRANCH   1  12
ATOM     12  C   UNL     1      25.851  58.561 144.583  1.00  0.00     0.029 A 
ATOM     13  C   UNL     1      26.413  59.668 145.235  1.00  0.00     0.062 A 
ATOM     14  C   UNL     1      25.998  60.026 146.522  1.00  0.00     0.162 A 
ATOM     15  C   UNL     1      24.837  57.831 145.224  1.00  0.00     0.062 A 
ATOM     16  C   UNL     1      24.998  59.279 147.169  1.00  0.00     0.200 A 
ATOM     17  C   UNL     1      24.413  58.182 146.514  1.00  0.00     0.162 A 
BRANCH  14  18
ATOM     18  O   UNL     1      26.591  61.125 147.142  1.00  0.00    -0.504 OA
ATOM     19  H   UNL     1      27.435  61.555 146.785  1.00  0.00     0.293 HD
ENDBRANCH  14  18
BRANCH  16  20
ATOM     20  O   UNL     1      24.590  59.640 148.455  1.00  0.00    -0.502 OA
ATOM     21  H   UNL     1      23.829  59.171 148.932  1.00  0.00     0.293 HD
ENDBRANCH  16  20
BRANCH  17  22
ATOM     22  O   UNL     1      23.409  57.447 147.143  1.00  0.00    -0.504 OA
ATOM     23  H   UNL     1      22.920  56.698 146.666  1.00  0.00     0.293 HD
ENDBRANCH  17  22
ENDBRANCH   1  12
BRANCH   2  24
ATOM     24  O   UNL     1      25.844  55.857 143.541  1.00  0.00    -0.502 OA
ATOM     25  H   UNL     1      25.332  55.060 143.184  1.00  0.00     0.293 HD
ENDBRANCH   2  24
BRANCH   6  26
ATOM     26  O   UNL     1      27.865  56.357 138.638  1.00  0.00    -0.507 OA
ATOM     27  H   UNL     1      27.362  55.512 138.858  1.00  0.00     0.293 HD
ENDBRANCH   6  26
BRANCH   8  28
ATOM     28  O   UNL     1      28.394  61.124 138.422  1.00  0.00    -0.508 OA
ATOM     29  H   UNL     1      29.308  61.188 137.989  1.00  0.00     0.293 HD
ENDBRANCH   8  28
TORSDOF 7
ENDMDL
MODEL 5
REMARK VINA RESULT:    -4.501      1.590      3.412
REMARK INTER + INTRA:          -5.072
REMARK INTER:                  -5.426
REMARK INTRA:                   0.353
REMARK UNBOUND:                 0.482
REMARK SMILES O=c1c(O)c(-c2cc(O)c(O)c(O)c2)oc2cc(O)cc(O)c12
REMARK SMILES IDX 5 1 3 2 2 3 1 4 23 5 21 6 20 7 18 8 17 9 16 10 15 11 6 12
REMARK SMILES IDX 7 13 8 14 14 15 10 16 12 17 9 18 11 20 13 22 4 24 22 26
REMARK SMILES IDX 19 28
REMARK H PARENT 9 19 11 21 13 23 4 25 22 27 19 29
REMARK Flexibility Score: inf
ROOT
ATOM      1  C   UNL     1      26.368  57.735 143.311  1.00  0.00     0.180 A 
ATOM      2  C   UNL     1      27.655  58.003 142.813  1.00  0.00     0.208 A 
ATOM      3  C   UNL     1      28.058  57.403 141.610  1.00  0.00     0.238 A 
ATOM      4  O   UNL     1      29.237  57.587 141.209  1.00  0.00    -0.285 OA
ATOM      5  C   UNL     1      27.151  56.587 140.890  1.00  0.00     0.111 A 
ATOM      6  C   UNL     1      27.436  55.965 139.637  1.00  0.00     0.134 A 
ATOM      7  C   UNL     1      26.498  55.094 139.069  1.00  0.00     0.093 A 
ATOM      8  C   UNL     1      25.261  54.872 139.677  1.00  0.00     0.123 A 
ATOM      9  C   UNL     1      24.950  55.518 140.871  1.00  0.00     0.094 A 
ATOM     10  C   UNL     1      25.880  56.363 141.482  1.00  0.00     0.146 A 
ATOM     11  O   UNL     1      25.551  56.940 142.631  1.00  0.00    -0.452 OA
ENDROOT
BRANCH   1  12
ATOM     12  C   UNL     1      25.877  58.319 144.581  1.00  0.00     0.029 A 
ATOM     13  C   UNL     1      24.834  57.685 145.272  1.00  0.00     0.062 A 
ATOM     14  C   UNL     1      24.364  58.201 146.484  1.00  0.00     0.162 A 
ATOM     15  C   UNL     1      26.472  59.462 145.138  1.00  0.00     0.062 A 
ATOM     16  C   UNL     1      24.948  59.358 147.028  1.00  0.00     0.200 A 
ATOM     17  C   UNL     1      26.009  59.986 146.354  1.00  0.00     0.162 A 
BRANCH  14  18
ATOM     18  O   UNL     1      23.316  57.550 147.134  1.00  0.00    -0.504 OA
ATOM     19  H   UNL     1      23.191  56.546 147.084  1.00  0.00     0.293 HD
ENDBRANCH  14  18
BRANCH  16  20
ATOM     20  O   UNL     1      24.472  59.869 148.237  1.00  0.00    -0.502 OA
ATOM     21  H   UNL     1      25.067  60.374 148.882  1.00  0.00     0.293 HD
ENDBRANCH  16  20
BRANCH  17  22
ATOM     22  O   UNL     1      26.603  61.125 146.895  1.00  0.00    -0.504 OA
ATOM     23  H   UNL     1      26.142  61.678 147.608  1.00  0.00     0.293 HD
ENDBRANCH  17  22
ENDBRANCH   1  12
BRANCH   2  24
ATOM     24  O   UNL     1      28.509  58.871 143.500  1.00  0.00    -0.502 OA
ATOM     25  H   UNL     1      29.509  58.888 143.342  1.00  0.00     0.293 HD
ENDBRANCH   2  24
BRANCH   6  26
ATOM     26  O   UNL     1      28.605  56.186 138.901  1.00  0.00    -0.507 OA
ATOM     27  H   UNL     1      29.505  55.785 139.113  1.00  0.00     0.293 HD
ENDBRANCH   6  26
BRANCH   8  28
ATOM     28  O   UNL     1      24.326  54.017 139.096  1.00  0.00    -0.508 OA
ATOM     29  H   UNL     1      24.076  53.135 139.527  1.00  0.00     0.293 HD
ENDBRANCH   8  28
TORSDOF 7
ENDMDL
MODEL 6
REMARK VINA RESULT:    -3.888      1.986      7.257
REMARK INTER + INTRA:          -4.316
REMARK INTER:                  -4.351
REMARK INTRA:                   0.036
REMARK UNBOUND:                 0.482
REMARK SMILES O=c1c(O)c(-c2cc(O)c(O)c(O)c2)oc2cc(O)cc(O)c12
REMARK SMILES IDX 5 1 3 2 2 3 1 4 23 5 21 6 20 7 18 8 17 9 16 10 15 11 6 12
REMARK SMILES IDX 7 13 8 14 14 15 10 16 12 17 9 18 11 20 13 22 4 24 22 26
REMARK SMILES IDX 19 28
REMARK H PARENT 9 19 11 21 13 23 4 25 22 27 19 29
REMARK Flexibility Score: inf
ROOT
ATOM      1  C   UNL     1      26.237  57.571 142.701  1.00  0.00     0.180 A 
ATOM      2  C   UNL     1      26.938  58.789 142.733  1.00  0.00     0.208 A 
ATOM      3  C   UNL     1      26.805  59.622 143.854  1.00  0.00     0.238 A 
ATOM      4  O   UNL     1      27.375  60.744 143.843  1.00  0.00    -0.285 OA
ATOM      5  C   UNL     1      26.017  59.203 144.955  1.00  0.00     0.111 A 
ATOM      6  C   UNL     1      25.847  59.947 146.162  1.00  0.00     0.134 A 
ATOM      7  C   UNL     1      24.959  59.482 147.140  1.00  0.00     0.093 A 
ATOM      8  C   UNL     1      24.284  58.270 146.982  1.00  0.00     0.123 A 
ATOM      9  C   UNL     1      24.485  57.510 145.833  1.00  0.00     0.094 A 
ATOM     10  C   UNL     1      25.335  57.965 144.822  1.00  0.00     0.146 A 
ATOM     11  O   UNL     1      25.480  57.220 143.734  1.00  0.00    -0.452 OA
ENDROOT
BRANCH   1  12
ATOM     12  C   UNL     1      26.316  56.646 141.547  1.00  0.00     0.029 A 
ATOM     13  C   UNL     1      27.572  56.299 141.028  1.00  0.00     0.062 A 
ATOM     14  C   UNL     1      27.680  55.411 139.953  1.00  0.00     0.162 A 
ATOM     15  C   UNL     1      25.163  56.063 140.996  1.00  0.00     0.062 A 
ATOM     16  C   UNL     1      26.522  54.846 139.390  1.00  0.00     0.200 A 
ATOM     17  C   UNL     1      25.261  55.171 139.919  1.00  0.00     0.162 A 
BRANCH  14  18
ATOM     18  O   UNL     1      28.946  55.102 139.456  1.00  0.00    -0.504 OA
ATOM     19  H   UNL     1      29.123  54.986 138.466  1.00  0.00     0.293 HD
ENDBRANCH  14  18
BRANCH  16  20
ATOM     20  O   UNL     1      26.637  53.963 138.315  1.00  0.00    -0.502 OA
ATOM     21  H   UNL     1      26.526  52.962 138.424  1.00  0.00     0.293 HD
ENDBRANCH  16  20
BRANCH  17  22
ATOM     22  O   UNL     1      24.109  54.602 139.377  1.00  0.00    -0.504 OA
ATOM     23  H   UNL     1      24.134  53.717 138.885  1.00  0.00     0.293 HD
ENDBRANCH  17  22
ENDBRANCH   1  12
BRANCH   2  24
ATOM     24  O   UNL     1      27.771  59.150 141.670  1.00  0.00    -0.502 OA
ATOM     25  H   UNL     1      27.603  58.844 140.719  1.00  0.00     0.293 HD
ENDBRANCH   2  24
BRANCH   6  26
ATOM     26  O   UNL     1      26.540  61.125 146.461  1.00  0.00    -0.507 OA
ATOM     27  H   UNL     1      26.802  61.827 145.787  1.00  0.00     0.293 HD
ENDBRANCH   6  26
BRANCH   8  28
ATOM     28  O   UNL     1      23.415  57.806 147.969  1.00  0.00    -0.508 OA
ATOM     29  H   UNL     1      22.670  58.389 148.334  1.00  0.00     0.293 HD
ENDBRANCH   8  28
TORSDOF 7
ENDMDL
MODEL 7
REMARK VINA RESULT:    -3.846      1.970      7.107
REMARK INTER + INTRA:          -4.264
REMARK INTER:                  -4.286
REMARK INTRA:                   0.022
REMARK UNBOUND:                 0.482
REMARK SMILES O=c1c(O)c(-c2cc(O)c(O)c(O)c2)oc2cc(O)cc(O)c12
REMARK SMILES IDX 5 1 3 2 2 3 1 4 23 5 21 6 20 7 18 8 17 9 16 10 15 11 6 12
REMARK SMILES IDX 7 13 8 14 14 15 10 16 12 17 9 18 11 20 13 22 4 24 22 26
REMARK SMILES IDX 19 28
REMARK H PARENT 9 19 11 21 13 23 4 25 22 27 19 29
REMARK Flexibility Score: inf
ROOT
ATOM      1  C   UNL     1      26.289  57.528 142.731  1.00  0.00     0.180 A 
ATOM      2  C   UNL     1      26.978  58.753 142.758  1.00  0.00     0.208 A 
ATOM      3  C   UNL     1      26.823  59.597 143.868  1.00  0.00     0.238 A 
ATOM      4  O   UNL     1      27.382  60.724 143.852  1.00  0.00    -0.285 OA
ATOM      5  C   UNL     1      26.026  59.182 144.963  1.00  0.00     0.111 A 
ATOM      6  C   UNL     1      25.834  59.937 146.160  1.00  0.00     0.134 A 
ATOM      7  C   UNL     1      24.938  59.474 147.132  1.00  0.00     0.093 A 
ATOM      8  C   UNL     1      24.277  58.253 146.979  1.00  0.00     0.123 A 
ATOM      9  C   UNL     1      24.499  57.483 145.841  1.00  0.00     0.094 A 
ATOM     10  C   UNL     1      25.357  57.936 144.835  1.00  0.00     0.146 A 
ATOM     11  O   UNL     1      25.524  57.180 143.757  1.00  0.00    -0.452 OA
ENDROOT
BRANCH   1  12
ATOM     12  C   UNL     1      26.392  56.591 141.588  1.00  0.00     0.029 A 
ATOM     13  C   UNL     1      25.221  56.074 141.014  1.00  0.00     0.062 A 
ATOM     14  C   UNL     1      25.285  55.205 139.920  1.00  0.00     0.162 A 
ATOM     15  C   UNL     1      27.635  56.254 141.027  1.00  0.00     0.062 A 
ATOM     16  C   UNL     1      26.532  54.853 139.376  1.00  0.00     0.200 A 
ATOM     17  C   UNL     1      27.709  55.385 139.930  1.00  0.00     0.162 A 
BRANCH  14  18
ATOM     18  O   UNL     1      24.099  54.702 139.387  1.00  0.00    -0.504 OA
ATOM     19  H   UNL     1      23.536  54.016 139.876  1.00  0.00     0.293 HD
ENDBRANCH  14  18
BRANCH  16  20
ATOM     20  O   UNL     1      26.589  53.983 138.285  1.00  0.00    -0.502 OA
ATOM     21  H   UNL     1      26.135  53.077 138.293  1.00  0.00     0.293 HD
ENDBRANCH  16  20
BRANCH  17  22
ATOM     22  O   UNL     1      28.949  55.052 139.385  1.00  0.00    -0.504 OA
ATOM     23  H   UNL     1      29.279  54.095 139.359  1.00  0.00     0.293 HD
ENDBRANCH  17  22
ENDBRANCH   1  12
BRANCH   2  24
ATOM     24  O   UNL     1      27.820  59.110 141.701  1.00  0.00    -0.502 OA
ATOM     25  H   UNL     1      27.466  59.413 140.802  1.00  0.00     0.293 HD
ENDBRANCH   2  24
BRANCH   6  26
ATOM     26  O   UNL     1      26.510  61.125 146.454  1.00  0.00    -0.507 OA
ATOM     27  H   UNL     1      27.171  61.242 147.206  1.00  0.00     0.293 HD
ENDBRANCH   6  26
BRANCH   8  28
ATOM     28  O   UNL     1      23.400  57.792 147.960  1.00  0.00    -0.508 OA
ATOM     29  H   UNL     1      23.681  57.084 148.629  1.00  0.00     0.293 HD
ENDBRANCH   8  28
TORSDOF 7
ENDMDL
MODEL 8
REMARK VINA RESULT:    -3.514      1.795      3.560
REMARK INTER + INTRA:          -3.854
REMARK INTER:                  -3.774
REMARK INTRA:                  -0.081
REMARK UNBOUND:                 0.482
REMARK SMILES O=c1c(O)c(-c2cc(O)c(O)c(O)c2)oc2cc(O)cc(O)c12
REMARK SMILES IDX 5 1 3 2 2 3 1 4 23 5 21 6 20 7 18 8 17 9 16 10 15 11 6 12
REMARK SMILES IDX 7 13 8 14 14 15 10 16 12 17 9 18 11 20 13 22 4 24 22 26
REMARK SMILES IDX 19 28
REMARK H PARENT 9 19 11 21 13 23 4 25 22 27 19 29
REMARK Flexibility Score: inf
ROOT
ATOM      1  C   UNL     1      26.796  58.098 142.947  1.00  0.00     0.180 A 
ATOM      2  C   UNL     1      28.182  57.905 142.809  1.00  0.00     0.208 A 
ATOM      3  C   UNL     1      28.699  57.556 141.551  1.00  0.00     0.238 A 
ATOM      4  O   UNL     1      29.929  57.311 141.451  1.00  0.00    -0.285 OA
ATOM      5  C   UNL     1      27.832  57.460 140.435  1.00  0.00     0.111 A 
ATOM      6  C   UNL     1      28.252  57.159 139.104  1.00  0.00     0.134 A 
ATOM      7  C   UNL     1      27.292  56.985 138.099  1.00  0.00     0.093 A 
ATOM      8  C   UNL     1      25.933  57.166 138.363  1.00  0.00     0.123 A 
ATOM      9  C   UNL     1      25.517  57.515 139.645  1.00  0.00     0.094 A 
ATOM     10  C   UNL     1      26.447  57.657 140.678  1.00  0.00     0.146 A 
ATOM     11  O   UNL     1      26.005  57.969 141.890  1.00  0.00    -0.452 OA
ENDROOT
BRANCH   1  12
ATOM     12  C   UNL     1      26.176  58.452 144.245  1.00  0.00     0.029 A 
ATOM     13  C   UNL     1      26.602  59.606 144.919  1.00  0.00     0.062 A 
ATOM     14  C   UNL     1      26.021  59.978 146.135  1.00  0.00     0.162 A 
ATOM     15  C   UNL     1      25.129  57.690 144.788  1.00  0.00     0.062 A 
ATOM     16  C   UNL     1      24.987  59.201 146.686  1.00  0.00     0.200 A 
ATOM     17  C   UNL     1      24.538  58.056 146.006  1.00  0.00     0.162 A 
BRANCH  14  18
ATOM     18  O   UNL     1      26.482  61.125 146.781  1.00  0.00    -0.504 OA
ATOM     19  H   UNL     1      27.288  61.111 147.394  1.00  0.00     0.293 HD
ENDBRANCH  14  18
BRANCH  16  20
ATOM     20  O   UNL     1      24.413  59.577 147.902  1.00  0.00    -0.502 OA
ATOM     21  H   UNL     1      24.271  58.919 148.659  1.00  0.00     0.293 HD
ENDBRANCH  16  20
BRANCH  17  22
ATOM     22  O   UNL     1      23.504  57.288 146.538  1.00  0.00    -0.504 OA
ATOM     23  H   UNL     1      22.625  57.167 146.048  1.00  0.00     0.293 HD
ENDBRANCH  17  22
ENDBRANCH   1  12
BRANCH   2  24
ATOM     24  O   UNL     1      29.030  58.079 143.906  1.00  0.00    -0.502 OA
ATOM     25  H   UNL     1      29.718  58.821 143.951  1.00  0.00     0.293 HD
ENDBRANCH   2  24
BRANCH   6  26
ATOM     26  O   UNL     1      29.590  57.044 138.712  1.00  0.00    -0.507 OA
ATOM     27  H   UNL     1      30.078  56.173 138.572  1.00  0.00     0.293 HD
ENDBRANCH   6  26
BRANCH   8  28
ATOM     28  O   UNL     1      24.985  57.009 137.353  1.00  0.00    -0.508 OA
ATOM     29  H   UNL     1      24.028  57.321 137.473  1.00  0.00     0.293 HD
ENDBRANCH   8  28
TORSDOF 7
ENDMDL
