MODEL 1
REMARK VINA RESULT:    -5.577      0.000      0.000
REMARK INTER + INTRA:         -11.048
REMARK INTER:                  -9.489
REMARK INTRA:                  -1.559
REMARK UNBOUND:                -1.559
REMARK SMILES CCCCCCCCCCCCCC(=O)[O-]
REMARK SMILES IDX 8 1 9 2 10 3 11 4 12 5 13 6 14 7 15 8 16 9 7 10 6 11 5 12
REMARK SMILES IDX 4 13 3 14 2 15 1 16
REMARK H PARENT
REMARK Flexibility Score: inf
ROOT
ATOM      1  C   UNL     1     -17.664   1.083 -17.722  1.00  0.00     0.000 C 
ENDROOT
BRANCH   1   2
ATOM      2  C   UNL     1     -17.407   0.371 -16.383  1.00  0.00     0.000 C 
BRANCH   2   3
ATOM      3  C   UNL     1     -15.999   0.644 -15.831  1.00  0.00     0.000 C 
BRANCH   3   4
ATOM      4  C   UNL     1     -15.757   2.134 -15.533  1.00  0.00     0.000 C 
BRANCH   4   5
ATOM      5  C   UNL     1     -14.869   2.357 -14.296  1.00  0.00     0.006 C 
BRANCH   5   6
ATOM      6  C   UNL     1     -14.850   1.175 -13.313  1.00  0.00     0.053 C 
BRANCH   6   7
ATOM      7  C   UNL     1     -15.889   1.316 -12.244  1.00  0.00     0.041 C 
ATOM      8  O   UNL     1     -15.567   1.732 -11.099  1.00  0.00    -0.550 OA
ATOM      9  O   UNL     1     -17.206   0.955 -12.499  1.00  0.00    -0.550 OA
ENDBRANCH   6   7
ENDBRANCH   5   6
ENDBRANCH   4   5
ENDBRANCH   3   4
ENDBRANCH   2   3
ENDBRANCH   1   2
BRANCH   1  10
ATOM     10  C   UNL     1     -17.810   0.095 -18.889  1.00  0.00     0.000 C 
BRANCH  10  11
ATOM     11  C   UNL     1     -16.459  -0.476 -19.353  1.00  0.00    -0.000 C 
BRANCH  11  12
ATOM     12  C   UNL     1     -15.584   0.588 -20.051  1.00  0.00    -0.000 C 
BRANCH  12  13
ATOM     13  C   UNL     1     -14.088   0.491 -19.694  1.00  0.00    -0.000 C 
BRANCH  13  14
ATOM     14  C   UNL     1     -13.651   1.362 -18.503  1.00  0.00    -0.000 C 
BRANCH  14  15
ATOM     15  C   UNL     1     -13.986   2.847 -18.701  1.00  0.00    -0.003 C 
ATOM     16  C   UNL     1     -13.082   3.730 -17.845  1.00  0.00     0.004 C 
ENDBRANCH  14  15
ENDBRANCH  13  14
ENDBRANCH  12  13
ENDBRANCH  11  12
ENDBRANCH  10  11
ENDBRANCH   1  10
TORSDOF 12
ENDMDL
MODEL 2
REMARK VINA RESULT:    -5.498      2.962      5.718
REMARK INTER + INTRA:         -10.913
REMARK INTER:                  -9.212
REMARK INTRA:                  -1.701
REMARK UNBOUND:                -1.559
REMARK SMILES CCCCCCCCCCCCCC(=O)[O-]
REMARK SMILES IDX 8 1 9 2 10 3 11 4 12 5 13 6 14 7 15 8 16 9 7 10 6 11 5 12
REMARK SMILES IDX 4 13 3 14 2 15 1 16
REMARK H PARENT
REMARK Flexibility Score: inf
ROOT
ATOM      1  C   UNL     1     -14.043   2.610 -16.488  1.00  0.00     0.000 C 
ENDROOT
BRANCH   1   2
ATOM      2  C   UNL     1     -13.402   2.747 -17.879  1.00  0.00     0.000 C 
BRANCH   2   3
ATOM      3  C   UNL     1     -13.662   1.524 -18.771  1.00  0.00     0.000 C 
BRANCH   3   4
ATOM      4  C   UNL     1     -14.711   1.798 -19.863  1.00  0.00     0.000 C 
BRANCH   4   5
ATOM      5  C   UNL     1     -15.362   0.511 -20.401  1.00  0.00     0.006 C 
BRANCH   5   6
ATOM      6  C   UNL     1     -15.602  -0.567 -19.332  1.00  0.00     0.053 C 
BRANCH   6   7
ATOM      7  C   UNL     1     -17.060  -0.852 -19.138  1.00  0.00     0.041 C 
ATOM      8  O   UNL     1     -17.449  -2.025 -18.896  1.00  0.00    -0.550 OA
ATOM      9  O   UNL     1     -17.992   0.171 -19.260  1.00  0.00    -0.550 OA
ENDBRANCH   6   7
ENDBRANCH   5   6
ENDBRANCH   4   5
ENDBRANCH   3   4
ENDBRANCH   2   3
ENDBRANCH   1   2
BRANCH   1  10
ATOM     10  C   UNL     1     -15.534   2.984 -16.493  1.00  0.00     0.000 C 
BRANCH  10  11
ATOM     11  C   UNL     1     -16.453   1.751 -16.480  1.00  0.00    -0.000 C 
BRANCH  11  12
ATOM     12  C   UNL     1     -15.820   0.559 -15.728  1.00  0.00    -0.000 C 
BRANCH  12  13
ATOM     13  C   UNL     1     -16.719  -0.022 -14.621  1.00  0.00    -0.000 C 
BRANCH  13  14
ATOM     14  C   UNL     1     -16.472   0.557 -13.217  1.00  0.00    -0.000 C 
BRANCH  14  15
ATOM     15  C   UNL     1     -15.123   1.283 -13.105  1.00  0.00    -0.003 C 
ATOM     16  C   UNL     1     -15.322   2.755 -12.755  1.00  0.00     0.004 C 
ENDBRANCH  14  15
ENDBRANCH  13  14
ENDBRANCH  12  13
ENDBRANCH  11  12
ENDBRANCH  10  11
ENDBRANCH   1  10
TORSDOF 12
ENDMDL
MODEL 3
REMARK VINA RESULT:    -5.463      1.128      3.464
REMARK INTER + INTRA:         -10.854
REMARK INTER:                  -9.113
REMARK INTRA:                  -1.741
REMARK UNBOUND:                -1.559
REMARK SMILES CCCCCCCCCCCCCC(=O)[O-]
REMARK SMILES IDX 8 1 9 2 10 3 11 4 12 5 13 6 14 7 15 8 16 9 7 10 6 11 5 12
REMARK SMILES IDX 4 13 3 14 2 15 1 16
REMARK H PARENT
REMARK Flexibility Score: inf
ROOT
ATOM      1  C   UNL     1     -14.270   2.433 -18.997  1.00  0.00     0.000 C 
ENDROOT
BRANCH   1   2
ATOM      2  C   UNL     1     -14.515   3.266 -17.727  1.00  0.00     0.000 C 
BRANCH   2   3
ATOM      3  C   UNL     1     -13.235   3.477 -16.905  1.00  0.00     0.000 C 
BRANCH   3   4
ATOM      4  C   UNL     1     -13.275   2.751 -15.548  1.00  0.00     0.000 C 
BRANCH   4   5
ATOM      5  C   UNL     1     -14.608   2.019 -15.304  1.00  0.00     0.006 C 
BRANCH   5   6
ATOM      6  C   UNL     1     -15.459   2.619 -14.174  1.00  0.00     0.053 C 
BRANCH   6   7
ATOM      7  C   UNL     1     -15.146   2.001 -12.846  1.00  0.00     0.041 C 
ATOM      8  O   UNL     1     -14.597   0.869 -12.787  1.00  0.00    -0.550 OA
ATOM      9  O   UNL     1     -15.494   2.658 -11.673  1.00  0.00    -0.550 OA
ENDBRANCH   6   7
ENDBRANCH   5   6
ENDBRANCH   4   5
ENDBRANCH   3   4
ENDBRANCH   2   3
ENDBRANCH   1   2
BRANCH   1  10
ATOM     10  C   UNL     1     -13.735   1.028 -18.680  1.00  0.00     0.000 C 
BRANCH  10  11
ATOM     11  C   UNL     1     -14.851  -0.031 -18.624  1.00  0.00    -0.000 C 
BRANCH  11  12
ATOM     12  C   UNL     1     -16.101   0.397 -19.423  1.00  0.00    -0.000 C 
BRANCH  12  13
ATOM     13  C   UNL     1     -17.417   0.259 -18.634  1.00  0.00    -0.000 C 
BRANCH  13  14
ATOM     14  C   UNL     1     -17.582   1.257 -17.474  1.00  0.00    -0.000 C 
BRANCH  14  15
ATOM     15  C   UNL     1     -18.049   0.583 -16.175  1.00  0.00    -0.003 C 
ATOM     16  C   UNL     1     -17.197  -0.642 -15.857  1.00  0.00     0.004 C 
ENDBRANCH  14  15
ENDBRANCH  13  14
ENDBRANCH  12  13
ENDBRANCH  11  12
ENDBRANCH  10  11
ENDBRANCH   1  10
TORSDOF 12
ENDMDL
MODEL 4
REMARK VINA RESULT:    -5.460      2.936      6.636
REMARK INTER + INTRA:         -10.848
REMARK INTER:                  -9.805
REMARK INTRA:                  -1.043
REMARK UNBOUND:                -1.559
REMARK SMILES CCCCCCCCCCCCCC(=O)[O-]
REMARK SMILES IDX 8 1 9 2 10 3 11 4 12 5 13 6 14 7 15 8 16 9 7 10 6 11 5 12
REMARK SMILES IDX 4 13 3 14 2 15 1 16
REMARK H PARENT
REMARK Flexibility Score: inf
ROOT
ATOM      1  C   UNL     1     -14.531   2.041 -13.983  1.00  0.00     0.000 C 
ENDROOT
BRANCH   1   2
ATOM      2  C   UNL     1     -14.537   2.697 -15.375  1.00  0.00     0.000 C 
BRANCH   2   3
ATOM      3  C   UNL     1     -13.123   2.876 -15.948  1.00  0.00     0.000 C 
BRANCH   3   4
ATOM      4  C   UNL     1     -13.099   3.774 -17.198  1.00  0.00     0.000 C 
BRANCH   4   5
ATOM      5  C   UNL     1     -14.135   3.351 -18.255  1.00  0.00     0.006 C 
BRANCH   5   6
ATOM      6  C   UNL     1     -13.914   1.942 -18.826  1.00  0.00     0.053 C 
BRANCH   6   7
ATOM      7  C   UNL     1     -15.191   1.322 -19.307  1.00  0.00     0.041 C 
ATOM      8  O   UNL     1     -15.290   0.919 -20.496  1.00  0.00    -0.550 OA
ATOM      9  O   UNL     1     -16.282   1.224 -18.453  1.00  0.00    -0.550 OA
ENDBRANCH   6   7
ENDBRANCH   5   6
ENDBRANCH   4   5
ENDBRANCH   3   4
ENDBRANCH   2   3
ENDBRANCH   1   2
BRANCH   1  10
ATOM     10  C   UNL     1     -15.379   2.822 -12.967  1.00  0.00     0.000 C 
BRANCH  10  11
ATOM     11  C   UNL     1     -15.738   1.984 -11.728  1.00  0.00    -0.000 C 
BRANCH  11  12
ATOM     12  C   UNL     1     -17.231   2.107 -11.353  1.00  0.00    -0.000 C 
BRANCH  12  13
ATOM     13  C   UNL     1     -18.045   0.828 -11.628  1.00  0.00    -0.000 C 
BRANCH  13  14
ATOM     14  C   UNL     1     -17.362  -0.183 -12.565  1.00  0.00    -0.000 C 
BRANCH  14  15
ATOM     15  C   UNL     1     -18.004  -0.224 -13.960  1.00  0.00    -0.003 C 
ATOM     16  C   UNL     1     -16.952  -0.469 -15.038  1.00  0.00     0.004 C 
ENDBRANCH  14  15
ENDBRANCH  13  14
ENDBRANCH  12  13
ENDBRANCH  11  12
ENDBRANCH  10  11
ENDBRANCH   1  10
TORSDOF 12
ENDMDL
MODEL 5
REMARK VINA RESULT:    -5.429      2.694      6.288
REMARK INTER + INTRA:         -10.796
REMARK INTER:                  -9.684
REMARK INTRA:                  -1.112
REMARK UNBOUND:                -1.559
REMARK SMILES CCCCCCCCCCCCCC(=O)[O-]
REMARK SMILES IDX 8 1 9 2 10 3 11 4 12 5 13 6 14 7 15 8 16 9 7 10 6 11 5 12
REMARK SMILES IDX 4 13 3 14 2 15 1 16
REMARK H PARENT
REMARK Flexibility Score: inf
ROOT
ATOM      1  C   UNL     1     -15.767   1.125 -15.994  1.00  0.00     0.000 C 
ENDROOT
BRANCH   1   2
ATOM      2  C   UNL     1     -16.458   1.597 -17.285  1.00  0.00     0.000 C 
BRANCH   2   3
ATOM      3  C   UNL     1     -15.576   1.407 -18.529  1.00  0.00     0.000 C 
BRANCH   3   4
ATOM      4  C   UNL     1     -16.093   0.294 -19.458  1.00  0.00     0.000 C 
BRANCH   4   5
ATOM      5  C   UNL     1     -17.452  -0.273 -19.008  1.00  0.00     0.006 C 
BRANCH   5   6
ATOM      6  C   UNL     1     -17.469  -1.800 -18.830  1.00  0.00     0.053 C 
BRANCH   6   7
ATOM      7  C   UNL     1     -17.129  -2.206 -17.428  1.00  0.00     0.041 C 
ATOM      8  O   UNL     1     -15.926  -2.264 -17.059  1.00  0.00    -0.550 OA
ATOM      9  O   UNL     1     -18.139  -2.554 -16.539  1.00  0.00    -0.550 OA
ENDBRANCH   6   7
ENDBRANCH   5   6
ENDBRANCH   4   5
ENDBRANCH   3   4
ENDBRANCH   2   3
ENDBRANCH   1   2
BRANCH   1  10
ATOM     10  C   UNL     1     -15.050   2.271 -15.264  1.00  0.00     0.000 C 
BRANCH  10  11
ATOM     11  C   UNL     1     -14.708   1.920 -13.805  1.00  0.00    -0.000 C 
BRANCH  11  12
ATOM     12  C   UNL     1     -15.374   2.887 -12.801  1.00  0.00    -0.000 C 
BRANCH  12  13
ATOM     13  C   UNL     1     -15.784   2.217 -11.476  1.00  0.00    -0.000 C 
BRANCH  13  14
ATOM     14  C   UNL     1     -17.282   1.886 -11.355  1.00  0.00    -0.000 C 
BRANCH  14  15
ATOM     15  C   UNL     1     -17.576   0.391 -11.550  1.00  0.00    -0.003 C 
ATOM     16  C   UNL     1     -17.997   0.100 -12.987  1.00  0.00     0.004 C 
ENDBRANCH  14  15
ENDBRANCH  13  14
ENDBRANCH  12  13
ENDBRANCH  11  12
ENDBRANCH  10  11
ENDBRANCH   1  10
TORSDOF 12
ENDMDL
MODEL 6
REMARK VINA RESULT:    -5.418      2.756      5.810
REMARK INTER + INTRA:         -10.777
REMARK INTER:                  -9.246
REMARK INTRA:                  -1.532
REMARK UNBOUND:                -1.559
REMARK SMILES CCCCCCCCCCCCCC(=O)[O-]
REMARK SMILES IDX 8 1 9 2 10 3 11 4 12 5 13 6 14 7 15 8 16 9 7 10 6 11 5 12
REMARK SMILES IDX 4 13 3 14 2 15 1 16
REMARK H PARENT
REMARK Flexibility Score: inf
ROOT
ATOM      1  C   UNL     1     -17.922  -1.024 -15.553  1.00  0.00     0.000 C 
ENDROOT
BRANCH   1   2
ATOM      2  C   UNL     1     -17.764  -2.098 -16.643  1.00  0.00     0.000 C 
BRANCH   2   3
ATOM      3  C   UNL     1     -16.442  -1.966 -17.414  1.00  0.00     0.000 C 
BRANCH   3   4
ATOM      4  C   UNL     1     -16.649  -1.518 -18.872  1.00  0.00     0.000 C 
BRANCH   4   5
ATOM      5  C   UNL     1     -16.870  -0.000 -19.004  1.00  0.00     0.006 C 
BRANCH   5   6
ATOM      6  C   UNL     1     -15.697   0.754 -19.648  1.00  0.00     0.053 C 
BRANCH   6   7
ATOM      7  C   UNL     1     -14.745   1.294 -18.625  1.00  0.00     0.041 C 
ATOM      8  O   UNL     1     -14.730   2.526 -18.362  1.00  0.00    -0.550 OA
ATOM      9  O   UNL     1     -13.851   0.444 -17.988  1.00  0.00    -0.550 OA
ENDBRANCH   6   7
ENDBRANCH   5   6
ENDBRANCH   4   5
ENDBRANCH   3   4
ENDBRANCH   2   3
ENDBRANCH   1   2
BRANCH   1  10
ATOM     10  C   UNL     1     -16.578  -0.394 -15.156  1.00  0.00     0.000 C 
BRANCH  10  11
ATOM     11  C   UNL     1     -16.543   1.126 -15.397  1.00  0.00    -0.000 C 
BRANCH  11  12
ATOM     12  C   UNL     1     -15.275   1.781 -14.807  1.00  0.00    -0.000 C 
BRANCH  12  13
ATOM     13  C   UNL     1     -15.540   2.603 -13.532  1.00  0.00    -0.000 C 
BRANCH  13  14
ATOM     14  C   UNL     1     -15.492   1.797 -12.222  1.00  0.00    -0.000 C 
BRANCH  14  15
ATOM     15  C   UNL     1     -16.789   1.909 -11.408  1.00  0.00    -0.003 C 
ATOM     16  C   UNL     1     -17.787   0.830 -11.819  1.00  0.00     0.004 C 
ENDBRANCH  14  15
ENDBRANCH  13  14
ENDBRANCH  12  13
ENDBRANCH  11  12
ENDBRANCH  10  11
ENDBRANCH   1  10
TORSDOF 12
ENDMDL
MODEL 7
REMARK VINA RESULT:    -5.383      1.254      3.273
REMARK INTER + INTRA:         -10.718
REMARK INTER:                  -9.107
REMARK INTRA:                  -1.611
REMARK UNBOUND:                -1.559
REMARK SMILES CCCCCCCCCCCCCC(=O)[O-]
REMARK SMILES IDX 8 1 9 2 10 3 11 4 12 5 13 6 14 7 15 8 16 9 7 10 6 11 5 12
REMARK SMILES IDX 4 13 3 14 2 15 1 16
REMARK H PARENT
REMARK Flexibility Score: inf
ROOT
ATOM      1  C   UNL     1     -14.577   3.351 -17.171  1.00  0.00     0.000 C 
ENDROOT
BRANCH   1   2
ATOM      2  C   UNL     1     -15.784   2.588 -16.598  1.00  0.00     0.000 C 
BRANCH   2   3
ATOM      3  C   UNL     1     -15.389   1.237 -15.982  1.00  0.00     0.000 C 
BRANCH   3   4
ATOM      4  C   UNL     1     -16.596   0.470 -15.413  1.00  0.00     0.000 C 
BRANCH   4   5
ATOM      5  C   UNL     1     -16.669   0.530 -13.876  1.00  0.00     0.006 C 
BRANCH   5   6
ATOM      6  C   UNL     1     -15.342   0.904 -13.197  1.00  0.00     0.053 C 
BRANCH   6   7
ATOM      7  C   UNL     1     -15.459   2.159 -12.387  1.00  0.00     0.041 C 
ATOM      8  O   UNL     1     -15.886   2.110 -11.202  1.00  0.00    -0.550 OA
ATOM      9  O   UNL     1     -15.132   3.386 -12.950  1.00  0.00    -0.550 OA
ENDBRANCH   6   7
ENDBRANCH   5   6
ENDBRANCH   4   5
ENDBRANCH   3   4
ENDBRANCH   2   3
ENDBRANCH   1   2
BRANCH   1  10
ATOM     10  C   UNL     1     -13.661   2.447 -18.012  1.00  0.00     0.000 C 
BRANCH  10  11
ATOM     11  C   UNL     1     -14.313   2.014 -19.336  1.00  0.00    -0.000 C 
BRANCH  11  12
ATOM     12  C   UNL     1     -14.088   0.515 -19.634  1.00  0.00    -0.000 C 
BRANCH  12  13
ATOM     13  C   UNL     1     -15.306  -0.370 -19.307  1.00  0.00    -0.000 C 
BRANCH  13  14
ATOM     14  C   UNL     1     -16.670   0.326 -19.461  1.00  0.00    -0.000 C 
BRANCH  14  15
ATOM     15  C   UNL     1     -17.804  -0.429 -18.753  1.00  0.00    -0.003 C 
ATOM     16  C   UNL     1     -17.400  -1.871 -18.458  1.00  0.00     0.004 C 
ENDBRANCH  14  15
ENDBRANCH  13  14
ENDBRANCH  12  13
ENDBRANCH  11  12
ENDBRANCH  10  11
ENDBRANCH   1  10
TORSDOF 12
ENDMDL
MODEL 8
REMARK VINA RESULT:    -5.382      1.253      3.082
REMARK INTER + INTRA:         -10.716
REMARK INTER:                  -9.514
REMARK INTRA:                  -1.202
REMARK UNBOUND:                -1.559
REMARK SMILES CCCCCCCCCCCCCC(=O)[O-]
REMARK SMILES IDX 8 1 9 2 10 3 11 4 12 5 13 6 14 7 15 8 16 9 7 10 6 11 5 12
REMARK SMILES IDX 4 13 3 14 2 15 1 16
REMARK H PARENT
REMARK Flexibility Score: inf
ROOT
ATOM      1  C   UNL     1     -15.324   2.968 -16.604  1.00  0.00     0.000 C 
ENDROOT
BRANCH   1   2
ATOM      2  C   UNL     1     -15.603   1.483 -16.316  1.00  0.00     0.000 C 
BRANCH   2   3
ATOM      3  C   UNL     1     -16.052   1.238 -14.868  1.00  0.00     0.000 C 
BRANCH   3   4
ATOM      4  C   UNL     1     -15.101   1.873 -13.837  1.00  0.00     0.000 C 
BRANCH   4   5
ATOM      5  C   UNL     1     -15.849   2.536 -12.667  1.00  0.00     0.006 C 
BRANCH   5   6
ATOM      6  C   UNL     1     -15.865   1.702 -11.376  1.00  0.00     0.053 C 
BRANCH   6   7
ATOM      7  C   UNL     1     -17.218   1.120 -11.099  1.00  0.00     0.041 C 
ATOM      8  O   UNL     1     -18.090   1.084 -12.007  1.00  0.00    -0.550 OA
ATOM      9  O   UNL     1     -17.528   0.652  -9.829  1.00  0.00    -0.550 OA
ENDBRANCH   6   7
ENDBRANCH   5   6
ENDBRANCH   4   5
ENDBRANCH   3   4
ENDBRANCH   2   3
ENDBRANCH   1   2
BRANCH   1  10
ATOM     10  C   UNL     1     -14.307   3.161 -17.740  1.00  0.00     0.000 C 
BRANCH  10  11
ATOM     11  C   UNL     1     -14.064   1.870 -18.542  1.00  0.00    -0.000 C 
BRANCH  11  12
ATOM     12  C   UNL     1     -14.660   1.947 -19.965  1.00  0.00    -0.000 C 
BRANCH  12  13
ATOM     13  C   UNL     1     -15.271   0.619 -20.452  1.00  0.00    -0.000 C 
BRANCH  13  14
ATOM     14  C   UNL     1     -15.330  -0.493 -19.389  1.00  0.00    -0.000 C 
BRANCH  14  15
ATOM     15  C   UNL     1     -16.752  -1.031 -19.173  1.00  0.00    -0.003 C 
ATOM     16  C   UNL     1     -17.751   0.113 -19.019  1.00  0.00     0.004 C 
ENDBRANCH  14  15
ENDBRANCH  13  14
ENDBRANCH  12  13
ENDBRANCH  11  12
ENDBRANCH  10  11
ENDBRANCH   1  10
TORSDOF 12
ENDMDL
MODEL 9
REMARK VINA RESULT:    -5.368      1.445      3.629
REMARK INTER + INTRA:         -10.693
REMARK INTER:                  -9.030
REMARK INTRA:                  -1.664
REMARK UNBOUND:                -1.559
REMARK SMILES CCCCCCCCCCCCCC(=O)[O-]
REMARK SMILES IDX 8 1 9 2 10 3 11 4 12 5 13 6 14 7 15 8 16 9 7 10 6 11 5 12
REMARK SMILES IDX 4 13 3 14 2 15 1 16
REMARK H PARENT
REMARK Flexibility Score: inf
ROOT
ATOM      1  C   UNL     1     -14.748   2.088 -19.085  1.00  0.00     0.000 C 
ENDROOT
BRANCH   1   2
ATOM      2  C   UNL     1     -13.656   3.145 -18.842  1.00  0.00     0.000 C 
BRANCH   2   3
ATOM      3  C   UNL     1     -13.696   3.715 -17.416  1.00  0.00     0.000 C 
BRANCH   3   4
ATOM      4  C   UNL     1     -13.749   2.616 -16.339  1.00  0.00     0.000 C 
BRANCH   4   5
ATOM      5  C   UNL     1     -15.067   2.627 -15.543  1.00  0.00     0.006 C 
BRANCH   5   6
ATOM      6  C   UNL     1     -15.729   1.248 -15.401  1.00  0.00     0.053 C 
BRANCH   6   7
ATOM      7  C   UNL     1     -15.671   0.738 -13.993  1.00  0.00     0.041 C 
ATOM      8  O   UNL     1     -16.579  -0.018 -13.556  1.00  0.00    -0.550 OA
ATOM      9  O   UNL     1     -14.635   1.126 -13.153  1.00  0.00    -0.550 OA
ENDBRANCH   6   7
ENDBRANCH   5   6
ENDBRANCH   4   5
ENDBRANCH   3   4
ENDBRANCH   2   3
ENDBRANCH   1   2
BRANCH   1  10
ATOM     10  C   UNL     1     -14.386   1.130 -20.231  1.00  0.00     0.000 C 
BRANCH  10  11
ATOM     11  C   UNL     1     -13.687  -0.148 -19.735  1.00  0.00    -0.000 C 
BRANCH  11  12
ATOM     12  C   UNL     1     -14.051  -0.482 -18.272  1.00  0.00    -0.000 C 
BRANCH  12  13
ATOM     13  C   UNL     1     -14.762  -1.839 -18.105  1.00  0.00    -0.000 C 
BRANCH  13  14
ATOM     14  C   UNL     1     -16.249  -1.746 -17.719  1.00  0.00    -0.000 C 
BRANCH  14  15
ATOM     15  C   UNL     1     -17.164  -1.540 -18.934  1.00  0.00    -0.003 C 
ATOM     16  C   UNL     1     -17.747  -0.129 -18.945  1.00  0.00     0.004 C 
ENDBRANCH  14  15
ENDBRANCH  13  14
ENDBRANCH  12  13
ENDBRANCH  11  12
ENDBRANCH  10  11
ENDBRANCH   1  10
TORSDOF 12
ENDMDL
