MODEL 1
REMARK VINA RESULT:    -3.760      0.000      0.000
REMARK INTER + INTRA:          -5.124
REMARK INTER:                  -4.859
REMARK INTRA:                  -0.265
REMARK UNBOUND:                -0.265
REMARK SMILES CCCCCCC(=O)[O-]
REMARK SMILES IDX 5 1 6 2 7 3 8 4 9 5 4 6 3 7 2 8 1 9
REMARK H PARENT
REMARK Flexibility Score: inf
ROOT
ATOM      1  C   UNL     1      -2.814  44.104  22.433  1.00  0.00     0.006 C 
ENDROOT
BRANCH   1   2
ATOM      2  C   UNL     1      -2.730  45.082  23.612  1.00  0.00     0.053 C 
BRANCH   2   3
ATOM      3  C   UNL     1      -3.840  46.087  23.579  1.00  0.00     0.041 C 
ATOM      4  O   UNL     1      -3.647  47.259  24.000  1.00  0.00    -0.550 OA
ATOM      5  O   UNL     1      -5.096  45.721  23.115  1.00  0.00    -0.550 OA
ENDBRANCH   2   3
ENDBRANCH   1   2
BRANCH   1   6
ATOM      6  C   UNL     1      -1.690  44.330  21.410  1.00  0.00     0.000 C 
BRANCH   6   7
ATOM      7  C   UNL     1      -2.238  44.310  19.979  1.00  0.00    -0.000 C 
BRANCH   7   8
ATOM      8  C   UNL     1      -3.528  45.131  19.872  1.00  0.00    -0.003 C 
ATOM      9  C   UNL     1      -4.403  44.636  18.725  1.00  0.00     0.004 C 
ENDBRANCH   7   8
ENDBRANCH   6   7
ENDBRANCH   1   6
TORSDOF 5
ENDMDL
MODEL 2
REMARK VINA RESULT:    -3.745      2.338      4.053
REMARK INTER + INTRA:          -5.105
REMARK INTER:                  -4.845
REMARK INTRA:                  -0.260
REMARK UNBOUND:                -0.265
REMARK SMILES CCCCCCC(=O)[O-]
REMARK SMILES IDX 5 1 6 2 7 3 8 4 9 5 4 6 3 7 2 8 1 9
REMARK H PARENT
REMARK Flexibility Score: inf
ROOT
ATOM      1  C   UNL     1      -2.387  44.443  20.627  1.00  0.00     0.006 C 
ENDROOT
BRANCH   1   2
ATOM      2  C   UNL     1      -3.630  45.215  20.166  1.00  0.00     0.053 C 
BRANCH   2   3
ATOM      3  C   UNL     1      -4.603  44.327  19.454  1.00  0.00     0.041 C 
ATOM      4  O   UNL     1      -4.603  44.268  18.195  1.00  0.00    -0.550 OA
ATOM      5  O   UNL     1      -5.530  43.590  20.178  1.00  0.00    -0.550 OA
ENDBRANCH   2   3
ENDBRANCH   1   2
BRANCH   1   6
ATOM      6  C   UNL     1      -2.162  44.554  22.143  1.00  0.00     0.000 C 
BRANCH   6   7
ATOM      7  C   UNL     1      -3.495  44.693  22.887  1.00  0.00    -0.000 C 
BRANCH   7   8
ATOM      8  C   UNL     1      -3.464  45.882  23.854  1.00  0.00    -0.003 C 
ATOM      9  C   UNL     1      -4.118  47.113  23.234  1.00  0.00     0.004 C 
ENDBRANCH   7   8
ENDBRANCH   6   7
ENDBRANCH   1   6
TORSDOF 5
ENDMDL
MODEL 3
REMARK VINA RESULT:    -3.731      2.538      3.480
REMARK INTER + INTRA:          -5.086
REMARK INTER:                  -4.705
REMARK INTRA:                  -0.381
REMARK UNBOUND:                -0.265
REMARK SMILES CCCCCCC(=O)[O-]
REMARK SMILES IDX 5 1 6 2 7 3 8 4 9 5 4 6 3 7 2 8 1 9
REMARK H PARENT
REMARK Flexibility Score: inf
ROOT
ATOM      1  C   UNL     1      -2.007  43.966  22.437  1.00  0.00     0.006 C 
ENDROOT
BRANCH   1   2
ATOM      2  C   UNL     1      -1.342  44.467  23.725  1.00  0.00     0.053 C 
BRANCH   2   3
ATOM      3  C   UNL     1      -1.739  43.643  24.911  1.00  0.00     0.041 C 
ATOM      4  O   UNL     1      -1.004  42.696  25.300  1.00  0.00    -0.550 OA
ATOM      5  O   UNL     1      -2.936  43.899  25.566  1.00  0.00    -0.550 OA
ENDBRANCH   2   3
ENDBRANCH   1   2
BRANCH   1   6
ATOM      6  C   UNL     1      -2.865  45.050  21.766  1.00  0.00     0.000 C 
BRANCH   6   7
ATOM      7  C   UNL     1      -4.354  44.828  22.053  1.00  0.00    -0.000 C 
BRANCH   7   8
ATOM      8  C   UNL     1      -4.835  45.731  23.195  1.00  0.00    -0.003 C 
ATOM      9  C   UNL     1      -4.057  47.042  23.227  1.00  0.00     0.004 C 
ENDBRANCH   7   8
ENDBRANCH   6   7
ENDBRANCH   1   6
TORSDOF 5
ENDMDL
MODEL 4
REMARK VINA RESULT:    -3.710      3.088      4.037
REMARK INTER + INTRA:          -5.059
REMARK INTER:                  -4.798
REMARK INTRA:                  -0.261
REMARK UNBOUND:                -0.265
REMARK SMILES CCCCCCC(=O)[O-]
REMARK SMILES IDX 5 1 6 2 7 3 8 4 9 5 4 6 3 7 2 8 1 9
REMARK H PARENT
REMARK Flexibility Score: inf
ROOT
ATOM      1  C   UNL     1      -1.597  44.348  22.224  1.00  0.00     0.006 C 
ENDROOT
BRANCH   1   2
ATOM      2  C   UNL     1      -1.379  44.584  23.725  1.00  0.00     0.053 C 
BRANCH   2   3
ATOM      3  C   UNL     1      -0.361  43.643  24.293  1.00  0.00     0.041 C 
ATOM      4  O   UNL     1      -0.652  42.915  25.278  1.00  0.00    -0.550 OA
ATOM      5  O   UNL     1       0.918  43.595  23.755  1.00  0.00    -0.550 OA
ENDBRANCH   2   3
ENDBRANCH   1   2
BRANCH   1   6
ATOM      6  C   UNL     1      -2.983  44.817  21.757  1.00  0.00     0.000 C 
BRANCH   6   7
ATOM      7  C   UNL     1      -4.025  44.642  22.867  1.00  0.00    -0.000 C 
BRANCH   7   8
ATOM      8  C   UNL     1      -4.880  45.905  23.023  1.00  0.00    -0.003 C 
ATOM      9  C   UNL     1      -4.018  47.116  23.362  1.00  0.00     0.004 C 
ENDBRANCH   7   8
ENDBRANCH   6   7
ENDBRANCH   1   6
TORSDOF 5
ENDMDL
MODEL 5
REMARK VINA RESULT:    -3.698      2.396      4.199
REMARK INTER + INTRA:          -5.045
REMARK INTER:                  -4.826
REMARK INTRA:                  -0.218
REMARK UNBOUND:                -0.265
REMARK SMILES CCCCCCC(=O)[O-]
REMARK SMILES IDX 5 1 6 2 7 3 8 4 9 5 4 6 3 7 2 8 1 9
REMARK H PARENT
REMARK Flexibility Score: inf
ROOT
ATOM      1  C   UNL     1      -3.559  45.288  21.703  1.00  0.00     0.006 C 
ENDROOT
BRANCH   1   2
ATOM      2  C   UNL     1      -3.325  44.974  20.220  1.00  0.00     0.053 C 
BRANCH   2   3
ATOM      3  C   UNL     1      -4.552  44.408  19.572  1.00  0.00     0.041 C 
ATOM      4  O   UNL     1      -4.715  44.509  18.327  1.00  0.00    -0.550 OA
ATOM      5  O   UNL     1      -5.529  43.800  20.348  1.00  0.00    -0.550 OA
ENDBRANCH   2   3
ENDBRANCH   1   2
BRANCH   1   6
ATOM      6  C   UNL     1      -2.423  44.765  22.595  1.00  0.00     0.000 C 
BRANCH   6   7
ATOM      7  C   UNL     1      -1.333  44.088  21.755  1.00  0.00    -0.000 C 
BRANCH   7   8
ATOM      8  C   UNL     1      -0.143  43.674  22.629  1.00  0.00    -0.003 C 
ATOM      9  C   UNL     1      -0.439  43.901  24.107  1.00  0.00     0.004 C 
ENDBRANCH   7   8
ENDBRANCH   6   7
ENDBRANCH   1   6
TORSDOF 5
ENDMDL
MODEL 6
REMARK VINA RESULT:    -3.679      1.539      1.624
REMARK INTER + INTRA:          -5.020
REMARK INTER:                  -4.816
REMARK INTRA:                  -0.204
REMARK UNBOUND:                -0.265
REMARK SMILES CCCCCCC(=O)[O-]
REMARK SMILES IDX 5 1 6 2 7 3 8 4 9 5 4 6 3 7 2 8 1 9
REMARK H PARENT
REMARK Flexibility Score: inf
ROOT
ATOM      1  C   UNL     1      -3.603  45.575  22.239  1.00  0.00     0.006 C 
ENDROOT
BRANCH   1   2
ATOM      2  C   UNL     1      -3.471  45.973  23.715  1.00  0.00     0.053 C 
BRANCH   2   3
ATOM      3  C   UNL     1      -3.873  44.856  24.629  1.00  0.00     0.041 C 
ATOM      4  O   UNL     1      -2.994  44.154  25.196  1.00  0.00    -0.550 OA
ATOM      5  O   UNL     1      -5.216  44.569  24.828  1.00  0.00    -0.550 OA
ENDBRANCH   2   3
ENDBRANCH   1   2
BRANCH   1   6
ATOM      6  C   UNL     1      -2.462  44.655  21.781  1.00  0.00     0.000 C 
BRANCH   6   7
ATOM      7  C   UNL     1      -2.521  44.420  20.267  1.00  0.00    -0.000 C 
BRANCH   7   8
ATOM      8  C   UNL     1      -3.622  45.268  19.621  1.00  0.00    -0.003 C 
ATOM      9  C   UNL     1      -4.372  44.478  18.553  1.00  0.00     0.004 C 
ENDBRANCH   7   8
ENDBRANCH   6   7
ENDBRANCH   1   6
TORSDOF 5
ENDMDL
MODEL 7
REMARK VINA RESULT:    -3.652      1.616      3.222
REMARK INTER + INTRA:          -4.985
REMARK INTER:                  -4.727
REMARK INTRA:                  -0.258
REMARK UNBOUND:                -0.265
REMARK SMILES CCCCCCC(=O)[O-]
REMARK SMILES IDX 5 1 6 2 7 3 8 4 9 5 4 6 3 7 2 8 1 9
REMARK H PARENT
REMARK Flexibility Score: inf
ROOT
ATOM      1  C   UNL     1      -3.107  44.175  21.994  1.00  0.00     0.006 C 
ENDROOT
BRANCH   1   2
ATOM      2  C   UNL     1      -3.924  45.458  21.793  1.00  0.00     0.053 C 
BRANCH   2   3
ATOM      3  C   UNL     1      -4.373  46.040  23.097  1.00  0.00     0.041 C 
ATOM      4  O   UNL     1      -4.403  47.289  23.257  1.00  0.00    -0.550 OA
ATOM      5  O   UNL     1      -4.727  45.203  24.147  1.00  0.00    -0.550 OA
ENDBRANCH   2   3
ENDBRANCH   1   2
BRANCH   1   6
ATOM      6  C   UNL     1      -1.691  44.290  21.410  1.00  0.00     0.000 C 
BRANCH   6   7
ATOM      7  C   UNL     1      -0.635  43.876  22.441  1.00  0.00    -0.000 C 
BRANCH   7   8
ATOM      8  C   UNL     1      -1.071  44.262  23.860  1.00  0.00    -0.003 C 
ATOM      9  C   UNL     1      -0.688  43.182  24.867  1.00  0.00     0.004 C 
ENDBRANCH   7   8
ENDBRANCH   6   7
ENDBRANCH   1   6
TORSDOF 5
ENDMDL
MODEL 8
REMARK VINA RESULT:    -3.528      2.561      2.927
REMARK INTER + INTRA:          -4.824
REMARK INTER:                  -4.656
REMARK INTRA:                  -0.168
REMARK UNBOUND:                -0.265
REMARK SMILES CCCCCCC(=O)[O-]
REMARK SMILES IDX 5 1 6 2 7 3 8 4 9 5 4 6 3 7 2 8 1 9
REMARK H PARENT
REMARK Flexibility Score: inf
ROOT
ATOM      1  C   UNL     1      -1.729  44.325  21.983  1.00  0.00     0.006 C 
ENDROOT
BRANCH   1   2
ATOM      2  C   UNL     1      -1.990  44.809  23.416  1.00  0.00     0.053 C 
BRANCH   2   3
ATOM      3  C   UNL     1      -1.314  43.936  24.428  1.00  0.00     0.041 C 
ATOM      4  O   UNL     1      -1.958  43.496  25.417  1.00  0.00    -0.550 OA
ATOM      5  O   UNL     1       0.036  43.637  24.297  1.00  0.00    -0.550 OA
ENDBRANCH   2   3
ENDBRANCH   1   2
BRANCH   1   6
ATOM      6  C   UNL     1      -2.829  44.771  21.009  1.00  0.00     0.000 C 
BRANCH   6   7
ATOM      7  C   UNL     1      -4.212  44.332  21.504  1.00  0.00    -0.000 C 
BRANCH   7   8
ATOM      8  C   UNL     1      -5.109  43.915  20.332  1.00  0.00    -0.003 C 
ATOM      9  C   UNL     1      -4.560  44.432  19.006  1.00  0.00     0.004 C 
ENDBRANCH   7   8
ENDBRANCH   6   7
ENDBRANCH   1   6
TORSDOF 5
ENDMDL
MODEL 9
REMARK VINA RESULT:    -3.416      1.975      3.040
REMARK INTER + INTRA:          -4.679
REMARK INTER:                  -4.332
REMARK INTRA:                  -0.347
REMARK UNBOUND:                -0.265
REMARK SMILES CCCCCCC(=O)[O-]
REMARK SMILES IDX 5 1 6 2 7 3 8 4 9 5 4 6 3 7 2 8 1 9
REMARK H PARENT
REMARK Flexibility Score: inf
ROOT
ATOM      1  C   UNL     1      -3.627  45.544  22.322  1.00  0.00     0.006 C 
ENDROOT
BRANCH   1   2
ATOM      2  C   UNL     1      -3.473  45.947  23.795  1.00  0.00     0.053 C 
BRANCH   2   3
ATOM      3  C   UNL     1      -3.980  44.882  24.718  1.00  0.00     0.041 C 
ATOM      4  O   UNL     1      -5.215  44.642  24.790  1.00  0.00    -0.550 OA
ATOM      5  O   UNL     1      -3.094  44.178  25.521  1.00  0.00    -0.550 OA
ENDBRANCH   2   3
ENDBRANCH   1   2
BRANCH   1   6
ATOM      6  C   UNL     1      -2.983  44.183  22.021  1.00  0.00     0.000 C 
BRANCH   6   7
ATOM      7  C   UNL     1      -1.769  44.341  21.098  1.00  0.00    -0.000 C 
BRANCH   7   8
ATOM      8  C   UNL     1      -0.550  43.602  21.662  1.00  0.00    -0.003 C 
ATOM      9  C   UNL     1      -0.427  43.809  23.168  1.00  0.00     0.004 C 
ENDBRANCH   7   8
ENDBRANCH   6   7
ENDBRANCH   1   6
TORSDOF 5
ENDMDL
