MODEL 1
REMARK VINA RESULT:    -4.425      0.000      0.000
REMARK INTER + INTRA:          -4.555
REMARK INTER:                  -4.555
REMARK INTRA:                   0.000
REMARK UNBOUND:                 0.000
REMARK SMILES Cc1cccc(O)c1C
REMARK SMILES IDX 1 1 2 2 8 3 6 4 5 5 4 6 3 7 9 8 7 9
REMARK H PARENT 7 10
REMARK Flexibility Score: inf
ROOT
ATOM      1  C   UNL     1     -11.646  83.336  -8.696  1.00  0.00     0.045 C 
ATOM      2  C   UNL     1     -12.028  82.841 -10.068  1.00  0.00    -0.045 A 
ATOM      3  C   UNL     1     -13.278  83.162 -10.666  1.00  0.00    -0.006 A 
ATOM      4  C   UNL     1     -13.571  82.661 -11.960  1.00  0.00     0.118 A 
ATOM      5  C   UNL     1     -12.638  81.864 -12.630  1.00  0.00     0.046 A 
ATOM      6  C   UNL     1     -11.418  81.553 -12.039  1.00  0.00     0.004 A 
ATOM      7  C   UNL     1     -11.113  82.036 -10.769  1.00  0.00     0.004 A 
ATOM      8  C   UNL     1     -14.301  84.023  -9.959  1.00  0.00     0.048 C 
ENDROOT
BRANCH   4   9
ATOM      9  O   UNL     1     -14.778  82.936 -12.608  1.00  0.00    -0.508 OA
ATOM     10  H   UNL     1     -15.394  83.693 -12.344  1.00  0.00     0.293 HD
ENDBRANCH   4   9
TORSDOF 1
ENDMDL
MODEL 2
REMARK VINA RESULT:    -4.319      1.019      1.453
REMARK INTER + INTRA:          -4.445
REMARK INTER:                  -4.445
REMARK INTRA:                   0.000
REMARK UNBOUND:                 0.000
REMARK SMILES Cc1cccc(O)c1C
REMARK SMILES IDX 1 1 2 2 8 3 6 4 5 5 4 6 3 7 9 8 7 9
REMARK H PARENT 7 10
REMARK Flexibility Score: inf
ROOT
ATOM      1  C   UNL     1     -10.131  82.317  -9.539  1.00  0.00     0.045 C 
ATOM      2  C   UNL     1     -11.327  82.397 -10.452  1.00  0.00    -0.045 A 
ATOM      3  C   UNL     1     -12.479  83.164 -10.123  1.00  0.00    -0.006 A 
ATOM      4  C   UNL     1     -13.568  83.193 -11.031  1.00  0.00     0.118 A 
ATOM      5  C   UNL     1     -13.501  82.476 -12.229  1.00  0.00     0.046 A 
ATOM      6  C   UNL     1     -12.371  81.728 -12.544  1.00  0.00     0.004 A 
ATOM      7  C   UNL     1     -11.292  81.687 -11.665  1.00  0.00     0.004 A 
ATOM      8  C   UNL     1     -12.573  83.948  -8.833  1.00  0.00     0.048 C 
ENDROOT
BRANCH   4   9
ATOM      9  O   UNL     1     -14.731  83.924 -10.774  1.00  0.00    -0.508 OA
ATOM     10  H   UNL     1     -15.192  84.501 -11.464  1.00  0.00     0.293 HD
ENDBRANCH   4   9
TORSDOF 1
ENDMDL
MODEL 3
REMARK VINA RESULT:    -3.841      8.351      9.464
REMARK INTER + INTRA:          -3.953
REMARK INTER:                  -3.953
REMARK INTRA:                   0.000
REMARK UNBOUND:                 0.000
REMARK SMILES Cc1cccc(O)c1C
REMARK SMILES IDX 1 1 2 2 8 3 6 4 5 5 4 6 3 7 9 8 7 9
REMARK H PARENT 7 10
REMARK Flexibility Score: inf
ROOT
ATOM      1  C   UNL     1      -6.039  86.517 -10.239  1.00  0.00     0.045 C 
ATOM      2  C   UNL     1      -5.172  85.365  -9.797  1.00  0.00    -0.045 A 
ATOM      3  C   UNL     1      -4.024  85.554  -8.979  1.00  0.00    -0.006 A 
ATOM      4  C   UNL     1      -3.256  84.424  -8.601  1.00  0.00     0.118 A 
ATOM      5  C   UNL     1      -3.628  83.148  -9.031  1.00  0.00     0.046 A 
ATOM      6  C   UNL     1      -4.752  82.970  -9.832  1.00  0.00     0.004 A 
ATOM      7  C   UNL     1      -5.520  84.068 -10.213  1.00  0.00     0.004 A 
ATOM      8  C   UNL     1      -3.603  86.926  -8.501  1.00  0.00     0.048 C 
ENDROOT
BRANCH   4   9
ATOM      9  O   UNL     1      -2.116  84.534  -7.800  1.00  0.00    -0.508 OA
ATOM     10  H   UNL     1      -2.148  84.670  -6.798  1.00  0.00     0.293 HD
ENDBRANCH   4   9
TORSDOF 1
ENDMDL
MODEL 4
REMARK VINA RESULT:    -3.840      1.038      2.815
REMARK INTER + INTRA:          -3.952
REMARK INTER:                  -3.952
REMARK INTRA:                   0.000
REMARK UNBOUND:                 0.000
REMARK SMILES Cc1cccc(O)c1C
REMARK SMILES IDX 1 1 2 2 8 3 6 4 5 5 4 6 3 7 9 8 7 9
REMARK H PARENT 7 10
REMARK Flexibility Score: inf
ROOT
ATOM      1  C   UNL     1     -10.295  82.218  -9.408  1.00  0.00     0.045 C 
ATOM      2  C   UNL     1     -11.610  82.947  -9.523  1.00  0.00    -0.045 A 
ATOM      3  C   UNL     1     -12.490  82.748 -10.623  1.00  0.00    -0.006 A 
ATOM      4  C   UNL     1     -13.711  83.468 -10.665  1.00  0.00     0.118 A 
ATOM      5  C   UNL     1     -14.036  84.357  -9.636  1.00  0.00     0.046 A 
ATOM      6  C   UNL     1     -13.171  84.546  -8.564  1.00  0.00     0.004 A 
ATOM      7  C   UNL     1     -11.967  83.848  -8.505  1.00  0.00     0.004 A 
ATOM      8  C   UNL     1     -12.159  81.792 -11.746  1.00  0.00     0.048 C 
ENDROOT
BRANCH   4   9
ATOM      9  O   UNL     1     -14.623  83.324 -11.714  1.00  0.00    -0.508 OA
ATOM     10  H   UNL     1     -15.350  82.622 -11.729  1.00  0.00     0.293 HD
ENDBRANCH   4   9
TORSDOF 1
ENDMDL
MODEL 5
REMARK VINA RESULT:    -3.635      8.165      9.242
REMARK INTER + INTRA:          -3.742
REMARK INTER:                  -3.742
REMARK INTRA:                   0.000
REMARK UNBOUND:                 0.000
REMARK SMILES Cc1cccc(O)c1C
REMARK SMILES IDX 1 1 2 2 8 3 6 4 5 5 4 6 3 7 9 8 7 9
REMARK H PARENT 7 10
REMARK Flexibility Score: inf
ROOT
ATOM      1  C   UNL     1      -3.219  86.716  -8.251  1.00  0.00     0.045 C 
ATOM      2  C   UNL     1      -3.500  85.250  -8.457  1.00  0.00    -0.045 A 
ATOM      3  C   UNL     1      -4.482  84.791  -9.379  1.00  0.00    -0.006 A 
ATOM      4  C   UNL     1      -4.693  83.396  -9.522  1.00  0.00     0.118 A 
ATOM      5  C   UNL     1      -3.942  82.493  -8.764  1.00  0.00     0.046 A 
ATOM      6  C   UNL     1      -2.984  82.948  -7.864  1.00  0.00     0.004 A 
ATOM      7  C   UNL     1      -2.763  84.315  -7.710  1.00  0.00     0.004 A 
ATOM      8  C   UNL     1      -5.305  85.750 -10.209  1.00  0.00     0.048 C 
ENDROOT
BRANCH   4   9
ATOM      9  O   UNL     1      -5.640  82.874 -10.406  1.00  0.00    -0.508 OA
ATOM     10  H   UNL     1      -5.529  81.990 -10.885  1.00  0.00     0.293 HD
ENDBRANCH   4   9
TORSDOF 1
ENDMDL
MODEL 6
REMARK VINA RESULT:    -3.568      9.006     10.205
REMARK INTER + INTRA:          -3.672
REMARK INTER:                  -3.672
REMARK INTRA:                   0.000
REMARK UNBOUND:                 0.000
REMARK SMILES Cc1cccc(O)c1C
REMARK SMILES IDX 1 1 2 2 8 3 6 4 5 5 4 6 3 7 9 8 7 9
REMARK H PARENT 7 10
REMARK Flexibility Score: inf
ROOT
ATOM      1  C   UNL     1      -3.966  89.125  -7.803  1.00  0.00     0.045 C 
ATOM      2  C   UNL     1      -4.269  87.805  -8.466  1.00  0.00    -0.045 A 
ATOM      3  C   UNL     1      -3.352  86.718  -8.439  1.00  0.00    -0.006 A 
ATOM      4  C   UNL     1      -3.704  85.505  -9.083  1.00  0.00     0.118 A 
ATOM      5  C   UNL     1      -4.936  85.389  -9.732  1.00  0.00     0.046 A 
ATOM      6  C   UNL     1      -5.828  86.456  -9.755  1.00  0.00     0.004 A 
ATOM      7  C   UNL     1      -5.500  87.656  -9.128  1.00  0.00     0.004 A 
ATOM      8  C   UNL     1      -2.014  86.821  -7.741  1.00  0.00     0.048 C 
ENDROOT
BRANCH   4   9
ATOM      9  O   UNL     1      -2.854  84.397  -9.097  1.00  0.00    -0.508 OA
ATOM     10  H   UNL     1      -3.182  83.441  -9.120  1.00  0.00     0.293 HD
ENDBRANCH   4   9
TORSDOF 1
ENDMDL
MODEL 7
REMARK VINA RESULT:    -3.527      9.081     10.373
REMARK INTER + INTRA:          -3.630
REMARK INTER:                  -3.630
REMARK INTRA:                   0.000
REMARK UNBOUND:                 0.000
REMARK SMILES Cc1cccc(O)c1C
REMARK SMILES IDX 1 1 2 2 8 3 6 4 5 5 4 6 3 7 9 8 7 9
REMARK H PARENT 7 10
REMARK Flexibility Score: inf
ROOT
ATOM      1  C   UNL     1      -6.001  88.393  -9.176  1.00  0.00     0.045 C 
ATOM      2  C   UNL     1      -4.752  87.659  -8.762  1.00  0.00    -0.045 A 
ATOM      3  C   UNL     1      -4.479  86.330  -9.191  1.00  0.00    -0.006 A 
ATOM      4  C   UNL     1      -3.283  85.701  -8.762  1.00  0.00     0.118 A 
ATOM      5  C   UNL     1      -2.391  86.384  -7.930  1.00  0.00     0.046 A 
ATOM      6  C   UNL     1      -2.664  87.683  -7.514  1.00  0.00     0.004 A 
ATOM      7  C   UNL     1      -3.834  88.318  -7.925  1.00  0.00     0.004 A 
ATOM      8  C   UNL     1      -5.429  85.573 -10.091  1.00  0.00     0.048 C 
ENDROOT
BRANCH   4   9
ATOM      9  O   UNL     1      -2.949  84.399  -9.143  1.00  0.00    -0.508 OA
ATOM     10  H   UNL     1      -2.388  83.777  -8.576  1.00  0.00     0.293 HD
ENDBRANCH   4   9
TORSDOF 1
ENDMDL
MODEL 8
REMARK VINA RESULT:    -3.496      1.989      2.933
REMARK INTER + INTRA:          -3.598
REMARK INTER:                  -3.598
REMARK INTRA:                   0.000
REMARK UNBOUND:                 0.000
REMARK SMILES Cc1cccc(O)c1C
REMARK SMILES IDX 1 1 2 2 8 3 6 4 5 5 4 6 3 7 9 8 7 9
REMARK H PARENT 7 10
REMARK Flexibility Score: inf
ROOT
ATOM      1  C   UNL     1     -14.232  84.330  -9.423  1.00  0.00     0.045 C 
ATOM      2  C   UNL     1     -13.271  83.405 -10.125  1.00  0.00    -0.045 A 
ATOM      3  C   UNL     1     -11.997  83.084  -9.580  1.00  0.00    -0.006 A 
ATOM      4  C   UNL     1     -11.145  82.205 -10.296  1.00  0.00     0.118 A 
ATOM      5  C   UNL     1     -11.559  81.668 -11.518  1.00  0.00     0.046 A 
ATOM      6  C   UNL     1     -12.806  81.987 -12.045  1.00  0.00     0.004 A 
ATOM      7  C   UNL     1     -13.657  82.848 -11.357  1.00  0.00     0.004 A 
ATOM      8  C   UNL     1     -11.529  83.652  -8.260  1.00  0.00     0.048 C 
ENDROOT
BRANCH   4   9
ATOM      9  O   UNL     1      -9.880  81.846  -9.823  1.00  0.00    -0.508 OA
ATOM     10  H   UNL     1      -9.195  81.351 -10.378  1.00  0.00     0.293 HD
ENDBRANCH   4   9
TORSDOF 1
ENDMDL
