MODEL 1
REMARK VINA RESULT:    -4.617      0.000      0.000
REMARK INTER + INTRA:          -9.638
REMARK INTER:                  -8.397
REMARK INTRA:                  -1.241
REMARK UNBOUND:                -1.241
REMARK SMILES CCCCCC=CCC=CCCCCCCCC(=O)[O-]
REMARK SMILES IDX 11 1 12 2 13 3 14 4 15 5 16 6 17 7 18 8 19 9 20 10 10 11
REMARK SMILES IDX 9 12 8 13 7 14 6 15 5 16 4 17 3 18 2 19 1 20
REMARK H PARENT
REMARK Flexibility Score: inf
ROOT
ATOM      1  C   UNL     1      30.282 167.295 160.435  1.00  0.00     0.027 C 
ENDROOT
BRANCH   1   2
ATOM      2  C   UNL     1      28.819 167.543 160.037  1.00  0.00     0.004 C 
BRANCH   2   3
ATOM      3  C   UNL     1      27.948 167.961 161.232  1.00  0.00     0.000 C 
BRANCH   3   4
ATOM      4  C   UNL     1      28.750 168.714 162.308  1.00  0.00     0.000 C 
BRANCH   4   5
ATOM      5  C   UNL     1      28.749 170.236 162.088  1.00  0.00     0.000 C 
BRANCH   5   6
ATOM      6  C   UNL     1      27.415 170.889 162.489  1.00  0.00     0.006 C 
BRANCH   6   7
ATOM      7  C   UNL     1      27.572 171.846 163.679  1.00  0.00     0.053 C 
BRANCH   7   8
ATOM      8  C   UNL     1      27.705 171.109 164.975  1.00  0.00     0.041 C 
ATOM      9  O   UNL     1      28.708 171.301 165.713  1.00  0.00    -0.550 OA
ATOM     10  O   UNL     1      26.736 170.190 165.357  1.00  0.00    -0.550 OA
ENDBRANCH   7   8
ENDBRANCH   6   7
ENDBRANCH   5   6
ENDBRANCH   4   5
ENDBRANCH   3   4
ENDBRANCH   2   3
ENDBRANCH   1   2
BRANCH   1  11
ATOM     11  C   UNL     1      31.130 167.034 159.222  1.00  0.00    -0.031 C 
ATOM     12  C   UNL     1      31.956 165.979 159.160  1.00  0.00    -0.027 C 
BRANCH  12  13
ATOM     13  C   UNL     1      32.792 165.704 157.942  1.00  0.00     0.054 C 
BRANCH  13  14
ATOM     14  C   UNL     1      33.156 166.983 157.230  1.00  0.00    -0.027 C 
ATOM     15  C   UNL     1      32.632 167.378 156.056  1.00  0.00    -0.031 C 
BRANCH  15  16
ATOM     16  C   UNL     1      31.650 166.571 155.245  1.00  0.00     0.027 C 
BRANCH  16  17
ATOM     17  C   UNL     1      30.343 167.350 155.035  1.00  0.00     0.004 C 
BRANCH  17  18
ATOM     18  C   UNL     1      30.540 168.874 155.099  1.00  0.00     0.000 C 
BRANCH  18  19
ATOM     19  C   UNL     1      29.239 169.695 155.059  1.00  0.00    -0.003 C 
ATOM     20  C   UNL     1      28.039 168.936 155.623  1.00  0.00     0.004 C 
ENDBRANCH  18  19
ENDBRANCH  17  18
ENDBRANCH  16  17
ENDBRANCH  15  16
ENDBRANCH  13  14
ENDBRANCH  12  13
ENDBRANCH   1  11
TORSDOF 14
ENDMDL
MODEL 2
REMARK VINA RESULT:    -4.557      1.846      3.001
REMARK INTER + INTRA:          -9.527
REMARK INTER:                  -7.540
REMARK INTRA:                  -1.988
REMARK UNBOUND:                -1.241
REMARK SMILES CCCCCC=CCC=CCCCCCCCC(=O)[O-]
REMARK SMILES IDX 11 1 12 2 13 3 14 4 15 5 16 6 17 7 18 8 19 9 20 10 10 11
REMARK SMILES IDX 9 12 8 13 7 14 6 15 5 16 4 17 3 18 2 19 1 20
REMARK H PARENT
REMARK Flexibility Score: inf
ROOT
ATOM      1  C   UNL     1      31.329 165.918 163.276  1.00  0.00     0.027 C 
ENDROOT
BRANCH   1   2
ATOM      2  C   UNL     1      29.869 166.027 163.743  1.00  0.00     0.004 C 
BRANCH   2   3
ATOM      3  C   UNL     1      29.678 167.101 164.826  1.00  0.00     0.000 C 
BRANCH   3   4
ATOM      4  C   UNL     1      29.153 168.428 164.251  1.00  0.00     0.000 C 
BRANCH   4   5
ATOM      5  C   UNL     1      28.125 168.218 163.126  1.00  0.00     0.000 C 
BRANCH   5   6
ATOM      6  C   UNL     1      28.444 169.051 161.873  1.00  0.00     0.006 C 
BRANCH   6   7
ATOM      7  C   UNL     1      28.781 170.509 162.216  1.00  0.00     0.053 C 
BRANCH   7   8
ATOM      8  C   UNL     1      27.579 171.261 162.702  1.00  0.00     0.041 C 
ATOM      9  O   UNL     1      26.619 171.492 161.920  1.00  0.00    -0.550 OA
ATOM     10  O   UNL     1      27.532 171.730 164.008  1.00  0.00    -0.550 OA
ENDBRANCH   7   8
ENDBRANCH   6   7
ENDBRANCH   5   6
ENDBRANCH   4   5
ENDBRANCH   3   4
ENDBRANCH   2   3
ENDBRANCH   1   2
BRANCH   1  11
ATOM     11  C   UNL     1      31.400 165.672 161.795  1.00  0.00    -0.031 C 
ATOM     12  C   UNL     1      30.865 166.534 160.917  1.00  0.00    -0.027 C 
BRANCH  12  13
ATOM     13  C   UNL     1      30.949 166.302 159.435  1.00  0.00     0.054 C 
BRANCH  13  14
ATOM     14  C   UNL     1      31.959 165.231 159.106  1.00  0.00    -0.027 C 
ATOM     15  C   UNL     1      33.116 165.449 158.454  1.00  0.00    -0.031 C 
BRANCH  15  16
ATOM     16  C   UNL     1      33.544 166.783 157.897  1.00  0.00     0.027 C 
BRANCH  16  17
ATOM     17  C   UNL     1      33.200 166.888 156.404  1.00  0.00     0.004 C 
BRANCH  17  18
ATOM     18  C   UNL     1      32.119 167.944 156.114  1.00  0.00     0.000 C 
BRANCH  18  19
ATOM     19  C   UNL     1      30.704 167.378 155.907  1.00  0.00    -0.003 C 
ATOM     20  C   UNL     1      30.704 165.898 155.530  1.00  0.00     0.004 C 
ENDBRANCH  18  19
ENDBRANCH  17  18
ENDBRANCH  16  17
ENDBRANCH  15  16
ENDBRANCH  13  14
ENDBRANCH  12  13
ENDBRANCH   1  11
TORSDOF 14
ENDMDL
MODEL 3
REMARK VINA RESULT:    -4.549      1.383      1.905
REMARK INTER + INTRA:          -9.514
REMARK INTER:                  -7.650
REMARK INTRA:                  -1.865
REMARK UNBOUND:                -1.241
REMARK SMILES CCCCCC=CCC=CCCCCCCCC(=O)[O-]
REMARK SMILES IDX 11 1 12 2 13 3 14 4 15 5 16 6 17 7 18 8 19 9 20 10 10 11
REMARK SMILES IDX 9 12 8 13 7 14 6 15 5 16 4 17 3 18 2 19 1 20
REMARK H PARENT
REMARK Flexibility Score: inf
ROOT
ATOM      1  C   UNL     1      31.377 165.848 161.283  1.00  0.00     0.027 C 
ENDROOT
BRANCH   1   2
ATOM      2  C   UNL     1      30.146 166.659 161.717  1.00  0.00     0.004 C 
BRANCH   2   3
ATOM      3  C   UNL     1      29.290 167.111 160.523  1.00  0.00     0.000 C 
BRANCH   3   4
ATOM      4  C   UNL     1      28.316 168.242 160.895  1.00  0.00     0.000 C 
BRANCH   4   5
ATOM      5  C   UNL     1      28.600 168.835 162.285  1.00  0.00     0.000 C 
BRANCH   5   6
ATOM      6  C   UNL     1      28.589 170.374 162.284  1.00  0.00     0.006 C 
BRANCH   6   7
ATOM      7  C   UNL     1      27.169 170.942 162.161  1.00  0.00     0.053 C 
BRANCH   7   8
ATOM      8  C   UNL     1      26.777 171.736 163.369  1.00  0.00     0.041 C 
ATOM      9  O   UNL     1      25.780 172.503 163.327  1.00  0.00    -0.550 OA
ATOM     10  O   UNL     1      27.530 171.649 164.533  1.00  0.00    -0.550 OA
ENDBRANCH   7   8
ENDBRANCH   6   7
ENDBRANCH   5   6
ENDBRANCH   4   5
ENDBRANCH   3   4
ENDBRANCH   2   3
ENDBRANCH   1   2
BRANCH   1  11
ATOM     11  C   UNL     1      31.673 166.064 159.826  1.00  0.00    -0.031 C 
ATOM     12  C   UNL     1      32.256 165.111 159.083  1.00  0.00    -0.027 C 
BRANCH  12  13
ATOM     13  C   UNL     1      32.538 165.315 157.621  1.00  0.00     0.054 C 
BRANCH  13  14
ATOM     14  C   UNL     1      33.222 166.637 157.377  1.00  0.00    -0.027 C 
ATOM     15  C   UNL     1      32.938 167.465 156.355  1.00  0.00    -0.031 C 
BRANCH  15  16
ATOM     16  C   UNL     1      31.941 167.164 155.265  1.00  0.00     0.027 C 
BRANCH  16  17
ATOM     17  C   UNL     1      30.917 168.301 155.132  1.00  0.00     0.004 C 
BRANCH  17  18
ATOM     18  C   UNL     1      29.484 167.857 155.472  1.00  0.00     0.000 C 
BRANCH  18  19
ATOM     19  C   UNL     1      29.287 167.370 156.918  1.00  0.00    -0.003 C 
ATOM     20  C   UNL     1      28.894 165.896 157.003  1.00  0.00     0.004 C 
ENDBRANCH  18  19
ENDBRANCH  17  18
ENDBRANCH  16  17
ENDBRANCH  15  16
ENDBRANCH  13  14
ENDBRANCH  12  13
ENDBRANCH   1  11
TORSDOF 14
ENDMDL
MODEL 4
REMARK VINA RESULT:    -4.467      2.985      7.617
REMARK INTER + INTRA:          -9.365
REMARK INTER:                  -8.044
REMARK INTRA:                  -1.321
REMARK UNBOUND:                -1.241
REMARK SMILES CCCCCC=CCC=CCCCCCCCC(=O)[O-]
REMARK SMILES IDX 11 1 12 2 13 3 14 4 15 5 16 6 17 7 18 8 19 9 20 10 10 11
REMARK SMILES IDX 9 12 8 13 7 14 6 15 5 16 4 17 3 18 2 19 1 20
REMARK H PARENT
REMARK Flexibility Score: inf
ROOT
ATOM      1  C   UNL     1      32.231 165.397 158.252  1.00  0.00     0.027 C 
ENDROOT
BRANCH   1   2
ATOM      2  C   UNL     1      33.500 166.218 157.979  1.00  0.00     0.004 C 
BRANCH   2   3
ATOM      3  C   UNL     1      33.362 167.118 156.740  1.00  0.00     0.000 C 
BRANCH   3   4
ATOM      4  C   UNL     1      32.115 166.781 155.906  1.00  0.00     0.000 C 
BRANCH   4   5
ATOM      5  C   UNL     1      31.765 167.884 154.893  1.00  0.00     0.000 C 
BRANCH   5   6
ATOM      6  C   UNL     1      30.377 168.498 155.146  1.00  0.00     0.006 C 
BRANCH   6   7
ATOM      7  C   UNL     1      29.501 167.603 156.034  1.00  0.00     0.053 C 
BRANCH   7   8
ATOM      8  C   UNL     1      28.195 168.255 156.368  1.00  0.00     0.041 C 
ATOM      9  O   UNL     1      27.471 167.788 157.287  1.00  0.00    -0.550 OA
ATOM     10  O   UNL     1      27.763 169.361 155.647  1.00  0.00    -0.550 OA
ENDBRANCH   7   8
ENDBRANCH   6   7
ENDBRANCH   5   6
ENDBRANCH   4   5
ENDBRANCH   3   4
ENDBRANCH   2   3
ENDBRANCH   1   2
BRANCH   1  11
ATOM     11  C   UNL     1      31.562 165.851 159.518  1.00  0.00    -0.031 C 
ATOM     12  C   UNL     1      30.881 167.006 159.573  1.00  0.00    -0.027 C 
BRANCH  12  13
ATOM     13  C   UNL     1      30.195 167.457 160.832  1.00  0.00     0.054 C 
BRANCH  13  14
ATOM     14  C   UNL     1      28.701 167.534 160.642  1.00  0.00    -0.027 C 
ATOM     15  C   UNL     1      27.931 168.555 161.062  1.00  0.00    -0.031 C 
BRANCH  15  16
ATOM     16  C   UNL     1      28.438 169.741 161.841  1.00  0.00     0.027 C 
BRANCH  16  17
ATOM     17  C   UNL     1      27.270 170.563 162.407  1.00  0.00     0.004 C 
BRANCH  17  18
ATOM     18  C   UNL     1      27.722 171.608 163.442  1.00  0.00     0.000 C 
BRANCH  18  19
ATOM     19  C   UNL     1      27.380 171.259 164.901  1.00  0.00    -0.003 C 
ATOM     20  C   UNL     1      28.618 171.005 165.759  1.00  0.00     0.004 C 
ENDBRANCH  18  19
ENDBRANCH  17  18
ENDBRANCH  16  17
ENDBRANCH  15  16
ENDBRANCH  13  14
ENDBRANCH  12  13
ENDBRANCH   1  11
TORSDOF 14
ENDMDL
MODEL 5
REMARK VINA RESULT:    -4.459      3.837      7.734
REMARK INTER + INTRA:          -9.350
REMARK INTER:                  -7.824
REMARK INTRA:                  -1.526
REMARK UNBOUND:                -1.241
REMARK SMILES CCCCCC=CCC=CCCCCCCCC(=O)[O-]
REMARK SMILES IDX 11 1 12 2 13 3 14 4 15 5 16 6 17 7 18 8 19 9 20 10 10 11
REMARK SMILES IDX 9 12 8 13 7 14 6 15 5 16 4 17 3 18 2 19 1 20
REMARK H PARENT
REMARK Flexibility Score: inf
ROOT
ATOM      1  C   UNL     1      31.022 166.830 159.808  1.00  0.00     0.027 C 
ENDROOT
BRANCH   1   2
ATOM      2  C   UNL     1      31.969 165.770 159.225  1.00  0.00     0.004 C 
BRANCH   2   3
ATOM      3  C   UNL     1      32.998 166.371 158.254  1.00  0.00     0.000 C 
BRANCH   3   4
ATOM      4  C   UNL     1      32.413 167.521 157.417  1.00  0.00     0.000 C 
BRANCH   4   5
ATOM      5  C   UNL     1      32.568 167.290 155.905  1.00  0.00     0.000 C 
BRANCH   5   6
ATOM      6  C   UNL     1      31.477 168.000 155.084  1.00  0.00     0.006 C 
BRANCH   6   7
ATOM      7  C   UNL     1      30.120 167.999 155.803  1.00  0.00     0.053 C 
BRANCH   7   8
ATOM      8  C   UNL     1      29.301 169.203 155.452  1.00  0.00     0.041 C 
ATOM      9  O   UNL     1      28.046 169.164 155.545  1.00  0.00    -0.550 OA
ATOM     10  O   UNL     1      29.922 170.359 154.995  1.00  0.00    -0.550 OA
ENDBRANCH   7   8
ENDBRANCH   6   7
ENDBRANCH   5   6
ENDBRANCH   4   5
ENDBRANCH   3   4
ENDBRANCH   2   3
ENDBRANCH   1   2
BRANCH   1  11
ATOM     11  C   UNL     1      30.586 166.454 161.196  1.00  0.00    -0.031 C 
ATOM     12  C   UNL     1      31.368 165.716 161.998  1.00  0.00    -0.027 C 
BRANCH  12  13
ATOM     13  C   UNL     1      30.944 165.352 163.393  1.00  0.00     0.054 C 
BRANCH  13  14
ATOM     14  C   UNL     1      31.633 166.220 164.416  1.00  0.00    -0.027 C 
ATOM     15  C   UNL     1      31.003 167.088 165.228  1.00  0.00    -0.031 C 
BRANCH  15  16
ATOM     16  C   UNL     1      29.523 167.369 165.192  1.00  0.00     0.027 C 
BRANCH  16  17
ATOM     17  C   UNL     1      29.242 168.745 164.569  1.00  0.00     0.004 C 
BRANCH  17  18
ATOM     18  C   UNL     1      28.415 168.656 163.275  1.00  0.00     0.000 C 
BRANCH  18  19
ATOM     19  C   UNL     1      28.720 169.753 162.239  1.00  0.00    -0.003 C 
ATOM     20  C   UNL     1      27.781 170.953 162.349  1.00  0.00     0.004 C 
ENDBRANCH  18  19
ENDBRANCH  17  18
ENDBRANCH  16  17
ENDBRANCH  15  16
ENDBRANCH  13  14
ENDBRANCH  12  13
ENDBRANCH   1  11
TORSDOF 14
ENDMDL
MODEL 6
REMARK VINA RESULT:    -4.450      2.854      4.624
REMARK INTER + INTRA:          -9.333
REMARK INTER:                  -7.260
REMARK INTRA:                  -2.073
REMARK UNBOUND:                -1.241
REMARK SMILES CCCCCC=CCC=CCCCCCCCC(=O)[O-]
REMARK SMILES IDX 11 1 12 2 13 3 14 4 15 5 16 6 17 7 18 8 19 9 20 10 10 11
REMARK SMILES IDX 9 12 8 13 7 14 6 15 5 16 4 17 3 18 2 19 1 20
REMARK H PARENT
REMARK Flexibility Score: inf
ROOT
ATOM      1  C   UNL     1      27.165 166.967 158.208  1.00  0.00     0.027 C 
ENDROOT
BRANCH   1   2
ATOM      2  C   UNL     1      28.155 167.522 159.242  1.00  0.00     0.004 C 
BRANCH   2   3
ATOM      3  C   UNL     1      29.316 166.554 159.524  1.00  0.00     0.000 C 
BRANCH   3   4
ATOM      4  C   UNL     1      30.320 167.123 160.542  1.00  0.00     0.000 C 
BRANCH   4   5
ATOM      5  C   UNL     1      31.395 166.100 160.945  1.00  0.00     0.000 C 
BRANCH   5   6
ATOM      6  C   UNL     1      31.196 165.568 162.375  1.00  0.00     0.006 C 
BRANCH   6   7
ATOM      7  C   UNL     1      30.196 166.416 163.174  1.00  0.00     0.053 C 
BRANCH   7   8
ATOM      8  C   UNL     1      30.742 166.812 164.512  1.00  0.00     0.041 C 
ATOM      9  O   UNL     1      30.079 167.571 165.266  1.00  0.00    -0.550 OA
ATOM     10  O   UNL     1      31.994 166.365 164.913  1.00  0.00    -0.550 OA
ENDBRANCH   7   8
ENDBRANCH   6   7
ENDBRANCH   5   6
ENDBRANCH   4   5
ENDBRANCH   3   4
ENDBRANCH   2   3
ENDBRANCH   1   2
BRANCH   1  11
ATOM     11  C   UNL     1      27.731 167.063 156.819  1.00  0.00    -0.031 C 
ATOM     12  C   UNL     1      28.236 168.214 156.349  1.00  0.00    -0.027 C 
BRANCH  12  13
ATOM     13  C   UNL     1      28.820 168.311 154.967  1.00  0.00     0.054 C 
BRANCH  13  14
ATOM     14  C   UNL     1      30.214 168.884 155.003  1.00  0.00    -0.027 C 
ATOM     15  C   UNL     1      31.340 168.148 155.045  1.00  0.00    -0.031 C 
BRANCH  15  16
ATOM     16  C   UNL     1      31.373 166.643 155.127  1.00  0.00     0.027 C 
BRANCH  16  17
ATOM     17  C   UNL     1      31.440 166.176 156.588  1.00  0.00     0.004 C 
BRANCH  17  18
ATOM     18  C   UNL     1      32.387 167.034 157.446  1.00  0.00     0.000 C 
BRANCH  18  19
ATOM     19  C   UNL     1      33.759 166.397 157.726  1.00  0.00    -0.003 C 
ATOM     20  C   UNL     1      33.658 164.946 158.193  1.00  0.00     0.004 C 
ENDBRANCH  18  19
ENDBRANCH  17  18
ENDBRANCH  16  17
ENDBRANCH  15  16
ENDBRANCH  13  14
ENDBRANCH  12  13
ENDBRANCH   1  11
TORSDOF 14
ENDMDL
MODEL 7
REMARK VINA RESULT:    -4.439      1.514      3.633
REMARK INTER + INTRA:          -9.314
REMARK INTER:                  -7.564
REMARK INTRA:                  -1.750
REMARK UNBOUND:                -1.241
REMARK SMILES CCCCCC=CCC=CCCCCCCCC(=O)[O-]
REMARK SMILES IDX 11 1 12 2 13 3 14 4 15 5 16 6 17 7 18 8 19 9 20 10 10 11
REMARK SMILES IDX 9 12 8 13 7 14 6 15 5 16 4 17 3 18 2 19 1 20
REMARK H PARENT
REMARK Flexibility Score: inf
ROOT
ATOM      1  C   UNL     1      27.909 166.345 158.613  1.00  0.00     0.027 C 
ENDROOT
BRANCH   1   2
ATOM      2  C   UNL     1      29.244 166.141 159.345  1.00  0.00     0.004 C 
BRANCH   2   3
ATOM      3  C   UNL     1      29.636 167.354 160.204  1.00  0.00     0.000 C 
BRANCH   3   4
ATOM      4  C   UNL     1      29.883 166.976 161.675  1.00  0.00     0.000 C 
BRANCH   4   5
ATOM      5  C   UNL     1      29.004 167.779 162.647  1.00  0.00     0.000 C 
BRANCH   5   6
ATOM      6  C   UNL     1      28.322 168.981 161.970  1.00  0.00     0.006 C 
BRANCH   6   7
ATOM      7  C   UNL     1      28.751 170.317 162.594  1.00  0.00     0.053 C 
BRANCH   7   8
ATOM      8  C   UNL     1      27.598 171.262 162.738  1.00  0.00     0.041 C 
ATOM      9  O   UNL     1      27.484 171.969 163.774  1.00  0.00    -0.550 OA
ATOM     10  O   UNL     1      26.634 171.343 161.741  1.00  0.00    -0.550 OA
ENDBRANCH   7   8
ENDBRANCH   6   7
ENDBRANCH   5   6
ENDBRANCH   4   5
ENDBRANCH   3   4
ENDBRANCH   2   3
ENDBRANCH   1   2
BRANCH   1  11
ATOM     11  C   UNL     1      28.139 166.736 157.180  1.00  0.00    -0.031 C 
ATOM     12  C   UNL     1      27.891 167.981 156.747  1.00  0.00    -0.027 C 
BRANCH  12  13
ATOM     13  C   UNL     1      28.137 168.381 155.319  1.00  0.00     0.054 C 
BRANCH  13  14
ATOM     14  C   UNL     1      29.282 169.357 155.215  1.00  0.00    -0.027 C 
ATOM     15  C   UNL     1      30.567 169.007 155.025  1.00  0.00    -0.031 C 
BRANCH  15  16
ATOM     16  C   UNL     1      31.062 167.585 154.952  1.00  0.00     0.027 C 
BRANCH  16  17
ATOM     17  C   UNL     1      32.307 167.393 155.830  1.00  0.00     0.004 C 
BRANCH  17  18
ATOM     18  C   UNL     1      32.028 167.640 157.323  1.00  0.00     0.000 C 
BRANCH  18  19
ATOM     19  C   UNL     1      32.630 166.591 158.273  1.00  0.00    -0.003 C 
ATOM     20  C   UNL     1      33.845 165.878 157.681  1.00  0.00     0.004 C 
ENDBRANCH  18  19
ENDBRANCH  17  18
ENDBRANCH  16  17
ENDBRANCH  15  16
ENDBRANCH  13  14
ENDBRANCH  12  13
ENDBRANCH   1  11
TORSDOF 14
ENDMDL
MODEL 8
REMARK VINA RESULT:    -4.352      3.463      7.601
REMARK INTER + INTRA:          -9.154
REMARK INTER:                  -6.837
REMARK INTRA:                  -2.318
REMARK UNBOUND:                -1.241
REMARK SMILES CCCCCC=CCC=CCCCCCCCC(=O)[O-]
REMARK SMILES IDX 11 1 12 2 13 3 14 4 15 5 16 6 17 7 18 8 19 9 20 10 10 11
REMARK SMILES IDX 9 12 8 13 7 14 6 15 5 16 4 17 3 18 2 19 1 20
REMARK H PARENT
REMARK Flexibility Score: inf
ROOT
ATOM      1  C   UNL     1      32.457 165.937 158.596  1.00  0.00     0.027 C 
ENDROOT
BRANCH   1   2
ATOM      2  C   UNL     1      32.475 167.277 157.845  1.00  0.00     0.004 C 
BRANCH   2   3
ATOM      3  C   UNL     1      33.077 167.153 156.436  1.00  0.00     0.000 C 
BRANCH   3   4
ATOM      4  C   UNL     1      32.024 167.337 155.330  1.00  0.00     0.000 C 
BRANCH   4   5
ATOM      5  C   UNL     1      30.927 168.341 155.719  1.00  0.00     0.000 C 
BRANCH   5   6
ATOM      6  C   UNL     1      29.511 167.756 155.566  1.00  0.00     0.006 C 
BRANCH   6   7
ATOM      7  C   UNL     1      28.915 167.322 156.912  1.00  0.00     0.053 C 
BRANCH   7   8
ATOM      8  C   UNL     1      28.977 165.838 157.099  1.00  0.00     0.041 C 
ATOM      9  O   UNL     1      29.507 165.110 156.218  1.00  0.00    -0.550 OA
ATOM     10  O   UNL     1      28.426 165.255 158.233  1.00  0.00    -0.550 OA
ENDBRANCH   7   8
ENDBRANCH   6   7
ENDBRANCH   5   6
ENDBRANCH   4   5
ENDBRANCH   3   4
ENDBRANCH   2   3
ENDBRANCH   1   2
BRANCH   1  11
ATOM     11  C   UNL     1      31.571 166.014 159.808  1.00  0.00    -0.031 C 
ATOM     12  C   UNL     1      30.858 167.117 160.083  1.00  0.00    -0.027 C 
BRANCH  12  13
ATOM     13  C   UNL     1      29.957 167.193 161.283  1.00  0.00     0.054 C 
BRANCH  13  14
ATOM     14  C   UNL     1      28.573 167.652 160.899  1.00  0.00    -0.027 C 
ATOM     15  C   UNL     1      28.045 168.844 161.230  1.00  0.00    -0.031 C 
BRANCH  15  16
ATOM     16  C   UNL     1      28.735 169.873 162.090  1.00  0.00     0.027 C 
BRANCH  16  17
ATOM     17  C   UNL     1      28.183 169.847 163.523  1.00  0.00     0.004 C 
BRANCH  17  18
ATOM     18  C   UNL     1      29.277 169.612 164.579  1.00  0.00     0.000 C 
BRANCH  18  19
ATOM     19  C   UNL     1      29.561 168.133 164.895  1.00  0.00    -0.003 C 
ATOM     20  C   UNL     1      28.319 167.251 164.781  1.00  0.00     0.004 C 
ENDBRANCH  18  19
ENDBRANCH  17  18
ENDBRANCH  16  17
ENDBRANCH  15  16
ENDBRANCH  13  14
ENDBRANCH  12  13
ENDBRANCH   1  11
TORSDOF 14
ENDMDL
MODEL 9
REMARK VINA RESULT:    -4.324      3.472      8.520
REMARK INTER + INTRA:          -9.104
REMARK INTER:                  -7.470
REMARK INTRA:                  -1.635
REMARK UNBOUND:                -1.241
REMARK SMILES CCCCCC=CCC=CCCCCCCCC(=O)[O-]
REMARK SMILES IDX 11 1 12 2 13 3 14 4 15 5 16 6 17 7 18 8 19 9 20 10 10 11
REMARK SMILES IDX 9 12 8 13 7 14 6 15 5 16 4 17 3 18 2 19 1 20
REMARK H PARENT
REMARK Flexibility Score: inf
ROOT
ATOM      1  C   UNL     1      30.295 167.142 160.795  1.00  0.00     0.027 C 
ENDROOT
BRANCH   1   2
ATOM      2  C   UNL     1      30.240 167.088 159.261  1.00  0.00     0.004 C 
BRANCH   2   3
ATOM      3  C   UNL     1      31.551 166.575 158.644  1.00  0.00     0.000 C 
BRANCH   3   4
ATOM      4  C   UNL     1      32.238 167.633 157.763  1.00  0.00     0.000 C 
BRANCH   4   5
ATOM      5  C   UNL     1      32.729 167.057 156.424  1.00  0.00     0.000 C 
BRANCH   5   6
ATOM      6  C   UNL     1      31.678 167.182 155.307  1.00  0.00     0.006 C 
BRANCH   6   7
ATOM      7  C   UNL     1      30.889 168.496 155.399  1.00  0.00     0.053 C 
BRANCH   7   8
ATOM      8  C   UNL     1      29.427 168.257 155.615  1.00  0.00     0.041 C 
ATOM      9  O   UNL     1      28.995 167.086 155.785  1.00  0.00    -0.550 OA
ATOM     10  O   UNL     1      28.537 169.323 155.601  1.00  0.00    -0.550 OA
ENDBRANCH   7   8
ENDBRANCH   6   7
ENDBRANCH   5   6
ENDBRANCH   4   5
ENDBRANCH   3   4
ENDBRANCH   2   3
ENDBRANCH   1   2
BRANCH   1  11
ATOM     11  C   UNL     1      29.016 167.695 161.357  1.00  0.00    -0.031 C 
ATOM     12  C   UNL     1      28.856 169.010 161.567  1.00  0.00    -0.027 C 
BRANCH  12  13
ATOM     13  C   UNL     1      27.572 169.570 162.112  1.00  0.00     0.054 C 
BRANCH  13  14
ATOM     14  C   UNL     1      27.676 171.058 162.335  1.00  0.00    -0.027 C 
ATOM     15  C   UNL     1      27.524 171.663 163.527  1.00  0.00    -0.031 C 
BRANCH  15  16
ATOM     16  C   UNL     1      27.163 170.950 164.805  1.00  0.00     0.027 C 
BRANCH  16  17
ATOM     17  C   UNL     1      28.388 170.817 165.722  1.00  0.00     0.004 C 
BRANCH  17  18
ATOM     18  C   UNL     1      28.718 169.355 166.068  1.00  0.00     0.000 C 
BRANCH  18  19
ATOM     19  C   UNL     1      29.643 168.647 165.062  1.00  0.00    -0.003 C 
ATOM     20  C   UNL     1      29.454 167.131 165.043  1.00  0.00     0.004 C 
ENDBRANCH  18  19
ENDBRANCH  17  18
ENDBRANCH  16  17
ENDBRANCH  15  16
ENDBRANCH  13  14
ENDBRANCH  12  13
ENDBRANCH   1  11
TORSDOF 14
ENDMDL
