MODEL 1
REMARK VINA RESULT:    -3.986      0.000      0.000
REMARK INTER + INTRA:          -5.143
REMARK INTER:                  -4.918
REMARK INTRA:                  -0.225
REMARK UNBOUND:                -0.225
REMARK SMILES CCCCCC(=O)[O-]
REMARK SMILES IDX 4 1 5 2 6 3 7 4 8 5 3 6 2 7 1 8
REMARK H PARENT
REMARK Flexibility Score: inf
ROOT
ATOM      1  C   UNL     1      -7.563  -4.838 -14.032  1.00  0.00     0.006 C 
ENDROOT
BRANCH   1   2
ATOM      2  C   UNL     1      -6.366  -3.978 -13.614  1.00  0.00     0.053 C 
BRANCH   2   3
ATOM      3  C   UNL     1      -6.635  -3.304 -12.307  1.00  0.00     0.041 C 
ATOM      4  O   UNL     1      -7.061  -2.119 -12.281  1.00  0.00    -0.550 OA
ATOM      5  O   UNL     1      -6.465  -4.000 -11.117  1.00  0.00    -0.550 OA
ENDBRANCH   2   3
ENDBRANCH   1   2
BRANCH   1   6
ATOM      6  C   UNL     1      -7.120  -6.272 -14.360  1.00  0.00     0.000 C 
BRANCH   6   7
ATOM      7  C   UNL     1      -6.392  -6.947 -13.187  1.00  0.00    -0.003 C 
ATOM      8  C   UNL     1      -7.345  -7.412 -12.087  1.00  0.00     0.004 C 
ENDBRANCH   6   7
ENDBRANCH   1   6
TORSDOF 4
ENDMDL
MODEL 2
REMARK VINA RESULT:    -3.882      2.442      3.663
REMARK INTER + INTRA:          -5.014
REMARK INTER:                  -4.790
REMARK INTRA:                  -0.224
REMARK UNBOUND:                -0.225
REMARK SMILES CCCCCC(=O)[O-]
REMARK SMILES IDX 4 1 5 2 6 3 7 4 8 5 3 6 2 7 1 8
REMARK H PARENT
REMARK Flexibility Score: inf
ROOT
ATOM      1  C   UNL     1      -6.316  -5.162 -13.280  1.00  0.00     0.006 C 
ENDROOT
BRANCH   1   2
ATOM      2  C   UNL     1      -7.176  -5.736 -14.411  1.00  0.00     0.053 C 
BRANCH   2   3
ATOM      3  C   UNL     1      -8.560  -6.024 -13.923  1.00  0.00     0.041 C 
ATOM      4  O   UNL     1      -8.757  -6.312 -12.713  1.00  0.00    -0.550 OA
ATOM      5  O   UNL     1      -9.639  -5.926 -14.792  1.00  0.00    -0.550 OA
ENDBRANCH   2   3
ENDBRANCH   1   2
BRANCH   1   6
ATOM      6  C   UNL     1      -6.313  -3.626 -13.317  1.00  0.00     0.000 C 
BRANCH   6   7
ATOM      7  C   UNL     1      -6.689  -3.004 -11.963  1.00  0.00    -0.003 C 
ATOM      8  C   UNL     1      -6.808  -4.040 -10.848  1.00  0.00     0.004 C 
ENDBRANCH   6   7
ENDBRANCH   1   6
TORSDOF 4
ENDMDL
MODEL 3
REMARK VINA RESULT:    -3.863      0.202      1.160
REMARK INTER + INTRA:          -4.991
REMARK INTER:                  -4.803
REMARK INTRA:                  -0.188
REMARK UNBOUND:                -0.225
REMARK SMILES CCCCCC(=O)[O-]
REMARK SMILES IDX 4 1 5 2 6 3 7 4 8 5 3 6 2 7 1 8
REMARK H PARENT
REMARK Flexibility Score: inf
ROOT
ATOM      1  C   UNL     1      -7.585  -4.970 -14.019  1.00  0.00     0.006 C 
ENDROOT
BRANCH   1   2
ATOM      2  C   UNL     1      -6.419  -4.035 -13.684  1.00  0.00     0.053 C 
BRANCH   2   3
ATOM      3  C   UNL     1      -6.621  -3.404 -12.344  1.00  0.00     0.041 C 
ATOM      4  O   UNL     1      -6.387  -4.058 -11.294  1.00  0.00    -0.550 OA
ATOM      5  O   UNL     1      -7.018  -2.076 -12.253  1.00  0.00    -0.550 OA
ENDBRANCH   2   3
ENDBRANCH   1   2
BRANCH   1   6
ATOM      6  C   UNL     1      -7.078  -6.375 -14.377  1.00  0.00     0.000 C 
BRANCH   6   7
ATOM      7  C   UNL     1      -6.395  -7.075 -13.191  1.00  0.00    -0.003 C 
ATOM      8  C   UNL     1      -7.383  -7.821 -12.296  1.00  0.00     0.004 C 
ENDBRANCH   6   7
ENDBRANCH   1   6
TORSDOF 4
ENDMDL
MODEL 4
REMARK VINA RESULT:    -3.794      1.623      2.483
REMARK INTER + INTRA:          -4.907
REMARK INTER:                  -4.683
REMARK INTRA:                  -0.224
REMARK UNBOUND:                -0.225
REMARK SMILES CCCCCC(=O)[O-]
REMARK SMILES IDX 4 1 5 2 6 3 7 4 8 5 3 6 2 7 1 8
REMARK H PARENT
REMARK Flexibility Score: inf
ROOT
ATOM      1  C   UNL     1      -8.067  -5.839 -11.640  1.00  0.00     0.006 C 
ENDROOT
BRANCH   1   2
ATOM      2  C   UNL     1      -7.484  -5.576 -10.248  1.00  0.00     0.053 C 
BRANCH   2   3
ATOM      3  C   UNL     1      -6.653  -4.333 -10.253  1.00  0.00     0.041 C 
ATOM      4  O   UNL     1      -6.621  -3.597 -11.274  1.00  0.00    -0.550 OA
ATOM      5  O   UNL     1      -5.953  -3.959  -9.113  1.00  0.00    -0.550 OA
ENDBRANCH   2   3
ENDBRANCH   1   2
BRANCH   1   6
ATOM      6  C   UNL     1      -7.283  -6.943 -12.365  1.00  0.00     0.000 C 
BRANCH   6   7
ATOM      7  C   UNL     1      -6.326  -6.386 -13.430  1.00  0.00    -0.003 C 
ATOM      8  C   UNL     1      -6.983  -5.337 -14.325  1.00  0.00     0.004 C 
ENDBRANCH   6   7
ENDBRANCH   1   6
TORSDOF 4
ENDMDL
MODEL 5
REMARK VINA RESULT:    -3.694     11.314     12.340
REMARK INTER + INTRA:          -4.782
REMARK INTER:                  -4.710
REMARK INTRA:                  -0.072
REMARK UNBOUND:                -0.225
REMARK SMILES CCCCCC(=O)[O-]
REMARK SMILES IDX 4 1 5 2 6 3 7 4 8 5 3 6 2 7 1 8
REMARK H PARENT
REMARK Flexibility Score: inf
ROOT
ATOM      1  C   UNL     1       5.002  -1.320 -13.988  1.00  0.00     0.006 C 
ENDROOT
BRANCH   1   2
ATOM      2  C   UNL     1       4.980  -2.787 -14.428  1.00  0.00     0.053 C 
BRANCH   2   3
ATOM      3  C   UNL     1       5.540  -3.665 -13.355  1.00  0.00     0.041 C 
ATOM      4  O   UNL     1       4.918  -4.698 -12.993  1.00  0.00    -0.550 OA
ATOM      5  O   UNL     1       6.774  -3.371 -12.790  1.00  0.00    -0.550 OA
ENDBRANCH   2   3
ENDBRANCH   1   2
BRANCH   1   6
ATOM      6  C   UNL     1       3.578  -0.803 -13.729  1.00  0.00     0.000 C 
BRANCH   6   7
ATOM      7  C   UNL     1       3.140   0.257 -14.751  1.00  0.00    -0.003 C 
ATOM      8  C   UNL     1       1.621   0.357 -14.885  1.00  0.00     0.004 C 
ENDBRANCH   6   7
ENDBRANCH   1   6
TORSDOF 4
ENDMDL
MODEL 6
REMARK VINA RESULT:    -3.687      2.495      3.128
REMARK INTER + INTRA:          -4.775
REMARK INTER:                  -4.659
REMARK INTRA:                  -0.115
REMARK UNBOUND:                -0.225
REMARK SMILES CCCCCC(=O)[O-]
REMARK SMILES IDX 4 1 5 2 6 3 7 4 8 5 3 6 2 7 1 8
REMARK H PARENT
REMARK Flexibility Score: inf
ROOT
ATOM      1  C   UNL     1      -7.212  -5.241 -11.150  1.00  0.00     0.006 C 
ENDROOT
BRANCH   1   2
ATOM      2  C   UNL     1      -7.731  -5.140 -12.587  1.00  0.00     0.053 C 
BRANCH   2   3
ATOM      3  C   UNL     1      -6.643  -4.682 -13.507  1.00  0.00     0.041 C 
ATOM      4  O   UNL     1      -6.656  -5.020 -14.720  1.00  0.00    -0.550 OA
ATOM      5  O   UNL     1      -5.643  -3.841 -13.037  1.00  0.00    -0.550 OA
ENDBRANCH   2   3
ENDBRANCH   1   2
BRANCH   1   6
ATOM      6  C   UNL     1      -7.720  -6.522 -10.471  1.00  0.00     0.000 C 
BRANCH   6   7
ATOM      7  C   UNL     1      -9.175  -6.848 -10.841  1.00  0.00    -0.003 C 
ATOM      8  C   UNL     1     -10.181  -6.289  -9.836  1.00  0.00     0.004 C 
ENDBRANCH   6   7
ENDBRANCH   1   6
TORSDOF 4
ENDMDL
MODEL 7
REMARK VINA RESULT:    -3.682      1.863      3.368
REMARK INTER + INTRA:          -4.768
REMARK INTER:                  -4.513
REMARK INTRA:                  -0.255
REMARK UNBOUND:                -0.225
REMARK SMILES CCCCCC(=O)[O-]
REMARK SMILES IDX 4 1 5 2 6 3 7 4 8 5 3 6 2 7 1 8
REMARK H PARENT
REMARK Flexibility Score: inf
ROOT
ATOM      1  C   UNL     1      -6.250  -6.198 -13.261  1.00  0.00     0.006 C 
ENDROOT
BRANCH   1   2
ATOM      2  C   UNL     1      -7.266  -7.173 -12.659  1.00  0.00     0.053 C 
BRANCH   2   3
ATOM      3  C   UNL     1      -8.028  -6.518 -11.551  1.00  0.00     0.041 C 
ATOM      4  O   UNL     1      -9.283  -6.438 -11.607  1.00  0.00    -0.550 OA
ATOM      5  O   UNL     1      -7.357  -6.042 -10.432  1.00  0.00    -0.550 OA
ENDBRANCH   2   3
ENDBRANCH   1   2
BRANCH   1   6
ATOM      6  C   UNL     1      -6.956  -4.992 -13.900  1.00  0.00     0.000 C 
BRANCH   6   7
ATOM      7  C   UNL     1      -6.256  -3.662 -13.581  1.00  0.00    -0.003 C 
ATOM      8  C   UNL     1      -6.731  -3.044 -12.267  1.00  0.00     0.004 C 
ENDBRANCH   6   7
ENDBRANCH   1   6
TORSDOF 4
ENDMDL
MODEL 8
REMARK VINA RESULT:    -3.631     12.921     13.699
REMARK INTER + INTRA:          -4.705
REMARK INTER:                  -4.592
REMARK INTRA:                  -0.113
REMARK UNBOUND:                -0.225
REMARK SMILES CCCCCC(=O)[O-]
REMARK SMILES IDX 4 1 5 2 6 3 7 4 8 5 3 6 2 7 1 8
REMARK H PARENT
REMARK Flexibility Score: inf
ROOT
ATOM      1  C   UNL     1       5.729  -3.928 -12.869  1.00  0.00     0.006 C 
ENDROOT
BRANCH   1   2
ATOM      2  C   UNL     1       6.951  -3.083 -12.498  1.00  0.00     0.053 C 
BRANCH   2   3
ATOM      3  C   UNL     1       7.761  -3.767 -11.443  1.00  0.00     0.041 C 
ATOM      4  O   UNL     1       7.634  -5.005 -11.251  1.00  0.00    -0.550 OA
ATOM      5  O   UNL     1       8.694  -3.049 -10.706  1.00  0.00    -0.550 OA
ENDBRANCH   2   3
ENDBRANCH   1   2
BRANCH   1   6
ATOM      6  C   UNL     1       4.945  -3.283 -14.022  1.00  0.00     0.000 C 
BRANCH   6   7
ATOM      7  C   UNL     1       5.051  -1.750 -14.022  1.00  0.00    -0.003 C 
ATOM      8  C   UNL     1       3.720  -1.064 -13.718  1.00  0.00     0.004 C 
ENDBRANCH   6   7
ENDBRANCH   1   6
TORSDOF 4
ENDMDL
MODEL 9
REMARK VINA RESULT:    -3.589      1.398      2.083
REMARK INTER + INTRA:          -4.653
REMARK INTER:                  -4.521
REMARK INTRA:                  -0.132
REMARK UNBOUND:                -0.225
REMARK SMILES CCCCCC(=O)[O-]
REMARK SMILES IDX 4 1 5 2 6 3 7 4 8 5 3 6 2 7 1 8
REMARK H PARENT
REMARK Flexibility Score: inf
ROOT
ATOM      1  C   UNL     1      -6.304  -5.686 -13.016  1.00  0.00     0.006 C 
ENDROOT
BRANCH   1   2
ATOM      2  C   UNL     1      -7.204  -5.265 -11.851  1.00  0.00     0.053 C 
BRANCH   2   3
ATOM      3  C   UNL     1      -6.743  -3.963 -11.276  1.00  0.00     0.041 C 
ATOM      4  O   UNL     1      -6.318  -3.908 -10.092  1.00  0.00    -0.550 OA
ATOM      5  O   UNL     1      -6.735  -2.819 -12.063  1.00  0.00    -0.550 OA
ENDBRANCH   2   3
ENDBRANCH   1   2
BRANCH   1   6
ATOM      6  C   UNL     1      -7.042  -5.551 -14.357  1.00  0.00     0.000 C 
BRANCH   6   7
ATOM      7  C   UNL     1      -8.499  -6.032 -14.278  1.00  0.00    -0.003 C 
ATOM      8  C   UNL     1      -8.622  -7.555 -14.288  1.00  0.00     0.004 C 
ENDBRANCH   6   7
ENDBRANCH   1   6
TORSDOF 4
ENDMDL
