MODEL 1
REMARK VINA RESULT:    -5.156      0.000      0.000
REMARK INTER + INTRA:          -5.156
REMARK INTER:                  -5.156
REMARK INTRA:                   0.000
REMARK UNBOUND:                 0.000
REMARK SMILES CC(C)=C1CC[C@H](C)CC1=O
REMARK SMILES IDX 8 1 7 2 6 3 5 4 4 5 2 6 1 7 3 8 10 9 11 10 9 11
REMARK H PARENT
REMARK Flexibility Score: inf
ROOT
ATOM      1  C   UNL     1       2.836  12.764  -6.865  1.00  0.00     0.008 C 
ATOM      2  C   UNL     1       3.549  14.120  -6.908  1.00  0.00    -0.006 C 
ATOM      3  C   UNL     1       3.030  14.965  -8.083  1.00  0.00     0.008 C 
ATOM      4  C   UNL     1       3.803  16.285  -8.204  1.00  0.00     0.039 C 
ATOM      5  C   UNL     1       3.841  17.062  -6.895  1.00  0.00    -0.006 C 
ATOM      6  C   UNL     1       3.870  18.428  -6.881  1.00  0.00    -0.070 C 
ATOM      7  C   UNL     1       3.887  19.225  -8.166  1.00  0.00     0.039 C 
ATOM      8  C   UNL     1       3.851  19.211  -5.588  1.00  0.00     0.039 C 
ATOM      9  C   UNL     1       3.960  16.246  -5.651  1.00  0.00     0.159 C 
ATOM     10  O   UNL     1       4.575  16.679  -4.640  1.00  0.00    -0.295 OA
ATOM     11  C   UNL     1       3.347  14.877  -5.587  1.00  0.00     0.084 C 
ENDROOT
TORSDOF 0
ENDMDL
MODEL 2
REMARK VINA RESULT:    -4.997      1.499      3.927
REMARK INTER + INTRA:          -4.997
REMARK INTER:                  -4.997
REMARK INTRA:                   0.000
REMARK UNBOUND:                 0.000
REMARK SMILES CC(C)=C1CC[C@H](C)CC1=O
REMARK SMILES IDX 8 1 7 2 6 3 5 4 4 5 2 6 1 7 3 8 10 9 11 10 9 11
REMARK H PARENT
REMARK Flexibility Score: inf
ROOT
ATOM      1  C   UNL     1       2.946  19.630  -6.120  1.00  0.00     0.008 C 
ATOM      2  C   UNL     1       3.056  18.152  -6.510  1.00  0.00    -0.006 C 
ATOM      3  C   UNL     1       3.840  17.998  -7.824  1.00  0.00     0.008 C 
ATOM      4  C   UNL     1       3.874  16.534  -8.284  1.00  0.00     0.039 C 
ATOM      5  C   UNL     1       4.365  15.591  -7.194  1.00  0.00    -0.006 C 
ATOM      6  C   UNL     1       5.062  14.456  -7.499  1.00  0.00    -0.070 C 
ATOM      7  C   UNL     1       5.359  14.080  -8.933  1.00  0.00     0.039 C 
ATOM      8  C   UNL     1       5.603  13.542  -6.424  1.00  0.00     0.039 C 
ATOM      9  C   UNL     1       3.940  15.919  -5.801  1.00  0.00     0.159 C 
ATOM     10  O   UNL     1       3.736  15.015  -4.948  1.00  0.00    -0.295 OA
ATOM     11  C   UNL     1       3.740  17.350  -5.394  1.00  0.00     0.084 C 
ENDROOT
TORSDOF 0
ENDMDL
MODEL 3
REMARK VINA RESULT:    -4.757      2.095      4.644
REMARK INTER + INTRA:          -4.757
REMARK INTER:                  -4.757
REMARK INTRA:                   0.000
REMARK UNBOUND:                 0.000
REMARK SMILES CC(C)=C1CC[C@H](C)CC1=O
REMARK SMILES IDX 8 1 7 2 6 3 5 4 4 5 2 6 1 7 3 8 10 9 11 10 9 11
REMARK H PARENT
REMARK Flexibility Score: inf
ROOT
ATOM      1  C   UNL     1       3.256  17.434  -5.992  1.00  0.00     0.008 C 
ATOM      2  C   UNL     1       3.405  15.921  -6.187  1.00  0.00    -0.006 C 
ATOM      3  C   UNL     1       2.782  15.485  -7.523  1.00  0.00     0.008 C 
ATOM      4  C   UNL     1       2.830  13.960  -7.689  1.00  0.00     0.039 C 
ATOM      5  C   UNL     1       4.230  13.395  -7.483  1.00  0.00    -0.006 C 
ATOM      6  C   UNL     1       4.653  12.286  -8.159  1.00  0.00    -0.070 C 
ATOM      7  C   UNL     1       3.744  11.562  -9.125  1.00  0.00     0.039 C 
ATOM      8  C   UNL     1       6.058  11.749  -8.005  1.00  0.00     0.039 C 
ATOM      9  C   UNL     1       5.053  14.051  -6.425  1.00  0.00     0.159 C 
ATOM     10  O   UNL     1       5.893  13.399  -5.750  1.00  0.00    -0.295 OA
ATOM     11  C   UNL     1       4.886  15.516  -6.142  1.00  0.00     0.084 C 
ENDROOT
TORSDOF 0
ENDMDL
MODEL 4
REMARK VINA RESULT:    -4.731      2.320      4.995
REMARK INTER + INTRA:          -4.731
REMARK INTER:                  -4.731
REMARK INTRA:                   0.000
REMARK UNBOUND:                 0.000
REMARK SMILES CC(C)=C1CC[C@H](C)CC1=O
REMARK SMILES IDX 8 1 7 2 6 3 5 4 4 5 2 6 1 7 3 8 10 9 11 10 9 11
REMARK H PARENT
REMARK Flexibility Score: inf
ROOT
ATOM      1  C   UNL     1       1.163  21.702  -7.894  1.00  0.00     0.008 C 
ATOM      2  C   UNL     1       2.086  20.490  -7.725  1.00  0.00    -0.006 C 
ATOM      3  C   UNL     1       2.588  20.392  -6.276  1.00  0.00     0.008 C 
ATOM      4  C   UNL     1       3.594  19.245  -6.111  1.00  0.00     0.039 C 
ATOM      5  C   UNL     1       3.058  17.919  -6.637  1.00  0.00    -0.006 C 
ATOM      6  C   UNL     1       3.424  16.732  -6.070  1.00  0.00    -0.070 C 
ATOM      7  C   UNL     1       4.392  16.682  -4.909  1.00  0.00     0.039 C 
ATOM      8  C   UNL     1       2.857  15.415  -6.546  1.00  0.00     0.039 C 
ATOM      9  C   UNL     1       2.215  17.994  -7.866  1.00  0.00     0.159 C 
ATOM     10  O   UNL     1       2.210  17.062  -8.714  1.00  0.00    -0.295 OA
ATOM     11  C   UNL     1       1.354  19.198  -8.116  1.00  0.00     0.084 C 
ENDROOT
TORSDOF 0
ENDMDL
MODEL 5
REMARK VINA RESULT:    -4.689      1.812      4.280
REMARK INTER + INTRA:          -4.689
REMARK INTER:                  -4.689
REMARK INTRA:                   0.000
REMARK UNBOUND:                 0.000
REMARK SMILES CC(C)=C1CC[C@H](C)CC1=O
REMARK SMILES IDX 8 1 7 2 6 3 5 4 4 5 2 6 1 7 3 8 10 9 11 10 9 11
REMARK H PARENT
REMARK Flexibility Score: inf
ROOT
ATOM      1  C   UNL     1       2.726  20.925  -8.455  1.00  0.00     0.008 C 
ATOM      2  C   UNL     1       2.689  19.405  -8.255  1.00  0.00    -0.006 C 
ATOM      3  C   UNL     1       4.065  18.788  -8.555  1.00  0.00     0.008 C 
ATOM      4  C   UNL     1       4.022  17.258  -8.460  1.00  0.00     0.039 C 
ATOM      5  C   UNL     1       3.436  16.771  -7.140  1.00  0.00    -0.006 C 
ATOM      6  C   UNL     1       3.854  15.604  -6.566  1.00  0.00    -0.070 C 
ATOM      7  C   UNL     1       4.901  14.736  -7.227  1.00  0.00     0.039 C 
ATOM      8  C   UNL     1       3.322  15.139  -5.230  1.00  0.00     0.039 C 
ATOM      9  C   UNL     1       2.312  17.580  -6.584  1.00  0.00     0.159 C 
ATOM     10  O   UNL     1       1.388  17.044  -5.915  1.00  0.00    -0.295 OA
ATOM     11  C   UNL     1       2.261  19.061  -6.821  1.00  0.00     0.084 C 
ENDROOT
TORSDOF 0
ENDMDL
MODEL 6
REMARK VINA RESULT:    -4.587      1.851      2.214
REMARK INTER + INTRA:          -4.587
REMARK INTER:                  -4.587
REMARK INTRA:                   0.000
REMARK UNBOUND:                 0.000
REMARK SMILES CC(C)=C1CC[C@H](C)CC1=O
REMARK SMILES IDX 8 1 7 2 6 3 5 4 4 5 2 6 1 7 3 8 10 9 11 10 9 11
REMARK H PARENT
REMARK Flexibility Score: inf
ROOT
ATOM      1  C   UNL     1       6.015  12.929  -8.598  1.00  0.00     0.008 C 
ATOM      2  C   UNL     1       5.417  14.185  -7.953  1.00  0.00    -0.006 C 
ATOM      3  C   UNL     1       4.652  15.015  -8.996  1.00  0.00     0.008 C 
ATOM      4  C   UNL     1       4.133  16.327  -8.393  1.00  0.00     0.039 C 
ATOM      5  C   UNL     1       3.332  16.105  -7.116  1.00  0.00    -0.006 C 
ATOM      6  C   UNL     1       2.297  16.930  -6.777  1.00  0.00    -0.070 C 
ATOM      7  C   UNL     1       1.917  18.109  -7.644  1.00  0.00     0.039 C 
ATOM      8  C   UNL     1       1.459  16.688  -5.543  1.00  0.00     0.039 C 
ATOM      9  C   UNL     1       3.817  15.018  -6.217  1.00  0.00     0.159 C 
ATOM     10  O   UNL     1       3.687  15.095  -4.966  1.00  0.00    -0.295 OA
ATOM     11  C   UNL     1       4.482  13.803  -6.797  1.00  0.00     0.084 C 
ENDROOT
TORSDOF 0
ENDMDL
MODEL 7
REMARK VINA RESULT:    -4.532      1.764      2.168
REMARK INTER + INTRA:          -4.532
REMARK INTER:                  -4.532
REMARK INTRA:                   0.000
REMARK UNBOUND:                 0.000
REMARK SMILES CC(C)=C1CC[C@H](C)CC1=O
REMARK SMILES IDX 8 1 7 2 6 3 5 4 4 5 2 6 1 7 3 8 10 9 11 10 9 11
REMARK H PARENT
REMARK Flexibility Score: inf
ROOT
ATOM      1  C   UNL     1       3.680  14.465  -6.074  1.00  0.00     0.008 C 
ATOM      2  C   UNL     1       3.711  15.869  -6.687  1.00  0.00    -0.006 C 
ATOM      3  C   UNL     1       2.604  16.022  -7.742  1.00  0.00     0.008 C 
ATOM      4  C   UNL     1       2.682  17.387  -8.439  1.00  0.00     0.039 C 
ATOM      5  C   UNL     1       2.714  18.546  -7.451  1.00  0.00    -0.006 C 
ATOM      6  C   UNL     1       2.161  19.756  -7.760  1.00  0.00    -0.070 C 
ATOM      7  C   UNL     1       1.512  20.002  -9.103  1.00  0.00     0.039 C 
ATOM      8  C   UNL     1       2.137  20.896  -6.767  1.00  0.00     0.039 C 
ATOM      9  C   UNL     1       3.479  18.313  -6.191  1.00  0.00     0.159 C 
ATOM     10  O   UNL     1       4.084  19.252  -5.608  1.00  0.00    -0.295 OA
ATOM     11  C   UNL     1       3.546  16.936  -5.595  1.00  0.00     0.084 C 
ENDROOT
TORSDOF 0
ENDMDL
MODEL 8
REMARK VINA RESULT:    -4.414      1.748      4.618
REMARK INTER + INTRA:          -4.414
REMARK INTER:                  -4.414
REMARK INTRA:                   0.000
REMARK UNBOUND:                 0.000
REMARK SMILES CC(C)=C1CC[C@H](C)CC1=O
REMARK SMILES IDX 8 1 7 2 6 3 5 4 4 5 2 6 1 7 3 8 10 9 11 10 9 11
REMARK H PARENT
REMARK Flexibility Score: inf
ROOT
ATOM      1  C   UNL     1       3.001  20.008  -6.828  1.00  0.00     0.008 C 
ATOM      2  C   UNL     1       3.487  18.554  -6.825  1.00  0.00    -0.006 C 
ATOM      3  C   UNL     1       2.531  17.668  -6.011  1.00  0.00     0.008 C 
ATOM      4  C   UNL     1       3.054  16.229  -5.910  1.00  0.00     0.039 C 
ATOM      5  C   UNL     1       3.390  15.633  -7.271  1.00  0.00    -0.006 C 
ATOM      6  C   UNL     1       3.247  14.297  -7.515  1.00  0.00    -0.070 C 
ATOM      7  C   UNL     1       2.769  13.350  -6.439  1.00  0.00     0.039 C 
ATOM      8  C   UNL     1       3.523  13.703  -8.878  1.00  0.00     0.039 C 
ATOM      9  C   UNL     1       3.987  16.570  -8.268  1.00  0.00     0.159 C 
ATOM     10  O   UNL     1       4.820  16.172  -9.125  1.00  0.00    -0.295 OA
ATOM     11  C   UNL     1       3.603  18.022  -8.260  1.00  0.00     0.084 C 
ENDROOT
TORSDOF 0
ENDMDL
