MODEL 1
REMARK VINA RESULT:    -3.427      0.000      0.000
REMARK INTER + INTRA:          -6.383
REMARK INTER:                  -5.231
REMARK INTRA:                  -1.152
REMARK UNBOUND:                -1.152
REMARK SMILES OC[C@H]1O[C@H](O[C@]2(CO)O[C@H](CO)[C@H](O)[C@H]2O)[C@@H](O)[C@@H](O)[C@H]1O
REMARK SMILES IDX 6 1 5 2 3 3 22 4 4 5 20 6 18 7 2 8 1 9 23 11 21 13 19 15
REMARK SMILES IDX 7 17 16 18 10 19 14 20 11 21 8 22 9 23 17 25 15 27 12 29
REMARK SMILES IDX 13 30
REMARK H PARENT 1 10 23 12 21 14 19 16 9 24 17 26 15 28 13 31
REMARK Flexibility Score: inf
ROOT
ATOM      1  O   UNL     1      -8.596   5.022  -3.729  1.00  0.00    -0.313 OA
ENDROOT
BRANCH   1   2
ATOM      2  C   UNL     1      -9.544   4.703  -4.745  1.00  0.00     0.285 C 
ATOM      3  C   UNL     1      -8.549   6.212  -6.249  1.00  0.00     0.178 C 
ATOM      4  C   UNL     1      -8.049   5.098  -7.196  1.00  0.00     0.177 C 
ATOM      5  O   UNL     1      -9.747   5.821  -5.596  1.00  0.00    -0.341 OA
ATOM      6  C   UNL     1      -7.828   3.810  -6.383  1.00  0.00     0.179 C 
ATOM      7  C   UNL     1      -9.075   3.467  -5.550  1.00  0.00     0.202 C 
BRANCH   3   8
ATOM      8  C   UNL     1      -8.802   7.519  -7.010  1.00  0.00     0.191 C 
BRANCH   8   9
ATOM      9  O   UNL     1      -8.177   8.580  -6.344  1.00  0.00    -0.394 OA
ATOM     10  H   UNL     1      -8.467   8.521  -5.397  1.00  0.00     0.210 HD
ENDBRANCH   8   9
ENDBRANCH   3   8
BRANCH   4  11
ATOM     11  O   UNL     1      -8.989   4.859  -8.217  1.00  0.00    -0.387 OA
ATOM     12  H   UNL     1      -9.247   3.902  -8.158  1.00  0.00     0.211 HD
ENDBRANCH   4  11
BRANCH   6  13
ATOM     13  O   UNL     1      -7.516   2.737  -7.234  1.00  0.00    -0.387 OA
ATOM     14  H   UNL     1      -6.609   2.423  -6.978  1.00  0.00     0.211 HD
ENDBRANCH   6  13
BRANCH   7  15
ATOM     15  O   UNL     1     -10.108   3.027  -6.395  1.00  0.00    -0.385 OA
ATOM     16  H   UNL     1      -9.677   2.680  -7.219  1.00  0.00     0.211 HD
ENDBRANCH   7  15
ENDBRANCH   1   2
BRANCH   1  17
ATOM     17  C   UNL     1      -9.157   5.637  -2.572  1.00  0.00     0.224 C 
ATOM     18  C   UNL     1      -8.029   6.122  -1.614  1.00  0.00     0.208 C 
ATOM     19  O   UNL     1      -9.955   6.753  -2.929  1.00  0.00    -0.337 OA
ATOM     20  C   UNL     1      -8.298   7.611  -1.442  1.00  0.00     0.180 C 
ATOM     21  C   UNL     1      -9.729   7.755  -1.966  1.00  0.00     0.179 C 
BRANCH  17  22
ATOM     22  C   UNL     1     -10.098   4.590  -1.939  1.00  0.00     0.225 C 
BRANCH  22  23
ATOM     23  O   UNL     1      -9.391   3.421  -1.621  1.00  0.00    -0.391 OA
ATOM     24  H   UNL     1      -8.717   3.302  -2.341  1.00  0.00     0.210 HD
ENDBRANCH  22  23
ENDBRANCH  17  22
BRANCH  18  25
ATOM     25  O   UNL     1      -8.004   5.448  -0.376  1.00  0.00    -0.385 OA
ATOM     26  H   UNL     1      -8.733   4.774  -0.365  1.00  0.00     0.211 HD
ENDBRANCH  18  25
BRANCH  20  27
ATOM     27  O   UNL     1      -7.394   8.364  -2.211  1.00  0.00    -0.387 OA
ATOM     28  H   UNL     1      -6.650   7.751  -2.451  1.00  0.00     0.211 HD
ENDBRANCH  20  27
BRANCH  21  29
ATOM     29  C   UNL     1     -10.038   9.133  -2.569  1.00  0.00     0.191 C 
BRANCH  29  30
ATOM     30  O   UNL     1      -9.735   9.159  -3.938  1.00  0.00    -0.394 OA
ATOM     31  H   UNL     1      -9.757  10.112  -4.215  1.00  0.00     0.210 HD
ENDBRANCH  29  30
ENDBRANCH  21  29
ENDBRANCH   1  17
TORSDOF 13
ENDMDL
MODEL 2
REMARK VINA RESULT:    -3.415      1.443      6.093
REMARK INTER + INTRA:          -6.364
REMARK INTER:                  -5.493
REMARK INTRA:                  -0.871
REMARK UNBOUND:                -1.152
REMARK SMILES OC[C@H]1O[C@H](O[C@]2(CO)O[C@H](CO)[C@H](O)[C@H]2O)[C@@H](O)[C@@H](O)[C@H]1O
REMARK SMILES IDX 6 1 5 2 3 3 22 4 4 5 20 6 18 7 2 8 1 9 23 11 21 13 19 15
REMARK SMILES IDX 7 17 16 18 10 19 14 20 11 21 8 22 9 23 17 25 15 27 12 29
REMARK SMILES IDX 13 30
REMARK H PARENT 1 10 23 12 21 14 19 16 9 24 17 26 15 28 13 31
REMARK Flexibility Score: inf
ROOT
ATOM      1  O   UNL     1      -8.477   6.560  -5.313  1.00  0.00    -0.313 OA
ENDROOT
BRANCH   1   2
ATOM      2  C   UNL     1      -9.484   6.964  -4.389  1.00  0.00     0.285 C 
ATOM      3  C   UNL     1      -8.686   5.471  -2.755  1.00  0.00     0.178 C 
ATOM      4  C   UNL     1      -8.207   6.599  -1.813  1.00  0.00     0.177 C 
ATOM      5  O   UNL     1      -9.809   5.891  -3.516  1.00  0.00    -0.341 OA
ATOM      6  C   UNL     1      -7.860   7.841  -2.652  1.00  0.00     0.179 C 
ATOM      7  C   UNL     1      -9.019   8.208  -3.594  1.00  0.00     0.202 C 
BRANCH   3   8
ATOM      8  C   UNL     1      -9.062   4.210  -1.970  1.00  0.00     0.191 C 
BRANCH   8   9
ATOM      9  O   UNL     1      -7.931   3.709  -1.314  1.00  0.00    -0.394 OA
ATOM     10  H   UNL     1      -7.980   4.046  -0.383  1.00  0.00     0.210 HD
ENDBRANCH   8   9
ENDBRANCH   3   8
BRANCH   4  11
ATOM     11  O   UNL     1      -9.210   6.922  -0.880  1.00  0.00    -0.387 OA
ATOM     12  H   UNL     1      -9.891   7.463  -1.358  1.00  0.00     0.211 HD
ENDBRANCH   4  11
BRANCH   6  13
ATOM     13  O   UNL     1      -7.563   8.933  -1.819  1.00  0.00    -0.387 OA
ATOM     14  H   UNL     1      -8.415   9.204  -1.389  1.00  0.00     0.211 HD
ENDBRANCH   6  13
BRANCH   7  15
ATOM     15  O   UNL     1     -10.093   8.729  -2.851  1.00  0.00    -0.385 OA
ATOM     16  H   UNL     1     -10.152   9.695  -3.071  1.00  0.00     0.211 HD
ENDBRANCH   7  15
ENDBRANCH   1   2
BRANCH   1  17
ATOM     17  C   UNL     1      -8.979   5.963  -6.507  1.00  0.00     0.224 C 
ATOM     18  C   UNL     1      -7.833   5.787  -7.548  1.00  0.00     0.208 C 
ATOM     19  O   UNL     1      -9.541   4.690  -6.238  1.00  0.00    -0.337 OA
ATOM     20  C   UNL     1      -7.837   4.297  -7.861  1.00  0.00     0.180 C 
ATOM     21  C   UNL     1      -9.188   3.841  -7.305  1.00  0.00     0.179 C 
BRANCH  17  22
ATOM     22  C   UNL     1     -10.125   6.872  -6.998  1.00  0.00     0.225 C 
BRANCH  22  23
ATOM     23  O   UNL     1      -9.645   8.158  -7.284  1.00  0.00    -0.391 OA
ATOM     24  H   UNL     1     -10.360   8.610  -7.803  1.00  0.00     0.210 HD
ENDBRANCH  22  23
ENDBRANCH  17  22
BRANCH  18  25
ATOM     25  O   UNL     1      -7.995   6.567  -8.711  1.00  0.00    -0.385 OA
ATOM     26  H   UNL     1      -8.955   6.806  -8.802  1.00  0.00     0.211 HD
ENDBRANCH  18  25
BRANCH  20  27
ATOM     27  O   UNL     1      -6.772   3.656  -7.204  1.00  0.00    -0.387 OA
ATOM     28  H   UNL     1      -6.267   4.366  -6.727  1.00  0.00     0.211 HD
ENDBRANCH  20  27
BRANCH  21  29
ATOM     29  C   UNL     1      -9.211   2.380  -6.834  1.00  0.00     0.191 C 
BRANCH  29  30
ATOM     30  O   UNL     1      -8.622   2.253  -5.568  1.00  0.00    -0.394 OA
ATOM     31  H   UNL     1      -8.289   3.154  -5.319  1.00  0.00     0.210 HD
ENDBRANCH  29  30
ENDBRANCH  21  29
ENDBRANCH   1  17
TORSDOF 13
ENDMDL
MODEL 3
REMARK VINA RESULT:    -3.127      5.096      7.630
REMARK INTER + INTRA:          -5.925
REMARK INTER:                  -4.833
REMARK INTRA:                  -1.091
REMARK UNBOUND:                -1.152
REMARK SMILES OC[C@H]1O[C@H](O[C@]2(CO)O[C@H](CO)[C@H](O)[C@H]2O)[C@@H](O)[C@@H](O)[C@H]1O
REMARK SMILES IDX 6 1 5 2 3 3 22 4 4 5 20 6 18 7 2 8 1 9 23 11 21 13 19 15
REMARK SMILES IDX 7 17 16 18 10 19 14 20 11 21 8 22 9 23 17 25 15 27 12 29
REMARK SMILES IDX 13 30
REMARK H PARENT 1 10 23 12 21 14 19 16 9 24 17 26 15 28 13 31
REMARK Flexibility Score: inf
ROOT
ATOM      1  O   UNL     1      -7.732   1.863  -9.495  1.00  0.00    -0.313 OA
ENDROOT
BRANCH   1   2
ATOM      2  C   UNL     1      -7.547   1.126  -8.290  1.00  0.00     0.285 C 
ATOM      3  C   UNL     1      -8.394  -0.836  -9.273  1.00  0.00     0.178 C 
ATOM      4  C   UNL     1      -7.033  -1.567  -9.229  1.00  0.00     0.177 C 
ATOM      5  O   UNL     1      -8.508   0.084  -8.198  1.00  0.00    -0.341 OA
ATOM      6  C   UNL     1      -5.901  -0.526  -9.284  1.00  0.00     0.179 C 
ATOM      7  C   UNL     1      -6.107   0.564  -8.217  1.00  0.00     0.202 C 
BRANCH   3   8
ATOM      8  C   UNL     1      -9.562  -1.826  -9.205  1.00  0.00     0.191 C 
BRANCH   8   9
ATOM      9  O   UNL     1      -9.114  -3.106  -9.554  1.00  0.00    -0.394 OA
ATOM     10  H   UNL     1      -9.928  -3.636  -9.760  1.00  0.00     0.210 HD
ENDBRANCH   8   9
ENDBRANCH   3   8
BRANCH   4  11
ATOM     11  O   UNL     1      -6.919  -2.330  -8.051  1.00  0.00    -0.387 OA
ATOM     12  H   UNL     1      -7.551  -1.944  -7.391  1.00  0.00     0.211 HD
ENDBRANCH   4  11
BRANCH   6  13
ATOM     13  O   UNL     1      -4.653  -1.143  -9.098  1.00  0.00    -0.387 OA
ATOM     14  H   UNL     1      -4.828  -2.009  -8.645  1.00  0.00     0.211 HD
ENDBRANCH   6  13
BRANCH   7  15
ATOM     15  O   UNL     1      -5.865   0.032  -6.939  1.00  0.00    -0.385 OA
ATOM     16  H   UNL     1      -6.538   0.434  -6.329  1.00  0.00     0.211 HD
ENDBRANCH   7  15
ENDBRANCH   1   2
BRANCH   1  17
ATOM     17  C   UNL     1      -7.604   3.275  -9.347  1.00  0.00     0.224 C 
ATOM     18  C   UNL     1      -7.352   3.644  -7.855  1.00  0.00     0.208 C 
ATOM     19  O   UNL     1      -6.524   3.768 -10.121  1.00  0.00    -0.337 OA
ATOM     20  C   UNL     1      -6.044   4.424  -7.877  1.00  0.00     0.180 C 
ATOM     21  C   UNL     1      -5.884   4.767  -9.360  1.00  0.00     0.179 C 
BRANCH  17  22
ATOM     22  C   UNL     1      -8.895   3.890  -9.926  1.00  0.00     0.225 C 
BRANCH  22  23
ATOM     23  O   UNL     1     -10.007   3.513  -9.159  1.00  0.00    -0.391 OA
ATOM     24  H   UNL     1     -10.440   2.767  -9.649  1.00  0.00     0.210 HD
ENDBRANCH  22  23
ENDBRANCH  17  22
BRANCH  18  25
ATOM     25  O   UNL     1      -8.396   4.389  -7.268  1.00  0.00    -0.385 OA
ATOM     26  H   UNL     1      -9.181   3.793  -7.143  1.00  0.00     0.211 HD
ENDBRANCH  18  25
BRANCH  20  27
ATOM     27  O   UNL     1      -4.986   3.618  -7.422  1.00  0.00    -0.387 OA
ATOM     28  H   UNL     1      -4.206   3.823  -8.002  1.00  0.00     0.211 HD
ENDBRANCH  20  27
BRANCH  21  29
ATOM     29  C   UNL     1      -4.425   4.911  -9.816  1.00  0.00     0.191 C 
BRANCH  29  30
ATOM     30  O   UNL     1      -3.642   5.495  -8.809  1.00  0.00    -0.394 OA
ATOM     31  H   UNL     1      -3.634   6.471  -8.988  1.00  0.00     0.210 HD
ENDBRANCH  29  30
ENDBRANCH  21  29
ENDBRANCH   1  17
TORSDOF 13
ENDMDL
MODEL 4
REMARK VINA RESULT:    -3.078      3.852      8.160
REMARK INTER + INTRA:          -5.849
REMARK INTER:                  -4.978
REMARK INTRA:                  -0.871
REMARK UNBOUND:                -1.152
REMARK SMILES OC[C@H]1O[C@H](O[C@]2(CO)O[C@H](CO)[C@H](O)[C@H]2O)[C@@H](O)[C@@H](O)[C@H]1O
REMARK SMILES IDX 6 1 5 2 3 3 22 4 4 5 20 6 18 7 2 8 1 9 23 11 21 13 19 15
REMARK SMILES IDX 7 17 16 18 10 19 14 20 11 21 8 22 9 23 17 25 15 27 12 29
REMARK SMILES IDX 13 30
REMARK H PARENT 1 10 23 12 21 14 19 16 9 24 17 26 15 28 13 31
REMARK Flexibility Score: inf
ROOT
ATOM      1  O   UNL     1      -7.047   1.461  -8.074  1.00  0.00    -0.313 OA
ENDROOT
BRANCH   1   2
ATOM      2  C   UNL     1      -8.173   2.233  -8.482  1.00  0.00     0.285 C 
ATOM      3  C   UNL     1      -8.529   3.008  -6.290  1.00  0.00     0.178 C 
ATOM      4  C   UNL     1      -8.154   4.466  -6.635  1.00  0.00     0.177 C 
ATOM      5  O   UNL     1      -9.101   2.353  -7.413  1.00  0.00    -0.341 OA
ATOM      6  C   UNL     1      -7.171   4.465  -7.819  1.00  0.00     0.179 C 
ATOM      7  C   UNL     1      -7.719   3.625  -8.985  1.00  0.00     0.202 C 
BRANCH   3   8
ATOM      8  C   UNL     1      -9.522   2.948  -5.124  1.00  0.00     0.191 C 
BRANCH   8   9
ATOM      9  O   UNL     1      -8.892   3.372  -3.947  1.00  0.00    -0.394 OA
ATOM     10  H   UNL     1      -9.619   3.624  -3.320  1.00  0.00     0.210 HD
ENDBRANCH   8   9
ENDBRANCH   3   8
BRANCH   4  11
ATOM     11  O   UNL     1      -9.303   5.206  -6.973  1.00  0.00    -0.387 OA
ATOM     12  H   UNL     1      -9.149   6.139  -6.670  1.00  0.00     0.211 HD
ENDBRANCH   4  11
BRANCH   6  13
ATOM     13  O   UNL     1      -6.922   5.777  -8.256  1.00  0.00    -0.387 OA
ATOM     14  H   UNL     1      -6.792   5.731  -9.239  1.00  0.00     0.211 HD
ENDBRANCH   6  13
BRANCH   7  15
ATOM     15  O   UNL     1      -8.800   4.290  -9.588  1.00  0.00    -0.385 OA
ATOM     16  H   UNL     1      -8.742   5.242  -9.310  1.00  0.00     0.211 HD
ENDBRANCH   7  15
ENDBRANCH   1   2
BRANCH   1  17
ATOM     17  C   UNL     1      -6.606   0.508  -9.037  1.00  0.00     0.224 C 
ATOM     18  C   UNL     1      -5.733  -0.588  -8.355  1.00  0.00     0.208 C 
ATOM     19  O   UNL     1      -7.708  -0.123  -9.666  1.00  0.00    -0.337 OA
ATOM     20  C   UNL     1      -6.437  -1.895  -8.698  1.00  0.00     0.180 C 
ATOM     21  C   UNL     1      -7.376  -1.481  -9.834  1.00  0.00     0.179 C 
BRANCH  17  22
ATOM     22  C   UNL     1      -5.857   1.305 -10.125  1.00  0.00     0.225 C 
BRANCH  22  23
ATOM     23  O   UNL     1      -4.780   2.008  -9.566  1.00  0.00    -0.391 OA
ATOM     24  H   UNL     1      -5.074   2.290  -8.661  1.00  0.00     0.210 HD
ENDBRANCH  22  23
ENDBRANCH  17  22
BRANCH  18  25
ATOM     25  O   UNL     1      -4.388  -0.591  -8.780  1.00  0.00    -0.385 OA
ATOM     26  H   UNL     1      -4.079   0.349  -8.863  1.00  0.00     0.211 HD
ENDBRANCH  18  25
BRANCH  20  27
ATOM     27  O   UNL     1      -7.156  -2.369  -7.587  1.00  0.00    -0.387 OA
ATOM     28  H   UNL     1      -7.630  -1.585  -7.202  1.00  0.00     0.211 HD
ENDBRANCH  20  27
BRANCH  21  29
ATOM     29  C   UNL     1      -8.658  -2.322  -9.923  1.00  0.00     0.191 C 
BRANCH  29  30
ATOM     30  O   UNL     1      -9.628  -1.851  -9.027  1.00  0.00    -0.394 OA
ATOM     31  H   UNL     1     -10.439  -2.405  -9.170  1.00  0.00     0.210 HD
ENDBRANCH  29  30
ENDBRANCH  21  29
ENDBRANCH   1  17
TORSDOF 13
ENDMDL
MODEL 5
REMARK VINA RESULT:    -2.759      1.663      6.010
REMARK INTER + INTRA:          -5.363
REMARK INTER:                  -4.508
REMARK INTRA:                  -0.855
REMARK UNBOUND:                -1.152
REMARK SMILES OC[C@H]1O[C@H](O[C@]2(CO)O[C@H](CO)[C@H](O)[C@H]2O)[C@@H](O)[C@@H](O)[C@H]1O
REMARK SMILES IDX 6 1 5 2 3 3 22 4 4 5 20 6 18 7 2 8 1 9 23 11 21 13 19 15
REMARK SMILES IDX 7 17 16 18 10 19 14 20 11 21 8 22 9 23 17 25 15 27 12 29
REMARK SMILES IDX 13 30
REMARK H PARENT 1 10 23 12 21 14 19 16 9 24 17 26 15 28 13 31
REMARK Flexibility Score: inf
ROOT
ATOM      1  O   UNL     1      -8.333   5.469  -5.486  1.00  0.00    -0.313 OA
ENDROOT
BRANCH   1   2
ATOM      2  C   UNL     1      -9.452   6.229  -5.037  1.00  0.00     0.285 C 
ATOM      3  C   UNL     1      -9.281   5.337  -2.867  1.00  0.00     0.178 C 
ATOM      4  C   UNL     1      -8.868   6.685  -2.236  1.00  0.00     0.177 C 
ATOM      5  O   UNL     1     -10.125   5.543  -3.991  1.00  0.00    -0.341 OA
ATOM      6  C   UNL     1      -8.155   7.541  -3.299  1.00  0.00     0.179 C 
ATOM      7  C   UNL     1      -9.000   7.637  -4.581  1.00  0.00     0.202 C 
BRANCH   3   8
ATOM      8  C   UNL     1     -10.012   4.447  -1.855  1.00  0.00     0.191 C 
BRANCH   8   9
ATOM      9  O   UNL     1      -9.536   3.134  -1.953  1.00  0.00    -0.394 OA
ATOM     10  H   UNL     1      -8.935   3.000  -1.175  1.00  0.00     0.210 HD
ENDBRANCH   8   9
ENDBRANCH   3   8
BRANCH   4  11
ATOM     11  O   UNL     1      -9.998   7.373  -1.753  1.00  0.00    -0.387 OA
ATOM     12  H   UNL     1     -10.133   7.087  -0.812  1.00  0.00     0.211 HD
ENDBRANCH   4  11
BRANCH   6  13
ATOM     13  O   UNL     1      -7.897   8.829  -2.803  1.00  0.00    -0.387 OA
ATOM     14  H   UNL     1      -6.913   8.898  -2.686  1.00  0.00     0.211 HD
ENDBRANCH   6  13
BRANCH   7  15
ATOM     15  O   UNL     1     -10.125   8.449  -4.352  1.00  0.00    -0.385 OA
ATOM     16  H   UNL     1     -10.137   9.132  -5.073  1.00  0.00     0.211 HD
ENDBRANCH   7  15
ENDBRANCH   1   2
BRANCH   1  17
ATOM     17  C   UNL     1      -8.509   4.857  -6.761  1.00  0.00     0.224 C 
ATOM     18  C   UNL     1      -8.749   5.941  -7.854  1.00  0.00     0.208 C 
ATOM     19  O   UNL     1      -7.366   4.101  -7.121  1.00  0.00    -0.337 OA
ATOM     20  C   UNL     1      -7.649   5.690  -8.878  1.00  0.00     0.180 C 
ATOM     21  C   UNL     1      -7.152   4.293  -8.500  1.00  0.00     0.179 C 
BRANCH  17  22
ATOM     22  C   UNL     1      -9.680   3.865  -6.607  1.00  0.00     0.225 C 
BRANCH  22  23
ATOM     23  O   UNL     1      -9.378   2.892  -5.644  1.00  0.00    -0.391 OA
ATOM     24  H   UNL     1      -8.482   2.537  -5.881  1.00  0.00     0.210 HD
ENDBRANCH  22  23
ENDBRANCH  17  22
BRANCH  18  25
ATOM     25  O   UNL     1     -10.030   5.887  -8.439  1.00  0.00    -0.385 OA
ATOM     26  H   UNL     1      -9.933   5.948  -9.426  1.00  0.00     0.211 HD
ENDBRANCH  18  25
BRANCH  20  27
ATOM     27  O   UNL     1      -6.629   6.648  -8.745  1.00  0.00    -0.387 OA
ATOM     28  H   UNL     1      -5.793   6.216  -9.063  1.00  0.00     0.211 HD
ENDBRANCH  20  27
BRANCH  21  29
ATOM     29  C   UNL     1      -5.675   4.042  -8.836  1.00  0.00     0.191 C 
BRANCH  29  30
ATOM     30  O   UNL     1      -4.883   4.093  -7.680  1.00  0.00    -0.394 OA
ATOM     31  H   UNL     1      -4.105   4.670  -7.895  1.00  0.00     0.210 HD
ENDBRANCH  29  30
ENDBRANCH  21  29
ENDBRANCH   1  17
TORSDOF 13
ENDMDL
MODEL 6
REMARK VINA RESULT:    -2.751      3.442      5.383
REMARK INTER + INTRA:          -5.350
REMARK INTER:                  -3.943
REMARK INTRA:                  -1.407
REMARK UNBOUND:                -1.152
REMARK SMILES OC[C@H]1O[C@H](O[C@]2(CO)O[C@H](CO)[C@H](O)[C@H]2O)[C@@H](O)[C@@H](O)[C@H]1O
REMARK SMILES IDX 6 1 5 2 3 3 22 4 4 5 20 6 18 7 2 8 1 9 23 11 21 13 19 15
REMARK SMILES IDX 7 17 16 18 10 19 14 20 11 21 8 22 9 23 17 25 15 27 12 29
REMARK SMILES IDX 13 30
REMARK H PARENT 1 10 23 12 21 14 19 16 9 24 17 26 15 28 13 31
REMARK Flexibility Score: inf
ROOT
ATOM      1  O   UNL     1      -8.202   2.379  -7.111  1.00  0.00    -0.313 OA
ENDROOT
BRANCH   1   2
ATOM      2  C   UNL     1      -8.157   1.940  -8.466  1.00  0.00     0.285 C 
ATOM      3  C   UNL     1      -5.869   2.459  -8.636  1.00  0.00     0.178 C 
ATOM      4  C   UNL     1      -5.439   0.980  -8.765  1.00  0.00     0.177 C 
ATOM      5  O   UNL     1      -7.163   2.659  -9.184  1.00  0.00    -0.341 OA
ATOM      6  C   UNL     1      -6.473   0.092  -8.051  1.00  0.00     0.179 C 
ATOM      7  C   UNL     1      -7.898   0.415  -8.531  1.00  0.00     0.202 C 
BRANCH   3   8
ATOM      8  C   UNL     1      -4.881   3.392  -9.345  1.00  0.00     0.191 C 
BRANCH   8   9
ATOM      9  O   UNL     1      -4.660   4.529  -8.559  1.00  0.00    -0.394 OA
ATOM     10  H   UNL     1      -4.469   4.198  -7.643  1.00  0.00     0.210 HD
ENDBRANCH   8   9
ENDBRANCH   3   8
BRANCH   4  11
ATOM     11  O   UNL     1      -5.349   0.608 -10.120  1.00  0.00    -0.387 OA
ATOM     12  H   UNL     1      -4.771  -0.197 -10.164  1.00  0.00     0.211 HD
ENDBRANCH   4  11
BRANCH   6  13
ATOM     13  O   UNL     1      -6.194  -1.267  -8.274  1.00  0.00    -0.387 OA
ATOM     14  H   UNL     1      -6.358  -1.737  -7.415  1.00  0.00     0.211 HD
ENDBRANCH   6  13
BRANCH   7  15
ATOM     15  O   UNL     1      -8.075  -0.044  -9.847  1.00  0.00    -0.385 OA
ATOM     16  H   UNL     1      -7.666  -0.947  -9.894  1.00  0.00     0.211 HD
ENDBRANCH   7  15
ENDBRANCH   1   2
BRANCH   1  17
ATOM     17  C   UNL     1      -9.012   3.531  -6.892  1.00  0.00     0.224 C 
ATOM     18  C   UNL     1      -8.144   4.712  -6.364  1.00  0.00     0.208 C 
ATOM     19  O   UNL     1      -9.644   3.940  -8.092  1.00  0.00    -0.337 OA
ATOM     20  C   UNL     1      -8.384   5.832  -7.367  1.00  0.00     0.180 C 
ATOM     21  C   UNL     1      -9.628   5.349  -8.117  1.00  0.00     0.179 C 
BRANCH  17  22
ATOM     22  C   UNL     1     -10.125   3.098  -5.916  1.00  0.00     0.225 C 
BRANCH  22  23
ATOM     23  O   UNL     1      -9.573   2.663  -4.702  1.00  0.00    -0.391 OA
ATOM     24  H   UNL     1      -9.709   1.680  -4.674  1.00  0.00     0.210 HD
ENDBRANCH  22  23
ENDBRANCH  17  22
BRANCH  18  25
ATOM     25  O   UNL     1      -8.462   5.110  -5.049  1.00  0.00    -0.385 OA
ATOM     26  H   UNL     1      -7.716   5.662  -4.694  1.00  0.00     0.211 HD
ENDBRANCH  18  25
BRANCH  20  27
ATOM     27  O   UNL     1      -7.284   5.959  -8.232  1.00  0.00    -0.387 OA
ATOM     28  H   UNL     1      -7.414   6.808  -8.731  1.00  0.00     0.211 HD
ENDBRANCH  20  27
BRANCH  21  29
ATOM     29  C   UNL     1      -9.716   5.843  -9.568  1.00  0.00     0.191 C 
BRANCH  29  30
ATOM     30  O   UNL     1      -9.440   7.216  -9.646  1.00  0.00    -0.394 OA
ATOM     31  H   UNL     1     -10.110   7.605 -10.266  1.00  0.00     0.210 HD
ENDBRANCH  29  30
ENDBRANCH  21  29
ENDBRANCH   1  17
TORSDOF 13
ENDMDL
MODEL 7
REMARK VINA RESULT:    -2.746      1.798      5.950
REMARK INTER + INTRA:          -5.343
REMARK INTER:                  -4.220
REMARK INTRA:                  -1.123
REMARK UNBOUND:                -1.152
REMARK SMILES OC[C@H]1O[C@H](O[C@]2(CO)O[C@H](CO)[C@H](O)[C@H]2O)[C@@H](O)[C@@H](O)[C@H]1O
REMARK SMILES IDX 6 1 5 2 3 3 22 4 4 5 20 6 18 7 2 8 1 9 23 11 21 13 19 15
REMARK SMILES IDX 7 17 16 18 10 19 14 20 11 21 8 22 9 23 17 25 15 27 12 29
REMARK SMILES IDX 13 30
REMARK H PARENT 1 10 23 12 21 14 19 16 9 24 17 26 15 28 13 31
REMARK Flexibility Score: inf
ROOT
ATOM      1  O   UNL     1      -9.809   4.612  -5.622  1.00  0.00    -0.313 OA
ENDROOT
BRANCH   1   2
ATOM      2  C   UNL     1      -8.748   5.005  -4.754  1.00  0.00     0.285 C 
ATOM      3  C   UNL     1      -9.946   6.893  -4.025  1.00  0.00     0.178 C 
ATOM      4  C   UNL     1     -10.125   6.352  -2.589  1.00  0.00     0.177 C 
ATOM      5  O   UNL     1      -8.738   6.417  -4.598  1.00  0.00    -0.341 OA
ATOM      6  C   UNL     1     -10.113   4.813  -2.627  1.00  0.00     0.179 C 
ATOM      7  C   UNL     1      -8.880   4.294  -3.386  1.00  0.00     0.202 C 
BRANCH   3   8
ATOM      8  C   UNL     1      -9.934   8.426  -4.046  1.00  0.00     0.191 C 
BRANCH   8   9
ATOM      9  O   UNL     1      -8.613   8.885  -4.095  1.00  0.00    -0.394 OA
ATOM     10  H   UNL     1      -8.389   8.982  -5.057  1.00  0.00     0.210 HD
ENDBRANCH   8   9
ENDBRANCH   3   8
BRANCH   4  11
ATOM     11  O   UNL     1      -9.089   6.814  -1.754  1.00  0.00    -0.387 OA
ATOM     12  H   UNL     1      -9.505   7.079  -0.892  1.00  0.00     0.211 HD
ENDBRANCH   4  11
BRANCH   6  13
ATOM     13  O   UNL     1     -10.124   4.287  -1.324  1.00  0.00    -0.387 OA
ATOM     14  H   UNL     1     -10.871   4.731  -0.843  1.00  0.00     0.211 HD
ENDBRANCH   6  13
BRANCH   7  15
ATOM     15  O   UNL     1      -7.721   4.511  -2.621  1.00  0.00    -0.385 OA
ATOM     16  H   UNL     1      -7.430   3.624  -2.282  1.00  0.00     0.211 HD
ENDBRANCH   7  15
ENDBRANCH   1   2
BRANCH   1  17
ATOM     17  C   UNL     1      -9.437   4.501  -6.993  1.00  0.00     0.224 C 
ATOM     18  C   UNL     1      -7.897   4.312  -7.125  1.00  0.00     0.208 C 
ATOM     19  O   UNL     1     -10.079   3.395  -7.603  1.00  0.00    -0.337 OA
ATOM     20  C   UNL     1      -7.743   3.011  -7.901  1.00  0.00     0.180 C 
ATOM     21  C   UNL     1      -9.147   2.794  -8.471  1.00  0.00     0.179 C 
BRANCH  17  22
ATOM     22  C   UNL     1      -9.965   5.773  -7.689  1.00  0.00     0.225 C 
BRANCH  22  23
ATOM     23  O   UNL     1      -9.305   6.911  -7.202  1.00  0.00    -0.391 OA
ATOM     24  H   UNL     1     -10.016   7.552  -6.941  1.00  0.00     0.210 HD
ENDBRANCH  22  23
ENDBRANCH  17  22
BRANCH  18  25
ATOM     25  O   UNL     1      -7.244   5.385  -7.767  1.00  0.00    -0.385 OA
ATOM     26  H   UNL     1      -6.341   5.493  -7.368  1.00  0.00     0.211 HD
ENDBRANCH  18  25
BRANCH  20  27
ATOM     27  O   UNL     1      -7.377   1.966  -7.035  1.00  0.00    -0.387 OA
ATOM     28  H   UNL     1      -6.797   1.354  -7.561  1.00  0.00     0.211 HD
ENDBRANCH  20  27
BRANCH  21  29
ATOM     29  C   UNL     1      -9.514   1.319  -8.687  1.00  0.00     0.191 C 
BRANCH  29  30
ATOM     30  O   UNL     1      -8.482   0.638  -9.348  1.00  0.00    -0.394 OA
ATOM     31  H   UNL     1      -8.908   0.117 -10.077  1.00  0.00     0.210 HD
ENDBRANCH  29  30
ENDBRANCH  21  29
ENDBRANCH   1  17
TORSDOF 13
ENDMDL
MODEL 8
REMARK VINA RESULT:    -2.732     19.909     21.902
REMARK INTER + INTRA:          -5.321
REMARK INTER:                  -4.375
REMARK INTRA:                  -0.946
REMARK UNBOUND:                -1.152
REMARK SMILES OC[C@H]1O[C@H](O[C@]2(CO)O[C@H](CO)[C@H](O)[C@H]2O)[C@@H](O)[C@@H](O)[C@H]1O
REMARK SMILES IDX 6 1 5 2 3 3 22 4 4 5 20 6 18 7 2 8 1 9 23 11 21 13 19 15
REMARK SMILES IDX 7 17 16 18 10 19 14 20 11 21 8 22 9 23 17 25 15 27 12 29
REMARK SMILES IDX 13 30
REMARK H PARENT 1 10 23 12 21 14 19 16 9 24 17 26 15 28 13 31
REMARK Flexibility Score: inf
ROOT
ATOM      1  O   UNL     1       7.797  -7.884  -6.104  1.00  0.00    -0.313 OA
ENDROOT
BRANCH   1   2
ATOM      2  C   UNL     1       8.998  -7.207  -5.740  1.00  0.00     0.285 C 
ATOM      3  C   UNL     1       9.172  -6.221  -7.868  1.00  0.00     0.178 C 
ATOM      4  C   UNL     1       8.910  -4.793  -7.340  1.00  0.00     0.177 C 
ATOM      5  O   UNL     1       9.818  -7.014  -6.884  1.00  0.00    -0.341 OA
ATOM      6  C   UNL     1       8.052  -4.878  -6.065  1.00  0.00     0.179 C 
ATOM      7  C   UNL     1       8.670  -5.859  -5.054  1.00  0.00     0.202 C 
BRANCH   3   8
ATOM      8  C   UNL     1      10.038  -6.198  -9.133  1.00  0.00     0.191 C 
BRANCH   8   9
ATOM      9  O   UNL     1       9.818  -5.006  -9.833  1.00  0.00    -0.394 OA
ATOM     10  H   UNL     1      10.581  -4.411  -9.612  1.00  0.00     0.210 HD
ENDBRANCH   8   9
ENDBRANCH   3   8
BRANCH   4  11
ATOM     11  O   UNL     1      10.125  -4.141  -7.052  1.00  0.00    -0.387 OA
ATOM     12  H   UNL     1       9.897  -3.275  -6.623  1.00  0.00     0.211 HD
ENDBRANCH   4  11
BRANCH   6  13
ATOM     13  O   UNL     1       7.918  -3.610  -5.474  1.00  0.00    -0.387 OA
ATOM     14  H   UNL     1       6.946  -3.455  -5.350  1.00  0.00     0.211 HD
ENDBRANCH   6  13
BRANCH   7  15
ATOM     15  O   UNL     1       9.840  -5.307  -4.504  1.00  0.00    -0.385 OA
ATOM     16  H   UNL     1       9.969  -5.733  -3.617  1.00  0.00     0.211 HD
ENDBRANCH   7  15
ENDBRANCH   1   2
BRANCH   1  17
ATOM     17  C   UNL     1       7.527  -9.056  -5.338  1.00  0.00     0.224 C 
ATOM     18  C   UNL     1       7.491  -8.715  -3.818  1.00  0.00     0.208 C 
ATOM     19  O   UNL     1       6.278  -9.620  -5.701  1.00  0.00    -0.337 OA
ATOM     20  C   UNL     1       6.114  -9.179  -3.363  1.00  0.00     0.180 C 
ATOM     21  C   UNL     1       5.662 -10.074  -4.519  1.00  0.00     0.179 C 
BRANCH  17  22
ATOM     22  C   UNL     1       8.616 -10.081  -5.715  1.00  0.00     0.225 C 
BRANCH  22  23
ATOM     23  O   UNL     1       8.872 -10.042  -7.094  1.00  0.00    -0.391 OA
ATOM     24  H   UNL     1       9.594  -9.374  -7.222  1.00  0.00     0.210 HD
ENDBRANCH  22  23
ENDBRANCH  17  22
BRANCH  18  25
ATOM     25  O   UNL     1       8.521  -9.324  -3.073  1.00  0.00    -0.385 OA
ATOM     26  H   UNL     1       8.570 -10.284  -3.322  1.00  0.00     0.211 HD
ENDBRANCH  18  25
BRANCH  20  27
ATOM     27  O   UNL     1       5.254  -8.078  -3.203  1.00  0.00    -0.387 OA
ATOM     28  H   UNL     1       5.727  -7.293  -3.587  1.00  0.00     0.211 HD
ENDBRANCH  20  27
BRANCH  21  29
ATOM     29  C   UNL     1       4.140 -10.125  -4.714  1.00  0.00     0.191 C 
BRANCH  29  30
ATOM     30  O   UNL     1       3.670  -8.938  -5.294  1.00  0.00    -0.394 OA
ATOM     31  H   UNL     1       2.997  -8.564  -4.668  1.00  0.00     0.210 HD
ENDBRANCH  29  30
ENDBRANCH  21  29
ENDBRANCH   1  17
TORSDOF 13
ENDMDL
MODEL 9
REMARK VINA RESULT:    -2.700     20.371     22.816
REMARK INTER + INTRA:          -5.273
REMARK INTER:                  -4.751
REMARK INTRA:                  -0.522
REMARK UNBOUND:                -1.152
REMARK SMILES OC[C@H]1O[C@H](O[C@]2(CO)O[C@H](CO)[C@H](O)[C@H]2O)[C@@H](O)[C@@H](O)[C@H]1O
REMARK SMILES IDX 6 1 5 2 3 3 22 4 4 5 20 6 18 7 2 8 1 9 23 11 21 13 19 15
REMARK SMILES IDX 7 17 16 18 10 19 14 20 11 21 8 22 9 23 17 25 15 27 12 29
REMARK SMILES IDX 13 30
REMARK H PARENT 1 10 23 12 21 14 19 16 9 24 17 26 15 28 13 31
REMARK Flexibility Score: inf
ROOT
ATOM      1  O   UNL     1       8.717  -7.474  -6.900  1.00  0.00    -0.313 OA
ENDROOT
BRANCH   1   2
ATOM      2  C   UNL     1       8.111  -8.685  -6.455  1.00  0.00     0.285 C 
ATOM      3  C   UNL     1       9.056  -8.457  -4.313  1.00  0.00     0.178 C 
ATOM      4  C   UNL     1       7.694  -8.218  -3.626  1.00  0.00     0.177 C 
ATOM      5  O   UNL     1       8.909  -9.294  -5.451  1.00  0.00    -0.341 OA
ATOM      6  C   UNL     1       6.722  -7.589  -4.640  1.00  0.00     0.179 C 
ATOM      7  C   UNL     1       6.677  -8.412  -5.939  1.00  0.00     0.202 C 
BRANCH   3   8
ATOM      8  C   UNL     1      10.062  -9.099  -3.352  1.00  0.00     0.191 C 
BRANCH   8   9
ATOM      9  O   UNL     1       9.830  -8.637  -2.051  1.00  0.00    -0.394 OA
ATOM     10  H   UNL     1       8.902  -8.287  -2.044  1.00  0.00     0.210 HD
ENDBRANCH   8   9
ENDBRANCH   3   8
BRANCH   4  11
ATOM     11  O   UNL     1       7.161  -9.431  -3.149  1.00  0.00    -0.387 OA
ATOM     12  H   UNL     1       6.198  -9.276  -2.965  1.00  0.00     0.211 HD
ENDBRANCH   4  11
BRANCH   6  13
ATOM     13  O   UNL     1       5.431  -7.494  -4.094  1.00  0.00    -0.387 OA
ATOM     14  H   UNL     1       4.987  -8.366  -4.258  1.00  0.00     0.211 HD
ENDBRANCH   6  13
BRANCH   7  15
ATOM     15  O   UNL     1       6.012  -9.628  -5.712  1.00  0.00    -0.385 OA
ATOM     16  H   UNL     1       6.652 -10.222  -5.239  1.00  0.00     0.211 HD
ENDBRANCH   7  15
ENDBRANCH   1   2
BRANCH   1  17
ATOM     17  C   UNL     1       9.188  -7.511  -8.245  1.00  0.00     0.224 C 
ATOM     18  C   UNL     1       7.990  -7.503  -9.240  1.00  0.00     0.208 C 
ATOM     19  O   UNL     1      10.012  -6.392  -8.523  1.00  0.00    -0.337 OA
ATOM     20  C   UNL     1       8.246  -6.290 -10.125  1.00  0.00     0.180 C 
ATOM     21  C   UNL     1       9.713  -5.966  -9.832  1.00  0.00     0.179 C 
BRANCH  17  22
ATOM     22  C   UNL     1      10.076  -8.768  -8.358  1.00  0.00     0.225 C 
BRANCH  22  23
ATOM     23  O   UNL     1      10.123  -9.220  -9.685  1.00  0.00    -0.391 OA
ATOM     24  H   UNL     1       9.548  -8.602 -10.207  1.00  0.00     0.210 HD
ENDBRANCH  22  23
ENDBRANCH  17  22
BRANCH  18  25
ATOM     25  O   UNL     1       7.869  -8.686  -9.997  1.00  0.00    -0.385 OA
ATOM     26  H   UNL     1       8.621  -8.728 -10.645  1.00  0.00     0.211 HD
ENDBRANCH  18  25
BRANCH  20  27
ATOM     27  O   UNL     1       7.405  -5.227  -9.754  1.00  0.00    -0.387 OA
ATOM     28  H   UNL     1       6.563  -5.341 -10.269  1.00  0.00     0.211 HD
ENDBRANCH  20  27
BRANCH  21  29
ATOM     29  C   UNL     1      10.069  -4.480  -9.988  1.00  0.00     0.191 C 
BRANCH  29  30
ATOM     30  O   UNL     1       9.488  -3.717  -8.966  1.00  0.00    -0.394 OA
ATOM     31  H   UNL     1       8.787  -3.158  -9.393  1.00  0.00     0.210 HD
ENDBRANCH  29  30
ENDBRANCH  21  29
ENDBRANCH   1  17
TORSDOF 13
ENDMDL
