MODEL 1
REMARK VINA RESULT:    -2.990      0.000      0.000
REMARK INTER + INTRA:          -7.399
REMARK INTER:                  -5.437
REMARK INTRA:                  -1.963
REMARK UNBOUND:                -1.963
REMARK SMILES CCCCCCCCCCCCCCCC(=O)[O-]
REMARK SMILES IDX 9 1 10 2 11 3 12 4 13 5 14 6 15 7 16 8 17 9 18 10 8 11 7 12
REMARK SMILES IDX 6 13 5 14 4 15 3 16 2 17 1 18
REMARK H PARENT
REMARK Flexibility Score: inf
ROOT
ATOM      1  C   UNL     1      20.290   7.375  15.688  1.00  0.00     0.000 C 
ENDROOT
BRANCH   1   2
ATOM      2  C   UNL     1      18.754   7.372  15.717  1.00  0.00     0.000 C 
BRANCH   2   3
ATOM      3  C   UNL     1      18.212   8.739  16.162  1.00  0.00     0.000 C 
BRANCH   3   4
ATOM      4  C   UNL     1      18.131   8.876  17.690  1.00  0.00     0.000 C 
BRANCH   4   5
ATOM      5  C   UNL     1      19.082   9.951  18.239  1.00  0.00     0.000 C 
BRANCH   5   6
ATOM      6  C   UNL     1      19.467  10.955  17.143  1.00  0.00     0.006 C 
BRANCH   6   7
ATOM      7  C   UNL     1      20.983  11.179  17.066  1.00  0.00     0.053 C 
BRANCH   7   8
ATOM      8  C   UNL     1      21.329  12.637  17.069  1.00  0.00     0.041 C 
ATOM      9  O   UNL     1      21.627  13.220  15.993  1.00  0.00    -0.550 OA
ATOM     10  O   UNL     1      21.353  13.343  18.264  1.00  0.00    -0.550 OA
ENDBRANCH   7   8
ENDBRANCH   6   7
ENDBRANCH   5   6
ENDBRANCH   4   5
ENDBRANCH   3   4
ENDBRANCH   2   3
ENDBRANCH   1   2
BRANCH   1  11
ATOM     11  C   UNL     1      20.909   6.495  16.788  1.00  0.00     0.000 C 
BRANCH  11  12
ATOM     12  C   UNL     1      21.632   7.261  17.915  1.00  0.00    -0.000 C 
BRANCH  12  13
ATOM     13  C   UNL     1      23.014   7.831  17.544  1.00  0.00    -0.000 C 
BRANCH  13  14
ATOM     14  C   UNL     1      24.101   6.749  17.449  1.00  0.00    -0.000 C 
BRANCH  14  15
ATOM     15  C   UNL     1      25.209   7.098  16.438  1.00  0.00    -0.000 C 
BRANCH  15  16
ATOM     16  C   UNL     1      25.069   6.431  15.058  1.00  0.00    -0.000 C 
BRANCH  16  17
ATOM     17  C   UNL     1      23.995   5.334  15.027  1.00  0.00    -0.003 C 
ATOM     18  C   UNL     1      23.213   5.366  13.717  1.00  0.00     0.004 C 
ENDBRANCH  16  17
ENDBRANCH  15  16
ENDBRANCH  14  15
ENDBRANCH  13  14
ENDBRANCH  12  13
ENDBRANCH  11  12
ENDBRANCH   1  11
TORSDOF 14
ENDMDL
MODEL 2
REMARK VINA RESULT:    -2.942      1.004      2.513
REMARK INTER + INTRA:          -7.313
REMARK INTER:                  -5.250
REMARK INTRA:                  -2.063
REMARK UNBOUND:                -1.963
REMARK SMILES CCCCCCCCCCCCCCCC(=O)[O-]
REMARK SMILES IDX 9 1 10 2 11 3 12 4 13 5 14 6 15 7 16 8 17 9 18 10 8 11 7 12
REMARK SMILES IDX 6 13 5 14 4 15 3 16 2 17 1 18
REMARK H PARENT
REMARK Flexibility Score: inf
ROOT
ATOM      1  C   UNL     1      20.692   6.054  16.623  1.00  0.00     0.000 C 
ENDROOT
BRANCH   1   2
ATOM      2  C   UNL     1      20.677   7.431  15.944  1.00  0.00     0.000 C 
BRANCH   2   3
ATOM      3  C   UNL     1      19.261   8.028  15.944  1.00  0.00     0.000 C 
BRANCH   3   4
ATOM      4  C   UNL     1      19.153   9.298  16.801  1.00  0.00     0.000 C 
BRANCH   4   5
ATOM      5  C   UNL     1      20.088   9.272  18.020  1.00  0.00     0.000 C 
BRANCH   5   6
ATOM      6  C   UNL     1      20.742  10.644  18.240  1.00  0.00     0.006 C 
BRANCH   6   7
ATOM      7  C   UNL     1      21.364  11.204  16.954  1.00  0.00     0.053 C 
BRANCH   7   8
ATOM      8  C   UNL     1      21.342  12.703  16.935  1.00  0.00     0.041 C 
ATOM      9  O   UNL     1      20.994  13.344  17.961  1.00  0.00    -0.550 OA
ATOM     10  O   UNL     1      21.676  13.388  15.774  1.00  0.00    -0.550 OA
ENDBRANCH   7   8
ENDBRANCH   6   7
ENDBRANCH   5   6
ENDBRANCH   4   5
ENDBRANCH   3   4
ENDBRANCH   2   3
ENDBRANCH   1   2
BRANCH   1  11
ATOM     11  C   UNL     1      21.826   5.148  16.112  1.00  0.00     0.000 C 
BRANCH  11  12
ATOM     12  C   UNL     1      22.595   5.685  14.887  1.00  0.00    -0.000 C 
BRANCH  12  13
ATOM     13  C   UNL     1      24.056   5.215  14.768  1.00  0.00    -0.000 C 
BRANCH  13  14
ATOM     14  C   UNL     1      25.068   6.360  14.936  1.00  0.00    -0.000 C 
BRANCH  14  15
ATOM     15  C   UNL     1      25.229   6.808  16.400  1.00  0.00    -0.000 C 
BRANCH  15  16
ATOM     16  C   UNL     1      24.511   8.120  16.766  1.00  0.00    -0.000 C 
BRANCH  16  17
ATOM     17  C   UNL     1      23.646   7.999  18.029  1.00  0.00    -0.003 C 
ATOM     18  C   UNL     1      23.868   6.658  18.721  1.00  0.00     0.004 C 
ENDBRANCH  16  17
ENDBRANCH  15  16
ENDBRANCH  14  15
ENDBRANCH  13  14
ENDBRANCH  12  13
ENDBRANCH  11  12
ENDBRANCH   1  11
TORSDOF 14
ENDMDL
MODEL 3
REMARK VINA RESULT:    -2.829      1.279      2.240
REMARK INTER + INTRA:          -7.108
REMARK INTER:                  -5.292
REMARK INTRA:                  -1.816
REMARK UNBOUND:                -1.963
REMARK SMILES CCCCCCCCCCCCCCCC(=O)[O-]
REMARK SMILES IDX 9 1 10 2 11 3 12 4 13 5 14 6 15 7 16 8 17 9 18 10 8 11 7 12
REMARK SMILES IDX 6 13 5 14 4 15 3 16 2 17 1 18
REMARK H PARENT
REMARK Flexibility Score: inf
ROOT
ATOM      1  C   UNL     1      20.152   8.030  15.705  1.00  0.00     0.000 C 
ENDROOT
BRANCH   1   2
ATOM      2  C   UNL     1      18.673   7.684  15.926  1.00  0.00     0.000 C 
BRANCH   2   3
ATOM      3  C   UNL     1      18.011   8.687  16.883  1.00  0.00     0.000 C 
BRANCH   3   4
ATOM      4  C   UNL     1      18.751  10.033  16.936  1.00  0.00     0.000 C 
BRANCH   4   5
ATOM      5  C   UNL     1      19.177  10.419  18.360  1.00  0.00     0.000 C 
BRANCH   5   6
ATOM      6  C   UNL     1      20.646  10.866  18.391  1.00  0.00     0.006 C 
BRANCH   6   7
ATOM      7  C   UNL     1      21.142  11.331  17.016  1.00  0.00     0.053 C 
BRANCH   7   8
ATOM      8  C   UNL     1      21.290  12.821  16.954  1.00  0.00     0.041 C 
ATOM      9  O   UNL     1      21.751  13.370  15.919  1.00  0.00    -0.550 OA
ATOM     10  O   UNL     1      20.950  13.599  18.053  1.00  0.00    -0.550 OA
ENDBRANCH   7   8
ENDBRANCH   6   7
ENDBRANCH   5   6
ENDBRANCH   4   5
ENDBRANCH   3   4
ENDBRANCH   2   3
ENDBRANCH   1   2
BRANCH   1  11
ATOM     11  C   UNL     1      21.107   6.971  16.283  1.00  0.00     0.000 C 
BRANCH  11  12
ATOM     12  C   UNL     1      21.454   7.143  17.776  1.00  0.00    -0.000 C 
BRANCH  12  13
ATOM     13  C   UNL     1      22.761   7.904  18.066  1.00  0.00    -0.000 C 
BRANCH  13  14
ATOM     14  C   UNL     1      23.762   7.838  16.902  1.00  0.00    -0.000 C 
BRANCH  14  15
ATOM     15  C   UNL     1      24.668   6.594  16.958  1.00  0.00    -0.000 C 
BRANCH  15  16
ATOM     16  C   UNL     1      26.149   6.876  17.269  1.00  0.00    -0.000 C 
BRANCH  16  17
ATOM     17  C   UNL     1      26.431   7.015  18.772  1.00  0.00    -0.003 C 
ATOM     18  C   UNL     1      26.606   8.479  19.166  1.00  0.00     0.004 C 
ENDBRANCH  16  17
ENDBRANCH  15  16
ENDBRANCH  14  15
ENDBRANCH  13  14
ENDBRANCH  12  13
ENDBRANCH  11  12
ENDBRANCH   1  11
TORSDOF 14
ENDMDL
MODEL 4
REMARK VINA RESULT:    -2.808      2.986      6.373
REMARK INTER + INTRA:          -7.069
REMARK INTER:                  -4.937
REMARK INTRA:                  -2.132
REMARK UNBOUND:                -1.963
REMARK SMILES CCCCCCCCCCCCCCCC(=O)[O-]
REMARK SMILES IDX 9 1 10 2 11 3 12 4 13 5 14 6 15 7 16 8 17 9 18 10 8 11 7 12
REMARK SMILES IDX 6 13 5 14 4 15 3 16 2 17 1 18
REMARK H PARENT
REMARK Flexibility Score: inf
ROOT
ATOM      1  C   UNL     1      21.377   7.768  16.736  1.00  0.00     0.000 C 
ENDROOT
BRANCH   1   2
ATOM      2  C   UNL     1      22.114   9.035  17.192  1.00  0.00     0.000 C 
BRANCH   2   3
ATOM      3  C   UNL     1      22.202   9.097  18.725  1.00  0.00     0.000 C 
BRANCH   3   4
ATOM      4  C   UNL     1      23.071   7.975  19.315  1.00  0.00     0.000 C 
BRANCH   4   5
ATOM      5  C   UNL     1      24.574   8.231  19.131  1.00  0.00     0.000 C 
BRANCH   5   6
ATOM      6  C   UNL     1      25.261   7.022  18.478  1.00  0.00     0.006 C 
BRANCH   6   7
ATOM      7  C   UNL     1      25.616   7.279  17.007  1.00  0.00     0.053 C 
BRANCH   7   8
ATOM      8  C   UNL     1      24.857   6.373  16.087  1.00  0.00     0.041 C 
ATOM      9  O   UNL     1      24.021   5.553  16.552  1.00  0.00    -0.550 OA
ATOM     10  O   UNL     1      25.097   6.411  14.720  1.00  0.00    -0.550 OA
ENDBRANCH   7   8
ENDBRANCH   6   7
ENDBRANCH   5   6
ENDBRANCH   4   5
ENDBRANCH   3   4
ENDBRANCH   2   3
ENDBRANCH   1   2
BRANCH   1  11
ATOM     11  C   UNL     1      20.277   8.057  15.699  1.00  0.00     0.000 C 
BRANCH  11  12
ATOM     12  C   UNL     1      18.849   8.173  16.270  1.00  0.00    -0.000 C 
BRANCH  12  13
ATOM     13  C   UNL     1      18.334   9.611  16.472  1.00  0.00    -0.000 C 
BRANCH  13  14
ATOM     14  C   UNL     1      18.398  10.069  17.938  1.00  0.00    -0.000 C 
BRANCH  14  15
ATOM     15  C   UNL     1      19.258  11.331  18.135  1.00  0.00    -0.000 C 
BRANCH  15  16
ATOM     16  C   UNL     1      19.713  12.023  16.837  1.00  0.00    -0.000 C 
BRANCH  16  17
ATOM     17  C   UNL     1      21.166  12.518  16.899  1.00  0.00    -0.003 C 
ATOM     18  C   UNL     1      21.561  12.890  18.325  1.00  0.00     0.004 C 
ENDBRANCH  16  17
ENDBRANCH  15  16
ENDBRANCH  14  15
ENDBRANCH  13  14
ENDBRANCH  12  13
ENDBRANCH  11  12
ENDBRANCH   1  11
TORSDOF 14
ENDMDL
MODEL 5
REMARK VINA RESULT:    -2.763      1.642      4.027
REMARK INTER + INTRA:          -6.987
REMARK INTER:                  -4.648
REMARK INTRA:                  -2.339
REMARK UNBOUND:                -1.963
REMARK SMILES CCCCCCCCCCCCCCCC(=O)[O-]
REMARK SMILES IDX 9 1 10 2 11 3 12 4 13 5 14 6 15 7 16 8 17 9 18 10 8 11 7 12
REMARK SMILES IDX 6 13 5 14 4 15 3 16 2 17 1 18
REMARK H PARENT
REMARK Flexibility Score: inf
ROOT
ATOM      1  C   UNL     1      25.511   8.582  19.112  1.00  0.00     0.000 C 
ENDROOT
BRANCH   1   2
ATOM      2  C   UNL     1      24.818   7.696  20.157  1.00  0.00     0.000 C 
BRANCH   2   3
ATOM      3  C   UNL     1      23.296   7.900  20.127  1.00  0.00     0.000 C 
BRANCH   3   4
ATOM      4  C   UNL     1      22.888   9.226  19.465  1.00  0.00     0.000 C 
BRANCH   4   5
ATOM      5  C   UNL     1      21.618   9.095  18.611  1.00  0.00     0.000 C 
BRANCH   5   6
ATOM      6  C   UNL     1      21.765   9.862  17.288  1.00  0.00     0.006 C 
BRANCH   6   7
ATOM      7  C   UNL     1      20.716  10.972  17.140  1.00  0.00     0.053 C 
BRANCH   7   8
ATOM      8  C   UNL     1      21.319  12.332  17.316  1.00  0.00     0.041 C 
ATOM      9  O   UNL     1      21.604  13.034  16.310  1.00  0.00    -0.550 OA
ATOM     10  O   UNL     1      21.596  12.810  18.590  1.00  0.00    -0.550 OA
ENDBRANCH   7   8
ENDBRANCH   6   7
ENDBRANCH   5   6
ENDBRANCH   4   5
ENDBRANCH   3   4
ENDBRANCH   2   3
ENDBRANCH   1   2
BRANCH   1  11
ATOM     11  C   UNL     1      25.890   7.813  17.834  1.00  0.00     0.000 C 
BRANCH  11  12
ATOM     12  C   UNL     1      24.925   7.997  16.645  1.00  0.00    -0.000 C 
BRANCH  12  13
ATOM     13  C   UNL     1      24.642   6.725  15.822  1.00  0.00    -0.000 C 
BRANCH  13  14
ATOM     14  C   UNL     1      23.997   5.606  16.655  1.00  0.00    -0.000 C 
BRANCH  14  15
ATOM     15  C   UNL     1      22.558   5.936  17.093  1.00  0.00    -0.000 C 
BRANCH  15  16
ATOM     16  C   UNL     1      21.603   6.335  15.954  1.00  0.00    -0.000 C 
BRANCH  16  17
ATOM     17  C   UNL     1      20.123   6.277  16.364  1.00  0.00    -0.003 C 
ATOM     18  C   UNL     1      19.334   7.422  15.736  1.00  0.00     0.004 C 
ENDBRANCH  16  17
ENDBRANCH  15  16
ENDBRANCH  14  15
ENDBRANCH  13  14
ENDBRANCH  12  13
ENDBRANCH  11  12
ENDBRANCH   1  11
TORSDOF 14
ENDMDL
MODEL 6
REMARK VINA RESULT:    -2.756      3.041      5.978
REMARK INTER + INTRA:          -6.975
REMARK INTER:                  -4.939
REMARK INTRA:                  -2.036
REMARK UNBOUND:                -1.963
REMARK SMILES CCCCCCCCCCCCCCCC(=O)[O-]
REMARK SMILES IDX 9 1 10 2 11 3 12 4 13 5 14 6 15 7 16 8 17 9 18 10 8 11 7 12
REMARK SMILES IDX 6 13 5 14 4 15 3 16 2 17 1 18
REMARK H PARENT
REMARK Flexibility Score: inf
ROOT
ATOM      1  C   UNL     1      20.317   7.182  15.465  1.00  0.00     0.000 C 
ENDROOT
BRANCH   1   2
ATOM      2  C   UNL     1      20.617   5.898  16.253  1.00  0.00     0.000 C 
BRANCH   2   3
ATOM      3  C   UNL     1      22.046   5.407  15.979  1.00  0.00     0.000 C 
BRANCH   3   4
ATOM      4  C   UNL     1      23.085   6.061  16.904  1.00  0.00     0.000 C 
BRANCH   4   5
ATOM      5  C   UNL     1      24.197   6.784  16.128  1.00  0.00     0.000 C 
BRANCH   5   6
ATOM      6  C   UNL     1      24.609   8.081  16.839  1.00  0.00     0.006 C 
BRANCH   6   7
ATOM      7  C   UNL     1      24.801   7.880  18.348  1.00  0.00     0.053 C 
BRANCH   7   8
ATOM      8  C   UNL     1      26.243   7.670  18.700  1.00  0.00     0.041 C 
ATOM      9  O   UNL     1      26.754   6.523  18.617  1.00  0.00    -0.550 OA
ATOM     10  O   UNL     1      27.010   8.736  19.151  1.00  0.00    -0.550 OA
ENDBRANCH   7   8
ENDBRANCH   6   7
ENDBRANCH   5   6
ENDBRANCH   4   5
ENDBRANCH   3   4
ENDBRANCH   2   3
ENDBRANCH   1   2
BRANCH   1  11
ATOM     11  C   UNL     1      19.648   8.268  16.324  1.00  0.00     0.000 C 
BRANCH  11  12
ATOM     12  C   UNL     1      20.076   8.291  17.806  1.00  0.00    -0.000 C 
BRANCH  12  13
ATOM     13  C   UNL     1      21.211   9.273  18.149  1.00  0.00    -0.000 C 
BRANCH  13  14
ATOM     14  C   UNL     1      21.604  10.171  16.965  1.00  0.00    -0.000 C 
BRANCH  14  15
ATOM     15  C   UNL     1      21.125  11.625  17.130  1.00  0.00    -0.000 C 
BRANCH  15  16
ATOM     16  C   UNL     1      20.161  11.868  18.306  1.00  0.00    -0.000 C 
BRANCH  16  17
ATOM     17  C   UNL     1      18.800  12.425  17.861  1.00  0.00    -0.003 C 
ATOM     18  C   UNL     1      18.277  11.684  16.634  1.00  0.00     0.004 C 
ENDBRANCH  16  17
ENDBRANCH  15  16
ENDBRANCH  14  15
ENDBRANCH  13  14
ENDBRANCH  12  13
ENDBRANCH  11  12
ENDBRANCH   1  11
TORSDOF 14
ENDMDL
MODEL 7
REMARK VINA RESULT:    -2.748      1.769      2.423
REMARK INTER + INTRA:          -6.960
REMARK INTER:                  -5.036
REMARK INTRA:                  -1.924
REMARK UNBOUND:                -1.963
REMARK SMILES CCCCCCCCCCCCCCCC(=O)[O-]
REMARK SMILES IDX 9 1 10 2 11 3 12 4 13 5 14 6 15 7 16 8 17 9 18 10 8 11 7 12
REMARK SMILES IDX 6 13 5 14 4 15 3 16 2 17 1 18
REMARK H PARENT
REMARK Flexibility Score: inf
ROOT
ATOM      1  C   UNL     1      22.066   8.707  17.226  1.00  0.00     0.000 C 
ENDROOT
BRANCH   1   2
ATOM      2  C   UNL     1      21.206   7.688  16.463  1.00  0.00     0.000 C 
BRANCH   2   3
ATOM      3  C   UNL     1      19.873   8.313  16.027  1.00  0.00     0.000 C 
BRANCH   3   4
ATOM      4  C   UNL     1      19.229   9.167  17.131  1.00  0.00     0.000 C 
BRANCH   4   5
ATOM      5  C   UNL     1      18.418  10.346  16.570  1.00  0.00     0.000 C 
BRANCH   5   6
ATOM      6  C   UNL     1      18.734  11.641  17.333  1.00  0.00     0.006 C 
BRANCH   6   7
ATOM      7  C   UNL     1      19.974  11.502  18.227  1.00  0.00     0.053 C 
BRANCH   7   8
ATOM      8  C   UNL     1      21.107  12.352  17.740  1.00  0.00     0.041 C 
ATOM      9  O   UNL     1      21.406  12.369  16.517  1.00  0.00    -0.550 OA
ATOM     10  O   UNL     1      21.853  13.099  18.642  1.00  0.00    -0.550 OA
ENDBRANCH   7   8
ENDBRANCH   6   7
ENDBRANCH   5   6
ENDBRANCH   4   5
ENDBRANCH   3   4
ENDBRANCH   2   3
ENDBRANCH   1   2
BRANCH   1  11
ATOM     11  C   UNL     1      22.477   8.212  18.624  1.00  0.00     0.000 C 
BRANCH  11  12
ATOM     12  C   UNL     1      22.700   9.320  19.675  1.00  0.00    -0.000 C 
BRANCH  12  13
ATOM     13  C   UNL     1      24.092   9.333  20.334  1.00  0.00    -0.000 C 
BRANCH  13  14
ATOM     14  C   UNL     1      24.939   8.104  19.967  1.00  0.00    -0.000 C 
BRANCH  14  15
ATOM     15  C   UNL     1      26.189   8.461  19.142  1.00  0.00    -0.000 C 
BRANCH  15  16
ATOM     16  C   UNL     1      26.055   8.248  17.624  1.00  0.00    -0.000 C 
BRANCH  16  17
ATOM     17  C   UNL     1      25.724   6.796  17.248  1.00  0.00    -0.003 C 
ATOM     18  C   UNL     1      24.989   6.727  15.913  1.00  0.00     0.004 C 
ENDBRANCH  16  17
ENDBRANCH  15  16
ENDBRANCH  14  15
ENDBRANCH  13  14
ENDBRANCH  12  13
ENDBRANCH  11  12
ENDBRANCH   1  11
TORSDOF 14
ENDMDL
MODEL 8
REMARK VINA RESULT:    -2.744      2.816      5.713
REMARK INTER + INTRA:          -6.953
REMARK INTER:                  -4.578
REMARK INTRA:                  -2.376
REMARK UNBOUND:                -1.963
REMARK SMILES CCCCCCCCCCCCCCCC(=O)[O-]
REMARK SMILES IDX 9 1 10 2 11 3 12 4 13 5 14 6 15 7 16 8 17 9 18 10 8 11 7 12
REMARK SMILES IDX 6 13 5 14 4 15 3 16 2 17 1 18
REMARK H PARENT
REMARK Flexibility Score: inf
ROOT
ATOM      1  C   UNL     1      20.780   7.466  15.788  1.00  0.00     0.000 C 
ENDROOT
BRANCH   1   2
ATOM      2  C   UNL     1      21.921   7.663  16.797  1.00  0.00     0.000 C 
BRANCH   2   3
ATOM      3  C   UNL     1      21.725   6.767  18.028  1.00  0.00     0.000 C 
BRANCH   3   4
ATOM      4  C   UNL     1      21.906   7.528  19.351  1.00  0.00     0.000 C 
BRANCH   4   5
ATOM      5  C   UNL     1      22.930   8.668  19.243  1.00  0.00     0.000 C 
BRANCH   5   6
ATOM      6  C   UNL     1      24.151   8.395  20.133  1.00  0.00     0.006 C 
BRANCH   6   7
ATOM      7  C   UNL     1      25.471   8.501  19.357  1.00  0.00     0.053 C 
BRANCH   7   8
ATOM      8  C   UNL     1      25.456   7.655  18.120  1.00  0.00     0.041 C 
ATOM      9  O   UNL     1      25.566   8.190  16.985  1.00  0.00    -0.550 OA
ATOM     10  O   UNL     1      25.287   6.280  18.220  1.00  0.00    -0.550 OA
ENDBRANCH   7   8
ENDBRANCH   6   7
ENDBRANCH   5   6
ENDBRANCH   4   5
ENDBRANCH   3   4
ENDBRANCH   2   3
ENDBRANCH   1   2
BRANCH   1  11
ATOM     11  C   UNL     1      19.568   6.736  16.393  1.00  0.00     0.000 C 
BRANCH  11  12
ATOM     12  C   UNL     1      18.379   7.640  16.776  1.00  0.00    -0.000 C 
BRANCH  12  13
ATOM     13  C   UNL     1      18.319   8.996  16.048  1.00  0.00    -0.000 C 
BRANCH  13  14
ATOM     14  C   UNL     1      18.324  10.193  17.012  1.00  0.00    -0.000 C 
BRANCH  14  15
ATOM     15  C   UNL     1      19.322  10.025  18.173  1.00  0.00    -0.000 C 
BRANCH  15  16
ATOM     16  C   UNL     1      20.364  11.149  18.310  1.00  0.00    -0.000 C 
BRANCH  16  17
ATOM     17  C   UNL     1      21.260  11.292  17.071  1.00  0.00    -0.003 C 
ATOM     18  C   UNL     1      21.338  12.745  16.613  1.00  0.00     0.004 C 
ENDBRANCH  16  17
ENDBRANCH  15  16
ENDBRANCH  14  15
ENDBRANCH  13  14
ENDBRANCH  12  13
ENDBRANCH  11  12
ENDBRANCH   1  11
TORSDOF 14
ENDMDL
MODEL 9
REMARK VINA RESULT:    -2.703      1.366      4.278
REMARK INTER + INTRA:          -6.878
REMARK INTER:                  -4.645
REMARK INTRA:                  -2.233
REMARK UNBOUND:                -1.963
REMARK SMILES CCCCCCCCCCCCCCCC(=O)[O-]
REMARK SMILES IDX 9 1 10 2 11 3 12 4 13 5 14 6 15 7 16 8 17 9 18 10 8 11 7 12
REMARK SMILES IDX 6 13 5 14 4 15 3 16 2 17 1 18
REMARK H PARENT
REMARK Flexibility Score: inf
ROOT
ATOM      1  C   UNL     1      24.681   7.876  16.590  1.00  0.00     0.000 C 
ENDROOT
BRANCH   1   2
ATOM      2  C   UNL     1      25.237   7.913  18.021  1.00  0.00     0.000 C 
BRANCH   2   3
ATOM      3  C   UNL     1      24.118   8.179  19.038  1.00  0.00     0.000 C 
BRANCH   3   4
ATOM      4  C   UNL     1      22.793   8.582  18.370  1.00  0.00     0.000 C 
BRANCH   4   5
ATOM      5  C   UNL     1      21.750   9.085  19.380  1.00  0.00     0.000 C 
BRANCH   5   6
ATOM      6  C   UNL     1      20.892  10.204  18.771  1.00  0.00     0.006 C 
BRANCH   6   7
ATOM      7  C   UNL     1      21.438  10.685  17.420  1.00  0.00     0.053 C 
BRANCH   7   8
ATOM      8  C   UNL     1      20.816  11.982  17.001  1.00  0.00     0.041 C 
ATOM      9  O   UNL     1      19.615  12.231  17.288  1.00  0.00    -0.550 OA
ATOM     10  O   UNL     1      21.553  12.901  16.265  1.00  0.00    -0.550 OA
ENDBRANCH   7   8
ENDBRANCH   6   7
ENDBRANCH   5   6
ENDBRANCH   4   5
ENDBRANCH   3   4
ENDBRANCH   2   3
ENDBRANCH   1   2
BRANCH   1  11
ATOM     11  C   UNL     1      24.997   6.559  15.860  1.00  0.00     0.000 C 
BRANCH  11  12
ATOM     12  C   UNL     1      23.769   5.699  15.493  1.00  0.00    -0.000 C 
BRANCH  12  13
ATOM     13  C   UNL     1      22.932   5.202  16.686  1.00  0.00    -0.000 C 
BRANCH  13  14
ATOM     14  C   UNL     1      21.481   5.710  16.651  1.00  0.00    -0.000 C 
BRANCH  14  15
ATOM     15  C   UNL     1      21.248   6.787  15.576  1.00  0.00    -0.000 C 
BRANCH  15  16
ATOM     16  C   UNL     1      19.791   7.260  15.427  1.00  0.00    -0.000 C 
BRANCH  16  17
ATOM     17  C   UNL     1      19.145   7.646  16.766  1.00  0.00    -0.003 C 
ATOM     18  C   UNL     1      18.230   8.856  16.607  1.00  0.00     0.004 C 
ENDBRANCH  16  17
ENDBRANCH  15  16
ENDBRANCH  14  15
ENDBRANCH  13  14
ENDBRANCH  12  13
ENDBRANCH  11  12
ENDBRANCH   1  11
TORSDOF 14
ENDMDL
