MODEL 1
REMARK VINA RESULT:    -6.634      0.000      0.000
REMARK INTER + INTRA:         -10.558
REMARK INTER:                  -8.961
REMARK INTRA:                  -1.597
REMARK UNBOUND:                -1.597
REMARK SMILES CC[C@H](CC[C@H](C)[C@@H]1CC[C@@H]2[C@@H]3CC(=O)C4=CC(=O)CC[C@]4(C)[C@@H]3CC[C@@]21C)C(C)C
REMARK SMILES IDX 4 1 3 2 2 3 1 4 29 5 30 6 31 7 5 8 6 9 7 10 8 11 9 12 27 13
REMARK SMILES IDX 10 14 11 15 26 16 28 17 12 18 25 19 24 20 13 21 22 22 14 23
REMARK SMILES IDX 16 24 21 25 23 26 15 27 17 28 20 29 18 30 19 31
REMARK H PARENT
REMARK Flexibility Score: inf
ROOT
ATOM      1  C   UNL     1       2.584  79.108 -29.377  1.00  0.00     0.004 C 
ENDROOT
BRANCH   1   2
ATOM      2  C   UNL     1       1.551  80.207 -29.786  1.00  0.00    -0.009 C 
BRANCH   2   3
ATOM      3  C   UNL     1       0.215  79.552 -30.235  1.00  0.00     0.000 C 
ATOM      4  C   UNL     1      -0.088  79.703 -31.731  1.00  0.00     0.004 C 
ENDBRANCH   2   3
BRANCH   2   5
ATOM      5  C   UNL     1       1.366  81.297 -28.675  1.00  0.00    -0.014 C 
ATOM      6  C   UNL     1       2.567  82.260 -28.615  1.00  0.00     0.007 C 
ATOM      7  C   UNL     1       0.088  82.132 -28.877  1.00  0.00     0.007 C 
ENDBRANCH   2   5
ENDBRANCH   1   2
BRANCH   1   8
ATOM      8  C   UNL     1       2.467  78.724 -27.888  1.00  0.00     0.004 C 
BRANCH   8   9
ATOM      9  C   UNL     1       2.161  77.215 -27.644  1.00  0.00    -0.011 C 
ATOM     10  C   UNL     1       2.274  76.451 -28.980  1.00  0.00     0.008 C 
BRANCH   9  11
ATOM     11  C   UNL     1       0.745  77.022 -26.977  1.00  0.00    -0.002 C 
ATOM     12  C   UNL     1       0.066  78.356 -26.666  1.00  0.00     0.005 C 
ATOM     13  C   UNL     1       0.673  76.221 -25.627  1.00  0.00    -0.026 C 
ATOM     14  C   UNL     1      -0.999  78.086 -25.623  1.00  0.00     0.005 C 
ATOM     15  C   UNL     1      -0.637  76.751 -24.942  1.00  0.00    -0.001 C 
ATOM     16  C   UNL     1       1.883  76.535 -24.698  1.00  0.00     0.007 C 
ATOM     17  C   UNL     1       0.583  74.681 -25.911  1.00  0.00     0.012 C 
ATOM     18  C   UNL     1      -0.637  76.752 -23.362  1.00  0.00     0.004 C 
ATOM     19  C   UNL     1       1.770  75.908 -23.294  1.00  0.00     0.005 C 
ATOM     20  C   UNL     1       0.313  75.645 -22.819  1.00  0.00     0.003 C 
ATOM     21  C   UNL     1      -0.367  78.120 -22.672  1.00  0.00     0.085 C 
ATOM     22  C   UNL     1       0.218  75.469 -21.261  1.00  0.00    -0.000 C 
ATOM     23  C   UNL     1      -0.124  78.018 -21.186  1.00  0.00     0.159 C 
ATOM     24  C   UNL     1       0.513  76.818 -20.606  1.00  0.00     0.005 C 
ATOM     25  C   UNL     1       1.155  74.296 -20.767  1.00  0.00     0.020 C 
ATOM     26  C   UNL     1      -1.227  75.075 -20.850  1.00  0.00     0.017 C 
ATOM     27  O   UNL     1      -0.407  79.005 -20.449  1.00  0.00    -0.295 OA
ATOM     28  C   UNL     1       1.315  76.936 -19.532  1.00  0.00     0.055 C 
ATOM     29  C   UNL     1       2.464  74.751 -20.114  1.00  0.00     0.081 C 
ATOM     30  C   UNL     1       2.167  75.823 -19.121  1.00  0.00     0.156 C 
ATOM     31  O   UNL     1       2.672  75.797 -17.965  1.00  0.00    -0.295 OA
ENDBRANCH   9  11
ENDBRANCH   8   9
ENDBRANCH   1   8
TORSDOF 6
ENDMDL
MODEL 2
REMARK VINA RESULT:    -6.494      9.707     11.840
REMARK INTER + INTRA:         -10.369
REMARK INTER:                  -8.936
REMARK INTRA:                  -1.433
REMARK UNBOUND:                -1.597
REMARK SMILES CC[C@H](CC[C@H](C)[C@@H]1CC[C@@H]2[C@@H]3CC(=O)C4=CC(=O)CC[C@]4(C)[C@@H]3CC[C@@]21C)C(C)C
REMARK SMILES IDX 4 1 3 2 2 3 1 4 29 5 30 6 31 7 5 8 6 9 7 10 8 11 9 12 27 13
REMARK SMILES IDX 10 14 11 15 26 16 28 17 12 18 25 19 24 20 13 21 22 22 14 23
REMARK SMILES IDX 16 24 21 25 23 26 15 27 17 28 20 29 18 30 19 31
REMARK H PARENT
REMARK Flexibility Score: inf
ROOT
ATOM      1  C   UNL     1       7.039  75.006 -29.370  1.00  0.00     0.004 C 
ENDROOT
BRANCH   1   2
ATOM      2  C   UNL     1       6.765  73.474 -29.230  1.00  0.00    -0.009 C 
BRANCH   2   3
ATOM      3  C   UNL     1       5.294  73.226 -28.795  1.00  0.00     0.000 C 
ATOM      4  C   UNL     1       4.374  74.442 -28.963  1.00  0.00     0.004 C 
ENDBRANCH   2   3
BRANCH   2   5
ATOM      5  C   UNL     1       7.177  72.674 -30.513  1.00  0.00    -0.014 C 
ATOM      6  C   UNL     1       8.707  72.631 -30.692  1.00  0.00     0.007 C 
ATOM      7  C   UNL     1       6.653  71.226 -30.496  1.00  0.00     0.007 C 
ENDBRANCH   2   5
ENDBRANCH   1   2
BRANCH   1   8
ATOM      8  C   UNL     1       8.131  75.493 -28.395  1.00  0.00     0.004 C 
BRANCH   8   9
ATOM      9  C   UNL     1       9.306  76.250 -29.086  1.00  0.00    -0.011 C 
ATOM     10  C   UNL     1       9.011  76.378 -30.595  1.00  0.00     0.008 C 
BRANCH   9  11
ATOM     11  C   UNL     1      10.683  75.529 -28.817  1.00  0.00    -0.002 C 
ATOM     12  C   UNL     1      10.502  74.184 -28.112  1.00  0.00     0.005 C 
ATOM     13  C   UNL     1      11.751  76.287 -27.951  1.00  0.00    -0.026 C 
ATOM     14  C   UNL     1      11.832  73.829 -27.476  1.00  0.00     0.005 C 
ATOM     15  C   UNL     1      12.638  75.137 -27.351  1.00  0.00    -0.001 C 
ATOM     16  C   UNL     1      11.097  77.075 -26.778  1.00  0.00     0.007 C 
ATOM     17  C   UNL     1      12.602  77.249 -28.852  1.00  0.00     0.012 C 
ATOM     18  C   UNL     1      13.279  75.428 -25.937  1.00  0.00     0.004 C 
ATOM     19  C   UNL     1      12.115  77.694 -25.798  1.00  0.00     0.005 C 
ATOM     20  C   UNL     1      13.483  76.957 -25.738  1.00  0.00     0.003 C 
ATOM     21  C   UNL     1      12.569  74.785 -24.711  1.00  0.00     0.085 C 
ATOM     22  C   UNL     1      14.286  77.302 -24.432  1.00  0.00    -0.000 C 
ATOM     23  C   UNL     1      13.062  75.298 -23.379  1.00  0.00     0.159 C 
ATOM     24  C   UNL     1      13.555  76.684 -23.241  1.00  0.00     0.005 C 
ATOM     25  C   UNL     1      14.518  78.860 -24.306  1.00  0.00     0.020 C 
ATOM     26  C   UNL     1      15.697  76.654 -24.480  1.00  0.00     0.017 C 
ATOM     27  O   UNL     1      12.981  74.549 -22.366  1.00  0.00    -0.295 OA
ATOM     28  C   UNL     1      13.360  77.353 -22.090  1.00  0.00     0.055 C 
ATOM     29  C   UNL     1      13.600  79.568 -23.305  1.00  0.00     0.081 C 
ATOM     30  C   UNL     1      13.583  78.796 -22.029  1.00  0.00     0.156 C 
ATOM     31  O   UNL     1      13.714  79.376 -20.916  1.00  0.00    -0.295 OA
ENDBRANCH   9  11
ENDBRANCH   8   9
ENDBRANCH   1   8
TORSDOF 6
ENDMDL
MODEL 3
REMARK VINA RESULT:    -6.485      4.170     10.002
REMARK INTER + INTRA:         -10.356
REMARK INTER:                  -8.263
REMARK INTRA:                  -2.093
REMARK UNBOUND:                -1.597
REMARK SMILES CC[C@H](CC[C@H](C)[C@@H]1CC[C@@H]2[C@@H]3CC(=O)C4=CC(=O)CC[C@]4(C)[C@@H]3CC[C@@]21C)C(C)C
REMARK SMILES IDX 4 1 3 2 2 3 1 4 29 5 30 6 31 7 5 8 6 9 7 10 8 11 9 12 27 13
REMARK SMILES IDX 10 14 11 15 26 16 28 17 12 18 25 19 24 20 13 21 22 22 14 23
REMARK SMILES IDX 16 24 21 25 23 26 15 27 17 28 20 29 18 30 19 31
REMARK H PARENT
REMARK Flexibility Score: inf
ROOT
ATOM      1  C   UNL     1       7.060  76.263 -17.649  1.00  0.00     0.004 C 
ENDROOT
BRANCH   1   2
ATOM      2  C   UNL     1       6.741  74.868 -17.020  1.00  0.00    -0.009 C 
BRANCH   2   3
ATOM      3  C   UNL     1       7.056  74.877 -15.498  1.00  0.00     0.000 C 
ATOM      4  C   UNL     1       7.709  73.587 -14.984  1.00  0.00     0.004 C 
ENDBRANCH   2   3
BRANCH   2   5
ATOM      5  C   UNL     1       5.289  74.380 -17.352  1.00  0.00    -0.014 C 
ATOM      6  C   UNL     1       4.369  74.446 -16.119  1.00  0.00     0.007 C 
ATOM      7  C   UNL     1       4.639  75.198 -18.483  1.00  0.00     0.007 C 
ENDBRANCH   2   5
ENDBRANCH   1   2
BRANCH   1   8
ATOM      8  C   UNL     1       7.147  77.375 -16.583  1.00  0.00     0.004 C 
BRANCH   8   9
ATOM      9  C   UNL     1       6.704  78.779 -17.094  1.00  0.00    -0.011 C 
ATOM     10  C   UNL     1       7.672  79.849 -16.547  1.00  0.00     0.008 C 
BRANCH   9  11
ATOM     11  C   UNL     1       5.208  79.083 -16.695  1.00  0.00    -0.002 C 
ATOM     12  C   UNL     1       4.545  77.896 -15.996  1.00  0.00     0.005 C 
ATOM     13  C   UNL     1       4.208  79.473 -17.841  1.00  0.00    -0.026 C 
ATOM     14  C   UNL     1       3.046  78.092 -16.105  1.00  0.00     0.005 C 
ATOM     15  C   UNL     1       2.801  79.073 -17.269  1.00  0.00    -0.001 C 
ATOM     16  C   UNL     1       4.466  78.658 -19.143  1.00  0.00     0.007 C 
ATOM     17  C   UNL     1       4.286  81.013 -18.134  1.00  0.00     0.012 C 
ATOM     18  C   UNL     1       1.722  78.633 -18.336  1.00  0.00     0.004 C 
ATOM     19  C   UNL     1       3.404  78.879 -20.239  1.00  0.00     0.005 C 
ATOM     20  C   UNL     1       2.008  79.311 -19.707  1.00  0.00     0.003 C 
ATOM     21  C   UNL     1       1.492  77.103 -18.495  1.00  0.00     0.085 C 
ATOM     22  C   UNL     1       0.869  79.063 -20.760  1.00  0.00    -0.000 C 
ATOM     23  C   UNL     1       0.651  76.732 -19.693  1.00  0.00     0.159 C 
ATOM     24  C   UNL     1       0.681  77.554 -20.919  1.00  0.00     0.005 C 
ATOM     25  C   UNL     1       1.177  79.818 -22.114  1.00  0.00     0.020 C 
ATOM     26  C   UNL     1      -0.480  79.633 -20.240  1.00  0.00     0.017 C 
ATOM     27  O   UNL     1      -0.026  75.666 -19.660  1.00  0.00    -0.295 OA
ATOM     28  C   UNL     1       0.536  76.970 -22.123  1.00  0.00     0.055 C 
ATOM     29  C   UNL     1       1.700  78.926 -23.243  1.00  0.00     0.081 C 
ATOM     30  C   UNL     1       0.840  77.712 -23.345  1.00  0.00     0.156 C 
ATOM     31  O   UNL     1       0.418  77.305 -24.461  1.00  0.00    -0.295 OA
ENDBRANCH   9  11
ENDBRANCH   8   9
ENDBRANCH   1   8
TORSDOF 6
ENDMDL
MODEL 4
REMARK VINA RESULT:    -6.481      3.831      9.414
REMARK INTER + INTRA:         -10.351
REMARK INTER:                  -8.996
REMARK INTRA:                  -1.355
REMARK UNBOUND:                -1.597
REMARK SMILES CC[C@H](CC[C@H](C)[C@@H]1CC[C@@H]2[C@@H]3CC(=O)C4=CC(=O)CC[C@]4(C)[C@@H]3CC[C@@]21C)C(C)C
REMARK SMILES IDX 4 1 3 2 2 3 1 4 29 5 30 6 31 7 5 8 6 9 7 10 8 11 9 12 27 13
REMARK SMILES IDX 10 14 11 15 26 16 28 17 12 18 25 19 24 20 13 21 22 22 14 23
REMARK SMILES IDX 16 24 21 25 23 26 15 27 17 28 20 29 18 30 19 31
REMARK H PARENT
REMARK Flexibility Score: inf
ROOT
ATOM      1  C   UNL     1       6.313  78.500 -16.694  1.00  0.00     0.004 C 
ENDROOT
BRANCH   1   2
ATOM      2  C   UNL     1       7.332  77.334 -16.486  1.00  0.00    -0.009 C 
BRANCH   2   3
ATOM      3  C   UNL     1       6.595  75.966 -16.478  1.00  0.00     0.000 C 
ATOM      4  C   UNL     1       5.745  75.717 -15.225  1.00  0.00     0.004 C 
ENDBRANCH   2   3
BRANCH   2   5
ATOM      5  C   UNL     1       8.524  77.393 -17.503  1.00  0.00    -0.014 C 
ATOM      6  C   UNL     1       9.520  78.513 -17.151  1.00  0.00     0.007 C 
ATOM      7  C   UNL     1       9.298  76.065 -17.578  1.00  0.00     0.007 C 
ENDBRANCH   2   5
ENDBRANCH   1   2
BRANCH   1   8
ATOM      8  C   UNL     1       5.384  78.251 -17.900  1.00  0.00     0.004 C 
BRANCH   8   9
ATOM      9  C   UNL     1       4.045  79.049 -17.844  1.00  0.00    -0.011 C 
ATOM     10  C   UNL     1       4.075  80.010 -16.637  1.00  0.00     0.008 C 
BRANCH   9  11
ATOM     11  C   UNL     1       2.805  78.076 -17.789  1.00  0.00    -0.002 C 
ATOM     12  C   UNL     1       3.221  76.607 -17.851  1.00  0.00     0.005 C 
ATOM     13  C   UNL     1       1.708  78.222 -18.903  1.00  0.00    -0.026 C 
ATOM     14  C   UNL     1       2.004  75.814 -18.283  1.00  0.00     0.005 C 
ATOM     15  C   UNL     1       1.035  76.804 -18.960  1.00  0.00    -0.001 C 
ATOM     16  C   UNL     1       2.330  78.535 -20.296  1.00  0.00     0.007 C 
ATOM     17  C   UNL     1       0.669  79.328 -18.505  1.00  0.00     0.012 C 
ATOM     18  C   UNL     1       0.465  76.368 -20.367  1.00  0.00     0.004 C 
ATOM     19  C   UNL     1       1.310  78.516 -21.453  1.00  0.00     0.005 C 
ATOM     20  C   UNL     1       0.065  77.619 -21.202  1.00  0.00     0.003 C 
ATOM     21  C   UNL     1       1.345  75.389 -21.197  1.00  0.00     0.085 C 
ATOM     22  C   UNL     1      -0.680  77.252 -22.535  1.00  0.00    -0.000 C 
ATOM     23  C   UNL     1       0.883  75.209 -22.623  1.00  0.00     0.159 C 
ATOM     24  C   UNL     1       0.215  76.312 -23.343  1.00  0.00     0.005 C 
ATOM     25  C   UNL     1      -1.116  78.554 -23.317  1.00  0.00     0.020 C 
ATOM     26  C   UNL     1      -1.988  76.472 -22.225  1.00  0.00     0.017 C 
ATOM     27  O   UNL     1       1.141  74.126 -23.219  1.00  0.00    -0.295 OA
ATOM     28  C   UNL     1       0.398  76.457 -24.668  1.00  0.00     0.055 C 
ATOM     29  C   UNL     1      -0.234  78.909 -24.518  1.00  0.00     0.081 C 
ATOM     30  C   UNL     1      -0.018  77.685 -25.342  1.00  0.00     0.156 C 
ATOM     31  O   UNL     1      -0.147  77.714 -26.596  1.00  0.00    -0.295 OA
ENDBRANCH   9  11
ENDBRANCH   8   9
ENDBRANCH   1   8
TORSDOF 6
ENDMDL
MODEL 5
REMARK VINA RESULT:    -6.426     10.870     12.863
REMARK INTER + INTRA:         -10.276
REMARK INTER:                  -8.154
REMARK INTRA:                  -2.122
REMARK UNBOUND:                -1.597
REMARK SMILES CC[C@H](CC[C@H](C)[C@@H]1CC[C@@H]2[C@@H]3CC(=O)C4=CC(=O)CC[C@]4(C)[C@@H]3CC[C@@]21C)C(C)C
REMARK SMILES IDX 4 1 3 2 2 3 1 4 29 5 30 6 31 7 5 8 6 9 7 10 8 11 9 12 27 13
REMARK SMILES IDX 10 14 11 15 26 16 28 17 12 18 25 19 24 20 13 21 22 22 14 23
REMARK SMILES IDX 16 24 21 25 23 26 15 27 17 28 20 29 18 30 19 31
REMARK H PARENT
REMARK Flexibility Score: inf
ROOT
ATOM      1  C   UNL     1      11.571  74.432 -26.567  1.00  0.00     0.004 C 
ENDROOT
BRANCH   1   2
ATOM      2  C   UNL     1      12.120  73.084 -25.998  1.00  0.00    -0.009 C 
BRANCH   2   3
ATOM      3  C   UNL     1      13.451  72.703 -26.703  1.00  0.00     0.000 C 
ATOM      4  C   UNL     1      13.464  71.291 -27.303  1.00  0.00     0.004 C 
ENDBRANCH   2   3
BRANCH   2   5
ATOM      5  C   UNL     1      12.224  73.094 -24.434  1.00  0.00    -0.014 C 
ATOM      6  C   UNL     1      13.677  72.906 -23.958  1.00  0.00     0.007 C 
ATOM      7  C   UNL     1      11.678  74.394 -23.817  1.00  0.00     0.007 C 
ENDBRANCH   2   5
ENDBRANCH   1   2
BRANCH   1   8
ATOM      8  C   UNL     1      12.621  75.176 -27.417  1.00  0.00     0.004 C 
BRANCH   8   9
ATOM      9  C   UNL     1      12.582  76.726 -27.261  1.00  0.00    -0.011 C 
ATOM     10  C   UNL     1      12.716  77.382 -28.651  1.00  0.00     0.008 C 
BRANCH   9  11
ATOM     11  C   UNL     1      13.700  77.226 -26.267  1.00  0.00    -0.002 C 
ATOM     12  C   UNL     1      14.371  76.071 -25.524  1.00  0.00     0.005 C 
ATOM     13  C   UNL     1      13.279  78.230 -25.135  1.00  0.00    -0.026 C 
ATOM     14  C   UNL     1      15.034  76.654 -24.292  1.00  0.00     0.005 C 
ATOM     15  C   UNL     1      14.359  78.012 -24.015  1.00  0.00    -0.001 C 
ATOM     16  C   UNL     1      11.877  77.893 -24.547  1.00  0.00     0.007 C 
ATOM     17  C   UNL     1      13.309  79.704 -25.673  1.00  0.00     0.012 C 
ATOM     18  C   UNL     1      13.873  78.258 -22.532  1.00  0.00     0.004 C 
ATOM     19  C   UNL     1      11.494  78.741 -23.318  1.00  0.00     0.005 C 
ATOM     20  C   UNL     1      12.705  79.285 -22.507  1.00  0.00     0.003 C 
ATOM     21  C   UNL     1      13.533  76.990 -21.697  1.00  0.00     0.085 C 
ATOM     22  C   UNL     1      12.299  79.715 -21.051  1.00  0.00    -0.000 C 
ATOM     23  C   UNL     1      12.836  77.286 -20.390  1.00  0.00     0.159 C 
ATOM     24  C   UNL     1      11.944  78.456 -20.260  1.00  0.00     0.005 C 
ATOM     25  C   UNL     1      11.151  80.800 -21.081  1.00  0.00     0.020 C 
ATOM     26  C   UNL     1      13.505  80.375 -20.329  1.00  0.00     0.017 C 
ATOM     27  O   UNL     1      12.969  76.479 -19.428  1.00  0.00    -0.295 OA
ATOM     28  C   UNL     1      10.865  78.391 -19.459  1.00  0.00     0.055 C 
ATOM     29  C   UNL     1       9.753  80.267 -20.755  1.00  0.00     0.081 C 
ATOM     30  C   UNL     1       9.828  79.419 -19.531  1.00  0.00     0.156 C 
ATOM     31  O   UNL     1       8.993  79.551 -18.595  1.00  0.00    -0.295 OA
ENDBRANCH   9  11
ENDBRANCH   8   9
ENDBRANCH   1   8
TORSDOF 6
ENDMDL
MODEL 6
REMARK VINA RESULT:    -6.386      4.149      8.472
REMARK INTER + INTRA:         -10.223
REMARK INTER:                  -8.141
REMARK INTRA:                  -2.081
REMARK UNBOUND:                -1.597
REMARK SMILES CC[C@H](CC[C@H](C)[C@@H]1CC[C@@H]2[C@@H]3CC(=O)C4=CC(=O)CC[C@]4(C)[C@@H]3CC[C@@]21C)C(C)C
REMARK SMILES IDX 4 1 3 2 2 3 1 4 29 5 30 6 31 7 5 8 6 9 7 10 8 11 9 12 27 13
REMARK SMILES IDX 10 14 11 15 26 16 28 17 12 18 25 19 24 20 13 21 22 22 14 23
REMARK SMILES IDX 16 24 21 25 23 26 15 27 17 28 20 29 18 30 19 31
REMARK H PARENT
REMARK Flexibility Score: inf
ROOT
ATOM      1  C   UNL     1       5.837  78.952 -18.448  1.00  0.00     0.004 C 
ENDROOT
BRANCH   1   2
ATOM      2  C   UNL     1       5.490  77.652 -17.655  1.00  0.00    -0.009 C 
BRANCH   2   3
ATOM      3  C   UNL     1       6.376  77.542 -16.383  1.00  0.00     0.000 C 
ATOM      4  C   UNL     1       7.045  76.174 -16.198  1.00  0.00     0.004 C 
ENDBRANCH   2   3
BRANCH   2   5
ATOM      5  C   UNL     1       3.956  77.523 -17.358  1.00  0.00    -0.014 C 
ATOM      6  C   UNL     1       3.359  76.248 -17.982  1.00  0.00     0.007 C 
ATOM      7  C   UNL     1       3.649  77.511 -15.850  1.00  0.00     0.007 C 
ENDBRANCH   2   5
ENDBRANCH   1   2
BRANCH   1   8
ATOM      8  C   UNL     1       4.884  80.115 -18.104  1.00  0.00     0.004 C 
BRANCH   8   9
ATOM      9  C   UNL     1       4.269  80.822 -19.350  1.00  0.00    -0.011 C 
ATOM     10  C   UNL     1       4.759  82.284 -19.399  1.00  0.00     0.008 C 
BRANCH   9  11
ATOM     11  C   UNL     1       2.695  80.731 -19.336  1.00  0.00    -0.002 C 
ATOM     12  C   UNL     1       2.163  80.112 -18.043  1.00  0.00     0.005 C 
ATOM     13  C   UNL     1       1.997  79.911 -20.480  1.00  0.00    -0.026 C 
ATOM     14  C   UNL     1       0.755  79.626 -18.325  1.00  0.00     0.005 C 
ATOM     15  C   UNL     1       0.623  79.479 -19.853  1.00  0.00    -0.001 C 
ATOM     16  C   UNL     1       2.800  78.630 -20.852  1.00  0.00     0.007 C 
ATOM     17  C   UNL     1       1.785  80.813 -21.747  1.00  0.00     0.012 C 
ATOM     18  C   UNL     1       0.029  78.111 -20.373  1.00  0.00     0.004 C 
ATOM     19  C   UNL     1       2.071  77.703 -21.846  1.00  0.00     0.005 C 
ATOM     20  C   UNL     1       0.521  77.820 -21.820  1.00  0.00     0.003 C 
ATOM     21  C   UNL     1       0.226  76.876 -19.447  1.00  0.00     0.085 C 
ATOM     22  C   UNL     1      -0.180  76.570 -22.464  1.00  0.00    -0.000 C 
ATOM     23  C   UNL     1      -0.128  75.560 -20.098  1.00  0.00     0.159 C 
ATOM     24  C   UNL     1       0.051  75.366 -21.551  1.00  0.00     0.005 C 
ATOM     25  C   UNL     1       0.310  76.352 -23.951  1.00  0.00     0.020 C 
ATOM     26  C   UNL     1      -1.715  76.792 -22.539  1.00  0.00     0.017 C 
ATOM     27  O   UNL     1      -0.512  74.600 -19.372  1.00  0.00    -0.295 OA
ATOM     28  C   UNL     1       0.397  74.157 -22.029  1.00  0.00     0.055 C 
ATOM     29  C   UNL     1       1.329  75.223 -24.133  1.00  0.00     0.081 C 
ATOM     30  C   UNL     1       0.849  74.010 -23.411  1.00  0.00     0.156 C 
ATOM     31  O   UNL     1       0.870  72.875 -23.960  1.00  0.00    -0.295 OA
ENDBRANCH   9  11
ENDBRANCH   8   9
ENDBRANCH   1   8
TORSDOF 6
ENDMDL
MODEL 7
REMARK VINA RESULT:    -6.380      8.765     11.622
REMARK INTER + INTRA:         -10.215
REMARK INTER:                  -8.079
REMARK INTRA:                  -2.136
REMARK UNBOUND:                -1.597
REMARK SMILES CC[C@H](CC[C@H](C)[C@@H]1CC[C@@H]2[C@@H]3CC(=O)C4=CC(=O)CC[C@]4(C)[C@@H]3CC[C@@]21C)C(C)C
REMARK SMILES IDX 4 1 3 2 2 3 1 4 29 5 30 6 31 7 5 8 6 9 7 10 8 11 9 12 27 13
REMARK SMILES IDX 10 14 11 15 26 16 28 17 12 18 25 19 24 20 13 21 22 22 14 23
REMARK SMILES IDX 16 24 21 25 23 26 15 27 17 28 20 29 18 30 19 31
REMARK H PARENT
REMARK Flexibility Score: inf
ROOT
ATOM      1  C   UNL     1       6.669  73.694 -28.727  1.00  0.00     0.004 C 
ENDROOT
BRANCH   1   2
ATOM      2  C   UNL     1       7.164  72.213 -28.772  1.00  0.00    -0.009 C 
BRANCH   2   3
ATOM      3  C   UNL     1       7.148  71.682 -30.233  1.00  0.00     0.000 C 
ATOM      4  C   UNL     1       6.201  70.497 -30.461  1.00  0.00     0.004 C 
ENDBRANCH   2   3
BRANCH   2   5
ATOM      5  C   UNL     1       8.545  72.021 -28.056  1.00  0.00    -0.014 C 
ATOM      6  C   UNL     1       9.625  71.508 -29.026  1.00  0.00     0.007 C 
ATOM      7  C   UNL     1       9.057  73.322 -27.410  1.00  0.00     0.007 C 
ENDBRANCH   2   5
ENDBRANCH   1   2
BRANCH   1   8
ATOM      8  C   UNL     1       6.631  74.337 -30.128  1.00  0.00     0.004 C 
BRANCH   8   9
ATOM      9  C   UNL     1       6.977  75.857 -30.138  1.00  0.00    -0.011 C 
ATOM     10  C   UNL     1       5.968  76.603 -31.037  1.00  0.00     0.008 C 
BRANCH   9  11
ATOM     11  C   UNL     1       8.465  76.099 -30.602  1.00  0.00    -0.002 C 
ATOM     12  C   UNL     1       9.258  74.795 -30.700  1.00  0.00     0.005 C 
ATOM     13  C   UNL     1       9.364  77.041 -29.723  1.00  0.00    -0.026 C 
ATOM     14  C   UNL     1      10.728  75.161 -30.658  1.00  0.00     0.005 C 
ATOM     15  C   UNL     1      10.828  76.568 -30.037  1.00  0.00    -0.001 C 
ATOM     16  C   UNL     1       9.094  76.850 -28.201  1.00  0.00     0.007 C 
ATOM     17  C   UNL     1       9.150  78.539 -30.135  1.00  0.00     0.012 C 
ATOM     18  C   UNL     1      11.874  76.739 -28.865  1.00  0.00     0.004 C 
ATOM     19  C   UNL     1      10.070  77.625 -27.292  1.00  0.00     0.005 C 
ATOM     20  C   UNL     1      11.457  77.914 -27.933  1.00  0.00     0.003 C 
ATOM     21  C   UNL     1      12.212  75.459 -28.048  1.00  0.00     0.085 C 
ATOM     22  C   UNL     1      12.548  78.257 -26.857  1.00  0.00    -0.000 C 
ATOM     23  C   UNL     1      13.008  75.726 -26.793  1.00  0.00     0.159 C 
ATOM     24  C   UNL     1      12.843  76.992 -26.051  1.00  0.00     0.005 C 
ATOM     25  C   UNL     1      12.105  79.492 -25.976  1.00  0.00     0.020 C 
ATOM     26  C   UNL     1      13.877  78.670 -27.549  1.00  0.00     0.017 C 
ATOM     27  O   UNL     1      13.766  74.821 -26.344  1.00  0.00    -0.295 OA
ATOM     28  C   UNL     1      12.962  77.005 -24.711  1.00  0.00     0.055 C 
ATOM     29  C   UNL     1      11.587  79.133 -24.580  1.00  0.00     0.081 C 
ATOM     30  C   UNL     1      12.531  78.171 -23.942  1.00  0.00     0.156 C 
ATOM     31  O   UNL     1      12.917  78.330 -22.752  1.00  0.00    -0.295 OA
ENDBRANCH   9  11
ENDBRANCH   8   9
ENDBRANCH   1   8
TORSDOF 6
ENDMDL
MODEL 8
REMARK VINA RESULT:    -6.346      3.238      9.026
REMARK INTER + INTRA:         -10.169
REMARK INTER:                  -8.358
REMARK INTRA:                  -1.811
REMARK UNBOUND:                -1.597
REMARK SMILES CC[C@H](CC[C@H](C)[C@@H]1CC[C@@H]2[C@@H]3CC(=O)C4=CC(=O)CC[C@]4(C)[C@@H]3CC[C@@]21C)C(C)C
REMARK SMILES IDX 4 1 3 2 2 3 1 4 29 5 30 6 31 7 5 8 6 9 7 10 8 11 9 12 27 13
REMARK SMILES IDX 10 14 11 15 26 16 28 17 12 18 25 19 24 20 13 21 22 22 14 23
REMARK SMILES IDX 16 24 21 25 23 26 15 27 17 28 20 29 18 30 19 31
REMARK H PARENT
REMARK Flexibility Score: inf
ROOT
ATOM      1  C   UNL     1       4.676  77.468 -17.323  1.00  0.00     0.004 C 
ENDROOT
BRANCH   1   2
ATOM      2  C   UNL     1       3.604  76.401 -16.934  1.00  0.00    -0.009 C 
BRANCH   2   3
ATOM      3  C   UNL     1       3.129  75.627 -18.195  1.00  0.00     0.000 C 
ATOM      4  C   UNL     1       1.755  76.064 -18.721  1.00  0.00     0.004 C 
ENDBRANCH   2   3
BRANCH   2   5
ATOM      5  C   UNL     1       4.087  75.463 -15.774  1.00  0.00    -0.014 C 
ATOM      6  C   UNL     1       4.054  73.980 -16.189  1.00  0.00     0.007 C 
ATOM      7  C   UNL     1       5.513  75.800 -15.302  1.00  0.00     0.007 C 
ENDBRANCH   2   5
ENDBRANCH   1   2
BRANCH   1   8
ATOM      8  C   UNL     1       4.210  78.904 -17.003  1.00  0.00     0.004 C 
BRANCH   8   9
ATOM      9  C   UNL     1       4.192  79.854 -18.239  1.00  0.00    -0.011 C 
ATOM     10  C   UNL     1       5.170  81.023 -17.996  1.00  0.00     0.008 C 
BRANCH   9  11
ATOM     11  C   UNL     1       2.731  80.366 -18.541  1.00  0.00    -0.002 C 
ATOM     12  C   UNL     1       1.668  79.536 -17.821  1.00  0.00     0.005 C 
ATOM     13  C   UNL     1       2.259  80.395 -20.039  1.00  0.00    -0.026 C 
ATOM     14  C   UNL     1       0.354  79.771 -18.538  1.00  0.00     0.005 C 
ATOM     15  C   UNL     1       0.694  80.303 -19.944  1.00  0.00    -0.001 C 
ATOM     16  C   UNL     1       2.784  79.167 -20.839  1.00  0.00     0.007 C 
ATOM     17  C   UNL     1       2.709  81.732 -20.727  1.00  0.00     0.012 C 
ATOM     18  C   UNL     1      -0.028  79.586 -21.154  1.00  0.00     0.004 C 
ATOM     19  C   UNL     1       2.207  79.059 -22.266  1.00  0.00     0.005 C 
ATOM     20  C   UNL     1       0.817  79.730 -22.453  1.00  0.00     0.003 C 
ATOM     21  C   UNL     1      -0.466  78.112 -20.922  1.00  0.00     0.085 C 
ATOM     22  C   UNL     1       0.070  79.203 -23.730  1.00  0.00    -0.000 C 
ATOM     23  C   UNL     1      -0.912  77.401 -22.176  1.00  0.00     0.159 C 
ATOM     24  C   UNL     1      -0.326  77.746 -23.487  1.00  0.00     0.005 C 
ATOM     25  C   UNL     1       0.943  79.424 -25.028  1.00  0.00     0.020 C 
ATOM     26  C   UNL     1      -1.247  79.996 -23.950  1.00  0.00     0.017 C 
ATOM     27  O   UNL     1      -1.743  76.454 -22.083  1.00  0.00    -0.295 OA
ATOM     28  C   UNL     1      -0.164  76.792 -24.422  1.00  0.00     0.055 C 
ATOM     29  C   UNL     1       1.642  78.167 -25.555  1.00  0.00     0.081 C 
ATOM     30  C   UNL     1       0.660  77.046 -25.603  1.00  0.00     0.156 C 
ATOM     31  O   UNL     1       0.568  76.305 -26.618  1.00  0.00    -0.295 OA
ENDBRANCH   9  11
ENDBRANCH   8   9
ENDBRANCH   1   8
TORSDOF 6
ENDMDL
MODEL 9
REMARK VINA RESULT:    -6.318      5.424     10.413
REMARK INTER + INTRA:         -10.131
REMARK INTER:                  -8.810
REMARK INTRA:                  -1.320
REMARK UNBOUND:                -1.597
REMARK SMILES CC[C@H](CC[C@H](C)[C@@H]1CC[C@@H]2[C@@H]3CC(=O)C4=CC(=O)CC[C@]4(C)[C@@H]3CC[C@@]21C)C(C)C
REMARK SMILES IDX 4 1 3 2 2 3 1 4 29 5 30 6 31 7 5 8 6 9 7 10 8 11 9 12 27 13
REMARK SMILES IDX 10 14 11 15 26 16 28 17 12 18 25 19 24 20 13 21 22 22 14 23
REMARK SMILES IDX 16 24 21 25 23 26 15 27 17 28 20 29 18 30 19 31
REMARK H PARENT
REMARK Flexibility Score: inf
ROOT
ATOM      1  C   UNL     1       8.861  76.863 -18.215  1.00  0.00     0.004 C 
ENDROOT
BRANCH   1   2
ATOM      2  C   UNL     1      10.245  76.338 -17.713  1.00  0.00    -0.009 C 
BRANCH   2   3
ATOM      3  C   UNL     1      10.553  74.947 -18.335  1.00  0.00     0.000 C 
ATOM      4  C   UNL     1      10.770  73.832 -17.304  1.00  0.00     0.004 C 
ENDBRANCH   2   3
BRANCH   2   5
ATOM      5  C   UNL     1      11.393  77.383 -17.926  1.00  0.00    -0.014 C 
ATOM      6  C   UNL     1      10.988  78.482 -18.925  1.00  0.00     0.007 C 
ATOM      7  C   UNL     1      11.820  78.062 -16.611  1.00  0.00     0.007 C 
ENDBRANCH   2   5
ENDBRANCH   1   2
BRANCH   1   8
ATOM      8  C   UNL     1       7.927  77.246 -17.050  1.00  0.00     0.004 C 
BRANCH   8   9
ATOM      9  C   UNL     1       7.299  78.668 -17.181  1.00  0.00    -0.011 C 
ATOM     10  C   UNL     1       8.275  79.710 -16.596  1.00  0.00     0.008 C 
BRANCH   9  11
ATOM     11  C   UNL     1       5.886  78.731 -16.485  1.00  0.00    -0.002 C 
ATOM     12  C   UNL     1       5.380  77.348 -16.077  1.00  0.00     0.005 C 
ATOM     13  C   UNL     1       4.697  79.362 -17.295  1.00  0.00    -0.026 C 
ATOM     14  C   UNL     1       3.879  77.455 -15.892  1.00  0.00     0.005 C 
ATOM     15  C   UNL     1       3.417  78.710 -16.658  1.00  0.00    -0.001 C 
ATOM     16  C   UNL     1       4.752  78.980 -18.804  1.00  0.00     0.007 C 
ATOM     17  C   UNL     1       4.686  80.921 -17.124  1.00  0.00     0.012 C 
ATOM     18  C   UNL     1       2.185  78.520 -17.629  1.00  0.00     0.004 C 
ATOM     19  C   UNL     1       3.515  79.429 -19.607  1.00  0.00     0.005 C 
ATOM     20  C   UNL     1       2.218  79.585 -18.763  1.00  0.00     0.003 C 
ATOM     21  C   UNL     1       1.970  77.089 -18.200  1.00  0.00     0.085 C 
ATOM     22  C   UNL     1       0.925  79.569 -19.654  1.00  0.00    -0.000 C 
ATOM     23  C   UNL     1       0.948  77.019 -19.309  1.00  0.00     0.159 C 
ATOM     24  C   UNL     1       0.750  78.161 -20.224  1.00  0.00     0.005 C 
ATOM     25  C   UNL     1       0.980  80.705 -20.752  1.00  0.00     0.020 C 
ATOM     26  C   UNL     1      -0.331  79.863 -18.787  1.00  0.00     0.017 C 
ATOM     27  O   UNL     1       0.314  75.943 -19.492  1.00  0.00    -0.295 OA
ATOM     28  C   UNL     1       0.420  77.942 -21.509  1.00  0.00     0.055 C 
ATOM     29  C   UNL     1       1.328  80.219 -22.162  1.00  0.00     0.081 C 
ATOM     30  C   UNL     1       0.494  79.026 -22.487  1.00  0.00     0.156 C 
ATOM     31  O   UNL     1      -0.100  78.930 -23.595  1.00  0.00    -0.295 OA
ENDBRANCH   9  11
ENDBRANCH   8   9
ENDBRANCH   1   8
TORSDOF 6
ENDMDL
