MODEL 1
REMARK VINA RESULT:    -4.961      0.000      0.000
REMARK INTER + INTRA:          -8.183
REMARK INTER:                  -6.701
REMARK INTRA:                  -1.482
REMARK UNBOUND:                -1.482
REMARK SMILES CC(=O)CCC=C(C)CCC=C(C)C
REMARK SMILES IDX 7 1 6 2 8 3 9 4 10 5 11 6 13 7 12 8 14 9 5 10 4 11 2 12 3 13
REMARK SMILES IDX 1 14
REMARK H PARENT
REMARK Flexibility Score: inf
ROOT
ATOM      1  C   UNL     1     212.381 153.566 183.357  1.00  0.00    -0.077 C 
ATOM      2  C   UNL     1     211.430 152.605 183.370  1.00  0.00    -0.028 C 
ATOM      3  C   UNL     1     212.762 154.297 182.091  1.00  0.00     0.039 C 
ENDROOT
BRANCH   1   4
ATOM      4  C   UNL     1     213.071 153.935 184.655  1.00  0.00     0.034 C 
BRANCH   4   5
ATOM      5  C   UNL     1     213.779 152.731 185.292  1.00  0.00     0.032 C 
BRANCH   5   6
ATOM      6  C   UNL     1     214.878 152.193 184.406  1.00  0.00    -0.028 C 
ATOM      7  C   UNL     1     216.043 150.525 182.998  1.00  0.00     0.039 C 
ATOM      8  C   UNL     1     214.908 150.940 183.899  1.00  0.00    -0.080 C 
ATOM      9  C   UNL     1     213.866 149.907 184.249  1.00  0.00     0.039 C 
ENDBRANCH   5   6
ENDBRANCH   4   5
ENDBRANCH   1   4
BRANCH   2  10
ATOM     10  C   UNL     1     210.694 152.110 182.147  1.00  0.00     0.035 C 
BRANCH  10  11
ATOM     11  C   UNL     1     211.199 150.732 181.699  1.00  0.00     0.079 C 
BRANCH  11  12
ATOM     12  C   UNL     1     212.214 150.842 180.591  1.00  0.00     0.130 C 
ATOM     13  O   UNL     1     212.111 151.733 179.760  1.00  0.00    -0.300 OA
ATOM     14  C   UNL     1     213.355 149.875 180.510  1.00  0.00     0.087 C 
ENDBRANCH  11  12
ENDBRANCH  10  11
ENDBRANCH   2  10
TORSDOF 6
ENDMDL
MODEL 2
REMARK VINA RESULT:    -4.903      2.042      3.706
REMARK INTER + INTRA:          -8.105
REMARK INTER:                  -6.758
REMARK INTRA:                  -1.347
REMARK UNBOUND:                -1.482
REMARK SMILES CC(=O)CCC=C(C)CCC=C(C)C
REMARK SMILES IDX 7 1 6 2 8 3 9 4 10 5 11 6 13 7 12 8 14 9 5 10 4 11 2 12 3 13
REMARK SMILES IDX 1 14
REMARK H PARENT
REMARK Flexibility Score: inf
ROOT
ATOM      1  C   UNL     1     214.305 153.270 182.267  1.00  0.00    -0.077 C 
ATOM      2  C   UNL     1     214.298 153.840 181.041  1.00  0.00    -0.028 C 
ATOM      3  C   UNL     1     215.258 152.154 182.625  1.00  0.00     0.039 C 
ENDROOT
BRANCH   1   4
ATOM      4  C   UNL     1     213.343 153.779 183.321  1.00  0.00     0.034 C 
BRANCH   4   5
ATOM      5  C   UNL     1     212.442 152.662 183.865  1.00  0.00     0.032 C 
BRANCH   5   6
ATOM      6  C   UNL     1     211.231 152.441 182.990  1.00  0.00    -0.028 C 
ATOM      7  C   UNL     1     209.791 151.246 181.370  1.00  0.00     0.039 C 
ATOM      8  C   UNL     1     211.059 151.376 182.174  1.00  0.00    -0.080 C 
ATOM      9  C   UNL     1     212.127 150.327 181.990  1.00  0.00     0.039 C 
ENDBRANCH   5   6
ENDBRANCH   4   5
ENDBRANCH   1   4
BRANCH   2  10
ATOM     10  C   UNL     1     215.172 153.405 179.888  1.00  0.00     0.035 C 
BRANCH  10  11
ATOM     11  C   UNL     1     214.338 153.011 178.662  1.00  0.00     0.079 C 
BRANCH  11  12
ATOM     12  C   UNL     1     213.723 151.644 178.820  1.00  0.00     0.130 C 
ATOM     13  O   UNL     1     214.392 150.726 179.269  1.00  0.00    -0.300 OA
ATOM     14  C   UNL     1     212.292 151.409 178.444  1.00  0.00     0.087 C 
ENDBRANCH  11  12
ENDBRANCH  10  11
ENDBRANCH   2  10
TORSDOF 6
ENDMDL
MODEL 3
REMARK VINA RESULT:    -4.829      1.868      3.987
REMARK INTER + INTRA:          -8.005
REMARK INTER:                  -6.867
REMARK INTRA:                  -1.138
REMARK UNBOUND:                -1.482
REMARK SMILES CC(=O)CCC=C(C)CCC=C(C)C
REMARK SMILES IDX 7 1 6 2 8 3 9 4 10 5 11 6 13 7 12 8 14 9 5 10 4 11 2 12 3 13
REMARK SMILES IDX 1 14
REMARK H PARENT
REMARK Flexibility Score: inf
ROOT
ATOM      1  C   UNL     1     214.193 151.428 184.200  1.00  0.00    -0.077 C 
ATOM      2  C   UNL     1     215.043 151.811 183.220  1.00  0.00    -0.028 C 
ATOM      3  C   UNL     1     213.772 149.987 184.374  1.00  0.00     0.039 C 
ENDROOT
BRANCH   1   4
ATOM      4  C   UNL     1     213.665 152.469 185.164  1.00  0.00     0.034 C 
BRANCH   4   5
ATOM      5  C   UNL     1     212.623 153.385 184.507  1.00  0.00     0.032 C 
BRANCH   5   6
ATOM      6  C   UNL     1     211.553 152.595 183.792  1.00  0.00    -0.028 C 
ATOM      7  C   UNL     1     210.284 151.739 181.847  1.00  0.00     0.039 C 
ATOM      8  C   UNL     1     211.367 152.596 182.453  1.00  0.00    -0.080 C 
ATOM      9  C   UNL     1     212.173 153.477 181.531  1.00  0.00     0.039 C 
ENDBRANCH   5   6
ENDBRANCH   4   5
ENDBRANCH   1   4
BRANCH   2  10
ATOM     10  C   UNL     1     215.611 150.888 182.168  1.00  0.00     0.035 C 
BRANCH  10  11
ATOM     11  C   UNL     1     214.746 150.871 180.900  1.00  0.00     0.079 C 
BRANCH  11  12
ATOM     12  C   UNL     1     215.431 151.558 179.747  1.00  0.00     0.130 C 
ATOM     13  O   UNL     1     216.093 150.902 178.956  1.00  0.00    -0.300 OA
ATOM     14  C   UNL     1     215.294 153.038 179.557  1.00  0.00     0.087 C 
ENDBRANCH  11  12
ENDBRANCH  10  11
ENDBRANCH   2  10
TORSDOF 6
ENDMDL
MODEL 4
REMARK VINA RESULT:    -4.770      1.849      3.661
REMARK INTER + INTRA:          -7.926
REMARK INTER:                  -6.710
REMARK INTRA:                  -1.216
REMARK UNBOUND:                -1.482
REMARK SMILES CC(=O)CCC=C(C)CCC=C(C)C
REMARK SMILES IDX 7 1 6 2 8 3 9 4 10 5 11 6 13 7 12 8 14 9 5 10 4 11 2 12 3 13
REMARK SMILES IDX 1 14
REMARK H PARENT
REMARK Flexibility Score: inf
ROOT
ATOM      1  C   UNL     1     211.635 150.937 181.276  1.00  0.00    -0.077 C 
ATOM      2  C   UNL     1     211.824 151.287 179.983  1.00  0.00    -0.028 C 
ATOM      3  C   UNL     1     212.475 149.875 181.947  1.00  0.00     0.039 C 
ENDROOT
BRANCH   1   4
ATOM      4  C   UNL     1     210.565 151.644 182.081  1.00  0.00     0.034 C 
BRANCH   4   5
ATOM      5  C   UNL     1     211.055 152.991 182.631  1.00  0.00     0.032 C 
BRANCH   5   6
ATOM      6  C   UNL     1     211.903 152.816 183.869  1.00  0.00    -0.028 C 
ATOM      7  C   UNL     1     213.972 152.858 185.224  1.00  0.00     0.039 C 
ATOM      8  C   UNL     1     213.236 153.034 183.921  1.00  0.00    -0.080 C 
ATOM      9  C   UNL     1     214.038 153.396 182.696  1.00  0.00     0.039 C 
ENDBRANCH   5   6
ENDBRANCH   4   5
ENDBRANCH   1   4
BRANCH   2  10
ATOM     10  C   UNL     1     212.824 150.638 179.056  1.00  0.00     0.035 C 
BRANCH  10  11
ATOM     11  C   UNL     1     213.802 151.665 178.468  1.00  0.00     0.079 C 
BRANCH  11  12
ATOM     12  C   UNL     1     215.033 151.817 179.323  1.00  0.00     0.130 C 
ATOM     13  O   UNL     1     215.548 152.917 179.455  1.00  0.00    -0.300 OA
ATOM     14  C   UNL     1     215.621 150.630 180.022  1.00  0.00     0.087 C 
ENDBRANCH  11  12
ENDBRANCH  10  11
ENDBRANCH   2  10
TORSDOF 6
ENDMDL
MODEL 5
REMARK VINA RESULT:    -4.761      1.819      3.308
REMARK INTER + INTRA:          -7.914
REMARK INTER:                  -6.619
REMARK INTRA:                  -1.295
REMARK UNBOUND:                -1.482
REMARK SMILES CC(=O)CCC=C(C)CCC=C(C)C
REMARK SMILES IDX 7 1 6 2 8 3 9 4 10 5 11 6 13 7 12 8 14 9 5 10 4 11 2 12 3 13
REMARK SMILES IDX 1 14
REMARK H PARENT
REMARK Flexibility Score: inf
ROOT
ATOM      1  C   UNL     1     211.657 151.991 183.025  1.00  0.00    -0.077 C 
ATOM      2  C   UNL     1     212.482 150.953 182.760  1.00  0.00    -0.028 C 
ATOM      3  C   UNL     1     210.404 152.244 182.220  1.00  0.00     0.039 C 
ENDROOT
BRANCH   1   4
ATOM      4  C   UNL     1     211.988 152.917 184.178  1.00  0.00     0.034 C 
BRANCH   4   5
ATOM      5  C   UNL     1     213.337 153.623 183.979  1.00  0.00     0.032 C 
BRANCH   5   6
ATOM      6  C   UNL     1     213.208 154.840 183.094  1.00  0.00    -0.028 C 
ATOM      7  C   UNL     1     213.417 156.163 181.013  1.00  0.00     0.039 C 
ATOM      8  C   UNL     1     213.629 154.902 181.811  1.00  0.00    -0.080 C 
ATOM      9  C   UNL     1     214.366 153.762 181.152  1.00  0.00     0.039 C 
ENDBRANCH   5   6
ENDBRANCH   4   5
ENDBRANCH   1   4
BRANCH   2  10
ATOM     10  C   UNL     1     212.295 149.979 181.619  1.00  0.00     0.035 C 
BRANCH  10  11
ATOM     11  C   UNL     1     213.556 149.875 180.751  1.00  0.00     0.079 C 
BRANCH  11  12
ATOM     12  C   UNL     1     213.362 150.524 179.405  1.00  0.00     0.130 C 
ATOM     13  O   UNL     1     214.270 150.510 178.587  1.00  0.00    -0.300 OA
ATOM     14  C   UNL     1     212.058 151.175 179.058  1.00  0.00     0.087 C 
ENDBRANCH  11  12
ENDBRANCH  10  11
ENDBRANCH   2  10
TORSDOF 6
ENDMDL
MODEL 6
REMARK VINA RESULT:    -4.750      2.116      3.913
REMARK INTER + INTRA:          -7.898
REMARK INTER:                  -6.737
REMARK INTRA:                  -1.161
REMARK UNBOUND:                -1.482
REMARK SMILES CC(=O)CCC=C(C)CCC=C(C)C
REMARK SMILES IDX 7 1 6 2 8 3 9 4 10 5 11 6 13 7 12 8 14 9 5 10 4 11 2 12 3 13
REMARK SMILES IDX 1 14
REMARK H PARENT
REMARK Flexibility Score: inf
ROOT
ATOM      1  C   UNL     1     214.333 150.998 181.366  1.00  0.00    -0.077 C 
ATOM      2  C   UNL     1     213.724 150.203 180.457  1.00  0.00    -0.028 C 
ATOM      3  C   UNL     1     214.906 152.346 180.993  1.00  0.00     0.039 C 
ENDROOT
BRANCH   1   4
ATOM      4  C   UNL     1     214.426 150.532 182.804  1.00  0.00     0.034 C 
BRANCH   4   5
ATOM      5  C   UNL     1     213.050 150.483 183.483  1.00  0.00     0.032 C 
BRANCH   5   6
ATOM      6  C   UNL     1     212.612 151.847 183.962  1.00  0.00    -0.028 C 
ATOM      7  C   UNL     1     211.208 153.883 184.028  1.00  0.00     0.039 C 
ATOM      8  C   UNL     1     211.574 152.542 183.445  1.00  0.00    -0.080 C 
ATOM      9  C   UNL     1     210.790 152.049 182.254  1.00  0.00     0.039 C 
ENDBRANCH   5   6
ENDBRANCH   4   5
ENDBRANCH   1   4
BRANCH   2  10
ATOM     10  C   UNL     1     213.597 150.523 178.986  1.00  0.00     0.035 C 
BRANCH  10  11
ATOM     11  C   UNL     1     212.215 151.097 178.647  1.00  0.00     0.079 C 
BRANCH  11  12
ATOM     12  C   UNL     1     212.296 152.149 177.571  1.00  0.00     0.130 C 
ATOM     13  O   UNL     1     211.522 152.113 176.626  1.00  0.00    -0.300 OA
ATOM     14  C   UNL     1     213.310 153.249 177.661  1.00  0.00     0.087 C 
ENDBRANCH  11  12
ENDBRANCH  10  11
ENDBRANCH   2  10
TORSDOF 6
ENDMDL
MODEL 7
REMARK VINA RESULT:    -4.720      1.193      3.165
REMARK INTER + INTRA:          -7.857
REMARK INTER:                  -6.361
REMARK INTRA:                  -1.496
REMARK UNBOUND:                -1.482
REMARK SMILES CC(=O)CCC=C(C)CCC=C(C)C
REMARK SMILES IDX 7 1 6 2 8 3 9 4 10 5 11 6 13 7 12 8 14 9 5 10 4 11 2 12 3 13
REMARK SMILES IDX 1 14
REMARK H PARENT
REMARK Flexibility Score: inf
ROOT
ATOM      1  C   UNL     1     214.187 150.598 183.282  1.00  0.00    -0.077 C 
ATOM      2  C   UNL     1     212.987 150.126 182.875  1.00  0.00    -0.028 C 
ATOM      3  C   UNL     1     215.268 150.988 182.301  1.00  0.00     0.039 C 
ENDROOT
BRANCH   1   4
ATOM      4  C   UNL     1     214.447 150.762 184.766  1.00  0.00     0.034 C 
BRANCH   4   5
ATOM      5  C   UNL     1     213.504 151.792 185.405  1.00  0.00     0.032 C 
BRANCH   5   6
ATOM      6  C   UNL     1     213.677 153.164 184.797  1.00  0.00    -0.028 C 
ATOM      7  C   UNL     1     212.984 155.220 183.609  1.00  0.00     0.039 C 
ATOM      8  C   UNL     1     212.704 153.841 184.146  1.00  0.00    -0.080 C 
ATOM      9  C   UNL     1     211.346 153.239 183.883  1.00  0.00     0.039 C 
ENDBRANCH   5   6
ENDBRANCH   4   5
ENDBRANCH   1   4
BRANCH   2  10
ATOM     10  C   UNL     1     212.609 149.875 181.434  1.00  0.00     0.035 C 
BRANCH  10  11
ATOM     11  C   UNL     1     211.686 150.974 180.890  1.00  0.00     0.079 C 
BRANCH  11  12
ATOM     12  C   UNL     1     212.408 151.887 179.933  1.00  0.00     0.130 C 
ATOM     13  O   UNL     1     212.510 151.575 178.756  1.00  0.00    -0.300 OA
ATOM     14  C   UNL     1     212.990 153.181 180.414  1.00  0.00     0.087 C 
ENDBRANCH  11  12
ENDBRANCH  10  11
ENDBRANCH   2  10
TORSDOF 6
ENDMDL
MODEL 8
REMARK VINA RESULT:    -4.694      1.663      3.573
REMARK INTER + INTRA:          -7.823
REMARK INTER:                  -6.909
REMARK INTRA:                  -0.914
REMARK UNBOUND:                -1.482
REMARK SMILES CC(=O)CCC=C(C)CCC=C(C)C
REMARK SMILES IDX 7 1 6 2 8 3 9 4 10 5 11 6 13 7 12 8 14 9 5 10 4 11 2 12 3 13
REMARK SMILES IDX 1 14
REMARK H PARENT
REMARK Flexibility Score: inf
ROOT
ATOM      1  C   UNL     1     215.258 151.732 182.505  1.00  0.00    -0.077 C 
ATOM      2  C   UNL     1     214.898 152.515 181.463  1.00  0.00    -0.028 C 
ATOM      3  C   UNL     1     215.923 150.390 182.304  1.00  0.00     0.039 C 
ENDROOT
BRANCH   1   4
ATOM      4  C   UNL     1     215.006 152.223 183.916  1.00  0.00     0.034 C 
BRANCH   4   5
ATOM      5  C   UNL     1     213.739 151.602 184.523  1.00  0.00     0.032 C 
BRANCH   5   6
ATOM      6  C   UNL     1     212.655 151.415 183.488  1.00  0.00    -0.028 C 
ATOM      7  C   UNL     1     210.648 152.017 182.172  1.00  0.00     0.039 C 
ATOM      8  C   UNL     1     211.657 152.297 183.256  1.00  0.00    -0.080 C 
ATOM      9  C   UNL     1     211.476 153.541 184.089  1.00  0.00     0.039 C 
ENDBRANCH   5   6
ENDBRANCH   4   5
ENDBRANCH   1   4
BRANCH   2  10
ATOM     10  C   UNL     1     215.052 152.134 180.010  1.00  0.00     0.035 C 
BRANCH  10  11
ATOM     11  C   UNL     1     213.792 152.464 179.200  1.00  0.00     0.079 C 
BRANCH  11  12
ATOM     12  C   UNL     1     212.935 151.245 178.977  1.00  0.00     0.130 C 
ATOM     13  O   UNL     1     211.992 151.298 178.203  1.00  0.00    -0.300 OA
ATOM     14  C   UNL     1     213.243 149.963 179.690  1.00  0.00     0.087 C 
ENDBRANCH  11  12
ENDBRANCH  10  11
ENDBRANCH   2  10
TORSDOF 6
ENDMDL
MODEL 9
REMARK VINA RESULT:    -4.665      1.945      2.895
REMARK INTER + INTRA:          -7.783
REMARK INTER:                  -6.307
REMARK INTRA:                  -1.476
REMARK UNBOUND:                -1.482
REMARK SMILES CC(=O)CCC=C(C)CCC=C(C)C
REMARK SMILES IDX 7 1 6 2 8 3 9 4 10 5 11 6 13 7 12 8 14 9 5 10 4 11 2 12 3 13
REMARK SMILES IDX 1 14
REMARK H PARENT
REMARK Flexibility Score: inf
ROOT
ATOM      1  C   UNL     1     211.823 152.532 181.740  1.00  0.00    -0.077 C 
ATOM      2  C   UNL     1     212.623 153.511 181.259  1.00  0.00    -0.028 C 
ATOM      3  C   UNL     1     211.596 151.243 180.986  1.00  0.00     0.039 C 
ENDROOT
BRANCH   1   4
ATOM      4  C   UNL     1     211.151 152.726 183.083  1.00  0.00     0.034 C 
BRANCH   4   5
ATOM      5  C   UNL     1     212.169 152.796 184.230  1.00  0.00     0.032 C 
BRANCH   5   6
ATOM      6  C   UNL     1     212.932 151.500 184.383  1.00  0.00    -0.028 C 
ATOM      7  C   UNL     1     214.926 150.038 184.448  1.00  0.00     0.039 C 
ATOM      8  C   UNL     1     214.270 151.379 184.239  1.00  0.00    -0.080 C 
ATOM      9  C   UNL     1     215.140 152.536 183.815  1.00  0.00     0.039 C 
ENDBRANCH   5   6
ENDBRANCH   4   5
ENDBRANCH   1   4
BRANCH   2  10
ATOM     10  C   UNL     1     213.320 153.468 179.919  1.00  0.00     0.035 C 
BRANCH  10  11
ATOM     11  C   UNL     1     214.835 153.276 180.073  1.00  0.00     0.079 C 
BRANCH  11  12
ATOM     12  C   UNL     1     215.274 151.910 179.614  1.00  0.00     0.130 C 
ATOM     13  O   UNL     1     215.643 151.746 178.461  1.00  0.00    -0.300 OA
ATOM     14  C   UNL     1     215.274 150.754 180.568  1.00  0.00     0.087 C 
ENDBRANCH  11  12
ENDBRANCH  10  11
ENDBRANCH   2  10
TORSDOF 6
ENDMDL
