MODEL 1
REMARK VINA RESULT:    -3.974      0.000      0.000
REMARK INTER + INTRA:          -8.541
REMARK INTER:                  -6.994
REMARK INTRA:                  -1.547
REMARK UNBOUND:                -1.547
REMARK SMILES CCCCCCCCCCCCCCC(=O)[O-]
REMARK SMILES IDX 9 1 10 2 11 3 12 4 13 5 14 6 15 7 16 8 17 9 8 10 7 11 6 12
REMARK SMILES IDX 5 13 4 14 3 15 2 16 1 17
REMARK H PARENT
REMARK Flexibility Score: inf
ROOT
ATOM      1  C   UNL     1     301.659 324.799 647.447  1.00  0.00     0.000 C 
ENDROOT
BRANCH   1   2
ATOM      2  C   UNL     1     303.129 324.385 647.617  1.00  0.00     0.000 C 
BRANCH   2   3
ATOM      3  C   UNL     1     303.311 322.885 647.338  1.00  0.00     0.000 C 
BRANCH   3   4
ATOM      4  C   UNL     1     304.412 322.242 648.202  1.00  0.00     0.000 C 
BRANCH   4   5
ATOM      5  C   UNL     1     304.800 323.038 649.461  1.00  0.00     0.006 C 
BRANCH   5   6
ATOM      6  C   UNL     1     305.238 322.140 650.625  1.00  0.00     0.053 C 
BRANCH   6   7
ATOM      7  C   UNL     1     306.498 321.413 650.277  1.00  0.00     0.041 C 
ATOM      8  O   UNL     1     306.589 320.172 650.475  1.00  0.00    -0.550 OA
ATOM      9  O   UNL     1     307.555 322.093 649.688  1.00  0.00    -0.550 OA
ENDBRANCH   6   7
ENDBRANCH   5   6
ENDBRANCH   4   5
ENDBRANCH   3   4
ENDBRANCH   2   3
ENDBRANCH   1   2
BRANCH   1  10
ATOM     10  C   UNL     1     300.679 323.679 647.830  1.00  0.00     0.000 C 
BRANCH  10  11
ATOM     11  C   UNL     1     299.261 323.922 647.283  1.00  0.00    -0.000 C 
BRANCH  11  12
ATOM     12  C   UNL     1     299.128 325.281 646.575  1.00  0.00    -0.000 C 
BRANCH  12  13
ATOM     13  C   UNL     1     298.877 325.139 645.063  1.00  0.00    -0.000 C 
BRANCH  13  14
ATOM     14  C   UNL     1     299.613 326.208 644.240  1.00  0.00    -0.000 C 
BRANCH  14  15
ATOM     15  C   UNL     1     300.945 325.699 643.668  1.00  0.00    -0.000 C 
BRANCH  15  16
ATOM     16  C   UNL     1     301.020 324.169 643.730  1.00  0.00    -0.003 C 
ATOM     17  C   UNL     1     302.464 323.691 643.846  1.00  0.00     0.004 C 
ENDBRANCH  15  16
ENDBRANCH  14  15
ENDBRANCH  13  14
ENDBRANCH  12  13
ENDBRANCH  11  12
ENDBRANCH  10  11
ENDBRANCH   1  10
TORSDOF 13
ENDMDL
MODEL 2
REMARK VINA RESULT:    -3.895      1.370      1.646
REMARK INTER + INTRA:          -8.402
REMARK INTER:                  -6.678
REMARK INTRA:                  -1.724
REMARK UNBOUND:                -1.547
REMARK SMILES CCCCCCCCCCCCCCC(=O)[O-]
REMARK SMILES IDX 9 1 10 2 11 3 12 4 13 5 14 6 15 7 16 8 17 9 8 10 7 11 6 12
REMARK SMILES IDX 5 13 4 14 3 15 2 16 1 17
REMARK H PARENT
REMARK Flexibility Score: inf
ROOT
ATOM      1  C   UNL     1     302.264 324.732 647.843  1.00  0.00     0.000 C 
ENDROOT
BRANCH   1   2
ATOM      2  C   UNL     1     303.666 324.188 647.523  1.00  0.00     0.000 C 
BRANCH   2   3
ATOM      3  C   UNL     1     303.604 322.698 647.156  1.00  0.00     0.000 C 
BRANCH   3   4
ATOM      4  C   UNL     1     304.991 322.088 646.878  1.00  0.00     0.000 C 
BRANCH   4   5
ATOM      5  C   UNL     1     305.956 322.094 648.077  1.00  0.00     0.006 C 
BRANCH   5   6
ATOM      6  C   UNL     1     305.462 321.232 649.246  1.00  0.00     0.053 C 
BRANCH   6   7
ATOM      7  C   UNL     1     305.409 322.039 650.504  1.00  0.00     0.041 C 
ATOM      8  O   UNL     1     304.560 322.961 650.630  1.00  0.00    -0.550 OA
ATOM      9  O   UNL     1     306.262 321.742 651.558  1.00  0.00    -0.550 OA
ENDBRANCH   6   7
ENDBRANCH   5   6
ENDBRANCH   4   5
ENDBRANCH   3   4
ENDBRANCH   2   3
ENDBRANCH   1   2
BRANCH   1  10
ATOM     10  C   UNL     1     301.152 323.709 647.562  1.00  0.00     0.000 C 
BRANCH  10  11
ATOM     11  C   UNL     1     299.746 324.282 647.812  1.00  0.00    -0.000 C 
BRANCH  11  12
ATOM     12  C   UNL     1     299.237 325.128 646.633  1.00  0.00    -0.000 C 
BRANCH  12  13
ATOM     13  C   UNL     1     299.273 324.365 645.296  1.00  0.00    -0.000 C 
BRANCH  13  14
ATOM     14  C   UNL     1     300.227 325.006 644.277  1.00  0.00    -0.000 C 
BRANCH  14  15
ATOM     15  C   UNL     1     301.486 324.160 644.034  1.00  0.00    -0.000 C 
BRANCH  15  16
ATOM     16  C   UNL     1     302.677 325.045 643.646  1.00  0.00    -0.003 C 
ATOM     17  C   UNL     1     302.765 326.276 644.544  1.00  0.00     0.004 C 
ENDBRANCH  15  16
ENDBRANCH  14  15
ENDBRANCH  13  14
ENDBRANCH  12  13
ENDBRANCH  11  12
ENDBRANCH  10  11
ENDBRANCH   1  10
TORSDOF 13
ENDMDL
MODEL 3
REMARK VINA RESULT:    -3.893      1.052      2.614
REMARK INTER + INTRA:          -8.399
REMARK INTER:                  -6.694
REMARK INTRA:                  -1.705
REMARK UNBOUND:                -1.547
REMARK SMILES CCCCCCCCCCCCCCC(=O)[O-]
REMARK SMILES IDX 9 1 10 2 11 3 12 4 13 5 14 6 15 7 16 8 17 9 8 10 7 11 6 12
REMARK SMILES IDX 5 13 4 14 3 15 2 16 1 17
REMARK H PARENT
REMARK Flexibility Score: inf
ROOT
ATOM      1  C   UNL     1     303.262 325.045 646.274  1.00  0.00     0.000 C 
ENDROOT
BRANCH   1   2
ATOM      2  C   UNL     1     303.232 324.460 647.695  1.00  0.00     0.000 C 
BRANCH   2   3
ATOM      3  C   UNL     1     302.934 322.954 647.661  1.00  0.00     0.000 C 
BRANCH   3   4
ATOM      4  C   UNL     1     304.005 322.112 648.379  1.00  0.00     0.000 C 
BRANCH   4   5
ATOM      5  C   UNL     1     305.189 322.913 648.948  1.00  0.00     0.006 C 
BRANCH   5   6
ATOM      6  C   UNL     1     306.396 322.032 649.294  1.00  0.00     0.053 C 
BRANCH   6   7
ATOM      7  C   UNL     1     306.190 321.358 650.613  1.00  0.00     0.041 C 
ATOM      8  O   UNL     1     306.358 321.998 651.685  1.00  0.00    -0.550 OA
ATOM      9  O   UNL     1     305.764 320.037 650.661  1.00  0.00    -0.550 OA
ENDBRANCH   6   7
ENDBRANCH   5   6
ENDBRANCH   4   5
ENDBRANCH   3   4
ENDBRANCH   2   3
ENDBRANCH   1   2
BRANCH   1  10
ATOM     10  C   UNL     1     303.275 323.960 645.185  1.00  0.00     0.000 C 
BRANCH  10  11
ATOM     11  C   UNL     1     302.040 324.028 644.270  1.00  0.00    -0.000 C 
BRANCH  11  12
ATOM     12  C   UNL     1     301.661 325.472 643.899  1.00  0.00    -0.000 C 
BRANCH  12  13
ATOM     13  C   UNL     1     300.195 325.804 644.234  1.00  0.00    -0.000 C 
BRANCH  13  14
ATOM     14  C   UNL     1     300.067 326.769 645.423  1.00  0.00    -0.000 C 
BRANCH  14  15
ATOM     15  C   UNL     1     299.542 326.077 646.690  1.00  0.00    -0.000 C 
BRANCH  15  16
ATOM     16  C   UNL     1     299.103 324.639 646.389  1.00  0.00    -0.003 C 
ATOM     17  C   UNL     1     299.374 323.719 647.576  1.00  0.00     0.004 C 
ENDBRANCH  15  16
ENDBRANCH  14  15
ENDBRANCH  13  14
ENDBRANCH  12  13
ENDBRANCH  11  12
ENDBRANCH  10  11
ENDBRANCH   1  10
TORSDOF 13
ENDMDL
MODEL 4
REMARK VINA RESULT:    -3.861      1.410      2.105
REMARK INTER + INTRA:          -8.342
REMARK INTER:                  -6.539
REMARK INTRA:                  -1.803
REMARK UNBOUND:                -1.547
REMARK SMILES CCCCCCCCCCCCCCC(=O)[O-]
REMARK SMILES IDX 9 1 10 2 11 3 12 4 13 5 14 6 15 7 16 8 17 9 8 10 7 11 6 12
REMARK SMILES IDX 5 13 4 14 3 15 2 16 1 17
REMARK H PARENT
REMARK Flexibility Score: inf
ROOT
ATOM      1  C   UNL     1     300.563 323.834 647.623  1.00  0.00     0.000 C 
ENDROOT
BRANCH   1   2
ATOM      2  C   UNL     1     302.009 324.107 648.066  1.00  0.00     0.000 C 
BRANCH   2   3
ATOM      3  C   UNL     1     302.917 322.913 647.736  1.00  0.00     0.000 C 
BRANCH   3   4
ATOM      4  C   UNL     1     304.371 323.115 648.203  1.00  0.00     0.000 C 
BRANCH   4   5
ATOM      5  C   UNL     1     305.368 322.054 647.705  1.00  0.00     0.006 C 
BRANCH   5   6
ATOM      6  C   UNL     1     306.333 321.580 648.798  1.00  0.00     0.053 C 
BRANCH   6   7
ATOM      7  C   UNL     1     305.579 321.210 650.036  1.00  0.00     0.041 C 
ATOM      8  O   UNL     1     304.784 320.234 650.026  1.00  0.00    -0.550 OA
ATOM      9  O   UNL     1     305.791 321.911 651.216  1.00  0.00    -0.550 OA
ENDBRANCH   6   7
ENDBRANCH   5   6
ENDBRANCH   4   5
ENDBRANCH   3   4
ENDBRANCH   2   3
ENDBRANCH   1   2
BRANCH   1  10
ATOM     10  C   UNL     1     299.688 325.097 647.642  1.00  0.00     0.000 C 
BRANCH  10  11
ATOM     11  C   UNL     1     299.073 325.411 646.267  1.00  0.00    -0.000 C 
BRANCH  11  12
ATOM     12  C   UNL     1     299.398 324.335 645.217  1.00  0.00    -0.000 C 
BRANCH  12  13
ATOM     13  C   UNL     1     300.393 324.828 644.152  1.00  0.00    -0.000 C 
BRANCH  13  14
ATOM     14  C   UNL     1     301.738 324.087 644.214  1.00  0.00    -0.000 C 
BRANCH  14  15
ATOM     15  C   UNL     1     302.912 325.022 644.541  1.00  0.00    -0.000 C 
BRANCH  15  16
ATOM     16  C   UNL     1     302.410 326.374 645.060  1.00  0.00    -0.003 C 
ATOM     17  C   UNL     1     303.284 326.887 646.201  1.00  0.00     0.004 C 
ENDBRANCH  15  16
ENDBRANCH  14  15
ENDBRANCH  13  14
ENDBRANCH  12  13
ENDBRANCH  11  12
ENDBRANCH  10  11
ENDBRANCH   1  10
TORSDOF 13
ENDMDL
MODEL 5
REMARK VINA RESULT:    -3.825      3.033      6.949
REMARK INTER + INTRA:          -8.279
REMARK INTER:                  -6.966
REMARK INTRA:                  -1.312
REMARK UNBOUND:                -1.547
REMARK SMILES CCCCCCCCCCCCCCC(=O)[O-]
REMARK SMILES IDX 9 1 10 2 11 3 12 4 13 5 14 6 15 7 16 8 17 9 8 10 7 11 6 12
REMARK SMILES IDX 5 13 4 14 3 15 2 16 1 17
REMARK H PARENT
REMARK Flexibility Score: inf
ROOT
ATOM      1  C   UNL     1     300.970 323.629 647.586  1.00  0.00     0.000 C 
ENDROOT
BRANCH   1   2
ATOM      2  C   UNL     1     299.646 324.381 647.793  1.00  0.00     0.000 C 
BRANCH   2   3
ATOM      3  C   UNL     1     299.284 325.204 646.548  1.00  0.00     0.000 C 
BRANCH   3   4
ATOM      4  C   UNL     1     299.290 324.370 645.252  1.00  0.00     0.000 C 
BRANCH   4   5
ATOM      5  C   UNL     1     300.334 324.801 644.207  1.00  0.00     0.006 C 
BRANCH   5   6
ATOM      6  C   UNL     1     301.093 326.072 644.609  1.00  0.00     0.053 C 
BRANCH   6   7
ATOM      7  C   UNL     1     302.543 325.945 644.265  1.00  0.00     0.041 C 
ATOM      8  O   UNL     1     303.332 326.902 644.482  1.00  0.00    -0.550 OA
ATOM      9  O   UNL     1     303.034 324.752 643.751  1.00  0.00    -0.550 OA
ENDBRANCH   6   7
ENDBRANCH   5   6
ENDBRANCH   4   5
ENDBRANCH   3   4
ENDBRANCH   2   3
ENDBRANCH   1   2
BRANCH   1  10
ATOM     10  C   UNL     1     302.166 324.340 648.238  1.00  0.00     0.000 C 
BRANCH  10  11
ATOM     11  C   UNL     1     303.422 324.321 647.348  1.00  0.00    -0.000 C 
BRANCH  11  12
ATOM     12  C   UNL     1     303.792 322.902 646.884  1.00  0.00    -0.000 C 
BRANCH  12  13
ATOM     13  C   UNL     1     304.392 322.046 648.015  1.00  0.00    -0.000 C 
BRANCH  13  14
ATOM     14  C   UNL     1     305.321 322.853 648.935  1.00  0.00    -0.000 C 
BRANCH  14  15
ATOM     15  C   UNL     1     305.051 322.588 650.424  1.00  0.00    -0.000 C 
BRANCH  15  16
ATOM     16  C   UNL     1     306.228 321.848 651.072  1.00  0.00    -0.003 C 
ATOM     17  C   UNL     1     305.916 320.364 651.248  1.00  0.00     0.004 C 
ENDBRANCH  15  16
ENDBRANCH  14  15
ENDBRANCH  13  14
ENDBRANCH  12  13
ENDBRANCH  11  12
ENDBRANCH  10  11
ENDBRANCH   1  10
TORSDOF 13
ENDMDL
MODEL 6
REMARK VINA RESULT:    -3.730      1.417      2.482
REMARK INTER + INTRA:          -8.112
REMARK INTER:                  -6.228
REMARK INTRA:                  -1.885
REMARK UNBOUND:                -1.547
REMARK SMILES CCCCCCCCCCCCCCC(=O)[O-]
REMARK SMILES IDX 9 1 10 2 11 3 12 4 13 5 14 6 15 7 16 8 17 9 8 10 7 11 6 12
REMARK SMILES IDX 5 13 4 14 3 15 2 16 1 17
REMARK H PARENT
REMARK Flexibility Score: inf
ROOT
ATOM      1  C   UNL     1     303.366 325.003 645.363  1.00  0.00     0.000 C 
ENDROOT
BRANCH   1   2
ATOM      2  C   UNL     1     304.892 324.832 645.411  1.00  0.00     0.000 C 
BRANCH   2   3
ATOM      3  C   UNL     1     305.309 323.974 646.615  1.00  0.00     0.000 C 
BRANCH   3   4
ATOM      4  C   UNL     1     304.662 322.576 646.611  1.00  0.00     0.000 C 
BRANCH   4   5
ATOM      5  C   UNL     1     304.352 322.000 648.003  1.00  0.00     0.006 C 
BRANCH   5   6
ATOM      6  C   UNL     1     304.812 322.915 649.145  1.00  0.00     0.053 C 
BRANCH   6   7
ATOM      7  C   UNL     1     305.663 322.155 650.112  1.00  0.00     0.041 C 
ATOM      8  O   UNL     1     305.182 321.182 650.753  1.00  0.00    -0.550 OA
ATOM      9  O   UNL     1     307.002 322.486 650.271  1.00  0.00    -0.550 OA
ENDBRANCH   6   7
ENDBRANCH   5   6
ENDBRANCH   4   5
ENDBRANCH   3   4
ENDBRANCH   2   3
ENDBRANCH   1   2
BRANCH   1  10
ATOM     10  C   UNL     1     302.833 325.907 646.486  1.00  0.00     0.000 C 
BRANCH  10  11
ATOM     11  C   UNL     1     302.022 325.128 647.536  1.00  0.00    -0.000 C 
BRANCH  11  12
ATOM     12  C   UNL     1     301.272 323.930 646.931  1.00  0.00    -0.000 C 
BRANCH  12  13
ATOM     13  C   UNL     1     299.755 323.989 647.188  1.00  0.00    -0.000 C 
BRANCH  13  14
ATOM     14  C   UNL     1     298.972 324.514 645.974  1.00  0.00    -0.000 C 
BRANCH  14  15
ATOM     15  C   UNL     1     298.883 326.047 645.948  1.00  0.00    -0.000 C 
BRANCH  15  16
ATOM     16  C   UNL     1     299.135 326.588 644.536  1.00  0.00    -0.003 C 
ATOM     17  C   UNL     1     300.052 325.659 643.745  1.00  0.00     0.004 C 
ENDBRANCH  15  16
ENDBRANCH  14  15
ENDBRANCH  13  14
ENDBRANCH  12  13
ENDBRANCH  11  12
ENDBRANCH  10  11
ENDBRANCH   1  10
TORSDOF 13
ENDMDL
MODEL 7
REMARK VINA RESULT:    -3.709      3.601      6.864
REMARK INTER + INTRA:          -8.075
REMARK INTER:                  -6.965
REMARK INTRA:                  -1.110
REMARK UNBOUND:                -1.547
REMARK SMILES CCCCCCCCCCCCCCC(=O)[O-]
REMARK SMILES IDX 9 1 10 2 11 3 12 4 13 5 14 6 15 7 16 8 17 9 8 10 7 11 6 12
REMARK SMILES IDX 5 13 4 14 3 15 2 16 1 17
REMARK H PARENT
REMARK Flexibility Score: inf
ROOT
ATOM      1  C   UNL     1     298.955 324.258 646.094  1.00  0.00     0.000 C 
ENDROOT
BRANCH   1   2
ATOM      2  C   UNL     1     299.157 325.724 645.679  1.00  0.00     0.000 C 
BRANCH   2   3
ATOM      3  C   UNL     1     299.758 325.816 644.269  1.00  0.00     0.000 C 
BRANCH   3   4
ATOM      4  C   UNL     1     301.265 325.498 644.234  1.00  0.00     0.000 C 
BRANCH   4   5
ATOM      5  C   UNL     1     301.619 324.085 643.740  1.00  0.00     0.006 C 
BRANCH   5   6
ATOM      6  C   UNL     1     301.104 323.800 642.323  1.00  0.00     0.053 C 
BRANCH   6   7
ATOM      7  C   UNL     1     301.311 322.361 641.972  1.00  0.00     0.041 C 
ATOM      8  O   UNL     1     300.357 321.676 641.517  1.00  0.00    -0.550 OA
ATOM      9  O   UNL     1     302.570 321.788 642.097  1.00  0.00    -0.550 OA
ENDBRANCH   6   7
ENDBRANCH   5   6
ENDBRANCH   4   5
ENDBRANCH   3   4
ENDBRANCH   2   3
ENDBRANCH   1   2
BRANCH   1  10
ATOM     10  C   UNL     1     299.354 323.994 647.554  1.00  0.00     0.000 C 
BRANCH  10  11
ATOM     11  C   UNL     1     300.783 324.467 647.871  1.00  0.00    -0.000 C 
BRANCH  11  12
ATOM     12  C   UNL     1     301.850 323.440 647.457  1.00  0.00    -0.000 C 
BRANCH  12  13
ATOM     13  C   UNL     1     303.268 323.850 647.893  1.00  0.00    -0.000 C 
BRANCH  13  14
ATOM     14  C   UNL     1     304.136 322.645 648.285  1.00  0.00    -0.000 C 
BRANCH  14  15
ATOM     15  C   UNL     1     304.938 322.889 649.572  1.00  0.00    -0.000 C 
BRANCH  15  16
ATOM     16  C   UNL     1     305.110 321.589 650.367  1.00  0.00    -0.003 C 
ATOM     17  C   UNL     1     304.971 320.367 649.464  1.00  0.00     0.004 C 
ENDBRANCH  15  16
ENDBRANCH  14  15
ENDBRANCH  13  14
ENDBRANCH  12  13
ENDBRANCH  11  12
ENDBRANCH  10  11
ENDBRANCH   1  10
TORSDOF 13
ENDMDL
MODEL 8
REMARK VINA RESULT:    -3.634      1.616      3.199
REMARK INTER + INTRA:          -7.943
REMARK INTER:                  -5.918
REMARK INTRA:                  -2.025
REMARK UNBOUND:                -1.547
REMARK SMILES CCCCCCCCCCCCCCC(=O)[O-]
REMARK SMILES IDX 9 1 10 2 11 3 12 4 13 5 14 6 15 7 16 8 17 9 8 10 7 11 6 12
REMARK SMILES IDX 5 13 4 14 3 15 2 16 1 17
REMARK H PARENT
REMARK Flexibility Score: inf
ROOT
ATOM      1  C   UNL     1     298.882 324.365 646.203  1.00  0.00     0.000 C 
ENDROOT
BRANCH   1   2
ATOM      2  C   UNL     1     299.546 324.329 647.589  1.00  0.00     0.000 C 
BRANCH   2   3
ATOM      3  C   UNL     1     300.935 323.679 647.513  1.00  0.00     0.000 C 
BRANCH   3   4
ATOM      4  C   UNL     1     302.072 324.642 647.901  1.00  0.00     0.000 C 
BRANCH   4   5
ATOM      5  C   UNL     1     303.474 324.009 647.945  1.00  0.00     0.006 C 
BRANCH   5   6
ATOM      6  C   UNL     1     303.437 322.475 647.963  1.00  0.00     0.053 C 
BRANCH   6   7
ATOM      7  C   UNL     1     304.771 321.925 648.357  1.00  0.00     0.041 C 
ATOM      8  O   UNL     1     305.139 321.957 649.562  1.00  0.00    -0.550 OA
ATOM      9  O   UNL     1     305.588 321.331 647.405  1.00  0.00    -0.550 OA
ENDBRANCH   6   7
ENDBRANCH   5   6
ENDBRANCH   4   5
ENDBRANCH   3   4
ENDBRANCH   2   3
ENDBRANCH   1   2
BRANCH   1  10
ATOM     10  C   UNL     1     299.010 325.735 645.519  1.00  0.00     0.000 C 
BRANCH  10  11
ATOM     11  C   UNL     1     300.160 325.781 644.499  1.00  0.00    -0.000 C 
BRANCH  11  12
ATOM     12  C   UNL     1     300.414 324.417 643.835  1.00  0.00    -0.000 C 
BRANCH  12  13
ATOM     13  C   UNL     1     301.870 323.943 643.991  1.00  0.00    -0.000 C 
BRANCH  13  14
ATOM     14  C   UNL     1     302.852 325.110 644.181  1.00  0.00    -0.000 C 
BRANCH  14  15
ATOM     15  C   UNL     1     304.280 324.635 644.487  1.00  0.00    -0.000 C 
BRANCH  15  16
ATOM     16  C   UNL     1     304.392 323.111 644.360  1.00  0.00    -0.003 C 
ATOM     17  C   UNL     1     305.841 322.679 644.153  1.00  0.00     0.004 C 
ENDBRANCH  15  16
ENDBRANCH  14  15
ENDBRANCH  13  14
ENDBRANCH  12  13
ENDBRANCH  11  12
ENDBRANCH  10  11
ENDBRANCH   1  10
TORSDOF 13
ENDMDL
MODEL 9
REMARK VINA RESULT:    -3.631      1.777      2.941
REMARK INTER + INTRA:          -7.938
REMARK INTER:                  -5.712
REMARK INTRA:                  -2.227
REMARK UNBOUND:                -1.547
REMARK SMILES CCCCCCCCCCCCCCC(=O)[O-]
REMARK SMILES IDX 9 1 10 2 11 3 12 4 13 5 14 6 15 7 16 8 17 9 8 10 7 11 6 12
REMARK SMILES IDX 5 13 4 14 3 15 2 16 1 17
REMARK H PARENT
REMARK Flexibility Score: inf
ROOT
ATOM      1  C   UNL     1     299.277 324.379 645.682  1.00  0.00     0.000 C 
ENDROOT
BRANCH   1   2
ATOM      2  C   UNL     1     299.722 324.446 647.151  1.00  0.00     0.000 C 
BRANCH   2   3
ATOM      3  C   UNL     1     301.000 323.624 647.374  1.00  0.00     0.000 C 
BRANCH   3   4
ATOM      4  C   UNL     1     302.095 324.404 648.126  1.00  0.00     0.000 C 
BRANCH   4   5
ATOM      5  C   UNL     1     303.377 323.606 648.419  1.00  0.00     0.006 C 
BRANCH   5   6
ATOM      6  C   UNL     1     304.437 323.754 647.320  1.00  0.00     0.053 C 
BRANCH   6   7
ATOM      7  C   UNL     1     305.796 323.437 647.860  1.00  0.00     0.041 C 
ATOM      8  O   UNL     1     306.163 322.239 647.991  1.00  0.00    -0.550 OA
ATOM      9  O   UNL     1     306.678 324.463 648.172  1.00  0.00    -0.550 OA
ENDBRANCH   6   7
ENDBRANCH   5   6
ENDBRANCH   4   5
ENDBRANCH   3   4
ENDBRANCH   2   3
ENDBRANCH   1   2
BRANCH   1  10
ATOM     10  C   UNL     1     298.875 325.752 645.119  1.00  0.00     0.000 C 
BRANCH  10  11
ATOM     11  C   UNL     1     299.446 326.918 645.944  1.00  0.00    -0.000 C 
BRANCH  11  12
ATOM     12  C   UNL     1     300.538 327.694 645.189  1.00  0.00    -0.000 C 
BRANCH  12  13
ATOM     13  C   UNL     1     301.957 327.335 645.666  1.00  0.00    -0.000 C 
BRANCH  13  14
ATOM     14  C   UNL     1     302.530 326.107 644.942  1.00  0.00    -0.000 C 
BRANCH  14  15
ATOM     15  C   UNL     1     302.283 326.147 643.426  1.00  0.00    -0.000 C 
BRANCH  15  16
ATOM     16  C   UNL     1     301.874 324.767 642.899  1.00  0.00    -0.003 C 
ATOM     17  C   UNL     1     302.361 323.656 643.825  1.00  0.00     0.004 C 
ENDBRANCH  15  16
ENDBRANCH  14  15
ENDBRANCH  13  14
ENDBRANCH  12  13
ENDBRANCH  11  12
ENDBRANCH  10  11
ENDBRANCH   1  10
TORSDOF 13
ENDMDL
