MODEL 1
REMARK VINA RESULT:    -3.000      0.000      0.000
REMARK INTER + INTRA:          -3.833
REMARK INTER:                  -3.702
REMARK INTRA:                  -0.131
REMARK UNBOUND:                -0.131
REMARK SMILES CCCCCC(=O)[O-]
REMARK SMILES IDX 4 1 5 2 6 3 7 4 8 5 3 6 2 7 1 8
REMARK H PARENT
REMARK Flexibility Score: inf
ROOT
ATOM      1  C   UNL     1      61.479  33.485  60.524  1.00  0.00     0.006 C 
ENDROOT
BRANCH   1   2
ATOM      2  C   UNL     1      62.250  32.170  60.697  1.00  0.00     0.053 C 
BRANCH   2   3
ATOM      3  C   UNL     1      61.513  31.206  61.577  1.00  0.00     0.041 C 
ATOM      4  O   UNL     1      60.360  31.489  61.999  1.00  0.00    -0.550 OA
ATOM      5  O   UNL     1      62.111  30.011  61.956  1.00  0.00    -0.550 OA
ENDBRANCH   2   3
ENDBRANCH   1   2
BRANCH   1   6
ATOM      6  C   UNL     1      62.389  34.716  60.659  1.00  0.00     0.000 C 
BRANCH   6   7
ATOM      7  C   UNL     1      63.816  34.304  61.041  1.00  0.00    -0.003 C 
ATOM      8  C   UNL     1      64.541  35.436  61.764  1.00  0.00     0.004 C 
ENDBRANCH   6   7
ENDBRANCH   1   6
TORSDOF 4
ENDMDL
MODEL 2
REMARK VINA RESULT:    -2.980     13.075     14.136
REMARK INTER + INTRA:          -3.808
REMARK INTER:                  -3.703
REMARK INTRA:                  -0.105
REMARK UNBOUND:                -0.131
REMARK SMILES CCCCCC(=O)[O-]
REMARK SMILES IDX 4 1 5 2 6 3 7 4 8 5 3 6 2 7 1 8
REMARK H PARENT
REMARK Flexibility Score: inf
ROOT
ATOM      1  C   UNL     1      55.484  29.027  50.462  1.00  0.00     0.006 C 
ENDROOT
BRANCH   1   2
ATOM      2  C   UNL     1      56.879  28.392  50.396  1.00  0.00     0.053 C 
BRANCH   2   3
ATOM      3  C   UNL     1      57.957  29.428  50.283  1.00  0.00     0.041 C 
ATOM      4  O   UNL     1      58.239  30.156  51.271  1.00  0.00    -0.550 OA
ATOM      5  O   UNL     1      58.625  29.610  49.079  1.00  0.00    -0.550 OA
ENDBRANCH   2   3
ENDBRANCH   1   2
BRANCH   1   6
ATOM      6  C   UNL     1      54.370  28.021  50.134  1.00  0.00     0.000 C 
BRANCH   6   7
ATOM      7  C   UNL     1      54.955  26.642  49.804  1.00  0.00    -0.003 C 
ATOM      8  C   UNL     1      53.910  25.743  49.149  1.00  0.00     0.004 C 
ENDBRANCH   6   7
ENDBRANCH   1   6
TORSDOF 4
ENDMDL
MODEL 3
REMARK VINA RESULT:    -2.900      1.723      1.987
REMARK INTER + INTRA:          -3.708
REMARK INTER:                  -3.643
REMARK INTRA:                  -0.065
REMARK UNBOUND:                -0.131
REMARK SMILES CCCCCC(=O)[O-]
REMARK SMILES IDX 4 1 5 2 6 3 7 4 8 5 3 6 2 7 1 8
REMARK H PARENT
REMARK Flexibility Score: inf
ROOT
ATOM      1  C   UNL     1      61.017  32.194  60.508  1.00  0.00     0.006 C 
ENDROOT
BRANCH   1   2
ATOM      2  C   UNL     1      60.984  31.303  61.756  1.00  0.00     0.053 C 
BRANCH   2   3
ATOM      3  C   UNL     1      61.928  30.144  61.636  1.00  0.00     0.041 C 
ATOM      4  O   UNL     1      61.480  28.979  61.469  1.00  0.00    -0.550 OA
ATOM      5  O   UNL     1      63.298  30.347  61.742  1.00  0.00    -0.550 OA
ENDBRANCH   2   3
ENDBRANCH   1   2
BRANCH   1   6
ATOM      6  C   UNL     1      62.001  33.365  60.653  1.00  0.00     0.000 C 
BRANCH   6   7
ATOM      7  C   UNL     1      61.294  34.707  60.427  1.00  0.00    -0.003 C 
ATOM      8  C   UNL     1      62.114  35.863  60.993  1.00  0.00     0.004 C 
ENDBRANCH   6   7
ENDBRANCH   1   6
TORSDOF 4
ENDMDL
MODEL 4
REMARK VINA RESULT:    -2.879      2.738      4.413
REMARK INTER + INTRA:          -3.683
REMARK INTER:                  -3.614
REMARK INTRA:                  -0.070
REMARK UNBOUND:                -0.131
REMARK SMILES CCCCCC(=O)[O-]
REMARK SMILES IDX 4 1 5 2 6 3 7 4 8 5 3 6 2 7 1 8
REMARK H PARENT
REMARK Flexibility Score: inf
ROOT
ATOM      1  C   UNL     1      61.983  32.922  60.538  1.00  0.00     0.006 C 
ENDROOT
BRANCH   1   2
ATOM      2  C   UNL     1      61.628  34.409  60.400  1.00  0.00     0.053 C 
BRANCH   2   3
ATOM      3  C   UNL     1      62.658  35.288  61.042  1.00  0.00     0.041 C 
ATOM      4  O   UNL     1      63.797  34.828  61.321  1.00  0.00    -0.550 OA
ATOM      5  O   UNL     1      62.350  36.604  61.362  1.00  0.00    -0.550 OA
ENDBRANCH   2   3
ENDBRANCH   1   2
BRANCH   1   6
ATOM      6  C   UNL     1      60.735  32.028  60.597  1.00  0.00     0.000 C 
BRANCH   6   7
ATOM      7  C   UNL     1      60.744  31.155  61.856  1.00  0.00    -0.003 C 
ATOM      8  C   UNL     1      61.934  30.199  61.855  1.00  0.00     0.004 C 
ENDBRANCH   6   7
ENDBRANCH   1   6
TORSDOF 4
ENDMDL
MODEL 5
REMARK VINA RESULT:    -2.879      0.882      1.911
REMARK INTER + INTRA:          -3.682
REMARK INTER:                  -3.586
REMARK INTRA:                  -0.096
REMARK UNBOUND:                -0.131
REMARK SMILES CCCCCC(=O)[O-]
REMARK SMILES IDX 4 1 5 2 6 3 7 4 8 5 3 6 2 7 1 8
REMARK H PARENT
REMARK Flexibility Score: inf
ROOT
ATOM      1  C   UNL     1      61.763  33.367  60.556  1.00  0.00     0.006 C 
ENDROOT
BRANCH   1   2
ATOM      2  C   UNL     1      62.194  31.899  60.444  1.00  0.00     0.053 C 
BRANCH   2   3
ATOM      3  C   UNL     1      61.584  31.056  61.523  1.00  0.00     0.041 C 
ATOM      4  O   UNL     1      62.181  30.026  61.934  1.00  0.00    -0.550 OA
ATOM      5  O   UNL     1      60.344  31.390  62.052  1.00  0.00    -0.550 OA
ENDBRANCH   2   3
ENDBRANCH   1   2
BRANCH   1   6
ATOM      6  C   UNL     1      62.938  34.294  60.903  1.00  0.00     0.000 C 
BRANCH   6   7
ATOM      7  C   UNL     1      62.478  35.754  60.988  1.00  0.00    -0.003 C 
ATOM      8  C   UNL     1      61.001  35.888  60.627  1.00  0.00     0.004 C 
ENDBRANCH   6   7
ENDBRANCH   1   6
TORSDOF 4
ENDMDL
MODEL 6
REMARK VINA RESULT:    -2.846     12.627     13.587
REMARK INTER + INTRA:          -3.643
REMARK INTER:                  -3.500
REMARK INTRA:                  -0.142
REMARK UNBOUND:                -0.131
REMARK SMILES CCCCCC(=O)[O-]
REMARK SMILES IDX 4 1 5 2 6 3 7 4 8 5 3 6 2 7 1 8
REMARK H PARENT
REMARK Flexibility Score: inf
ROOT
ATOM      1  C   UNL     1      58.009  29.227  50.710  1.00  0.00     0.006 C 
ENDROOT
BRANCH   1   2
ATOM      2  C   UNL     1      58.786  29.193  49.387  1.00  0.00     0.053 C 
BRANCH   2   3
ATOM      3  C   UNL     1      59.701  28.009  49.310  1.00  0.00     0.041 C 
ATOM      4  O   UNL     1      60.944  28.177  49.200  1.00  0.00    -0.550 OA
ATOM      5  O   UNL     1      59.178  26.722  49.327  1.00  0.00    -0.550 OA
ENDBRANCH   2   3
ENDBRANCH   1   2
BRANCH   1   6
ATOM      6  C   UNL     1      56.488  29.229  50.493  1.00  0.00     0.000 C 
BRANCH   6   7
ATOM      7  C   UNL     1      55.950  27.799  50.366  1.00  0.00    -0.003 C 
ATOM      8  C   UNL     1      54.457  27.798  50.050  1.00  0.00     0.004 C 
ENDBRANCH   6   7
ENDBRANCH   1   6
TORSDOF 4
ENDMDL
MODEL 7
REMARK VINA RESULT:    -2.793     13.317     14.413
REMARK INTER + INTRA:          -3.577
REMARK INTER:                  -3.518
REMARK INTRA:                  -0.059
REMARK UNBOUND:                -0.131
REMARK SMILES CCCCCC(=O)[O-]
REMARK SMILES IDX 4 1 5 2 6 3 7 4 8 5 3 6 2 7 1 8
REMARK H PARENT
REMARK Flexibility Score: inf
ROOT
ATOM      1  C   UNL     1      57.547  27.261  50.433  1.00  0.00     0.006 C 
ENDROOT
BRANCH   1   2
ATOM      2  C   UNL     1      58.896  26.921  49.787  1.00  0.00     0.053 C 
BRANCH   2   3
ATOM      3  C   UNL     1      59.596  28.147  49.284  1.00  0.00     0.041 C 
ATOM      4  O   UNL     1      60.854  28.178  49.225  1.00  0.00    -0.550 OA
ATOM      5  O   UNL     1      58.862  29.265  48.910  1.00  0.00    -0.550 OA
ENDBRANCH   2   3
ENDBRANCH   1   2
BRANCH   1   6
ATOM      6  C   UNL     1      56.463  26.226  50.097  1.00  0.00     0.000 C 
BRANCH   6   7
ATOM      7  C   UNL     1      55.093  26.897  49.941  1.00  0.00    -0.003 C 
ATOM      8  C   UNL     1      54.104  25.971  49.238  1.00  0.00     0.004 C 
ENDBRANCH   6   7
ENDBRANCH   1   6
TORSDOF 4
ENDMDL
MODEL 8
REMARK VINA RESULT:    -2.792     13.062     13.619
REMARK INTER + INTRA:          -3.576
REMARK INTER:                  -3.397
REMARK INTRA:                  -0.179
REMARK UNBOUND:                -0.131
REMARK SMILES CCCCCC(=O)[O-]
REMARK SMILES IDX 4 1 5 2 6 3 7 4 8 5 3 6 2 7 1 8
REMARK H PARENT
REMARK Flexibility Score: inf
ROOT
ATOM      1  C   UNL     1      57.484  28.500  50.710  1.00  0.00     0.006 C 
ENDROOT
BRANCH   1   2
ATOM      2  C   UNL     1      55.986  28.812  50.599  1.00  0.00     0.053 C 
BRANCH   2   3
ATOM      3  C   UNL     1      55.211  27.643  50.071  1.00  0.00     0.041 C 
ATOM      4  O   UNL     1      54.001  27.778  49.751  1.00  0.00    -0.550 OA
ATOM      5  O   UNL     1      55.817  26.397  49.964  1.00  0.00    -0.550 OA
ENDBRANCH   2   3
ENDBRANCH   1   2
BRANCH   1   6
ATOM      6  C   UNL     1      58.321  29.291  49.694  1.00  0.00     0.000 C 
BRANCH   6   7
ATOM      7  C   UNL     1      59.486  28.445  49.167  1.00  0.00    -0.003 C 
ATOM      8  C   UNL     1      59.310  26.974  49.534  1.00  0.00     0.004 C 
ENDBRANCH   6   7
ENDBRANCH   1   6
TORSDOF 4
ENDMDL
MODEL 9
REMARK VINA RESULT:    -2.706      2.605      4.180
REMARK INTER + INTRA:          -3.470
REMARK INTER:                  -3.304
REMARK INTRA:                  -0.166
REMARK UNBOUND:                -0.131
REMARK SMILES CCCCCC(=O)[O-]
REMARK SMILES IDX 4 1 5 2 6 3 7 4 8 5 3 6 2 7 1 8
REMARK H PARENT
REMARK Flexibility Score: inf
ROOT
ATOM      1  C   UNL     1      63.023  31.974  60.410  1.00  0.00     0.006 C 
ENDROOT
BRANCH   1   2
ATOM      2  C   UNL     1      64.192  32.946  60.615  1.00  0.00     0.053 C 
BRANCH   2   3
ATOM      3  C   UNL     1      63.727  34.276  61.125  1.00  0.00     0.041 C 
ATOM      4  O   UNL     1      62.549  34.663  60.900  1.00  0.00    -0.550 OA
ATOM      5  O   UNL     1      64.601  35.101  61.820  1.00  0.00    -0.550 OA
ENDBRANCH   2   3
ENDBRANCH   1   2
BRANCH   1   6
ATOM      6  C   UNL     1      63.084  30.778  61.372  1.00  0.00     0.000 C 
BRANCH   6   7
ATOM      7  C   UNL     1      61.691  30.438  61.914  1.00  0.00    -0.003 C 
ATOM      8  C   UNL     1      60.649  31.438  61.422  1.00  0.00     0.004 C 
ENDBRANCH   6   7
ENDBRANCH   1   6
TORSDOF 4
ENDMDL
