MODEL 1
REMARK VINA RESULT:    -3.374      0.000      0.000
REMARK INTER + INTRA:          -5.976
REMARK INTER:                  -5.347
REMARK INTRA:                  -0.630
REMARK UNBOUND:                -0.630
REMARK SMILES CCCCCCCCCCCC(=O)[O-]
REMARK SMILES IDX 7 1 8 2 9 3 10 4 11 5 12 6 13 7 14 8 6 9 5 10 4 11 3 12 2 13
REMARK SMILES IDX 1 14
REMARK H PARENT
REMARK Flexibility Score: inf
ROOT
ATOM      1  C   UNL     1      15.179  17.085   8.478  1.00  0.00     0.000 C 
ENDROOT
BRANCH   1   2
ATOM      2  C   UNL     1      16.013  16.202   7.538  1.00  0.00     0.000 C 
BRANCH   2   3
ATOM      3  C   UNL     1      16.962  15.297   8.333  1.00  0.00     0.000 C 
BRANCH   3   4
ATOM      4  C   UNL     1      16.632  13.815   8.101  1.00  0.00     0.006 C 
BRANCH   4   5
ATOM      5  C   UNL     1      15.427  13.627   7.171  1.00  0.00     0.053 C 
BRANCH   5   6
ATOM      6  C   UNL     1      14.269  12.995   7.882  1.00  0.00     0.041 C 
ATOM      7  O   UNL     1      14.253  12.938   9.139  1.00  0.00    -0.550 OA
ATOM      8  O   UNL     1      13.223  12.443   7.154  1.00  0.00    -0.550 OA
ENDBRANCH   5   6
ENDBRANCH   4   5
ENDBRANCH   3   4
ENDBRANCH   2   3
ENDBRANCH   1   2
BRANCH   1   9
ATOM      9  C   UNL     1      16.034  17.779   9.552  1.00  0.00     0.000 C 
BRANCH   9  10
ATOM     10  C   UNL     1      16.134  19.299   9.335  1.00  0.00    -0.000 C 
BRANCH  10  11
ATOM     11  C   UNL     1      15.541  20.105  10.502  1.00  0.00    -0.000 C 
BRANCH  11  12
ATOM     12  C   UNL     1      14.687  19.237  11.443  1.00  0.00    -0.000 C 
BRANCH  12  13
ATOM     13  C   UNL     1      13.474  19.996  12.005  1.00  0.00    -0.003 C 
ATOM     14  C   UNL     1      13.531  21.497  11.721  1.00  0.00     0.004 C 
ENDBRANCH  12  13
ENDBRANCH  11  12
ENDBRANCH  10  11
ENDBRANCH   9  10
ENDBRANCH   1   9
TORSDOF 10
ENDMDL
MODEL 2
REMARK VINA RESULT:    -3.281      3.054      6.316
REMARK INTER + INTRA:          -5.828
REMARK INTER:                  -4.868
REMARK INTRA:                  -0.960
REMARK UNBOUND:                -0.630
REMARK SMILES CCCCCCCCCCCC(=O)[O-]
REMARK SMILES IDX 7 1 8 2 9 3 10 4 11 5 12 6 13 7 14 8 6 9 5 10 4 11 3 12 2 13
REMARK SMILES IDX 1 14
REMARK H PARENT
REMARK Flexibility Score: inf
ROOT
ATOM      1  C   UNL     1      15.769  16.059   7.157  1.00  0.00     0.000 C 
ENDROOT
BRANCH   1   2
ATOM      2  C   UNL     1      15.479  17.002   8.334  1.00  0.00     0.000 C 
BRANCH   2   3
ATOM      3  C   UNL     1      16.269  16.583   9.581  1.00  0.00     0.000 C 
BRANCH   3   4
ATOM      4  C   UNL     1      16.241  17.688  10.647  1.00  0.00     0.006 C 
BRANCH   4   5
ATOM      5  C   UNL     1      15.448  18.919  10.188  1.00  0.00     0.053 C 
BRANCH   5   6
ATOM      6  C   UNL     1      14.685  19.542  11.317  1.00  0.00     0.041 C 
ATOM      7  O   UNL     1      14.474  18.891  12.373  1.00  0.00    -0.550 OA
ATOM      8  O   UNL     1      14.181  20.830  11.189  1.00  0.00    -0.550 OA
ENDBRANCH   5   6
ENDBRANCH   4   5
ENDBRANCH   3   4
ENDBRANCH   2   3
ENDBRANCH   1   2
BRANCH   1   9
ATOM      9  C   UNL     1      16.828  14.998   7.497  1.00  0.00     0.000 C 
BRANCH   9  10
ATOM     10  C   UNL     1      16.299  13.562   7.332  1.00  0.00    -0.000 C 
BRANCH  10  11
ATOM     11  C   UNL     1      14.799  13.518   6.995  1.00  0.00    -0.000 C 
BRANCH  11  12
ATOM     12  C   UNL     1      13.963  12.867   8.111  1.00  0.00    -0.000 C 
BRANCH  12  13
ATOM     13  C   UNL     1      14.514  13.171   9.513  1.00  0.00    -0.003 C 
ATOM     14  C   UNL     1      14.235  12.050  10.515  1.00  0.00     0.004 C 
ENDBRANCH  12  13
ENDBRANCH  11  12
ENDBRANCH  10  11
ENDBRANCH   9  10
ENDBRANCH   1   9
TORSDOF 10
ENDMDL
MODEL 3
REMARK VINA RESULT:    -3.270      1.212      1.638
REMARK INTER + INTRA:          -5.811
REMARK INTER:                  -5.076
REMARK INTRA:                  -0.734
REMARK UNBOUND:                -0.630
REMARK SMILES CCCCCCCCCCCC(=O)[O-]
REMARK SMILES IDX 7 1 8 2 9 3 10 4 11 5 12 6 13 7 14 8 6 9 5 10 4 11 3 12 2 13
REMARK SMILES IDX 1 14
REMARK H PARENT
REMARK Flexibility Score: inf
ROOT
ATOM      1  C   UNL     1      15.618  18.299   9.572  1.00  0.00     0.000 C 
ENDROOT
BRANCH   1   2
ATOM      2  C   UNL     1      15.651  17.082   8.636  1.00  0.00     0.000 C 
BRANCH   2   3
ATOM      3  C   UNL     1      16.781  16.121   9.024  1.00  0.00     0.000 C 
BRANCH   3   4
ATOM      4  C   UNL     1      16.256  14.686   9.177  1.00  0.00     0.006 C 
BRANCH   4   5
ATOM      5  C   UNL     1      14.869  14.505   8.547  1.00  0.00     0.053 C 
BRANCH   5   6
ATOM      6  C   UNL     1      14.867  13.431   7.503  1.00  0.00     0.041 C 
ATOM      7  O   UNL     1      15.919  13.170   6.862  1.00  0.00    -0.550 OA
ATOM      8  O   UNL     1      13.697  12.741   7.215  1.00  0.00    -0.550 OA
ENDBRANCH   5   6
ENDBRANCH   4   5
ENDBRANCH   3   4
ENDBRANCH   2   3
ENDBRANCH   1   2
BRANCH   1   9
ATOM      9  C   UNL     1      16.364  19.512   8.992  1.00  0.00     0.000 C 
BRANCH   9  10
ATOM     10  C   UNL     1      16.781  20.522  10.076  1.00  0.00    -0.000 C 
BRANCH  10  11
ATOM     11  C   UNL     1      15.935  20.402  11.354  1.00  0.00    -0.000 C 
BRANCH  11  12
ATOM     12  C   UNL     1      14.984  21.597  11.545  1.00  0.00    -0.000 C 
BRANCH  12  13
ATOM     13  C   UNL     1      13.512  21.167  11.646  1.00  0.00    -0.003 C 
ATOM     14  C   UNL     1      13.345  19.741  12.174  1.00  0.00     0.004 C 
ENDBRANCH  12  13
ENDBRANCH  11  12
ENDBRANCH  10  11
ENDBRANCH   9  10
ENDBRANCH   1   9
TORSDOF 10
ENDMDL
MODEL 4
REMARK VINA RESULT:    -3.188      1.569      2.725
REMARK INTER + INTRA:          -5.681
REMARK INTER:                  -4.861
REMARK INTRA:                  -0.821
REMARK UNBOUND:                -0.630
REMARK SMILES CCCCCCCCCCCC(=O)[O-]
REMARK SMILES IDX 7 1 8 2 9 3 10 4 11 5 12 6 13 7 14 8 6 9 5 10 4 11 3 12 2 13
REMARK SMILES IDX 1 14
REMARK H PARENT
REMARK Flexibility Score: inf
ROOT
ATOM      1  C   UNL     1      15.645  15.837   7.119  1.00  0.00     0.000 C 
ENDROOT
BRANCH   1   2
ATOM      2  C   UNL     1      15.835  14.417   7.673  1.00  0.00     0.000 C 
BRANCH   2   3
ATOM      3  C   UNL     1      14.726  13.481   7.179  1.00  0.00     0.000 C 
BRANCH   3   4
ATOM      4  C   UNL     1      14.088  12.717   8.349  1.00  0.00     0.006 C 
BRANCH   4   5
ATOM      5  C   UNL     1      14.430  13.343   9.707  1.00  0.00     0.053 C 
BRANCH   5   6
ATOM      6  C   UNL     1      14.193  12.387  10.836  1.00  0.00     0.041 C 
ATOM      7  O   UNL     1      14.585  11.194  10.748  1.00  0.00    -0.550 OA
ATOM      8  O   UNL     1      13.512  12.806  11.971  1.00  0.00    -0.550 OA
ENDBRANCH   5   6
ENDBRANCH   4   5
ENDBRANCH   3   4
ENDBRANCH   2   3
ENDBRANCH   1   2
BRANCH   1   9
ATOM      9  C   UNL     1      15.472  16.886   8.230  1.00  0.00     0.000 C 
BRANCH   9  10
ATOM     10  C   UNL     1      16.303  16.560   9.484  1.00  0.00    -0.000 C 
BRANCH  10  11
ATOM     11  C   UNL     1      16.669  17.814  10.295  1.00  0.00    -0.000 C 
BRANCH  11  12
ATOM     12  C   UNL     1      16.226  19.114   9.602  1.00  0.00    -0.000 C 
BRANCH  12  13
ATOM     13  C   UNL     1      15.655  20.143  10.591  1.00  0.00    -0.003 C 
ATOM     14  C   UNL     1      14.429  19.624  11.344  1.00  0.00     0.004 C 
ENDBRANCH  12  13
ENDBRANCH  11  12
ENDBRANCH  10  11
ENDBRANCH   9  10
ENDBRANCH   1   9
TORSDOF 10
ENDMDL
MODEL 5
REMARK VINA RESULT:    -3.103      3.461      7.036
REMARK INTER + INTRA:          -5.546
REMARK INTER:                  -5.098
REMARK INTRA:                  -0.449
REMARK UNBOUND:                -0.630
REMARK SMILES CCCCCCCCCCCC(=O)[O-]
REMARK SMILES IDX 7 1 8 2 9 3 10 4 11 5 12 6 13 7 14 8 6 9 5 10 4 11 3 12 2 13
REMARK SMILES IDX 1 14
REMARK H PARENT
REMARK Flexibility Score: inf
ROOT
ATOM      1  C   UNL     1      15.629  17.973   9.417  1.00  0.00     0.000 C 
ENDROOT
BRANCH   1   2
ATOM      2  C   UNL     1      16.401  19.225   8.975  1.00  0.00     0.000 C 
BRANCH   2   3
ATOM      3  C   UNL     1      16.441  20.270  10.097  1.00  0.00     0.000 C 
BRANCH   3   4
ATOM      4  C   UNL     1      15.346  20.001  11.139  1.00  0.00     0.006 C 
BRANCH   4   5
ATOM      5  C   UNL     1      14.618  21.285  11.560  1.00  0.00     0.053 C 
BRANCH   5   6
ATOM      6  C   UNL     1      13.360  20.987  12.319  1.00  0.00     0.041 C 
ATOM      7  O   UNL     1      12.995  19.795  12.496  1.00  0.00    -0.550 OA
ATOM      8  O   UNL     1      12.575  22.027  12.802  1.00  0.00    -0.550 OA
ENDBRANCH   5   6
ENDBRANCH   4   5
ENDBRANCH   3   4
ENDBRANCH   2   3
ENDBRANCH   1   2
BRANCH   1   9
ATOM      9  C   UNL     1      15.306  17.033   8.244  1.00  0.00     0.000 C 
BRANCH   9  10
ATOM     10  C   UNL     1      16.340  15.903   8.090  1.00  0.00    -0.000 C 
BRANCH  10  11
ATOM     11  C   UNL     1      15.716  14.594   7.582  1.00  0.00    -0.000 C 
BRANCH  11  12
ATOM     12  C   UNL     1      15.437  13.594   8.717  1.00  0.00    -0.000 C 
BRANCH  12  13
ATOM     13  C   UNL     1      14.118  12.830   8.519  1.00  0.00    -0.003 C 
ATOM     14  C   UNL     1      13.653  12.819   7.062  1.00  0.00     0.004 C 
ENDBRANCH  12  13
ENDBRANCH  11  12
ENDBRANCH  10  11
ENDBRANCH   9  10
ENDBRANCH   1   9
TORSDOF 10
ENDMDL
MODEL 6
REMARK VINA RESULT:    -3.072      2.436      4.063
REMARK INTER + INTRA:          -5.497
REMARK INTER:                  -4.692
REMARK INTRA:                  -0.805
REMARK UNBOUND:                -0.630
REMARK SMILES CCCCCCCCCCCC(=O)[O-]
REMARK SMILES IDX 7 1 8 2 9 3 10 4 11 5 12 6 13 7 14 8 6 9 5 10 4 11 3 12 2 13
REMARK SMILES IDX 1 14
REMARK H PARENT
REMARK Flexibility Score: inf
ROOT
ATOM      1  C   UNL     1      15.912  13.475   7.376  1.00  0.00     0.000 C 
ENDROOT
BRANCH   1   2
ATOM      2  C   UNL     1      14.511  13.354   7.995  1.00  0.00     0.000 C 
BRANCH   2   3
ATOM      3  C   UNL     1      14.580  13.411   9.526  1.00  0.00     0.000 C 
BRANCH   3   4
ATOM      4  C   UNL     1      14.142  12.076  10.146  1.00  0.00     0.006 C 
BRANCH   4   5
ATOM      5  C   UNL     1      14.709  11.879  11.558  1.00  0.00     0.053 C 
BRANCH   5   6
ATOM      6  C   UNL     1      14.126  12.857  12.533  1.00  0.00     0.041 C 
ATOM      7  O   UNL     1      12.902  12.808  12.823  1.00  0.00    -0.550 OA
ATOM      8  O   UNL     1      14.929  13.841  13.097  1.00  0.00    -0.550 OA
ENDBRANCH   5   6
ENDBRANCH   4   5
ENDBRANCH   3   4
ENDBRANCH   2   3
ENDBRANCH   1   2
BRANCH   1   9
ATOM      9  C   UNL     1      16.531  14.867   7.583  1.00  0.00     0.000 C 
BRANCH   9  10
ATOM     10  C   UNL     1      15.564  16.005   7.209  1.00  0.00    -0.000 C 
BRANCH  10  11
ATOM     11  C   UNL     1      15.441  17.065   8.316  1.00  0.00    -0.000 C 
BRANCH  11  12
ATOM     12  C   UNL     1      16.411  16.813   9.484  1.00  0.00    -0.000 C 
BRANCH  12  13
ATOM     13  C   UNL     1      16.243  17.835  10.620  1.00  0.00    -0.003 C 
ATOM     14  C   UNL     1      15.612  19.146  10.149  1.00  0.00     0.004 C 
ENDBRANCH  12  13
ENDBRANCH  11  12
ENDBRANCH  10  11
ENDBRANCH   9  10
ENDBRANCH   1   9
TORSDOF 10
ENDMDL
MODEL 7
REMARK VINA RESULT:    -2.974      3.525      6.279
REMARK INTER + INTRA:          -5.342
REMARK INTER:                  -4.816
REMARK INTRA:                  -0.526
REMARK UNBOUND:                -0.630
REMARK SMILES CCCCCCCCCCCC(=O)[O-]
REMARK SMILES IDX 7 1 8 2 9 3 10 4 11 5 12 6 13 7 14 8 6 9 5 10 4 11 3 12 2 13
REMARK SMILES IDX 1 14
REMARK H PARENT
REMARK Flexibility Score: inf
ROOT
ATOM      1  C   UNL     1      14.987  13.488   7.072  1.00  0.00     0.000 C 
ENDROOT
BRANCH   1   2
ATOM      2  C   UNL     1      16.071  14.448   7.583  1.00  0.00     0.000 C 
BRANCH   2   3
ATOM      3  C   UNL     1      15.698  15.906   7.286  1.00  0.00     0.000 C 
BRANCH   3   4
ATOM      4  C   UNL     1      16.644  16.875   8.010  1.00  0.00     0.006 C 
BRANCH   4   5
ATOM      5  C   UNL     1      16.151  17.222   9.421  1.00  0.00     0.053 C 
BRANCH   5   6
ATOM      6  C   UNL     1      15.901  18.692   9.577  1.00  0.00     0.041 C 
ATOM      7  O   UNL     1      16.525  19.519   8.862  1.00  0.00    -0.550 OA
ATOM      8  O   UNL     1      15.002  19.148  10.533  1.00  0.00    -0.550 OA
ENDBRANCH   5   6
ENDBRANCH   4   5
ENDBRANCH   3   4
ENDBRANCH   2   3
ENDBRANCH   1   2
BRANCH   1   9
ATOM      9  C   UNL     1      14.082  12.965   8.200  1.00  0.00     0.000 C 
BRANCH   9  10
ATOM     10  C   UNL     1      14.685  13.197   9.597  1.00  0.00    -0.000 C 
BRANCH  10  11
ATOM     11  C   UNL     1      13.910  12.468  10.706  1.00  0.00    -0.000 C 
BRANCH  11  12
ATOM     12  C   UNL     1      14.331  12.920  12.115  1.00  0.00    -0.000 C 
BRANCH  12  13
ATOM     13  C   UNL     1      15.024  11.801  12.909  1.00  0.00    -0.003 C 
ATOM     14  C   UNL     1      15.990  10.979  12.055  1.00  0.00     0.004 C 
ENDBRANCH  12  13
ENDBRANCH  11  12
ENDBRANCH  10  11
ENDBRANCH   9  10
ENDBRANCH   1   9
TORSDOF 10
ENDMDL
MODEL 8
REMARK VINA RESULT:    -2.830      3.626      5.441
REMARK INTER + INTRA:          -5.114
REMARK INTER:                  -4.508
REMARK INTRA:                  -0.606
REMARK UNBOUND:                -0.630
REMARK SMILES CCCCCCCCCCCC(=O)[O-]
REMARK SMILES IDX 7 1 8 2 9 3 10 4 11 5 12 6 13 7 14 8 6 9 5 10 4 11 3 12 2 13
REMARK SMILES IDX 1 14
REMARK H PARENT
REMARK Flexibility Score: inf
ROOT
ATOM      1  C   UNL     1      14.477  13.164   9.526  1.00  0.00     0.000 C 
ENDROOT
BRANCH   1   2
ATOM      2  C   UNL     1      14.165  12.910   8.043  1.00  0.00     0.000 C 
BRANCH   2   3
ATOM      3  C   UNL     1      15.154  13.655   7.138  1.00  0.00     0.000 C 
BRANCH   3   4
ATOM      4  C   UNL     1      16.580  13.581   7.703  1.00  0.00     0.006 C 
BRANCH   4   5
ATOM      5  C   UNL     1      17.027  14.909   8.327  1.00  0.00     0.053 C 
BRANCH   5   6
ATOM      6  C   UNL     1      16.375  16.083   7.663  1.00  0.00     0.041 C 
ATOM      7  O   UNL     1      16.868  16.570   6.611  1.00  0.00    -0.550 OA
ATOM      8  O   UNL     1      15.242  16.659   8.223  1.00  0.00    -0.550 OA
ENDBRANCH   5   6
ENDBRANCH   4   5
ENDBRANCH   3   4
ENDBRANCH   2   3
ENDBRANCH   1   2
BRANCH   1   9
ATOM      9  C   UNL     1      13.985  12.027  10.436  1.00  0.00     0.000 C 
BRANCH   9  10
ATOM     10  C   UNL     1      15.106  11.453  11.322  1.00  0.00    -0.000 C 
BRANCH  10  11
ATOM     11  C   UNL     1      14.955  11.850  12.800  1.00  0.00    -0.000 C 
BRANCH  11  12
ATOM     12  C   UNL     1      14.869  13.374  12.995  1.00  0.00    -0.000 C 
BRANCH  12  13
ATOM     13  C   UNL     1      16.250  14.049  12.969  1.00  0.00    -0.003 C 
ATOM     14  C   UNL     1      16.315  15.227  11.996  1.00  0.00     0.004 C 
ENDBRANCH  12  13
ENDBRANCH  11  12
ENDBRANCH  10  11
ENDBRANCH   9  10
ENDBRANCH   1   9
TORSDOF 10
ENDMDL
MODEL 9
REMARK VINA RESULT:    -2.822      2.880      4.698
REMARK INTER + INTRA:          -5.101
REMARK INTER:                  -3.907
REMARK INTRA:                  -1.194
REMARK UNBOUND:                -0.630
REMARK SMILES CCCCCCCCCCCC(=O)[O-]
REMARK SMILES IDX 7 1 8 2 9 3 10 4 11 5 12 6 13 7 14 8 6 9 5 10 4 11 3 12 2 13
REMARK SMILES IDX 1 14
REMARK H PARENT
REMARK Flexibility Score: inf
ROOT
ATOM      1  C   UNL     1      17.113  16.776  10.873  1.00  0.00     0.000 C 
ENDROOT
BRANCH   1   2
ATOM      2  C   UNL     1      16.062  17.065   9.791  1.00  0.00     0.000 C 
BRANCH   2   3
ATOM      3  C   UNL     1      16.404  16.337   8.485  1.00  0.00     0.000 C 
BRANCH   3   4
ATOM      4  C   UNL     1      16.322  14.814   8.665  1.00  0.00     0.006 C 
BRANCH   4   5
ATOM      5  C   UNL     1      14.877  14.300   8.615  1.00  0.00     0.053 C 
BRANCH   5   6
ATOM      6  C   UNL     1      14.692  13.268   7.544  1.00  0.00     0.041 C 
ATOM      7  O   UNL     1      15.634  12.999   6.754  1.00  0.00    -0.550 OA
ATOM      8  O   UNL     1      13.467  12.627   7.400  1.00  0.00    -0.550 OA
ENDBRANCH   5   6
ENDBRANCH   4   5
ENDBRANCH   3   4
ENDBRANCH   2   3
ENDBRANCH   1   2
BRANCH   1   9
ATOM      9  C   UNL     1      16.528  16.026  12.081  1.00  0.00     0.000 C 
BRANCH   9  10
ATOM     10  C   UNL     1      17.101  14.605  12.227  1.00  0.00    -0.000 C 
BRANCH  10  11
ATOM     11  C   UNL     1      16.125  13.641  12.922  1.00  0.00    -0.000 C 
BRANCH  11  12
ATOM     12  C   UNL     1      14.691  13.762  12.379  1.00  0.00    -0.000 C 
BRANCH  12  13
ATOM     13  C   UNL     1      14.131  12.417  11.890  1.00  0.00    -0.003 C 
ATOM     14  C   UNL     1      15.192  11.543  11.219  1.00  0.00     0.004 C 
ENDBRANCH  12  13
ENDBRANCH  11  12
ENDBRANCH  10  11
ENDBRANCH   9  10
ENDBRANCH   1   9
TORSDOF 10
ENDMDL
