MODEL 1
REMARK VINA RESULT:     4.594      0.000      0.000
REMARK INTER + INTRA:          19.577
REMARK INTER:                   7.010
REMARK INTRA:                  12.567
REMARK UNBOUND:                12.567
REMARK SMILES CC1=CCC[C@H](C)C(=O)C[C@H](C(C)C)C(=O)C1
REMARK SMILES IDX 8 1 9 2 6 3 7 4 5 5 4 6 3 7 2 8 1 9 10 11 11 12 15 13 16 14
REMARK SMILES IDX 17 15 12 17 13 18 14 19
REMARK H PARENT
REMARK Flexibility Score: 70.00
ROOT
ATOM      1  C   UNL     1       5.343 -23.214   9.857  1.00  0.00     0.136 C 
ATOM      2  O   UNL     1       6.261 -23.107   9.056  1.00  0.00    -0.299 OA
ENDROOT
BRANCH   1   3
ATOM      3  C   UNL     1       3.963 -22.723   9.456  1.00  0.00     0.053 C 
ATOM      4  C   UNL     1       3.678 -21.344  10.062  1.00  0.00     0.016 C 
BRANCH   3   5
ATOM      5  C   UNL     1       3.791 -22.702   7.926  1.00  0.00     0.015 C 
BRANCH   5   6
ATOM      6  C   UNL     1       4.447 -23.922   7.255  1.00  0.00     0.028 C 
BRANCH   6   7
ATOM      7  C   UNL     1       5.879 -23.626   6.891  1.00  0.00    -0.028 C 
ATOM      8  C   UNL     1       6.950 -23.974   7.643  1.00  0.00    -0.070 CG0
ATOM      9  C   UNL     1       8.316 -23.548   7.169  1.00  0.00     0.039 C 
ATOM     10  G   UNL     1       6.831 -24.781   8.928  1.00  0.00     0.000 G0
ENDBRANCH   6   7
ENDBRANCH   5   6
ENDBRANCH   3   5
ENDBRANCH   1   3
BRANCH   1  11
ATOM     11  C   UNL     1       5.622 -23.855  11.198  1.00  0.00     0.087 C 
BRANCH  11  12
ATOM     12  C   UNL     1       7.106 -24.288  11.347  1.00  0.00     0.066 C 
BRANCH  12  13
ATOM     13  C   UNL     1       7.690 -24.724  10.010  1.00  0.00     0.140 C 
ATOM     14  O   UNL     1       8.895 -24.895   9.900  1.00  0.00    -0.299 OA
BRANCH  13  15
ATOM     15  C   UNL     1       6.796 -25.031   8.832  1.00  0.00     0.106 CG0
ATOM     16  G   UNL     1       6.905 -23.978   7.738  1.00  0.00     0.000 G0
ENDBRANCH  13  15
ENDBRANCH  12  13
BRANCH  12  17
ATOM     17  C   UNL     1       8.009 -23.200  12.010  1.00  0.00    -0.006 C 
ATOM     18  C   UNL     1       9.089 -22.693  11.041  1.00  0.00     0.008 C 
ATOM     19  C   UNL     1       8.660 -23.647  13.333  1.00  0.00     0.008 C 
ENDBRANCH  12  17
ENDBRANCH  11  12
ENDBRANCH   1  11
TORSDOF 1
ENDMDL
MODEL 2
REMARK VINA RESULT:     7.428     18.915     20.888
REMARK INTER + INTRA:          23.903
REMARK INTER:                   6.727
REMARK INTRA:                  17.176
REMARK UNBOUND:                12.567
REMARK SMILES CC1=CCC[C@H](C)C(=O)C[C@H](C(C)C)C(=O)C1
REMARK SMILES IDX 8 1 9 2 6 3 7 4 5 5 4 6 3 7 2 8 1 9 10 11 11 12 15 13 16 14
REMARK SMILES IDX 17 15 12 17 13 18 14 19
REMARK H PARENT
REMARK Flexibility Score: 70.00
ROOT
ATOM      1  C   UNL     1      -9.602 -21.785  22.377  1.00  0.00     0.136 C 
ATOM      2  O   UNL     1      -9.938 -20.624  22.191  1.00  0.00    -0.299 OA
ENDROOT
BRANCH   1   3
ATOM      3  C   UNL     1     -10.642 -22.776  22.867  1.00  0.00     0.053 C 
ATOM      4  C   UNL     1     -11.119 -23.676  21.721  1.00  0.00     0.016 C 
BRANCH   3   5
ATOM      5  C   UNL     1     -10.118 -23.612  24.048  1.00  0.00     0.015 C 
BRANCH   5   6
ATOM      6  C   UNL     1      -9.531 -22.730  25.165  1.00  0.00     0.028 C 
BRANCH   6   7
ATOM      7  C   UNL     1      -8.257 -23.326  25.703  1.00  0.00    -0.028 C 
ATOM      8  C   UNL     1      -7.628 -24.401  25.172  1.00  0.00    -0.070 CG0
ATOM      9  C   UNL     1      -6.392 -24.914  25.867  1.00  0.00     0.039 C 
ATOM     10  G   UNL     1      -8.105 -25.096  23.905  1.00  0.00     0.000 G0
ENDBRANCH   6   7
ENDBRANCH   5   6
ENDBRANCH   3   5
ENDBRANCH   1   3
BRANCH   1  11
ATOM     11  C   UNL     1      -8.172 -22.182  22.084  1.00  0.00     0.087 C 
BRANCH  11  12
ATOM     12  C   UNL     1      -8.049 -23.673  21.668  1.00  0.00     0.066 C 
BRANCH  12  13
ATOM     13  C   UNL     1      -8.748 -24.585  22.667  1.00  0.00     0.140 C 
ATOM     14  O   UNL     1      -9.899 -24.943  22.462  1.00  0.00    -0.299 OA
BRANCH  13  15
ATOM     15  C   UNL     1      -8.018 -25.125  23.874  1.00  0.00     0.106 CG0
ATOM     16  G   UNL     1      -7.763 -24.049  24.920  1.00  0.00     0.000 G0
ENDBRANCH  13  15
ENDBRANCH  12  13
BRANCH  12  17
ATOM     17  C   UNL     1      -8.554 -23.960  20.218  1.00  0.00    -0.006 C 
ATOM     18  C   UNL     1     -10.065 -24.243  20.191  1.00  0.00     0.008 C 
ATOM     19  C   UNL     1      -7.796 -25.093  19.502  1.00  0.00     0.008 C 
ENDBRANCH  12  17
ENDBRANCH  11  12
ENDBRANCH   1  11
TORSDOF 1
ENDMDL
