MODEL 1
REMARK VINA RESULT:    -1.138      0.000      0.000
REMARK INTER + INTRA:          -1.684
REMARK INTER:                  -1.404
REMARK INTRA:                  -0.280
REMARK UNBOUND:                -0.280
REMARK SMILES CCCCC=CC(C)=O
REMARK SMILES IDX 4 1 3 2 2 3 1 4 5 5 6 6 7 7 9 8 8 9
REMARK H PARENT
REMARK Flexibility Score: inf
ROOT
ATOM      1  C   UNL     1      92.175  26.130  10.863  1.00  0.00     0.027 C 
ENDROOT
BRANCH   1   2
ATOM      2  C   UNL     1      92.572  26.530   9.433  1.00  0.00     0.004 C 
BRANCH   2   3
ATOM      3  C   UNL     1      93.887  25.876   8.981  1.00  0.00    -0.003 C 
ATOM      4  C   UNL     1      94.990  26.898   8.709  1.00  0.00     0.004 C 
ENDBRANCH   2   3
ENDBRANCH   1   2
BRANCH   1   5
ATOM      5  C   UNL     1      92.332  27.283  11.811  1.00  0.00    -0.023 C 
ATOM      6  C   UNL     1      92.624  28.513  11.371  1.00  0.00     0.042 C 
BRANCH   6   7
ATOM      7  C   UNL     1      92.777  29.680  12.264  1.00  0.00     0.152 C 
ATOM      8  O   UNL     1      93.435  30.672  11.854  1.00  0.00    -0.295 OA
ATOM      9  C   UNL     1      92.177  29.725  13.637  1.00  0.00     0.093 C 
ENDBRANCH   6   7
ENDBRANCH   1   5
TORSDOF 4
ENDMDL
MODEL 2
REMARK VINA RESULT:    -1.124      2.305      2.578
REMARK INTER + INTRA:          -1.667
REMARK INTER:                  -1.452
REMARK INTRA:                  -0.215
REMARK UNBOUND:                -0.280
REMARK SMILES CCCCC=CC(C)=O
REMARK SMILES IDX 4 1 3 2 2 3 1 4 5 5 6 6 7 7 9 8 8 9
REMARK H PARENT
REMARK Flexibility Score: inf
ROOT
ATOM      1  C   UNL     1      92.946  27.645  10.290  1.00  0.00     0.027 C 
ENDROOT
BRANCH   1   2
ATOM      2  C   UNL     1      93.010  26.162   9.891  1.00  0.00     0.004 C 
BRANCH   2   3
ATOM      3  C   UNL     1      94.107  25.879   8.853  1.00  0.00    -0.003 C 
ATOM      4  C   UNL     1      95.121  27.016   8.741  1.00  0.00     0.004 C 
ENDBRANCH   2   3
ENDBRANCH   1   2
BRANCH   1   5
ATOM      5  C   UNL     1      92.428  27.806  11.690  1.00  0.00    -0.023 C 
ATOM      6  C   UNL     1      91.756  26.824  12.303  1.00  0.00     0.042 C 
BRANCH   6   7
ATOM      7  C   UNL     1      91.238  26.932  13.682  1.00  0.00     0.152 C 
ATOM      8  O   UNL     1      90.867  25.883  14.271  1.00  0.00    -0.295 OA
ATOM      9  C   UNL     1      91.139  28.243  14.403  1.00  0.00     0.093 C 
ENDBRANCH   6   7
ENDBRANCH   1   5
TORSDOF 4
ENDMDL
MODEL 3
REMARK VINA RESULT:    -1.049      2.889      5.279
REMARK INTER + INTRA:          -1.575
REMARK INTER:                  -1.318
REMARK INTRA:                  -0.256
REMARK UNBOUND:                -0.280
REMARK SMILES CCCCC=CC(C)=O
REMARK SMILES IDX 4 1 3 2 2 3 1 4 5 5 6 6 7 7 9 8 8 9
REMARK H PARENT
REMARK Flexibility Score: inf
ROOT
ATOM      1  C   UNL     1      90.815  26.068  14.795  1.00  0.00     0.027 C 
ENDROOT
BRANCH   1   2
ATOM      2  C   UNL     1      91.859  25.884  15.908  1.00  0.00     0.004 C 
BRANCH   2   3
ATOM      3  C   UNL     1      91.746  26.953  17.005  1.00  0.00    -0.003 C 
ATOM      4  C   UNL     1      92.087  28.354  16.500  1.00  0.00     0.004 C 
ENDBRANCH   2   3
ENDBRANCH   1   2
BRANCH   1   5
ATOM      5  C   UNL     1      91.455  26.002  13.438  1.00  0.00    -0.023 C 
ATOM      6  C   UNL     1      91.703  27.110  12.728  1.00  0.00     0.042 C 
BRANCH   6   7
ATOM      7  C   UNL     1      92.339  27.096  11.396  1.00  0.00     0.152 C 
ATOM      8  O   UNL     1      92.932  28.134  10.999  1.00  0.00    -0.295 OA
ATOM      9  C   UNL     1      92.306  25.893  10.502  1.00  0.00     0.093 C 
ENDBRANCH   6   7
ENDBRANCH   1   5
TORSDOF 4
ENDMDL
MODEL 4
REMARK VINA RESULT:    -1.048      2.112      5.130
REMARK INTER + INTRA:          -1.573
REMARK INTER:                  -1.329
REMARK INTRA:                  -0.244
REMARK UNBOUND:                -0.280
REMARK SMILES CCCCC=CC(C)=O
REMARK SMILES IDX 4 1 3 2 2 3 1 4 5 5 6 6 7 7 9 8 8 9
REMARK H PARENT
REMARK Flexibility Score: inf
ROOT
ATOM      1  C   UNL     1      92.302  30.484  14.269  1.00  0.00     0.027 C 
ENDROOT
BRANCH   1   2
ATOM      2  C   UNL     1      92.794  29.935  15.618  1.00  0.00     0.004 C 
BRANCH   2   3
ATOM      3  C   UNL     1      94.162  30.506  16.022  1.00  0.00    -0.003 C 
ATOM      4  C   UNL     1      95.098  30.694  14.829  1.00  0.00     0.004 C 
ENDBRANCH   2   3
ENDBRANCH   1   2
BRANCH   1   5
ATOM      5  C   UNL     1      92.058  29.372  13.289  1.00  0.00    -0.023 C 
ATOM      6  C   UNL     1      92.867  29.177  12.240  1.00  0.00     0.042 C 
BRANCH   6   7
ATOM      7  C   UNL     1      92.674  28.092  11.257  1.00  0.00     0.152 C 
ATOM      8  O   UNL     1      92.916  28.327  10.044  1.00  0.00    -0.295 OA
ATOM      9  C   UNL     1      92.205  26.724  11.652  1.00  0.00     0.093 C 
ENDBRANCH   6   7
ENDBRANCH   1   5
TORSDOF 4
ENDMDL
MODEL 5
REMARK VINA RESULT:    -0.972      1.604      2.041
REMARK INTER + INTRA:          -1.479
REMARK INTER:                  -1.214
REMARK INTRA:                  -0.265
REMARK UNBOUND:                -0.280
REMARK SMILES CCCCC=CC(C)=O
REMARK SMILES IDX 4 1 3 2 2 3 1 4 5 5 6 6 7 7 9 8 8 9
REMARK H PARENT
REMARK Flexibility Score: inf
ROOT
ATOM      1  C   UNL     1      93.231  26.016   9.226  1.00  0.00     0.027 C 
ENDROOT
BRANCH   1   2
ATOM      2  C   UNL     1      94.563  26.653   8.799  1.00  0.00     0.004 C 
BRANCH   2   3
ATOM      3  C   UNL     1      94.521  27.204   7.366  1.00  0.00    -0.003 C 
ATOM      4  C   UNL     1      94.062  28.661   7.308  1.00  0.00     0.004 C 
ENDBRANCH   2   3
ENDBRANCH   1   2
BRANCH   1   5
ATOM      5  C   UNL     1      92.754  26.584  10.531  1.00  0.00    -0.023 C 
ATOM      6  C   UNL     1      92.823  27.896  10.788  1.00  0.00     0.042 C 
BRANCH   6   7
ATOM      7  C   UNL     1      92.356  28.501  12.052  1.00  0.00     0.152 C 
ATOM      8  O   UNL     1      91.457  27.911  12.708  1.00  0.00    -0.295 OA
ATOM      9  C   UNL     1      92.913  29.789  12.580  1.00  0.00     0.093 C 
ENDBRANCH   6   7
ENDBRANCH   1   5
TORSDOF 4
ENDMDL
MODEL 6
REMARK VINA RESULT:    -0.968      2.032      3.309
REMARK INTER + INTRA:          -1.474
REMARK INTER:                  -1.225
REMARK INTRA:                  -0.249
REMARK UNBOUND:                -0.280
REMARK SMILES CCCCC=CC(C)=O
REMARK SMILES IDX 4 1 3 2 2 3 1 4 5 5 6 6 7 7 9 8 8 9
REMARK H PARENT
REMARK Flexibility Score: inf
ROOT
ATOM      1  C   UNL     1      91.491  28.987  12.641  1.00  0.00     0.027 C 
ENDROOT
BRANCH   1   2
ATOM      2  C   UNL     1      92.316  28.571  11.413  1.00  0.00     0.004 C 
BRANCH   2   3
ATOM      3  C   UNL     1      92.493  27.049  11.310  1.00  0.00    -0.003 C 
ATOM      4  C   UNL     1      91.757  26.294  12.416  1.00  0.00     0.004 C 
ENDBRANCH   2   3
ENDBRANCH   1   2
BRANCH   1   5
ATOM      5  C   UNL     1      92.299  29.845  13.571  1.00  0.00    -0.023 C 
ATOM      6  C   UNL     1      93.431  30.435  13.170  1.00  0.00     0.042 C 
BRANCH   6   7
ATOM      7  C   UNL     1      94.253  31.296  14.044  1.00  0.00     0.152 C 
ATOM      8  O   UNL     1      94.217  32.543  13.870  1.00  0.00    -0.295 OA
ATOM      9  C   UNL     1      95.125  30.739  15.130  1.00  0.00     0.093 C 
ENDBRANCH   6   7
ENDBRANCH   1   5
TORSDOF 4
ENDMDL
MODEL 7
REMARK VINA RESULT:    -0.943      6.148      7.102
REMARK INTER + INTRA:          -1.443
REMARK INTER:                  -1.173
REMARK INTRA:                  -0.270
REMARK UNBOUND:                -0.280
REMARK SMILES CCCCC=CC(C)=O
REMARK SMILES IDX 4 1 3 2 2 3 1 4 5 5 6 6 7 7 9 8 8 9
REMARK H PARENT
REMARK Flexibility Score: inf
ROOT
ATOM      1  C   UNL     1      93.723  30.308  17.768  1.00  0.00     0.027 C 
ENDROOT
BRANCH   1   2
ATOM      2  C   UNL     1      94.673  30.457  16.570  1.00  0.00     0.004 C 
BRANCH   2   3
ATOM      3  C   UNL     1      94.503  31.801  15.846  1.00  0.00    -0.003 C 
ATOM      4  C   UNL     1      93.067  32.322  15.899  1.00  0.00     0.004 C 
ENDBRANCH   2   3
ENDBRANCH   1   2
BRANCH   1   5
ATOM      5  C   UNL     1      92.949  29.024  17.689  1.00  0.00    -0.023 C 
ATOM      6  C   UNL     1      92.326  28.652  16.564  1.00  0.00     0.042 C 
BRANCH   6   7
ATOM      7  C   UNL     1      91.564  27.394  16.435  1.00  0.00     0.152 C 
ATOM      8  O   UNL     1      92.176  26.301  16.565  1.00  0.00    -0.295 OA
ATOM      9  C   UNL     1      90.090  27.372  16.158  1.00  0.00     0.093 C 
ENDBRANCH   6   7
ENDBRANCH   1   5
TORSDOF 4
ENDMDL
MODEL 8
REMARK VINA RESULT:    -0.942      3.683      4.472
REMARK INTER + INTRA:          -1.442
REMARK INTER:                  -1.173
REMARK INTRA:                  -0.269
REMARK UNBOUND:                -0.280
REMARK SMILES CCCCC=CC(C)=O
REMARK SMILES IDX 4 1 3 2 2 3 1 4 5 5 6 6 7 7 9 8 8 9
REMARK H PARENT
REMARK Flexibility Score: inf
ROOT
ATOM      1  C   UNL     1      90.454  27.097  12.937  1.00  0.00     0.027 C 
ENDROOT
BRANCH   1   2
ATOM      2  C   UNL     1      91.750  26.440  12.434  1.00  0.00     0.004 C 
BRANCH   2   3
ATOM      3  C   UNL     1      92.442  27.265  11.338  1.00  0.00    -0.003 C 
ATOM      4  C   UNL     1      92.548  28.747  11.695  1.00  0.00     0.004 C 
ENDBRANCH   2   3
ENDBRANCH   1   2
BRANCH   1   5
ATOM      5  C   UNL     1      90.466  27.241  14.432  1.00  0.00    -0.023 C 
ATOM      6  C   UNL     1      91.375  26.613  15.187  1.00  0.00     0.042 C 
BRANCH   6   7
ATOM      7  C   UNL     1      91.433  26.734  16.658  1.00  0.00     0.152 C 
ATOM      8  O   UNL     1      92.085  25.875  17.309  1.00  0.00    -0.295 OA
ATOM      9  C   UNL     1      90.747  27.841  17.401  1.00  0.00     0.093 C 
ENDBRANCH   6   7
ENDBRANCH   1   5
TORSDOF 4
ENDMDL
