MODEL 1
REMARK VINA RESULT:    -4.331      0.000      0.000
REMARK INTER + INTRA:          -6.260
REMARK INTER:                  -5.850
REMARK INTRA:                  -0.410
REMARK UNBOUND:                -0.410
REMARK SMILES [NH3+]CCCC[C@@H]([NH3+])C(=O)[O-]
REMARK SMILES IDX 4 1 3 2 2 3 1 4 5 8 6 9 7 10 8 14 9 15 10 16
REMARK H PARENT 1 5 1 6 1 7 7 11 7 12 7 13
REMARK Flexibility Score: inf
ROOT
ATOM      1  C   UNL     1      36.713   4.871  -7.858  1.00  0.00     0.012 C 
ENDROOT
BRANCH   1   2
ATOM      2  C   UNL     1      36.849   5.668  -9.170  1.00  0.00     0.061 C 
BRANCH   2   3
ATOM      3  C   UNL     1      36.987   4.795 -10.431  1.00  0.00     0.258 C 
BRANCH   3   4
ATOM      4  N   UNL     1      36.430   3.455 -10.239  1.00  0.00    -0.358 N 
ATOM      5  H   UNL     1      35.859   3.414  -9.365  1.00  0.00     0.344 HD
ATOM      6  H   UNL     1      35.810   3.228 -11.049  1.00  0.00     0.344 HD
ATOM      7  H   UNL     1      37.198   2.745 -10.196  1.00  0.00     0.344 HD
ENDBRANCH   3   4
ENDBRANCH   2   3
ENDBRANCH   1   2
BRANCH   1   8
ATOM      8  C   UNL     1      35.579   5.385  -6.940  1.00  0.00     0.072 C 
BRANCH   8   9
ATOM      9  C   UNL     1      34.461   4.342  -6.704  1.00  0.00     0.227 C 
BRANCH   9  10
ATOM     10  N   UNL     1      33.290   4.948  -6.055  1.00  0.00    -0.350 N 
ATOM     11  H   UNL     1      32.942   4.335  -5.284  1.00  0.00     0.345 HD
ATOM     12  H   UNL     1      33.529   5.888  -5.661  1.00  0.00     0.345 HD
ATOM     13  H   UNL     1      32.518   5.058  -6.751  1.00  0.00     0.345 HD
ENDBRANCH   9  10
BRANCH   9  14
ATOM     14  C   UNL     1      34.054   3.726  -8.016  1.00  0.00     0.099 C 
ATOM     15  O   UNL     1      34.161   2.483  -8.192  1.00  0.00    -0.544 OA
ATOM     16  O   UNL     1      33.569   4.524  -9.045  1.00  0.00    -0.544 OA
ENDBRANCH   9  14
ENDBRANCH   8   9
ENDBRANCH   1   8
TORSDOF 7
ENDMDL
MODEL 2
REMARK VINA RESULT:    -4.289      1.652      3.522
REMARK INTER + INTRA:          -6.203
REMARK INTER:                  -5.656
REMARK INTRA:                  -0.547
REMARK UNBOUND:                -0.410
REMARK SMILES [NH3+]CCCC[C@@H]([NH3+])C(=O)[O-]
REMARK SMILES IDX 4 1 3 2 2 3 1 4 5 8 6 9 7 10 8 14 9 15 10 16
REMARK H PARENT 1 5 1 6 1 7 7 11 7 12 7 13
REMARK Flexibility Score: inf
ROOT
ATOM      1  C   UNL     1      36.571   4.954  -7.713  1.00  0.00     0.012 C 
ENDROOT
BRANCH   1   2
ATOM      2  C   UNL     1      35.608   5.384  -6.590  1.00  0.00     0.061 C 
BRANCH   2   3
ATOM      3  C   UNL     1      34.447   4.404  -6.339  1.00  0.00     0.258 C 
BRANCH   3   4
ATOM      4  N   UNL     1      33.139   5.039  -6.518  1.00  0.00    -0.358 N 
ATOM      5  H   UNL     1      33.105   5.564  -7.421  1.00  0.00     0.344 HD
ATOM      6  H   UNL     1      32.403   4.297  -6.539  1.00  0.00     0.344 HD
ATOM      7  H   UNL     1      32.939   5.688  -5.722  1.00  0.00     0.344 HD
ENDBRANCH   3   4
ENDBRANCH   2   3
ENDBRANCH   1   2
BRANCH   1   8
ATOM      8  C   UNL     1      36.335   5.702  -9.046  1.00  0.00     0.072 C 
BRANCH   8   9
ATOM      9  C   UNL     1      35.519   4.881 -10.073  1.00  0.00     0.227 C 
BRANCH   9  10
ATOM     10  N   UNL     1      35.458   3.461  -9.699  1.00  0.00    -0.350 N 
ATOM     11  H   UNL     1      34.468   3.128  -9.692  1.00  0.00     0.345 HD
ATOM     12  H   UNL     1      36.010   2.877 -10.369  1.00  0.00     0.345 HD
ATOM     13  H   UNL     1      35.846   3.333  -8.737  1.00  0.00     0.345 HD
ENDBRANCH   9  10
BRANCH   9  14
ATOM     14  C   UNL     1      34.125   5.441 -10.180  1.00  0.00     0.099 C 
ATOM     15  O   UNL     1      33.377   5.100 -11.136  1.00  0.00    -0.544 OA
ATOM     16  O   UNL     1      33.657   6.344  -9.233  1.00  0.00    -0.544 OA
ENDBRANCH   9  14
ENDBRANCH   8   9
ENDBRANCH   1   8
TORSDOF 7
ENDMDL
MODEL 3
REMARK VINA RESULT:    -4.286      0.127      1.030
REMARK INTER + INTRA:          -6.199
REMARK INTER:                  -5.790
REMARK INTRA:                  -0.409
REMARK UNBOUND:                -0.410
REMARK SMILES [NH3+]CCCC[C@@H]([NH3+])C(=O)[O-]
REMARK SMILES IDX 4 1 3 2 2 3 1 4 5 8 6 9 7 10 8 14 9 15 10 16
REMARK H PARENT 1 5 1 6 1 7 7 11 7 12 7 13
REMARK Flexibility Score: inf
ROOT
ATOM      1  C   UNL     1      36.735   4.833  -7.927  1.00  0.00     0.012 C 
ENDROOT
BRANCH   1   2
ATOM      2  C   UNL     1      36.893   5.674  -9.209  1.00  0.00     0.061 C 
BRANCH   2   3
ATOM      3  C   UNL     1      36.689   4.885 -10.515  1.00  0.00     0.258 C 
BRANCH   3   4
ATOM      4  N   UNL     1      36.427   3.465 -10.268  1.00  0.00    -0.358 N 
ATOM      5  H   UNL     1      35.583   3.346  -9.665  1.00  0.00     0.344 HD
ATOM      6  H   UNL     1      36.250   2.990 -11.182  1.00  0.00     0.344 HD
ATOM      7  H   UNL     1      37.256   3.018  -9.813  1.00  0.00     0.344 HD
ENDBRANCH   3   4
ENDBRANCH   2   3
ENDBRANCH   1   2
BRANCH   1   8
ATOM      8  C   UNL     1      35.639   5.363  -6.974  1.00  0.00     0.072 C 
BRANCH   8   9
ATOM      9  C   UNL     1      34.493   4.352  -6.734  1.00  0.00     0.227 C 
BRANCH   9  10
ATOM     10  N   UNL     1      33.358   4.981  -6.044  1.00  0.00    -0.350 N 
ATOM     11  H   UNL     1      33.675   5.821  -5.510  1.00  0.00     0.345 HD
ATOM     12  H   UNL     1      32.621   5.269  -6.728  1.00  0.00     0.345 HD
ATOM     13  H   UNL     1      32.942   4.306  -5.362  1.00  0.00     0.345 HD
ENDBRANCH   9  10
BRANCH   9  14
ATOM     14  C   UNL     1      34.036   3.779  -8.049  1.00  0.00     0.099 C 
ATOM     15  O   UNL     1      33.555   4.534  -8.936  1.00  0.00    -0.544 OA
ATOM     16  O   UNL     1      34.132   2.414  -8.290  1.00  0.00    -0.544 OA
ENDBRANCH   9  14
ENDBRANCH   8   9
ENDBRANCH   1   8
TORSDOF 7
ENDMDL
MODEL 4
REMARK VINA RESULT:    -4.282      2.177      2.407
REMARK INTER + INTRA:          -6.194
REMARK INTER:                  -5.688
REMARK INTRA:                  -0.505
REMARK UNBOUND:                -0.410
REMARK SMILES [NH3+]CCCC[C@@H]([NH3+])C(=O)[O-]
REMARK SMILES IDX 4 1 3 2 2 3 1 4 5 8 6 9 7 10 8 14 9 15 10 16
REMARK H PARENT 1 5 1 6 1 7 7 11 7 12 7 13
REMARK Flexibility Score: inf
ROOT
ATOM      1  C   UNL     1      34.077   5.964  -9.739  1.00  0.00     0.012 C 
ENDROOT
BRANCH   1   2
ATOM      2  C   UNL     1      33.699   5.038 -10.911  1.00  0.00     0.061 C 
BRANCH   2   3
ATOM      3  C   UNL     1      34.806   4.049 -11.321  1.00  0.00     0.258 C 
BRANCH   3   4
ATOM      4  N   UNL     1      34.582   2.710 -10.772  1.00  0.00    -0.358 N 
ATOM      5  H   UNL     1      33.741   2.269 -11.207  1.00  0.00     0.344 HD
ATOM      6  H   UNL     1      35.414   2.114 -10.983  1.00  0.00     0.344 HD
ATOM      7  H   UNL     1      34.461   2.759  -9.733  1.00  0.00     0.344 HD
ENDBRANCH   3   4
ENDBRANCH   2   3
ENDBRANCH   1   2
BRANCH   1   8
ATOM      8  C   UNL     1      33.243   5.713  -8.461  1.00  0.00     0.072 C 
BRANCH   8   9
ATOM      9  C   UNL     1      34.107   5.408  -7.214  1.00  0.00     0.227 C 
BRANCH   9  10
ATOM     10  N   UNL     1      33.280   4.977  -6.079  1.00  0.00    -0.350 N 
ATOM     11  H   UNL     1      32.341   5.434  -6.117  1.00  0.00     0.345 HD
ATOM     12  H   UNL     1      33.154   3.939  -6.084  1.00  0.00     0.345 HD
ATOM     13  H   UNL     1      33.737   5.259  -5.182  1.00  0.00     0.345 HD
ENDBRANCH   9  10
BRANCH   9  14
ATOM     14  C   UNL     1      35.118   4.341  -7.543  1.00  0.00     0.099 C 
ATOM     15  O   UNL     1      34.745   3.152  -7.730  1.00  0.00    -0.544 OA
ATOM     16  O   UNL     1      36.468   4.657  -7.633  1.00  0.00    -0.544 OA
ENDBRANCH   9  14
ENDBRANCH   8   9
ENDBRANCH   1   8
TORSDOF 7
ENDMDL
MODEL 5
REMARK VINA RESULT:    -4.201      1.951      3.653
REMARK INTER + INTRA:          -6.084
REMARK INTER:                  -5.516
REMARK INTRA:                  -0.568
REMARK UNBOUND:                -0.410
REMARK SMILES [NH3+]CCCC[C@@H]([NH3+])C(=O)[O-]
REMARK SMILES IDX 4 1 3 2 2 3 1 4 5 8 6 9 7 10 8 14 9 15 10 16
REMARK H PARENT 1 5 1 6 1 7 7 11 7 12 7 13
REMARK Flexibility Score: inf
ROOT
ATOM      1  C   UNL     1      33.610   6.005  -8.626  1.00  0.00     0.012 C 
ENDROOT
BRANCH   1   2
ATOM      2  C   UNL     1      33.122   5.387  -7.301  1.00  0.00     0.061 C 
BRANCH   2   3
ATOM      3  C   UNL     1      34.223   5.210  -6.240  1.00  0.00     0.258 C 
BRANCH   3   4
ATOM      4  N   UNL     1      34.633   3.812  -6.098  1.00  0.00    -0.358 N 
ATOM      5  H   UNL     1      34.924   3.611  -5.115  1.00  0.00     0.344 HD
ATOM      6  H   UNL     1      33.822   3.196  -6.334  1.00  0.00     0.344 HD
ATOM      7  H   UNL     1      35.420   3.596  -6.753  1.00  0.00     0.344 HD
ENDBRANCH   3   4
ENDBRANCH   2   3
ENDBRANCH   1   2
BRANCH   1   8
ATOM      8  C   UNL     1      33.686   4.988  -9.789  1.00  0.00     0.072 C 
BRANCH   8   9
ATOM      9  C   UNL     1      35.113   4.444 -10.035  1.00  0.00     0.227 C 
BRANCH   9  10
ATOM     10  N   UNL     1      36.117   5.211  -9.286  1.00  0.00    -0.350 N 
ATOM     11  H   UNL     1      35.757   5.453  -8.335  1.00  0.00     0.345 HD
ATOM     12  H   UNL     1      37.004   4.664  -9.186  1.00  0.00     0.345 HD
ATOM     13  H   UNL     1      36.324   6.105  -9.787  1.00  0.00     0.345 HD
ENDBRANCH   9  10
BRANCH   9  14
ATOM     14  C   UNL     1      35.179   2.992  -9.639  1.00  0.00     0.099 C 
ATOM     15  O   UNL     1      36.046   2.235 -10.152  1.00  0.00    -0.544 OA
ATOM     16  O   UNL     1      34.280   2.476  -8.714  1.00  0.00    -0.544 OA
ENDBRANCH   9  14
ENDBRANCH   8   9
ENDBRANCH   1   8
TORSDOF 7
ENDMDL
MODEL 6
REMARK VINA RESULT:    -4.036      2.215      4.063
REMARK INTER + INTRA:          -5.861
REMARK INTER:                  -5.312
REMARK INTRA:                  -0.549
REMARK UNBOUND:                -0.410
REMARK SMILES [NH3+]CCCC[C@@H]([NH3+])C(=O)[O-]
REMARK SMILES IDX 4 1 3 2 2 3 1 4 5 8 6 9 7 10 8 14 9 15 10 16
REMARK H PARENT 1 5 1 6 1 7 7 11 7 12 7 13
REMARK Flexibility Score: inf
ROOT
ATOM      1  C   UNL     1      34.173   2.713  -8.342  1.00  0.00     0.012 C 
ENDROOT
BRANCH   1   2
ATOM      2  C   UNL     1      34.469   3.152  -6.894  1.00  0.00     0.061 C 
BRANCH   2   3
ATOM      3  C   UNL     1      34.047   4.597  -6.570  1.00  0.00     0.258 C 
BRANCH   3   4
ATOM      4  N   UNL     1      35.180   5.419  -6.139  1.00  0.00    -0.358 N 
ATOM      5  H   UNL     1      35.969   4.817  -5.813  1.00  0.00     0.344 HD
ATOM      6  H   UNL     1      35.512   5.988  -6.950  1.00  0.00     0.344 HD
ATOM      7  H   UNL     1      34.887   6.068  -5.372  1.00  0.00     0.344 HD
ENDBRANCH   3   4
ENDBRANCH   2   3
ENDBRANCH   1   2
BRANCH   1   8
ATOM      8  C   UNL     1      35.419   2.731  -9.257  1.00  0.00     0.072 C 
BRANCH   8   9
ATOM      9  C   UNL     1      35.530   4.012 -10.118  1.00  0.00     0.227 C 
BRANCH   9  10
ATOM     10  N   UNL     1      34.242   4.714 -10.204  1.00  0.00    -0.350 N 
ATOM     11  H   UNL     1      33.890   4.711 -11.188  1.00  0.00     0.345 HD
ATOM     12  H   UNL     1      33.530   4.260  -9.586  1.00  0.00     0.345 HD
ATOM     13  H   UNL     1      34.362   5.710  -9.910  1.00  0.00     0.345 HD
ENDBRANCH   9  10
BRANCH   9  14
ATOM     14  C   UNL     1      36.573   4.928  -9.535  1.00  0.00     0.099 C 
ATOM     15  O   UNL     1      36.906   5.979 -10.146  1.00  0.00    -0.544 OA
ATOM     16  O   UNL     1      37.181   4.618  -8.325  1.00  0.00    -0.544 OA
ENDBRANCH   9  14
ENDBRANCH   8   9
ENDBRANCH   1   8
TORSDOF 7
ENDMDL
MODEL 7
REMARK VINA RESULT:    -4.002      2.390      4.017
REMARK INTER + INTRA:          -5.815
REMARK INTER:                  -5.279
REMARK INTRA:                  -0.537
REMARK UNBOUND:                -0.410
REMARK SMILES [NH3+]CCCC[C@@H]([NH3+])C(=O)[O-]
REMARK SMILES IDX 4 1 3 2 2 3 1 4 5 8 6 9 7 10 8 14 9 15 10 16
REMARK H PARENT 1 5 1 6 1 7 7 11 7 12 7 13
REMARK Flexibility Score: inf
ROOT
ATOM      1  C   UNL     1      33.282   5.750  -8.375  1.00  0.00     0.012 C 
ENDROOT
BRANCH   1   2
ATOM      2  C   UNL     1      33.707   4.751  -7.281  1.00  0.00     0.061 C 
BRANCH   2   3
ATOM      3  C   UNL     1      34.542   5.370  -6.146  1.00  0.00     0.258 C 
BRANCH   3   4
ATOM      4  N   UNL     1      35.959   5.481  -6.500  1.00  0.00    -0.358 N 
ATOM      5  H   UNL     1      36.195   4.833  -7.284  1.00  0.00     0.344 HD
ATOM      6  H   UNL     1      36.154   6.460  -6.811  1.00  0.00     0.344 HD
ATOM      7  H   UNL     1      36.558   5.268  -5.669  1.00  0.00     0.344 HD
ENDBRANCH   3   4
ENDBRANCH   2   3
ENDBRANCH   1   2
BRANCH   1   8
ATOM      8  C   UNL     1      33.897   5.444  -9.761  1.00  0.00     0.072 C 
BRANCH   8   9
ATOM      9  C   UNL     1      34.870   4.242  -9.748  1.00  0.00     0.227 C 
BRANCH   9  10
ATOM     10  N   UNL     1      34.500   3.241 -10.758  1.00  0.00    -0.350 N 
ATOM     11  H   UNL     1      35.306   2.606 -10.956  1.00  0.00     0.345 HD
ATOM     12  H   UNL     1      33.687   2.668 -10.433  1.00  0.00     0.345 HD
ATOM     13  H   UNL     1      34.242   3.719 -11.652  1.00  0.00     0.345 HD
ENDBRANCH   9  10
BRANCH   9  14
ATOM     14  C   UNL     1      36.276   4.721  -9.996  1.00  0.00     0.099 C 
ATOM     15  O   UNL     1      36.706   5.750  -9.409  1.00  0.00    -0.544 OA
ATOM     16  O   UNL     1      37.103   4.040 -10.880  1.00  0.00    -0.544 OA
ENDBRANCH   9  14
ENDBRANCH   8   9
ENDBRANCH   1   8
TORSDOF 7
ENDMDL
MODEL 8
REMARK VINA RESULT:    -3.960      1.979      2.626
REMARK INTER + INTRA:          -5.758
REMARK INTER:                  -5.223
REMARK INTRA:                  -0.536
REMARK UNBOUND:                -0.410
REMARK SMILES [NH3+]CCCC[C@@H]([NH3+])C(=O)[O-]
REMARK SMILES IDX 4 1 3 2 2 3 1 4 5 8 6 9 7 10 8 14 9 15 10 16
REMARK H PARENT 1 5 1 6 1 7 7 11 7 12 7 13
REMARK Flexibility Score: inf
ROOT
ATOM      1  C   UNL     1      35.049   2.417  -8.719  1.00  0.00     0.012 C 
ENDROOT
BRANCH   1   2
ATOM      2  C   UNL     1      34.481   2.685 -10.126  1.00  0.00     0.061 C 
BRANCH   2   3
ATOM      3  C   UNL     1      35.550   2.923 -11.208  1.00  0.00     0.258 C 
BRANCH   3   4
ATOM      4  N   UNL     1      36.833   3.336 -10.635  1.00  0.00    -0.358 N 
ATOM      5  H   UNL     1      36.728   3.564  -9.621  1.00  0.00     0.344 HD
ATOM      6  H   UNL     1      37.514   2.549 -10.728  1.00  0.00     0.344 HD
ATOM      7  H   UNL     1      37.210   4.167 -11.149  1.00  0.00     0.344 HD
ENDBRANCH   3   4
ENDBRANCH   2   3
ENDBRANCH   1   2
BRANCH   1   8
ATOM      8  C   UNL     1      34.329   3.209  -7.603  1.00  0.00     0.072 C 
BRANCH   8   9
ATOM      9  C   UNL     1      34.146   4.709  -7.936  1.00  0.00     0.227 C 
BRANCH   9  10
ATOM     10  N   UNL     1      33.248   5.366  -6.977  1.00  0.00    -0.350 N 
ATOM     11  H   UNL     1      32.692   6.113  -7.449  1.00  0.00     0.345 HD
ATOM     12  H   UNL     1      32.593   4.673  -6.547  1.00  0.00     0.345 HD
ATOM     13  H   UNL     1      33.810   5.816  -6.218  1.00  0.00     0.345 HD
ENDBRANCH   9  10
BRANCH   9  14
ATOM     14  C   UNL     1      35.485   5.398  -7.937  1.00  0.00     0.099 C 
ATOM     15  O   UNL     1      36.093   5.601  -6.852  1.00  0.00    -0.544 OA
ATOM     16  O   UNL     1      36.055   5.823  -9.131  1.00  0.00    -0.544 OA
ENDBRANCH   9  14
ENDBRANCH   8   9
ENDBRANCH   1   8
TORSDOF 7
ENDMDL
MODEL 9
REMARK VINA RESULT:    -3.929      2.381      2.786
REMARK INTER + INTRA:          -5.717
REMARK INTER:                  -5.249
REMARK INTRA:                  -0.468
REMARK UNBOUND:                -0.410
REMARK SMILES [NH3+]CCCC[C@@H]([NH3+])C(=O)[O-]
REMARK SMILES IDX 4 1 3 2 2 3 1 4 5 8 6 9 7 10 8 14 9 15 10 16
REMARK H PARENT 1 5 1 6 1 7 7 11 7 12 7 13
REMARK Flexibility Score: inf
ROOT
ATOM      1  C   UNL     1      35.519   2.890  -9.500  1.00  0.00     0.012 C 
ENDROOT
BRANCH   1   2
ATOM      2  C   UNL     1      34.775   3.117 -10.831  1.00  0.00     0.061 C 
BRANCH   2   3
ATOM      3  C   UNL     1      34.087   4.488 -10.948  1.00  0.00     0.258 C 
BRANCH   3   4
ATOM      4  N   UNL     1      35.004   5.593 -10.659  1.00  0.00    -0.358 N 
ATOM      5  H   UNL     1      34.628   6.492 -11.036  1.00  0.00     0.344 HD
ATOM      6  H   UNL     1      35.106   5.686  -9.623  1.00  0.00     0.344 HD
ATOM      7  H   UNL     1      35.946   5.401 -11.073  1.00  0.00     0.344 HD
ENDBRANCH   3   4
ENDBRANCH   2   3
ENDBRANCH   1   2
BRANCH   1   8
ATOM      8  C   UNL     1      34.601   2.980  -8.259  1.00  0.00     0.072 C 
BRANCH   8   9
ATOM      9  C   UNL     1      35.116   3.968  -7.186  1.00  0.00     0.227 C 
BRANCH   9  10
ATOM     10  N   UNL     1      36.343   4.647  -7.626  1.00  0.00    -0.350 N 
ATOM     11  H   UNL     1      36.591   4.358  -8.598  1.00  0.00     0.345 HD
ATOM     12  H   UNL     1      36.222   5.686  -7.598  1.00  0.00     0.345 HD
ATOM     13  H   UNL     1      37.137   4.381  -7.000  1.00  0.00     0.345 HD
ENDBRANCH   9  10
BRANCH   9  14
ATOM     14  C   UNL     1      34.051   4.988  -6.878  1.00  0.00     0.099 C 
ATOM     15  O   UNL     1      33.635   5.132  -5.698  1.00  0.00    -0.544 OA
ATOM     16  O   UNL     1      33.513   5.768  -7.895  1.00  0.00    -0.544 OA
ENDBRANCH   9  14
ENDBRANCH   8   9
ENDBRANCH   1   8
TORSDOF 7
ENDMDL
