MODEL 1
REMARK VINA RESULT:    -5.634      0.000      0.000
REMARK INTER + INTRA:          -6.131
REMARK INTER:                  -5.963
REMARK INTRA:                  -0.168
REMARK UNBOUND:                -0.168
REMARK SMILES CC1=CC=C(C(C)C)CC1
REMARK SMILES IDX 1 1 2 2 3 3 4 4 5 5 9 6 10 7 6 8 7 9 8 10
REMARK H PARENT
REMARK Flexibility Score: inf
ROOT
ATOM      1  C   UNL     1     134.890 139.400 123.378  1.00  0.00     0.039 C 
ATOM      2  C   UNL     1     135.942 138.348 123.579  1.00  0.00    -0.073 C 
ATOM      3  C   UNL     1     136.874 138.146 122.637  1.00  0.00    -0.001 C 
ATOM      4  C   UNL     1     137.913 137.114 122.811  1.00  0.00    -0.001 C 
ATOM      5  C   UNL     1     137.825 136.201 123.796  1.00  0.00    -0.067 C 
ATOM      6  C   UNL     1     136.585 136.173 124.666  1.00  0.00     0.035 C 
ATOM      7  C   UNL     1     136.017 137.584 124.881  1.00  0.00     0.035 C 
ENDROOT
BRANCH   5   8
ATOM      8  C   UNL     1     138.899 135.147 123.995  1.00  0.00     0.009 C 
ATOM      9  C   UNL     1     140.193 135.519 123.260  1.00  0.00     0.012 C 
ATOM     10  C   UNL     1     139.160 134.897 125.485  1.00  0.00     0.012 C 
ENDBRANCH   5   8
TORSDOF 1
ENDMDL
MODEL 2
REMARK VINA RESULT:    -5.487      0.387      1.601
REMARK INTER + INTRA:          -5.976
REMARK INTER:                  -5.832
REMARK INTRA:                  -0.144
REMARK UNBOUND:                -0.168
REMARK SMILES CC1=CC=C(C(C)C)CC1
REMARK SMILES IDX 1 1 2 2 3 3 4 4 5 5 9 6 10 7 6 8 7 9 8 10
REMARK H PARENT
REMARK Flexibility Score: inf
ROOT
ATOM      1  C   UNL     1     134.912 139.761 123.745  1.00  0.00     0.039 C 
ATOM      2  C   UNL     1     135.870 138.605 123.769  1.00  0.00    -0.073 C 
ATOM      3  C   UNL     1     135.993 137.862 124.878  1.00  0.00    -0.001 C 
ATOM      4  C   UNL     1     136.933 136.726 124.926  1.00  0.00    -0.001 C 
ATOM      5  C   UNL     1     137.849 136.543 123.957  1.00  0.00    -0.067 C 
ATOM      6  C   UNL     1     137.981 137.582 122.863  1.00  0.00     0.035 C 
ATOM      7  C   UNL     1     136.624 138.214 122.519  1.00  0.00     0.035 C 
ENDROOT
BRANCH   5   8
ATOM      8  C   UNL     1     138.807 135.366 123.987  1.00  0.00     0.009 C 
ATOM      9  C   UNL     1     140.120 135.693 123.265  1.00  0.00     0.012 C 
ATOM     10  C   UNL     1     139.066 134.901 125.424  1.00  0.00     0.012 C 
ENDBRANCH   5   8
TORSDOF 1
ENDMDL
MODEL 3
REMARK VINA RESULT:    -5.304     13.555     16.147
REMARK INTER + INTRA:          -5.782
REMARK INTER:                  -5.621
REMARK INTRA:                  -0.161
REMARK UNBOUND:                -0.168
REMARK SMILES CC1=CC=C(C(C)C)CC1
REMARK SMILES IDX 1 1 2 2 3 3 4 4 5 5 9 6 10 7 6 8 7 9 8 10
REMARK H PARENT
REMARK Flexibility Score: inf
ROOT
ATOM      1  C   UNL     1     150.636 134.906 124.347  1.00  0.00     0.039 C 
ATOM      2  C   UNL     1     151.735 135.898 124.096  1.00  0.00    -0.073 C 
ATOM      3  C   UNL     1     151.882 136.438 122.877  1.00  0.00    -0.001 C 
ATOM      4  C   UNL     1     152.958 137.410 122.606  1.00  0.00    -0.001 C 
ATOM      5  C   UNL     1     153.950 137.610 123.493  1.00  0.00    -0.067 C 
ATOM      6  C   UNL     1     154.016 136.743 124.733  1.00  0.00     0.035 C 
ATOM      7  C   UNL     1     152.612 136.368 125.233  1.00  0.00     0.035 C 
ENDROOT
BRANCH   5   8
ATOM      8  C   UNL     1     155.051 138.622 123.232  1.00  0.00     0.009 C 
ATOM      9  C   UNL     1     155.125 139.001 121.748  1.00  0.00     0.012 C 
ATOM     10  C   UNL     1     154.880 139.866 124.112  1.00  0.00     0.012 C 
ENDBRANCH   5   8
TORSDOF 1
ENDMDL
MODEL 4
REMARK VINA RESULT:    -5.234      1.040      4.270
REMARK INTER + INTRA:          -5.708
REMARK INTER:                  -5.569
REMARK INTRA:                  -0.139
REMARK UNBOUND:                -0.168
REMARK SMILES CC1=CC=C(C(C)C)CC1
REMARK SMILES IDX 1 1 2 2 3 3 4 4 5 5 9 6 10 7 6 8 7 9 8 10
REMARK H PARENT
REMARK Flexibility Score: inf
ROOT
ATOM      1  C   UNL     1     139.968 134.876 123.039  1.00  0.00     0.039 C 
ATOM      2  C   UNL     1     138.802 135.775 123.332  1.00  0.00    -0.073 C 
ATOM      3  C   UNL     1     138.621 136.890 122.610  1.00  0.00    -0.001 C 
ATOM      4  C   UNL     1     137.486 137.792 122.885  1.00  0.00    -0.001 C 
ATOM      5  C   UNL     1     136.742 137.649 123.998  1.00  0.00    -0.067 C 
ATOM      6  C   UNL     1     137.148 136.617 125.029  1.00  0.00     0.035 C 
ATOM      7  C   UNL     1     137.777 135.380 124.369  1.00  0.00     0.035 C 
ENDROOT
BRANCH   5   8
ATOM      8  C   UNL     1     135.560 138.560 124.279  1.00  0.00     0.009 C 
ATOM      9  C   UNL     1     135.975 139.772 125.122  1.00  0.00     0.012 C 
ATOM     10  C   UNL     1     134.875 138.996 122.980  1.00  0.00     0.012 C 
ENDBRANCH   5   8
TORSDOF 1
ENDMDL
MODEL 5
REMARK VINA RESULT:    -4.929     14.770     17.081
REMARK INTER + INTRA:          -5.385
REMARK INTER:                  -5.241
REMARK INTRA:                  -0.145
REMARK UNBOUND:                -0.168
REMARK SMILES CC1=CC=C(C(C)C)CC1
REMARK SMILES IDX 1 1 2 2 3 3 4 4 5 5 9 6 10 7 6 8 7 9 8 10
REMARK H PARENT
REMARK Flexibility Score: inf
ROOT
ATOM      1  C   UNL     1     140.097 155.118 124.827  1.00  0.00     0.039 C 
ATOM      2  C   UNL     1     138.791 154.547 124.355  1.00  0.00    -0.073 C 
ATOM      3  C   UNL     1     137.812 154.299 125.238  1.00  0.00    -0.001 C 
ATOM      4  C   UNL     1     136.523 153.733 124.798  1.00  0.00    -0.001 C 
ATOM      5  C   UNL     1     136.372 153.240 123.555  1.00  0.00    -0.067 C 
ATOM      6  C   UNL     1     137.575 153.170 122.638  1.00  0.00     0.035 C 
ATOM      7  C   UNL     1     138.536 154.344 122.880  1.00  0.00     0.035 C 
ENDROOT
BRANCH   5   8
ATOM      8  C   UNL     1     135.043 152.674 123.086  1.00  0.00     0.009 C 
ATOM      9  C   UNL     1     134.875 152.819 121.569  1.00  0.00     0.012 C 
ATOM     10  C   UNL     1     134.879 151.214 123.524  1.00  0.00     0.012 C 
ENDBRANCH   5   8
TORSDOF 1
ENDMDL
MODEL 6
REMARK VINA RESULT:    -4.310     13.698     16.002
REMARK INTER + INTRA:          -4.730
REMARK INTER:                  -4.591
REMARK INTRA:                  -0.139
REMARK UNBOUND:                -0.168
REMARK SMILES CC1=CC=C(C(C)C)CC1
REMARK SMILES IDX 1 1 2 2 3 3 4 4 5 5 9 6 10 7 6 8 7 9 8 10
REMARK H PARENT
REMARK Flexibility Score: inf
ROOT
ATOM      1  C   UNL     1     155.122 140.370 123.626  1.00  0.00     0.039 C 
ATOM      2  C   UNL     1     154.374 139.079 123.793  1.00  0.00    -0.073 C 
ATOM      3  C   UNL     1     153.296 138.830 123.036  1.00  0.00    -0.001 C 
ATOM      4  C   UNL     1     152.542 137.570 123.187  1.00  0.00    -0.001 C 
ATOM      5  C   UNL     1     152.769 136.747 124.227  1.00  0.00    -0.067 C 
ATOM      6  C   UNL     1     153.735 137.179 125.311  1.00  0.00     0.035 C 
ATOM      7  C   UNL     1     154.888 138.017 124.737  1.00  0.00     0.035 C 
ENDROOT
BRANCH   5   8
ATOM      8  C   UNL     1     152.013 135.440 124.380  1.00  0.00     0.009 C 
ATOM      9  C   UNL     1     150.797 135.600 125.302  1.00  0.00     0.012 C 
ATOM     10  C   UNL     1     151.603 134.875 123.015  1.00  0.00     0.012 C 
ENDBRANCH   5   8
TORSDOF 1
ENDMDL
MODEL 7
REMARK VINA RESULT:    -4.278     15.190     16.504
REMARK INTER + INTRA:          -4.696
REMARK INTER:                  -4.534
REMARK INTRA:                  -0.162
REMARK UNBOUND:                -0.168
REMARK SMILES CC1=CC=C(C(C)C)CC1
REMARK SMILES IDX 1 1 2 2 3 3 4 4 5 5 9 6 10 7 6 8 7 9 8 10
REMARK H PARENT
REMARK Flexibility Score: inf
ROOT
ATOM      1  C   UNL     1     138.129 152.874 120.102  1.00  0.00     0.039 C 
ATOM      2  C   UNL     1     137.345 152.860 121.383  1.00  0.00    -0.073 C 
ATOM      3  C   UNL     1     136.229 152.122 121.475  1.00  0.00    -0.001 C 
ATOM      4  C   UNL     1     135.440 152.098 122.721  1.00  0.00    -0.001 C 
ATOM      5  C   UNL     1     135.682 152.977 123.711  1.00  0.00    -0.067 C 
ATOM      6  C   UNL     1     136.705 154.072 123.491  1.00  0.00     0.035 C 
ATOM      7  C   UNL     1     137.861 153.591 122.600  1.00  0.00     0.035 C 
ENDROOT
BRANCH   5   8
ATOM      8  C   UNL     1     134.889 152.947 125.005  1.00  0.00     0.009 C 
ATOM      9  C   UNL     1     134.875 151.543 125.623  1.00  0.00     0.012 C 
ATOM     10  C   UNL     1     135.416 153.985 126.002  1.00  0.00     0.012 C 
ENDBRANCH   5   8
TORSDOF 1
ENDMDL
MODEL 8
REMARK VINA RESULT:    -4.200      1.451      2.542
REMARK INTER + INTRA:          -4.613
REMARK INTER:                  -4.450
REMARK INTRA:                  -0.163
REMARK UNBOUND:                -0.168
REMARK SMILES CC1=CC=C(C(C)C)CC1
REMARK SMILES IDX 1 1 2 2 3 3 4 4 5 5 9 6 10 7 6 8 7 9 8 10
REMARK H PARENT
REMARK Flexibility Score: inf
ROOT
ATOM      1  C   UNL     1     137.879 138.236 120.110  1.00  0.00     0.039 C 
ATOM      2  C   UNL     1     137.900 137.457 121.393  1.00  0.00    -0.073 C 
ATOM      3  C   UNL     1     138.640 136.342 121.486  1.00  0.00    -0.001 C 
ATOM      4  C   UNL     1     138.670 135.559 122.736  1.00  0.00    -0.001 C 
ATOM      5  C   UNL     1     137.794 135.802 123.728  1.00  0.00    -0.067 C 
ATOM      6  C   UNL     1     136.696 136.822 123.508  1.00  0.00     0.035 C 
ATOM      7  C   UNL     1     137.171 137.976 122.611  1.00  0.00     0.035 C 
ENDROOT
BRANCH   5   8
ATOM      8  C   UNL     1     137.829 135.014 125.025  1.00  0.00     0.009 C 
ATOM      9  C   UNL     1     139.254 134.919 125.585  1.00  0.00     0.012 C 
ATOM     10  C   UNL     1     136.866 135.606 126.059  1.00  0.00     0.012 C 
ENDBRANCH   5   8
TORSDOF 1
ENDMDL
