MODEL 1
REMARK VINA RESULT:    -7.429      0.000      0.000
REMARK INTER + INTRA:         -11.295
REMARK INTER:                 -10.252
REMARK INTRA:                  -1.043
REMARK UNBOUND:                -1.043
REMARK SMILES O=C([O-])[C@@H]1O[C@@H](Oc2cc3oc(-c4ccccc4)cc(=O)c3c(O)c2O)[C@H](O)[C@@H](O)[C@H]1O
REMARK SMILES IDX 7 1 6 2 4 3 31 4 5 5 29 6 27 7 2 8 1 9 3 10 32 11 30 13
REMARK SMILES IDX 28 15 8 17 25 18 9 19 23 20 10 21 22 22 11 23 20 24 12 25
REMARK SMILES IDX 19 26 21 27 26 28 24 30 13 32 14 33 18 34 15 35 17 36 16 37
REMARK H PARENT 32 12 30 14 28 16 26 29 24 31
REMARK Flexibility Score: inf
ROOT
ATOM      1  O   UNL     1      38.360  -4.349   1.300  1.00  0.00    -0.458 OA
ENDROOT
BRANCH   1   2
ATOM      2  C   UNL     1      39.311  -3.298   1.518  1.00  0.00     0.339 C 
ATOM      3  C   UNL     1      40.778  -4.723   2.675  1.00  0.00     0.199 C 
ATOM      4  C   UNL     1      40.577  -3.990   4.021  1.00  0.00     0.180 C 
ATOM      5  O   UNL     1      40.625  -3.829   1.584  1.00  0.00    -0.328 OA
ATOM      6  C   UNL     1      39.190  -3.325   4.054  1.00  0.00     0.181 C 
ATOM      7  C   UNL     1      38.979  -2.478   2.786  1.00  0.00     0.214 C 
BRANCH   3   8
ATOM      8  C   UNL     1      42.152  -5.320   2.606  1.00  0.00     0.073 C 
ATOM      9  O   UNL     1      43.106  -4.799   3.245  1.00  0.00    -0.547 OA
ATOM     10  O   UNL     1      42.377  -6.465   1.852  1.00  0.00    -0.547 OA
ENDBRANCH   3   8
BRANCH   4  11
ATOM     11  O   UNL     1      40.687  -4.892   5.094  1.00  0.00    -0.387 OA
ATOM     12  H   UNL     1      41.472  -4.610   5.633  1.00  0.00     0.211 HD
ENDBRANCH   4  11
BRANCH   6  13
ATOM     13  O   UNL     1      38.177  -4.298   4.138  1.00  0.00    -0.387 OA
ATOM     14  H   UNL     1      38.607  -5.143   4.429  1.00  0.00     0.211 HD
ENDBRANCH   6  13
BRANCH   7  15
ATOM     15  O   UNL     1      39.807  -1.343   2.822  1.00  0.00    -0.384 OA
ATOM     16  H   UNL     1      39.281  -0.615   3.246  1.00  0.00     0.211 HD
ENDBRANCH   7  15
ENDBRANCH   1   2
BRANCH   1  17
ATOM     17  C   UNL     1      37.758  -4.682   0.075  1.00  0.00     0.172 A 
ATOM     18  C   UNL     1      37.437  -6.024  -0.155  1.00  0.00     0.201 A 
ATOM     19  C   UNL     1      37.472  -3.727  -0.911  1.00  0.00     0.098 A 
ATOM     20  C   UNL     1      36.821  -6.425  -1.357  1.00  0.00     0.176 A 
ATOM     21  C   UNL     1      36.897  -4.106  -2.124  1.00  0.00     0.146 A 
ATOM     22  C   UNL     1      36.585  -5.464  -2.383  1.00  0.00     0.111 A 
ATOM     23  O   UNL     1      36.657  -3.166  -3.032  1.00  0.00    -0.456 OA
ATOM     24  C   UNL     1      36.093  -5.770  -3.675  1.00  0.00     0.197 A 
ATOM     25  C   UNL     1      36.136  -3.418  -4.229  1.00  0.00     0.138 A 
ATOM     26  C   UNL     1      35.852  -4.743  -4.588  1.00  0.00     0.100 A 
ATOM     27  O   UNL     1      35.897  -6.956  -4.050  1.00  0.00    -0.289 OA
BRANCH  18  28
ATOM     28  O   UNL     1      37.720  -6.957   0.845  1.00  0.00    -0.502 OA
ATOM     29  H   UNL     1      38.585  -6.945   1.372  1.00  0.00     0.293 HD
ENDBRANCH  18  28
BRANCH  20  30
ATOM     30  O   UNL     1      36.439  -7.767  -1.465  1.00  0.00    -0.504 OA
ATOM     31  H   UNL     1      35.845  -8.138  -2.191  1.00  0.00     0.293 HD
ENDBRANCH  20  30
BRANCH  25  32
ATOM     32  C   UNL     1      35.896  -2.286  -5.158  1.00  0.00     0.017 A 
ATOM     33  C   UNL     1      34.870  -1.365  -4.876  1.00  0.00     0.012 A 
ATOM     34  C   UNL     1      36.644  -2.128  -6.341  1.00  0.00     0.012 A 
ATOM     35  C   UNL     1      34.613  -0.300  -5.746  1.00  0.00     0.001 A 
ATOM     36  C   UNL     1      36.383  -1.062  -7.206  1.00  0.00     0.001 A 
ATOM     37  C   UNL     1      35.371  -0.147  -6.908  1.00  0.00     0.000 A 
ENDBRANCH  25  32
ENDBRANCH   1  17
TORSDOF 9
ENDMDL
MODEL 2
REMARK VINA RESULT:    -7.178      1.533      2.374
REMARK INTER + INTRA:         -10.948
REMARK INTER:                  -9.645
REMARK INTRA:                  -1.303
REMARK UNBOUND:                -1.043
REMARK SMILES O=C([O-])[C@@H]1O[C@@H](Oc2cc3oc(-c4ccccc4)cc(=O)c3c(O)c2O)[C@H](O)[C@@H](O)[C@H]1O
REMARK SMILES IDX 7 1 6 2 4 3 31 4 5 5 29 6 27 7 2 8 1 9 3 10 32 11 30 13
REMARK SMILES IDX 28 15 8 17 25 18 9 19 23 20 10 21 22 22 11 23 20 24 12 25
REMARK SMILES IDX 19 26 21 27 26 28 24 30 13 32 14 33 18 34 15 35 17 36 16 37
REMARK H PARENT 32 12 30 14 28 16 26 29 24 31
REMARK Flexibility Score: inf
ROOT
ATOM      1  O   UNL     1      39.641  -4.021   1.851  1.00  0.00    -0.458 OA
ENDROOT
BRANCH   1   2
ATOM      2  C   UNL     1      38.939  -3.600   3.027  1.00  0.00     0.339 C 
ATOM      3  C   UNL     1      40.873  -2.655   3.970  1.00  0.00     0.199 C 
ATOM      4  C   UNL     1      40.932  -3.689   5.117  1.00  0.00     0.180 C 
ATOM      5  O   UNL     1      39.533  -2.428   3.562  1.00  0.00    -0.328 OA
ATOM      6  C   UNL     1      40.269  -5.005   4.672  1.00  0.00     0.181 C 
ATOM      7  C   UNL     1      38.873  -4.723   4.089  1.00  0.00     0.214 C 
BRANCH   3   8
ATOM      8  C   UNL     1      41.458  -1.348   4.416  1.00  0.00     0.073 C 
ATOM      9  O   UNL     1      40.707  -0.416   4.811  1.00  0.00    -0.547 OA
ATOM     10  O   UNL     1      42.835  -1.165   4.415  1.00  0.00    -0.547 OA
ENDBRANCH   3   8
BRANCH   4  11
ATOM     11  O   UNL     1      42.265  -3.941   5.486  1.00  0.00    -0.387 OA
ATOM     12  H   UNL     1      42.411  -3.509   6.368  1.00  0.00     0.211 HD
ENDBRANCH   4  11
BRANCH   6  13
ATOM     13  O   UNL     1      41.056  -5.652   3.702  1.00  0.00    -0.387 OA
ATOM     14  H   UNL     1      40.950  -5.146   2.855  1.00  0.00     0.211 HD
ENDBRANCH   6  13
BRANCH   7  15
ATOM     15  O   UNL     1      37.994  -4.327   5.112  1.00  0.00    -0.384 OA
ATOM     16  H   UNL     1      37.422  -3.606   4.738  1.00  0.00     0.211 HD
ENDBRANCH   7  15
ENDBRANCH   1   2
BRANCH   1  17
ATOM     17  C   UNL     1      39.060  -4.493   0.661  1.00  0.00     0.172 A 
ATOM     18  C   UNL     1      39.004  -5.877   0.461  1.00  0.00     0.201 A 
ATOM     19  C   UNL     1      38.542  -3.635  -0.319  1.00  0.00     0.098 A 
ATOM     20  C   UNL     1      38.424  -6.417  -0.703  1.00  0.00     0.176 A 
ATOM     21  C   UNL     1      37.997  -4.145  -1.497  1.00  0.00     0.146 A 
ATOM     22  C   UNL     1      37.952  -5.543  -1.725  1.00  0.00     0.111 A 
ATOM     23  O   UNL     1      37.530  -3.291  -2.401  1.00  0.00    -0.456 OA
ATOM     24  C   UNL     1      37.470  -5.968  -2.988  1.00  0.00     0.197 A 
ATOM     25  C   UNL     1      37.014  -3.666  -3.567  1.00  0.00     0.138 A 
ATOM     26  C   UNL     1      36.985  -5.028  -3.897  1.00  0.00     0.100 A 
ATOM     27  O   UNL     1      37.498  -7.176  -3.340  1.00  0.00    -0.289 OA
BRANCH  18  28
ATOM     28  O   UNL     1      39.516  -6.714   1.456  1.00  0.00    -0.502 OA
ATOM     29  H   UNL     1      40.194  -6.397   2.139  1.00  0.00     0.293 HD
ENDBRANCH  18  28
BRANCH  20  30
ATOM     30  O   UNL     1      38.315  -7.810  -0.778  1.00  0.00    -0.504 OA
ATOM     31  H   UNL     1      38.722  -8.454  -0.116  1.00  0.00     0.293 HD
ENDBRANCH  20  30
BRANCH  25  32
ATOM     32  C   UNL     1      36.507  -2.624  -4.494  1.00  0.00     0.017 A 
ATOM     33  C   UNL     1      35.144  -2.274  -4.465  1.00  0.00     0.012 A 
ATOM     34  C   UNL     1      37.348  -1.998  -5.435  1.00  0.00     0.012 A 
ATOM     35  C   UNL     1      34.640  -1.308  -5.341  1.00  0.00     0.001 A 
ATOM     36  C   UNL     1      36.839  -1.033  -6.308  1.00  0.00     0.001 A 
ATOM     37  C   UNL     1      35.487  -0.685  -6.260  1.00  0.00     0.000 A 
ENDBRANCH  25  32
ENDBRANCH   1  17
TORSDOF 9
ENDMDL
MODEL 3
REMARK VINA RESULT:    -7.122      4.649      7.443
REMARK INTER + INTRA:         -10.871
REMARK INTER:                  -9.493
REMARK INTRA:                  -1.378
REMARK UNBOUND:                -1.043
REMARK SMILES O=C([O-])[C@@H]1O[C@@H](Oc2cc3oc(-c4ccccc4)cc(=O)c3c(O)c2O)[C@H](O)[C@@H](O)[C@H]1O
REMARK SMILES IDX 7 1 6 2 4 3 31 4 5 5 29 6 27 7 2 8 1 9 3 10 32 11 30 13
REMARK SMILES IDX 28 15 8 17 25 18 9 19 23 20 10 21 22 22 11 23 20 24 12 25
REMARK SMILES IDX 19 26 21 27 26 28 24 30 13 32 14 33 18 34 15 35 17 36 16 37
REMARK H PARENT 32 12 30 14 28 16 26 29 24 31
REMARK Flexibility Score: inf
ROOT
ATOM      1  O   UNL     1      36.183  -5.332  -4.101  1.00  0.00    -0.458 OA
ENDROOT
BRANCH   1   2
ATOM      2  C   UNL     1      36.197  -4.308  -3.098  1.00  0.00     0.339 C 
ATOM      3  C   UNL     1      37.565  -2.909  -4.400  1.00  0.00     0.199 C 
ATOM      4  C   UNL     1      38.764  -3.023  -3.431  1.00  0.00     0.180 C 
ATOM      5  O   UNL     1      36.336  -3.031  -3.701  1.00  0.00    -0.328 OA
ATOM      6  C   UNL     1      38.701  -4.361  -2.674  1.00  0.00     0.181 C 
ATOM      7  C   UNL     1      37.307  -4.550  -2.048  1.00  0.00     0.214 C 
BRANCH   3   8
ATOM      8  C   UNL     1      37.581  -1.579  -5.095  1.00  0.00     0.073 C 
ATOM      9  O   UNL     1      38.045  -0.562  -4.514  1.00  0.00    -0.547 OA
ATOM     10  O   UNL     1      37.102  -1.468  -6.395  1.00  0.00    -0.547 OA
ENDBRANCH   3   8
BRANCH   4  11
ATOM     11  O   UNL     1      39.977  -2.944  -4.138  1.00  0.00    -0.387 OA
ATOM     12  H   UNL     1      39.750  -2.880  -5.102  1.00  0.00     0.211 HD
ENDBRANCH   4  11
BRANCH   6  13
ATOM     13  O   UNL     1      38.970  -5.434  -3.543  1.00  0.00    -0.387 OA
ATOM     14  H   UNL     1      38.843  -6.270  -3.023  1.00  0.00     0.211 HD
ENDBRANCH   6  13
BRANCH   7  15
ATOM     15  O   UNL     1      37.130  -3.647  -0.986  1.00  0.00    -0.384 OA
ATOM     16  H   UNL     1      37.701  -3.966  -0.238  1.00  0.00     0.211 HD
ENDBRANCH   7  15
ENDBRANCH   1   2
BRANCH   1  17
ATOM     17  C   UNL     1      35.313  -6.435  -4.148  1.00  0.00     0.172 A 
ATOM     18  C   UNL     1      35.825  -7.691  -3.804  1.00  0.00     0.201 A 
ATOM     19  C   UNL     1      33.966  -6.320  -4.524  1.00  0.00     0.098 A 
ATOM     20  C   UNL     1      35.004  -8.836  -3.819  1.00  0.00     0.176 A 
ATOM     21  C   UNL     1      33.144  -7.446  -4.582  1.00  0.00     0.146 A 
ATOM     22  C   UNL     1      33.653  -8.729  -4.258  1.00  0.00     0.111 A 
ATOM     23  O   UNL     1      31.879  -7.287  -4.955  1.00  0.00    -0.456 OA
ATOM     24  C   UNL     1      32.775  -9.826  -4.437  1.00  0.00     0.197 A 
ATOM     25  C   UNL     1      31.017  -8.292  -5.069  1.00  0.00     0.138 A 
ATOM     26  C   UNL     1      31.453  -9.601  -4.824  1.00  0.00     0.100 A 
ATOM     27  O   UNL     1      33.158 -11.016  -4.293  1.00  0.00    -0.289 OA
BRANCH  18  28
ATOM     28  O   UNL     1      37.166  -7.781  -3.422  1.00  0.00    -0.502 OA
ATOM     29  H   UNL     1      37.538  -7.285  -2.621  1.00  0.00     0.293 HD
ENDBRANCH  18  28
BRANCH  20  30
ATOM     30  O   UNL     1      35.566 -10.033  -3.362  1.00  0.00    -0.504 OA
ATOM     31  H   UNL     1      35.347 -10.470  -2.479  1.00  0.00     0.293 HD
ENDBRANCH  20  30
BRANCH  25  32
ATOM     32  C   UNL     1      29.622  -7.996  -5.480  1.00  0.00     0.017 A 
ATOM     33  C   UNL     1      28.676  -9.037  -5.522  1.00  0.00     0.012 A 
ATOM     34  C   UNL     1      29.224  -6.701  -5.867  1.00  0.00     0.012 A 
ATOM     35  C   UNL     1      27.360  -8.785  -5.923  1.00  0.00     0.001 A 
ATOM     36  C   UNL     1      27.907  -6.455  -6.266  1.00  0.00     0.001 A 
ATOM     37  C   UNL     1      26.975  -7.495  -6.291  1.00  0.00     0.000 A 
ENDBRANCH  25  32
ENDBRANCH   1  17
TORSDOF 9
ENDMDL
MODEL 4
REMARK VINA RESULT:    -7.103      3.118      8.991
REMARK INTER + INTRA:         -10.845
REMARK INTER:                  -9.478
REMARK INTRA:                  -1.366
REMARK UNBOUND:                -1.043
REMARK SMILES O=C([O-])[C@@H]1O[C@@H](Oc2cc3oc(-c4ccccc4)cc(=O)c3c(O)c2O)[C@H](O)[C@@H](O)[C@H]1O
REMARK SMILES IDX 7 1 6 2 4 3 31 4 5 5 29 6 27 7 2 8 1 9 3 10 32 11 30 13
REMARK SMILES IDX 28 15 8 17 25 18 9 19 23 20 10 21 22 22 11 23 20 24 12 25
REMARK SMILES IDX 19 26 21 27 26 28 24 30 13 32 14 33 18 34 15 35 17 36 16 37
REMARK H PARENT 32 12 30 14 28 16 26 29 24 31
REMARK Flexibility Score: inf
ROOT
ATOM      1  O   UNL     1      35.412  -6.349  -4.322  1.00  0.00    -0.458 OA
ENDROOT
BRANCH   1   2
ATOM      2  C   UNL     1      34.507  -7.120  -3.521  1.00  0.00     0.339 C 
ATOM      3  C   UNL     1      33.749  -8.348  -5.377  1.00  0.00     0.199 C 
ATOM      4  C   UNL     1      32.327  -7.744  -5.313  1.00  0.00     0.180 C 
ATOM      5  O   UNL     1      34.330  -8.411  -4.084  1.00  0.00    -0.328 OA
ATOM      6  C   UNL     1      32.379  -6.346  -4.671  1.00  0.00     0.181 C 
ATOM      7  C   UNL     1      33.149  -6.403  -3.339  1.00  0.00     0.214 C 
BRANCH   3   8
ATOM      8  C   UNL     1      33.700  -9.737  -5.940  1.00  0.00     0.073 C 
ATOM      9  O   UNL     1      34.765 -10.334  -6.255  1.00  0.00    -0.547 OA
ATOM     10  O   UNL     1      32.480 -10.382  -6.098  1.00  0.00    -0.547 OA
ENDBRANCH   3   8
BRANCH   4  11
ATOM     11  O   UNL     1      31.775  -7.645  -6.602  1.00  0.00    -0.387 OA
ATOM     12  H   UNL     1      30.789  -7.694  -6.502  1.00  0.00     0.211 HD
ENDBRANCH   4  11
BRANCH   6  13
ATOM     13  O   UNL     1      33.009  -5.430  -5.533  1.00  0.00    -0.387 OA
ATOM     14  H   UNL     1      32.333  -4.743  -5.773  1.00  0.00     0.211 HD
ENDBRANCH   6  13
BRANCH   7  15
ATOM     15  O   UNL     1      32.395  -7.098  -2.377  1.00  0.00    -0.384 OA
ATOM     16  H   UNL     1      32.026  -6.417  -1.755  1.00  0.00     0.211 HD
ENDBRANCH   7  15
ENDBRANCH   1   2
BRANCH   1  17
ATOM     17  C   UNL     1      36.172  -5.248  -3.889  1.00  0.00     0.172 A 
ATOM     18  C   UNL     1      36.359  -4.187  -4.782  1.00  0.00     0.201 A 
ATOM     19  C   UNL     1      36.740  -5.179  -2.609  1.00  0.00     0.098 A 
ATOM     20  C   UNL     1      37.100  -3.049  -4.408  1.00  0.00     0.176 A 
ATOM     21  C   UNL     1      37.509  -4.079  -2.229  1.00  0.00     0.146 A 
ATOM     22  C   UNL     1      37.727  -3.005  -3.129  1.00  0.00     0.111 A 
ATOM     23  O   UNL     1      38.037  -4.065  -1.010  1.00  0.00    -0.456 OA
ATOM     24  C   UNL     1      38.598  -1.977  -2.694  1.00  0.00     0.197 A 
ATOM     25  C   UNL     1      38.805  -3.081  -0.555  1.00  0.00     0.138 A 
ATOM     26  C   UNL     1      39.118  -2.009  -1.400  1.00  0.00     0.100 A 
ATOM     27  O   UNL     1      38.954  -1.039  -3.455  1.00  0.00    -0.289 OA
BRANCH  18  28
ATOM     28  O   UNL     1      35.774  -4.272  -6.048  1.00  0.00    -0.502 OA
ATOM     29  H   UNL     1      35.099  -4.988  -6.289  1.00  0.00     0.293 HD
ENDBRANCH  18  28
BRANCH  20  30
ATOM     30  O   UNL     1      37.152  -1.990  -5.321  1.00  0.00    -0.504 OA
ATOM     31  H   UNL     1      36.369  -1.401  -5.563  1.00  0.00     0.293 HD
ENDBRANCH  20  30
BRANCH  25  32
ATOM     32  C   UNL     1      39.328  -3.164   0.832  1.00  0.00     0.017 A 
ATOM     33  C   UNL     1      39.828  -4.389   1.311  1.00  0.00     0.012 A 
ATOM     34  C   UNL     1      39.303  -2.055   1.701  1.00  0.00     0.012 A 
ATOM     35  C   UNL     1      40.309  -4.497   2.620  1.00  0.00     0.001 A 
ATOM     36  C   UNL     1      39.785  -2.169   3.007  1.00  0.00     0.001 A 
ATOM     37  C   UNL     1      40.291  -3.387   3.466  1.00  0.00     0.000 A 
ENDBRANCH  25  32
ENDBRANCH   1  17
TORSDOF 9
ENDMDL
MODEL 5
REMARK VINA RESULT:    -7.097      2.295      4.563
REMARK INTER + INTRA:         -10.837
REMARK INTER:                  -9.531
REMARK INTRA:                  -1.306
REMARK UNBOUND:                -1.043
REMARK SMILES O=C([O-])[C@@H]1O[C@@H](Oc2cc3oc(-c4ccccc4)cc(=O)c3c(O)c2O)[C@H](O)[C@@H](O)[C@H]1O
REMARK SMILES IDX 7 1 6 2 4 3 31 4 5 5 29 6 27 7 2 8 1 9 3 10 32 11 30 13
REMARK SMILES IDX 28 15 8 17 25 18 9 19 23 20 10 21 22 22 11 23 20 24 12 25
REMARK SMILES IDX 19 26 21 27 26 28 24 30 13 32 14 33 18 34 15 35 17 36 16 37
REMARK H PARENT 32 12 30 14 28 16 26 29 24 31
REMARK Flexibility Score: inf
ROOT
ATOM      1  O   UNL     1      38.680  -3.748   2.014  1.00  0.00    -0.458 OA
ENDROOT
BRANCH   1   2
ATOM      2  C   UNL     1      39.803  -4.406   2.615  1.00  0.00     0.339 C 
ATOM      3  C   UNL     1      39.042  -3.941   4.790  1.00  0.00     0.199 C 
ATOM      4  C   UNL     1      40.216  -2.983   5.097  1.00  0.00     0.180 C 
ATOM      5  O   UNL     1      39.439  -4.950   3.874  1.00  0.00    -0.328 OA
ATOM      6  C   UNL     1      40.736  -2.357   3.791  1.00  0.00     0.181 C 
ATOM      7  C   UNL     1      41.017  -3.458   2.752  1.00  0.00     0.214 C 
BRANCH   3   8
ATOM      8  C   UNL     1      38.570  -4.607   6.049  1.00  0.00     0.073 C 
ATOM      9  O   UNL     1      39.337  -4.704   7.044  1.00  0.00    -0.547 OA
ATOM     10  O   UNL     1      37.274  -5.102   6.130  1.00  0.00    -0.547 OA
ENDBRANCH   3   8
BRANCH   4  11
ATOM     11  O   UNL     1      39.803  -1.962   5.971  1.00  0.00    -0.387 OA
ATOM     12  H   UNL     1      39.228  -1.344   5.447  1.00  0.00     0.211 HD
ENDBRANCH   4  11
BRANCH   6  13
ATOM     13  O   UNL     1      39.796  -1.452   3.267  1.00  0.00    -0.387 OA
ATOM     14  H   UNL     1      39.241  -1.952   2.613  1.00  0.00     0.211 HD
ENDBRANCH   6  13
BRANCH   7  15
ATOM     15  O   UNL     1      42.139  -4.211   3.139  1.00  0.00    -0.384 OA
ATOM     16  H   UNL     1      41.826  -4.868   3.814  1.00  0.00     0.211 HD
ENDBRANCH   7  15
ENDBRANCH   1   2
BRANCH   1  17
ATOM     17  C   UNL     1      38.362  -3.734   0.645  1.00  0.00     0.172 A 
ATOM     18  C   UNL     1      38.682  -2.588  -0.092  1.00  0.00     0.201 A 
ATOM     19  C   UNL     1      37.745  -4.816   0.001  1.00  0.00     0.098 A 
ATOM     20  C   UNL     1      38.401  -2.512  -1.470  1.00  0.00     0.176 A 
ATOM     21  C   UNL     1      37.424  -4.749  -1.355  1.00  0.00     0.146 A 
ATOM     22  C   UNL     1      37.720  -3.587  -2.110  1.00  0.00     0.111 A 
ATOM     23  O   UNL     1      36.828  -5.795  -1.917  1.00  0.00    -0.456 OA
ATOM     24  C   UNL     1      37.272  -3.570  -3.454  1.00  0.00     0.197 A 
ATOM     25  C   UNL     1      36.455  -5.829  -3.192  1.00  0.00     0.138 A 
ATOM     26  C   UNL     1      36.658  -4.699  -3.996  1.00  0.00     0.100 A 
ATOM     27  O   UNL     1      37.376  -2.545  -4.178  1.00  0.00    -0.289 OA
BRANCH  18  28
ATOM     28  O   UNL     1      39.307  -1.527   0.568  1.00  0.00    -0.502 OA
ATOM     29  H   UNL     1      40.229  -1.608   0.977  1.00  0.00     0.293 HD
ENDBRANCH  18  28
BRANCH  20  30
ATOM     30  O   UNL     1      38.845  -1.374  -2.152  1.00  0.00    -0.504 OA
ATOM     31  H   UNL     1      38.440  -0.454  -2.059  1.00  0.00     0.293 HD
ENDBRANCH  20  30
BRANCH  25  32
ATOM     32  C   UNL     1      35.811  -7.059  -3.717  1.00  0.00     0.017 A 
ATOM     33  C   UNL     1      34.492  -6.996  -4.202  1.00  0.00     0.012 A 
ATOM     34  C   UNL     1      36.473  -8.303  -3.709  1.00  0.00     0.012 A 
ATOM     35  C   UNL     1      33.857  -8.145  -4.686  1.00  0.00     0.001 A 
ATOM     36  C   UNL     1      35.834  -9.447  -4.193  1.00  0.00     0.001 A 
ATOM     37  C   UNL     1      34.529  -9.369  -4.684  1.00  0.00     0.000 A 
ENDBRANCH  25  32
ENDBRANCH   1  17
TORSDOF 9
ENDMDL
MODEL 6
REMARK VINA RESULT:    -6.981      3.397      4.154
REMARK INTER + INTRA:         -10.677
REMARK INTER:                  -9.594
REMARK INTRA:                  -1.083
REMARK UNBOUND:                -1.043
REMARK SMILES O=C([O-])[C@@H]1O[C@@H](Oc2cc3oc(-c4ccccc4)cc(=O)c3c(O)c2O)[C@H](O)[C@@H](O)[C@H]1O
REMARK SMILES IDX 7 1 6 2 4 3 31 4 5 5 29 6 27 7 2 8 1 9 3 10 32 11 30 13
REMARK SMILES IDX 28 15 8 17 25 18 9 19 23 20 10 21 22 22 11 23 20 24 12 25
REMARK SMILES IDX 19 26 21 27 26 28 24 30 13 32 14 33 18 34 15 35 17 36 16 37
REMARK H PARENT 32 12 30 14 28 16 26 29 24 31
REMARK Flexibility Score: inf
ROOT
ATOM      1  O   UNL     1      39.183  -4.487   1.692  1.00  0.00    -0.458 OA
ENDROOT
BRANCH   1   2
ATOM      2  C   UNL     1      38.601  -4.087   2.940  1.00  0.00     0.339 C 
ATOM      3  C   UNL     1      40.621  -3.161   3.704  1.00  0.00     0.199 C 
ATOM      4  C   UNL     1      40.790  -4.217   4.821  1.00  0.00     0.180 C 
ATOM      5  O   UNL     1      39.248  -2.925   3.435  1.00  0.00    -0.328 OA
ATOM      6  C   UNL     1      40.083  -5.523   4.419  1.00  0.00     0.181 C 
ATOM      7  C   UNL     1      38.637  -5.229   3.982  1.00  0.00     0.214 C 
BRANCH   3   8
ATOM      8  C   UNL     1      41.251  -1.863   4.114  1.00  0.00     0.073 C 
ATOM      9  O   UNL     1      42.468  -1.820   4.437  1.00  0.00    -0.547 OA
ATOM     10  O   UNL     1      40.498  -0.696   4.118  1.00  0.00    -0.547 OA
ENDBRANCH   3   8
BRANCH   4  11
ATOM     11  O   UNL     1      42.153  -4.476   5.052  1.00  0.00    -0.387 OA
ATOM     12  H   UNL     1      42.243  -4.739   6.005  1.00  0.00     0.211 HD
ENDBRANCH   4  11
BRANCH   6  13
ATOM     13  O   UNL     1      40.769  -6.153   3.365  1.00  0.00    -0.387 OA
ATOM     14  H   UNL     1      41.055  -7.044   3.694  1.00  0.00     0.211 HD
ENDBRANCH   6  13
BRANCH   7  15
ATOM     15  O   UNL     1      37.864  -4.852   5.094  1.00  0.00    -0.384 OA
ATOM     16  H   UNL     1      37.980  -3.872   5.207  1.00  0.00     0.211 HD
ENDBRANCH   7  15
ENDBRANCH   1   2
BRANCH   1  17
ATOM     17  C   UNL     1      38.921  -3.919   0.434  1.00  0.00     0.172 A 
ATOM     18  C   UNL     1      38.330  -4.729  -0.543  1.00  0.00     0.201 A 
ATOM     19  C   UNL     1      39.227  -2.585   0.129  1.00  0.00     0.098 A 
ATOM     20  C   UNL     1      38.030  -4.218  -1.821  1.00  0.00     0.176 A 
ATOM     21  C   UNL     1      38.973  -2.068  -1.142  1.00  0.00     0.146 A 
ATOM     22  C   UNL     1      38.396  -2.881  -2.150  1.00  0.00     0.111 A 
ATOM     23  O   UNL     1      39.293  -0.802  -1.386  1.00  0.00    -0.456 OA
ATOM     24  C   UNL     1      38.263  -2.303  -3.436  1.00  0.00     0.197 A 
ATOM     25  C   UNL     1      39.118  -0.216  -2.566  1.00  0.00     0.138 A 
ATOM     26  C   UNL     1      38.607  -0.965  -3.635  1.00  0.00     0.100 A 
ATOM     27  O   UNL     1      37.875  -2.970  -4.430  1.00  0.00    -0.289 OA
BRANCH  18  28
ATOM     28  O   UNL     1      38.024  -6.051  -0.214  1.00  0.00    -0.502 OA
ATOM     29  H   UNL     1      38.137  -6.419   0.723  1.00  0.00     0.293 HD
ENDBRANCH  18  28
BRANCH  20  30
ATOM     30  O   UNL     1      37.348  -5.062  -2.704  1.00  0.00    -0.504 OA
ATOM     31  H   UNL     1      36.344  -5.106  -2.795  1.00  0.00     0.293 HD
ENDBRANCH  20  30
BRANCH  25  32
ATOM     32  C   UNL     1      39.497   1.211  -2.720  1.00  0.00     0.017 A 
ATOM     33  C   UNL     1      40.782   1.632  -2.331  1.00  0.00     0.012 A 
ATOM     34  C   UNL     1      38.588   2.169  -3.212  1.00  0.00     0.012 A 
ATOM     35  C   UNL     1      41.156   2.974  -2.450  1.00  0.00     0.001 A 
ATOM     36  C   UNL     1      38.968   3.509  -3.329  1.00  0.00     0.001 A 
ATOM     37  C   UNL     1      40.250   3.911  -2.952  1.00  0.00     0.000 A 
ENDBRANCH  25  32
ENDBRANCH   1  17
TORSDOF 9
ENDMDL
MODEL 7
REMARK VINA RESULT:    -6.978      3.277      9.053
REMARK INTER + INTRA:         -10.673
REMARK INTER:                  -9.613
REMARK INTRA:                  -1.060
REMARK UNBOUND:                -1.043
REMARK SMILES O=C([O-])[C@@H]1O[C@@H](Oc2cc3oc(-c4ccccc4)cc(=O)c3c(O)c2O)[C@H](O)[C@@H](O)[C@H]1O
REMARK SMILES IDX 7 1 6 2 4 3 31 4 5 5 29 6 27 7 2 8 1 9 3 10 32 11 30 13
REMARK SMILES IDX 28 15 8 17 25 18 9 19 23 20 10 21 22 22 11 23 20 24 12 25
REMARK SMILES IDX 19 26 21 27 26 28 24 30 13 32 14 33 18 34 15 35 17 36 16 37
REMARK H PARENT 32 12 30 14 28 16 26 29 24 31
REMARK Flexibility Score: inf
ROOT
ATOM      1  O   UNL     1      34.647  -5.118  -4.590  1.00  0.00    -0.458 OA
ENDROOT
BRANCH   1   2
ATOM      2  C   UNL     1      34.627  -6.538  -4.788  1.00  0.00     0.339 C 
ATOM      3  C   UNL     1      32.325  -6.543  -5.263  1.00  0.00     0.199 C 
ATOM      4  C   UNL     1      31.967  -7.331  -3.982  1.00  0.00     0.180 C 
ATOM      5  O   UNL     1      33.621  -6.890  -5.725  1.00  0.00    -0.328 OA
ATOM      6  C   UNL     1      33.022  -7.066  -2.892  1.00  0.00     0.181 C 
ATOM      7  C   UNL     1      34.435  -7.300  -3.455  1.00  0.00     0.214 C 
BRANCH   3   8
ATOM      8  C   UNL     1      31.340  -6.845  -6.353  1.00  0.00     0.073 C 
ATOM      9  O   UNL     1      30.118  -6.575  -6.200  1.00  0.00    -0.547 OA
ATOM     10  O   UNL     1      31.774  -7.406  -7.547  1.00  0.00    -0.547 OA
ENDBRANCH   3   8
BRANCH   4  11
ATOM     11  O   UNL     1      30.700  -6.949  -3.506  1.00  0.00    -0.387 OA
ATOM     12  H   UNL     1      30.734  -5.972  -3.337  1.00  0.00     0.211 HD
ENDBRANCH   4  11
BRANCH   6  13
ATOM     13  O   UNL     1      32.922  -5.745  -2.418  1.00  0.00    -0.387 OA
ATOM     14  H   UNL     1      32.132  -5.709  -1.818  1.00  0.00     0.211 HD
ENDBRANCH   6  13
BRANCH   7  15
ATOM     15  O   UNL     1      34.642  -8.671  -3.684  1.00  0.00    -0.384 OA
ATOM     16  H   UNL     1      35.270  -8.744  -4.449  1.00  0.00     0.211 HD
ENDBRANCH   7  15
ENDBRANCH   1   2
BRANCH   1  17
ATOM     17  C   UNL     1      35.729  -4.363  -4.105  1.00  0.00     0.172 A 
ATOM     18  C   UNL     1      36.431  -3.562  -5.013  1.00  0.00     0.201 A 
ATOM     19  C   UNL     1      36.123  -4.386  -2.759  1.00  0.00     0.098 A 
ATOM     20  C   UNL     1      37.517  -2.772  -4.591  1.00  0.00     0.176 A 
ATOM     21  C   UNL     1      37.219  -3.640  -2.326  1.00  0.00     0.146 A 
ATOM     22  C   UNL     1      37.954  -2.841  -3.236  1.00  0.00     0.111 A 
ATOM     23  O   UNL     1      37.561  -3.704  -1.043  1.00  0.00    -0.456 OA
ATOM     24  C   UNL     1      39.108  -2.194  -2.729  1.00  0.00     0.197 A 
ATOM     25  C   UNL     1      38.601  -3.057  -0.529  1.00  0.00     0.138 A 
ATOM     26  C   UNL     1      39.417  -2.289  -1.371  1.00  0.00     0.100 A 
ATOM     27  O   UNL     1      39.898  -1.558  -3.474  1.00  0.00    -0.289 OA
BRANCH  18  28
ATOM     28  O   UNL     1      36.014  -3.546  -6.346  1.00  0.00    -0.502 OA
ATOM     29  H   UNL     1      36.537  -3.077  -7.075  1.00  0.00     0.293 HD
ENDBRANCH  18  28
BRANCH  20  30
ATOM     30  O   UNL     1      38.098  -1.922  -5.539  1.00  0.00    -0.504 OA
ATOM     31  H   UNL     1      38.548  -1.045  -5.324  1.00  0.00     0.293 HD
ENDBRANCH  20  30
BRANCH  25  32
ATOM     32  C   UNL     1      38.880  -3.189   0.923  1.00  0.00     0.017 A 
ATOM     33  C   UNL     1      39.362  -2.079   1.640  1.00  0.00     0.012 A 
ATOM     34  C   UNL     1      38.711  -4.413   1.600  1.00  0.00     0.012 A 
ATOM     35  C   UNL     1      39.649  -2.184   3.005  1.00  0.00     0.001 A 
ATOM     36  C   UNL     1      39.000  -4.513   2.964  1.00  0.00     0.001 A 
ATOM     37  C   UNL     1      39.465  -3.399   3.667  1.00  0.00     0.000 A 
ENDBRANCH  25  32
ENDBRANCH   1  17
TORSDOF 9
ENDMDL
MODEL 8
REMARK VINA RESULT:    -6.976      3.698      4.853
REMARK INTER + INTRA:         -10.670
REMARK INTER:                  -9.528
REMARK INTRA:                  -1.142
REMARK UNBOUND:                -1.043
REMARK SMILES O=C([O-])[C@@H]1O[C@@H](Oc2cc3oc(-c4ccccc4)cc(=O)c3c(O)c2O)[C@H](O)[C@@H](O)[C@H]1O
REMARK SMILES IDX 7 1 6 2 4 3 31 4 5 5 29 6 27 7 2 8 1 9 3 10 32 11 30 13
REMARK SMILES IDX 28 15 8 17 25 18 9 19 23 20 10 21 22 22 11 23 20 24 12 25
REMARK SMILES IDX 19 26 21 27 26 28 24 30 13 32 14 33 18 34 15 35 17 36 16 37
REMARK H PARENT 32 12 30 14 28 16 26 29 24 31
REMARK Flexibility Score: inf
ROOT
ATOM      1  O   UNL     1      38.089  -5.318   0.482  1.00  0.00    -0.458 OA
ENDROOT
BRANCH   1   2
ATOM      2  C   UNL     1      39.156  -6.100   1.034  1.00  0.00     0.339 C 
ATOM      3  C   UNL     1      37.785  -6.953   2.742  1.00  0.00     0.199 C 
ATOM      4  C   UNL     1      38.561  -6.220   3.860  1.00  0.00     0.180 C 
ATOM      5  O   UNL     1      38.640  -7.268   1.654  1.00  0.00    -0.328 OA
ATOM      6  C   UNL     1      39.213  -4.946   3.295  1.00  0.00     0.181 C 
ATOM      7  C   UNL     1      40.015  -5.280   2.024  1.00  0.00     0.214 C 
BRANCH   3   8
ATOM      8  C   UNL     1      37.199  -8.232   3.266  1.00  0.00     0.073 C 
ATOM      9  O   UNL     1      37.679  -9.343   2.914  1.00  0.00    -0.547 OA
ATOM     10  O   UNL     1      36.137  -8.195   4.160  1.00  0.00    -0.547 OA
ENDBRANCH   3   8
BRANCH   4  11
ATOM     11  O   UNL     1      37.698  -5.874   4.914  1.00  0.00    -0.387 OA
ATOM     12  H   UNL     1      38.243  -5.851   5.743  1.00  0.00     0.211 HD
ENDBRANCH   4  11
BRANCH   6  13
ATOM     13  O   UNL     1      38.234  -3.983   2.989  1.00  0.00    -0.387 OA
ATOM     14  H   UNL     1      37.447  -4.174   3.562  1.00  0.00     0.211 HD
ENDBRANCH   6  13
BRANCH   7  15
ATOM     15  O   UNL     1      41.158  -6.026   2.358  1.00  0.00    -0.384 OA
ATOM     16  H   UNL     1      41.558  -6.338   1.504  1.00  0.00     0.211 HD
ENDBRANCH   7  15
ENDBRANCH   1   2
BRANCH   1  17
ATOM     17  C   UNL     1      38.191  -4.413  -0.588  1.00  0.00     0.172 A 
ATOM     18  C   UNL     1      37.835  -4.861  -1.865  1.00  0.00     0.201 A 
ATOM     19  C   UNL     1      38.633  -3.092  -0.421  1.00  0.00     0.098 A 
ATOM     20  C   UNL     1      37.903  -4.001  -2.979  1.00  0.00     0.176 A 
ATOM     21  C   UNL     1      38.744  -2.234  -1.515  1.00  0.00     0.146 A 
ATOM     22  C   UNL     1      38.408  -2.679  -2.818  1.00  0.00     0.111 A 
ATOM     23  O   UNL     1      39.180  -0.996  -1.307  1.00  0.00    -0.456 OA
ATOM     24  C   UNL     1      38.643  -1.772  -3.881  1.00  0.00     0.197 A 
ATOM     25  C   UNL     1      39.347  -0.105  -2.279  1.00  0.00     0.138 A 
ATOM     26  C   UNL     1      39.094  -0.481  -3.605  1.00  0.00     0.100 A 
ATOM     27  O   UNL     1      38.493  -2.104  -5.086  1.00  0.00    -0.289 OA
BRANCH  18  28
ATOM     28  O   UNL     1      37.387  -6.177  -2.007  1.00  0.00    -0.502 OA
ATOM     29  H   UNL     1      37.941  -6.895  -2.456  1.00  0.00     0.293 HD
ENDBRANCH  18  28
BRANCH  20  30
ATOM     30  O   UNL     1      37.431  -4.496  -4.200  1.00  0.00    -0.504 OA
ATOM     31  H   UNL     1      37.442  -5.469  -4.467  1.00  0.00     0.293 HD
ENDBRANCH  20  30
BRANCH  25  32
ATOM     32  C   UNL     1      39.825   1.255  -1.928  1.00  0.00     0.017 A 
ATOM     33  C   UNL     1      39.456   1.821  -0.694  1.00  0.00     0.012 A 
ATOM     34  C   UNL     1      40.609   2.017  -2.817  1.00  0.00     0.012 A 
ATOM     35  C   UNL     1      39.879   3.109  -0.348  1.00  0.00     0.001 A 
ATOM     36  C   UNL     1      41.029   3.303  -2.466  1.00  0.00     0.001 A 
ATOM     37  C   UNL     1      40.667   3.848  -1.232  1.00  0.00     0.000 A 
ENDBRANCH  25  32
ENDBRANCH   1  17
TORSDOF 9
ENDMDL
MODEL 9
REMARK VINA RESULT:    -6.889      1.388      1.953
REMARK INTER + INTRA:         -10.550
REMARK INTER:                  -9.195
REMARK INTRA:                  -1.355
REMARK UNBOUND:                -1.043
REMARK SMILES O=C([O-])[C@@H]1O[C@@H](Oc2cc3oc(-c4ccccc4)cc(=O)c3c(O)c2O)[C@H](O)[C@@H](O)[C@H]1O
REMARK SMILES IDX 7 1 6 2 4 3 31 4 5 5 29 6 27 7 2 8 1 9 3 10 32 11 30 13
REMARK SMILES IDX 28 15 8 17 25 18 9 19 23 20 10 21 22 22 11 23 20 24 12 25
REMARK SMILES IDX 19 26 21 27 26 28 24 30 13 32 14 33 18 34 15 35 17 36 16 37
REMARK H PARENT 32 12 30 14 28 16 26 29 24 31
REMARK Flexibility Score: inf
ROOT
ATOM      1  O   UNL     1      38.160  -4.671   1.064  1.00  0.00    -0.458 OA
ENDROOT
BRANCH   1   2
ATOM      2  C   UNL     1      39.558  -4.896   1.288  1.00  0.00     0.339 C 
ATOM      3  C   UNL     1      39.140  -6.440   3.010  1.00  0.00     0.199 C 
ATOM      4  C   UNL     1      39.736  -5.525   4.103  1.00  0.00     0.180 C 
ATOM      5  O   UNL     1      39.775  -6.217   1.761  1.00  0.00    -0.328 OA
ATOM      6  C   UNL     1      39.603  -4.050   3.682  1.00  0.00     0.181 C 
ATOM      7  C   UNL     1      40.158  -3.854   2.260  1.00  0.00     0.214 C 
BRANCH   3   8
ATOM      8  C   UNL     1      39.324  -7.882   3.380  1.00  0.00     0.073 C 
ATOM      9  O   UNL     1      40.121  -8.207   4.302  1.00  0.00    -0.547 OA
ATOM     10  O   UNL     1      38.600  -8.868   2.722  1.00  0.00    -0.547 OA
ENDBRANCH   3   8
BRANCH   4  11
ATOM     11  O   UNL     1      39.073  -5.722   5.327  1.00  0.00    -0.387 OA
ATOM     12  H   UNL     1      39.518  -6.484   5.781  1.00  0.00     0.211 HD
ENDBRANCH   4  11
BRANCH   6  13
ATOM     13  O   UNL     1      38.256  -3.647   3.716  1.00  0.00    -0.387 OA
ATOM     14  H   UNL     1      38.118  -3.026   2.953  1.00  0.00     0.211 HD
ENDBRANCH   6  13
BRANCH   7  15
ATOM     15  O   UNL     1      41.557  -3.992   2.266  1.00  0.00    -0.384 OA
ATOM     16  H   UNL     1      41.766  -4.823   1.765  1.00  0.00     0.211 HD
ENDBRANCH   7  15
ENDBRANCH   1   2
BRANCH   1  17
ATOM     17  C   UNL     1      37.461  -4.917  -0.130  1.00  0.00     0.172 A 
ATOM     18  C   UNL     1      36.931  -6.196  -0.331  1.00  0.00     0.201 A 
ATOM     19  C   UNL     1      37.279  -3.934  -1.114  1.00  0.00     0.098 A 
ATOM     20  C   UNL     1      36.210  -6.505  -1.500  1.00  0.00     0.176 A 
ATOM     21  C   UNL     1      36.601  -4.228  -2.297  1.00  0.00     0.146 A 
ATOM     22  C   UNL     1      36.077  -5.525  -2.526  1.00  0.00     0.111 A 
ATOM     23  O   UNL     1      36.465  -3.267  -3.205  1.00  0.00    -0.456 OA
ATOM     24  C   UNL     1      35.488  -5.760  -3.792  1.00  0.00     0.197 A 
ATOM     25  C   UNL     1      35.860  -3.444  -4.375  1.00  0.00     0.138 A 
ATOM     26  C   UNL     1      35.364  -4.712  -4.706  1.00  0.00     0.100 A 
ATOM     27  O   UNL     1      35.099  -6.904  -4.145  1.00  0.00    -0.289 OA
BRANCH  18  28
ATOM     28  O   UNL     1      37.115  -7.155   0.668  1.00  0.00    -0.502 OA
ATOM     29  H   UNL     1      37.826  -7.068   1.383  1.00  0.00     0.293 HD
ENDBRANCH  18  28
BRANCH  20  30
ATOM     30  O   UNL     1      35.626  -7.774  -1.576  1.00  0.00    -0.504 OA
ATOM     31  H   UNL     1      35.088  -8.203  -0.838  1.00  0.00     0.293 HD
ENDBRANCH  20  30
BRANCH  25  32
ATOM     32  C   UNL     1      35.752  -2.294  -5.306  1.00  0.00     0.017 A 
ATOM     33  C   UNL     1      36.538  -2.271  -6.473  1.00  0.00     0.012 A 
ATOM     34  C   UNL     1      34.909  -1.198  -5.035  1.00  0.00     0.012 A 
ATOM     35  C   UNL     1      36.467  -1.190  -7.357  1.00  0.00     0.001 A 
ATOM     36  C   UNL     1      34.842  -0.120  -5.922  1.00  0.00     0.001 A 
ATOM     37  C   UNL     1      35.618  -0.116  -7.083  1.00  0.00     0.000 A 
ENDBRANCH  25  32
ENDBRANCH   1  17
TORSDOF 9
ENDMDL
