MODEL 1
REMARK VINA RESULT:    -7.225      0.000      0.000
REMARK INTER + INTRA:         -11.414
REMARK INTER:                  -9.970
REMARK INTRA:                  -1.444
REMARK UNBOUND:                -1.444
REMARK SMILES O=C([O-])[C@@H]1O[C@@H](Oc2cc3oc(-c4ccccc4)cc(=O)c3c(O)c2O)[C@@H](O)[C@@H](O)[C@H]1O
REMARK SMILES IDX 7 1 6 2 4 3 31 4 5 5 29 6 27 7 2 8 1 9 3 10 32 11 30 13
REMARK SMILES IDX 28 15 8 17 25 18 9 19 23 20 10 21 22 22 11 23 20 24 12 25
REMARK SMILES IDX 19 26 21 27 26 28 24 30 13 32 14 33 18 34 15 35 17 36 16 37
REMARK H PARENT 32 12 30 14 28 16 26 29 24 31
REMARK Flexibility Score: inf
ROOT
ATOM      1  O   UNL     1    -111.548  -0.817  75.971  1.00  0.00    -0.458 OA
ENDROOT
BRANCH   1   2
ATOM      2  C   UNL     1    -110.506  -1.792  75.858  1.00  0.00     0.339 C 
ATOM      3  C   UNL     1    -108.801  -0.218  76.242  1.00  0.00     0.199 C 
ATOM      4  C   UNL     1    -108.267  -0.324  74.793  1.00  0.00     0.180 C 
ATOM      5  O   UNL     1    -109.381  -1.446  76.655  1.00  0.00    -0.328 OA
ATOM      6  C   UNL     1    -109.396  -0.736  73.831  1.00  0.00     0.181 C 
ATOM      7  C   UNL     1    -110.103  -1.988  74.383  1.00  0.00     0.214 C 
BRANCH   3   8
ATOM      8  C   UNL     1    -107.683   0.122  77.182  1.00  0.00     0.073 C 
ATOM      9  O   UNL     1    -106.534  -0.364  77.007  1.00  0.00    -0.547 OA
ATOM     10  O   UNL     1    -107.903   1.001  78.235  1.00  0.00    -0.547 OA
ENDBRANCH   3   8
BRANCH   4  11
ATOM     11  O   UNL     1    -107.655   0.870  74.369  1.00  0.00    -0.387 OA
ATOM     12  H   UNL     1    -106.770   0.641  73.983  1.00  0.00     0.211 HD
ENDBRANCH   4  11
BRANCH   6  13
ATOM     13  O   UNL     1    -110.327   0.308  73.681  1.00  0.00    -0.387 OA
ATOM     14  H   UNL     1    -109.816   1.118  73.424  1.00  0.00     0.211 HD
ENDBRANCH   6  13
BRANCH   7  15
ATOM     15  O   UNL     1    -111.242  -2.287  73.618  1.00  0.00    -0.384 OA
ATOM     16  H   UNL     1    -111.072  -1.939  72.704  1.00  0.00     0.211 HD
ENDBRANCH   7  15
ENDBRANCH   1   2
BRANCH   1  17
ATOM     17  C   UNL     1    -112.526  -0.725  76.980  1.00  0.00     0.172 A 
ATOM     18  C   UNL     1    -112.319  -0.107  78.239  1.00  0.00     0.201 A 
ATOM     19  C   UNL     1    -113.765  -1.292  76.687  1.00  0.00     0.098 A 
ATOM     20  C   UNL     1    -113.388  -0.038  79.173  1.00  0.00     0.176 A 
ATOM     21  C   UNL     1    -114.814  -1.247  77.600  1.00  0.00     0.146 A 
ATOM     22  C   UNL     1    -114.641  -0.620  78.853  1.00  0.00     0.111 A 
ATOM     23  O   UNL     1    -115.979  -1.798  77.272  1.00  0.00    -0.456 OA
ATOM     24  C   UNL     1    -115.750  -0.599  79.727  1.00  0.00     0.197 A 
ATOM     25  C   UNL     1    -117.040  -1.803  78.075  1.00  0.00     0.138 A 
ATOM     26  C   UNL     1    -116.951  -1.190  79.334  1.00  0.00     0.100 A 
ATOM     27  O   UNL     1    -115.686  -0.053  80.862  1.00  0.00    -0.289 OA
BRANCH  18  28
ATOM     28  O   UNL     1    -111.058   0.406  78.544  1.00  0.00    -0.502 OA
ATOM     29  H   UNL     1    -110.448   0.054  79.265  1.00  0.00     0.293 HD
ENDBRANCH  18  28
BRANCH  20  30
ATOM     30  O   UNL     1    -113.238   0.598  80.411  1.00  0.00    -0.504 OA
ATOM     31  H   UNL     1    -112.471   0.449  81.048  1.00  0.00     0.293 HD
ENDBRANCH  20  30
BRANCH  25  32
ATOM     32  C   UNL     1    -118.292  -2.444  77.597  1.00  0.00     0.017 A 
ATOM     33  C   UNL     1    -119.265  -2.932  78.494  1.00  0.00     0.012 A 
ATOM     34  C   UNL     1    -118.511  -2.593  76.215  1.00  0.00     0.012 A 
ATOM     35  C   UNL     1    -120.432  -3.533  78.013  1.00  0.00     0.001 A 
ATOM     36  C   UNL     1    -119.680  -3.195  75.741  1.00  0.00     0.001 A 
ATOM     37  C   UNL     1    -120.641  -3.661  76.639  1.00  0.00     0.000 A 
ENDBRANCH  25  32
ENDBRANCH   1  17
TORSDOF 9
ENDMDL
MODEL 2
REMARK VINA RESULT:    -7.008      1.394      2.632
REMARK INTER + INTRA:         -11.114
REMARK INTER:                  -9.770
REMARK INTRA:                  -1.345
REMARK UNBOUND:                -1.444
REMARK SMILES O=C([O-])[C@@H]1O[C@@H](Oc2cc3oc(-c4ccccc4)cc(=O)c3c(O)c2O)[C@@H](O)[C@@H](O)[C@H]1O
REMARK SMILES IDX 7 1 6 2 4 3 31 4 5 5 29 6 27 7 2 8 1 9 3 10 32 11 30 13
REMARK SMILES IDX 28 15 8 17 25 18 9 19 23 20 10 21 22 22 11 23 20 24 12 25
REMARK SMILES IDX 19 26 21 27 26 28 24 30 13 32 14 33 18 34 15 35 17 36 16 37
REMARK H PARENT 32 12 30 14 28 16 26 29 24 31
REMARK Flexibility Score: inf
ROOT
ATOM      1  O   UNL     1    -111.358  -1.860  75.972  1.00  0.00    -0.458 OA
ENDROOT
BRANCH   1   2
ATOM      2  C   UNL     1    -111.110  -1.456  74.621  1.00  0.00     0.339 C 
ATOM      3  C   UNL     1    -109.260  -2.888  74.385  1.00  0.00     0.199 C 
ATOM      4  C   UNL     1    -108.257  -1.710  74.310  1.00  0.00     0.180 C 
ATOM      5  O   UNL     1    -110.523  -2.505  73.864  1.00  0.00    -0.328 OA
ATOM      6  C   UNL     1    -108.805  -0.488  75.069  1.00  0.00     0.181 C 
ATOM      7  C   UNL     1    -110.236  -0.187  74.585  1.00  0.00     0.214 C 
BRANCH   3   8
ATOM      8  C   UNL     1    -108.748  -4.053  73.592  1.00  0.00     0.073 C 
ATOM      9  O   UNL     1    -108.001  -4.912  74.131  1.00  0.00    -0.547 OA
ATOM     10  O   UNL     1    -109.123  -4.207  72.262  1.00  0.00    -0.547 OA
ENDBRANCH   3   8
BRANCH   4  11
ATOM     11  O   UNL     1    -106.985  -2.071  74.790  1.00  0.00    -0.387 OA
ATOM     12  H   UNL     1    -106.954  -1.866  75.761  1.00  0.00     0.211 HD
ENDBRANCH   4  11
BRANCH   6  13
ATOM     13  O   UNL     1    -108.813  -0.725  76.455  1.00  0.00    -0.387 OA
ATOM     14  H   UNL     1    -109.733  -0.538  76.777  1.00  0.00     0.211 HD
ENDBRANCH   6  13
BRANCH   7  15
ATOM     15  O   UNL     1    -110.823   0.814  75.376  1.00  0.00    -0.384 OA
ATOM     16  H   UNL     1    -110.456   0.706  76.292  1.00  0.00     0.211 HD
ENDBRANCH   7  15
ENDBRANCH   1   2
BRANCH   1  17
ATOM     17  C   UNL     1    -112.417  -1.455  76.806  1.00  0.00     0.172 A 
ATOM     18  C   UNL     1    -112.278  -0.560  77.896  1.00  0.00     0.201 A 
ATOM     19  C   UNL     1    -113.670  -1.991  76.510  1.00  0.00     0.098 A 
ATOM     20  C   UNL     1    -113.424  -0.190  78.653  1.00  0.00     0.176 A 
ATOM     21  C   UNL     1    -114.796  -1.650  77.255  1.00  0.00     0.146 A 
ATOM     22  C   UNL     1    -114.688  -0.747  78.334  1.00  0.00     0.111 A 
ATOM     23  O   UNL     1    -115.969  -2.185  76.931  1.00  0.00    -0.456 OA
ATOM     24  C   UNL     1    -115.871  -0.434  79.039  1.00  0.00     0.197 A 
ATOM     25  C   UNL     1    -117.100  -1.919  77.579  1.00  0.00     0.138 A 
ATOM     26  C   UNL     1    -117.078  -1.021  78.658  1.00  0.00     0.100 A 
ATOM     27  O   UNL     1    -115.869   0.370  80.010  1.00  0.00    -0.289 OA
BRANCH  18  28
ATOM     28  O   UNL     1    -111.011  -0.075  78.219  1.00  0.00    -0.502 OA
ATOM     29  H   UNL     1    -110.382   0.378  77.574  1.00  0.00     0.293 HD
ENDBRANCH  18  28
BRANCH  20  30
ATOM     30  O   UNL     1    -113.337   0.720  79.712  1.00  0.00    -0.504 OA
ATOM     31  H   UNL     1    -114.069   1.355  79.991  1.00  0.00     0.293 HD
ENDBRANCH  20  30
BRANCH  25  32
ATOM     32  C   UNL     1    -118.354  -2.571  77.123  1.00  0.00     0.017 A 
ATOM     33  C   UNL     1    -118.633  -2.768  75.754  1.00  0.00     0.012 A 
ATOM     34  C   UNL     1    -119.305  -2.985  78.073  1.00  0.00     0.012 A 
ATOM     35  C   UNL     1    -119.824  -3.383  75.356  1.00  0.00     0.001 A 
ATOM     36  C   UNL     1    -120.494  -3.600  77.668  1.00  0.00     0.001 A 
ATOM     37  C   UNL     1    -120.752  -3.801  76.312  1.00  0.00     0.000 A 
ENDBRANCH  25  32
ENDBRANCH   1  17
TORSDOF 9
ENDMDL
MODEL 3
REMARK VINA RESULT:    -6.967     15.253     19.034
REMARK INTER + INTRA:         -11.058
REMARK INTER:                  -9.621
REMARK INTRA:                  -1.438
REMARK UNBOUND:                -1.444
REMARK SMILES O=C([O-])[C@@H]1O[C@@H](Oc2cc3oc(-c4ccccc4)cc(=O)c3c(O)c2O)[C@@H](O)[C@@H](O)[C@H]1O
REMARK SMILES IDX 7 1 6 2 4 3 31 4 5 5 29 6 27 7 2 8 1 9 3 10 32 11 30 13
REMARK SMILES IDX 28 15 8 17 25 18 9 19 23 20 10 21 22 22 11 23 20 24 12 25
REMARK SMILES IDX 19 26 21 27 26 28 24 30 13 32 14 33 18 34 15 35 17 36 16 37
REMARK H PARENT 32 12 30 14 28 16 26 29 24 31
REMARK Flexibility Score: inf
ROOT
ATOM      1  O   UNL     1    -119.979 -15.597  87.704  1.00  0.00    -0.458 OA
ENDROOT
BRANCH   1   2
ATOM      2  C   UNL     1    -119.619 -16.939  87.363  1.00  0.00     0.339 C 
ATOM      3  C   UNL     1    -121.822 -17.733  87.579  1.00  0.00     0.199 C 
ATOM      4  C   UNL     1    -121.481 -18.575  88.833  1.00  0.00     0.180 C 
ATOM      5  O   UNL     1    -120.693 -17.620  86.727  1.00  0.00    -0.328 OA
ATOM      6  C   UNL     1    -120.294 -17.954  89.592  1.00  0.00     0.181 C 
ATOM      7  C   UNL     1    -119.135 -17.706  88.609  1.00  0.00     0.214 C 
BRANCH   3   8
ATOM      8  C   UNL     1    -122.937 -18.378  86.811  1.00  0.00     0.073 C 
ATOM      9  O   UNL     1    -124.123 -18.308  87.231  1.00  0.00    -0.547 OA
ATOM     10  O   UNL     1    -122.670 -19.030  85.614  1.00  0.00    -0.547 OA
ENDBRANCH   3   8
BRANCH   4  11
ATOM     11  O   UNL     1    -122.593 -18.732  89.680  1.00  0.00    -0.387 OA
ATOM     12  H   UNL     1    -123.372 -18.986  89.120  1.00  0.00     0.211 HD
ENDBRANCH   4  11
BRANCH   6  13
ATOM     13  O   UNL     1    -120.670 -16.741  90.197  1.00  0.00    -0.387 OA
ATOM     14  H   UNL     1    -121.658 -16.678  90.132  1.00  0.00     0.211 HD
ENDBRANCH   6  13
BRANCH   7  15
ATOM     15  O   UNL     1    -118.104 -16.987  89.235  1.00  0.00    -0.384 OA
ATOM     16  H   UNL     1    -117.727 -16.375  88.551  1.00  0.00     0.211 HD
ENDBRANCH   7  15
ENDBRANCH   1   2
BRANCH   1  17
ATOM     17  C   UNL     1    -119.168 -14.448  87.627  1.00  0.00     0.172 A 
ATOM     18  C   UNL     1    -118.622 -13.779  88.751  1.00  0.00     0.201 A 
ATOM     19  C   UNL     1    -118.910 -13.964  86.345  1.00  0.00     0.098 A 
ATOM     20  C   UNL     1    -117.786 -12.645  88.557  1.00  0.00     0.176 A 
ATOM     21  C   UNL     1    -118.108 -12.845  86.143  1.00  0.00     0.146 A 
ATOM     22  C   UNL     1    -117.536 -12.172  87.244  1.00  0.00     0.111 A 
ATOM     23  O   UNL     1    -117.888 -12.425  84.901  1.00  0.00    -0.456 OA
ATOM     24  C   UNL     1    -116.722 -11.051  86.967  1.00  0.00     0.197 A 
ATOM     25  C   UNL     1    -117.134 -11.369  84.607  1.00  0.00     0.138 A 
ATOM     26  C   UNL     1    -116.521 -10.652  85.646  1.00  0.00     0.100 A 
ATOM     27  O   UNL     1    -116.164 -10.397  87.889  1.00  0.00    -0.289 OA
BRANCH  18  28
ATOM     28  O   UNL     1    -118.934 -14.237  90.032  1.00  0.00    -0.502 OA
ATOM     29  H   UNL     1    -119.674 -13.875  90.612  1.00  0.00     0.293 HD
ENDBRANCH  18  28
BRANCH  20  30
ATOM     30  O   UNL     1    -117.195 -11.980  89.636  1.00  0.00    -0.504 OA
ATOM     31  H   UNL     1    -116.437 -12.343  90.195  1.00  0.00     0.293 HD
ENDBRANCH  20  30
BRANCH  25  32
ATOM     32  C   UNL     1    -116.953 -10.998  83.180  1.00  0.00     0.017 A 
ATOM     33  C   UNL     1    -116.121  -9.928  82.791  1.00  0.00     0.012 A 
ATOM     34  C   UNL     1    -117.646 -11.712  82.185  1.00  0.00     0.012 A 
ATOM     35  C   UNL     1    -115.973  -9.601  81.440  1.00  0.00     0.001 A 
ATOM     36  C   UNL     1    -117.494 -11.380  80.835  1.00  0.00     0.001 A 
ATOM     37  C   UNL     1    -116.657 -10.328  80.463  1.00  0.00     0.000 A 
ENDBRANCH  25  32
ENDBRANCH   1  17
TORSDOF 9
ENDMDL
MODEL 4
REMARK VINA RESULT:    -6.904      6.331     10.325
REMARK INTER + INTRA:         -10.971
REMARK INTER:                  -9.788
REMARK INTRA:                  -1.182
REMARK UNBOUND:                -1.444
REMARK SMILES O=C([O-])[C@@H]1O[C@@H](Oc2cc3oc(-c4ccccc4)cc(=O)c3c(O)c2O)[C@@H](O)[C@@H](O)[C@H]1O
REMARK SMILES IDX 7 1 6 2 4 3 31 4 5 5 29 6 27 7 2 8 1 9 3 10 32 11 30 13
REMARK SMILES IDX 28 15 8 17 25 18 9 19 23 20 10 21 22 22 11 23 20 24 12 25
REMARK SMILES IDX 19 26 21 27 26 28 24 30 13 32 14 33 18 34 15 35 17 36 16 37
REMARK H PARENT 32 12 30 14 28 16 26 29 24 31
REMARK Flexibility Score: inf
ROOT
ATOM      1  O   UNL     1    -109.656  -7.937  76.896  1.00  0.00    -0.458 OA
ENDROOT
BRANCH   1   2
ATOM      2  C   UNL     1    -110.498  -7.832  78.049  1.00  0.00     0.339 C 
ATOM      3  C   UNL     1    -110.398 -10.138  78.503  1.00  0.00     0.199 C 
ATOM      4  C   UNL     1    -111.890 -10.353  78.149  1.00  0.00     0.180 C 
ATOM      5  O   UNL     1    -110.186  -8.830  79.012  1.00  0.00    -0.328 OA
ATOM      6  C   UNL     1    -112.360  -9.297  77.133  1.00  0.00     0.181 C 
ATOM      7  C   UNL     1    -111.984  -7.894  77.644  1.00  0.00     0.214 C 
BRANCH   3   8
ATOM      8  C   UNL     1    -109.965 -11.130  79.540  1.00  0.00     0.073 C 
ATOM      9  O   UNL     1    -108.751 -11.449  79.649  1.00  0.00    -0.547 OA
ATOM     10  O   UNL     1    -110.899 -11.681  80.409  1.00  0.00    -0.547 OA
ENDBRANCH   3   8
BRANCH   4  11
ATOM     11  O   UNL     1    -112.136 -11.654  77.673  1.00  0.00    -0.387 OA
ATOM     12  H   UNL     1    -113.019 -11.945  78.019  1.00  0.00     0.211 HD
ENDBRANCH   4  11
BRANCH   6  13
ATOM     13  O   UNL     1    -111.768  -9.518  75.876  1.00  0.00    -0.387 OA
ATOM     14  H   UNL     1    -112.086 -10.401  75.556  1.00  0.00     0.211 HD
ENDBRANCH   6  13
BRANCH   7  15
ATOM     15  O   UNL     1    -112.247  -6.925  76.663  1.00  0.00    -0.384 OA
ATOM     16  H   UNL     1    -112.818  -6.234  77.090  1.00  0.00     0.211 HD
ENDBRANCH   7  15
ENDBRANCH   1   2
BRANCH   1  17
ATOM     17  C   UNL     1    -108.609  -7.074  76.520  1.00  0.00     0.172 A 
ATOM     18  C   UNL     1    -107.238  -7.432  76.527  1.00  0.00     0.201 A 
ATOM     19  C   UNL     1    -108.984  -5.790  76.124  1.00  0.00     0.098 A 
ATOM     20  C   UNL     1    -106.263  -6.492  76.094  1.00  0.00     0.176 A 
ATOM     21  C   UNL     1    -108.037  -4.856  75.715  1.00  0.00     0.146 A 
ATOM     22  C   UNL     1    -106.667  -5.193  75.694  1.00  0.00     0.111 A 
ATOM     23  O   UNL     1    -108.445  -3.646  75.343  1.00  0.00    -0.456 OA
ATOM     24  C   UNL     1    -105.761  -4.201  75.256  1.00  0.00     0.197 A 
ATOM     25  C   UNL     1    -107.618  -2.688  74.933  1.00  0.00     0.138 A 
ATOM     26  C   UNL     1    -106.240  -2.948  74.874  1.00  0.00     0.100 A 
ATOM     27  O   UNL     1    -104.521  -4.419  75.198  1.00  0.00    -0.289 OA
BRANCH  18  28
ATOM     28  O   UNL     1    -106.869  -8.699  76.980  1.00  0.00    -0.502 OA
ATOM     29  H   UNL     1    -107.413  -9.539  76.858  1.00  0.00     0.293 HD
ENDBRANCH  18  28
BRANCH  20  30
ATOM     30  O   UNL     1    -104.903  -6.818  76.048  1.00  0.00    -0.504 OA
ATOM     31  H   UNL     1    -104.228  -6.589  76.762  1.00  0.00     0.293 HD
ENDBRANCH  20  30
BRANCH  25  32
ATOM     32  C   UNL     1    -108.190  -1.376  74.535  1.00  0.00     0.017 A 
ATOM     33  C   UNL     1    -107.485  -0.169  74.726  1.00  0.00     0.012 A 
ATOM     34  C   UNL     1    -109.478  -1.324  73.971  1.00  0.00     0.012 A 
ATOM     35  C   UNL     1    -108.051   1.050  74.342  1.00  0.00     0.001 A 
ATOM     36  C   UNL     1    -110.039  -0.101  73.590  1.00  0.00     0.001 A 
ATOM     37  C   UNL     1    -109.325   1.084  73.772  1.00  0.00     0.000 A 
ENDBRANCH  25  32
ENDBRANCH   1  17
TORSDOF 9
ENDMDL
MODEL 5
REMARK VINA RESULT:    -6.672      6.216      7.993
REMARK INTER + INTRA:         -10.651
REMARK INTER:                  -9.724
REMARK INTRA:                  -0.927
REMARK UNBOUND:                -1.444
REMARK SMILES O=C([O-])[C@@H]1O[C@@H](Oc2cc3oc(-c4ccccc4)cc(=O)c3c(O)c2O)[C@@H](O)[C@@H](O)[C@H]1O
REMARK SMILES IDX 7 1 6 2 4 3 31 4 5 5 29 6 27 7 2 8 1 9 3 10 32 11 30 13
REMARK SMILES IDX 28 15 8 17 25 18 9 19 23 20 10 21 22 22 11 23 20 24 12 25
REMARK SMILES IDX 19 26 21 27 26 28 24 30 13 32 14 33 18 34 15 35 17 36 16 37
REMARK H PARENT 32 12 30 14 28 16 26 29 24 31
REMARK Flexibility Score: inf
ROOT
ATOM      1  O   UNL     1    -106.932  -5.528  74.937  1.00  0.00    -0.458 OA
ENDROOT
BRANCH   1   2
ATOM      2  C   UNL     1    -106.819  -4.101  74.985  1.00  0.00     0.339 C 
ATOM      3  C   UNL     1    -109.126  -3.792  75.323  1.00  0.00     0.199 C 
ATOM      4  C   UNL     1    -109.326  -3.151  73.928  1.00  0.00     0.180 C 
ATOM      5  O   UNL     1    -107.821  -3.529  75.814  1.00  0.00    -0.328 OA
ATOM      6  C   UNL     1    -108.264  -3.668  72.940  1.00  0.00     0.181 C 
ATOM      7  C   UNL     1    -106.866  -3.505  73.564  1.00  0.00     0.214 C 
BRANCH   3   8
ATOM      8  C   UNL     1    -110.124  -3.237  76.294  1.00  0.00     0.073 C 
ATOM      9  O   UNL     1    -109.805  -2.292  77.064  1.00  0.00    -0.547 OA
ATOM     10  O   UNL     1    -111.418  -3.742  76.327  1.00  0.00    -0.547 OA
ENDBRANCH   3   8
BRANCH   4  11
ATOM     11  O   UNL     1    -110.623  -3.368  73.429  1.00  0.00    -0.387 OA
ATOM     12  H   UNL     1    -111.174  -2.573  73.652  1.00  0.00     0.211 HD
ENDBRANCH   4  11
BRANCH   6  13
ATOM     13  O   UNL     1    -108.489  -5.022  72.631  1.00  0.00    -0.387 OA
ATOM     14  H   UNL     1    -109.404  -5.244  72.945  1.00  0.00     0.211 HD
ENDBRANCH   6  13
BRANCH   7  15
ATOM     15  O   UNL     1    -105.893  -4.121  72.761  1.00  0.00    -0.384 OA
ATOM     16  H   UNL     1    -106.252  -5.012  72.510  1.00  0.00     0.211 HD
ENDBRANCH   7  15
ENDBRANCH   1   2
BRANCH   1  17
ATOM     17  C   UNL     1    -107.286  -6.393  75.989  1.00  0.00     0.172 A 
ATOM     18  C   UNL     1    -106.434  -6.722  77.074  1.00  0.00     0.201 A 
ATOM     19  C   UNL     1    -108.564  -6.947  75.924  1.00  0.00     0.098 A 
ATOM     20  C   UNL     1    -106.906  -7.582  78.103  1.00  0.00     0.176 A 
ATOM     21  C   UNL     1    -109.031  -7.804  76.917  1.00  0.00     0.146 A 
ATOM     22  C   UNL     1    -108.210  -8.132  78.017  1.00  0.00     0.111 A 
ATOM     23  O   UNL     1    -110.259  -8.302  76.813  1.00  0.00    -0.456 OA
ATOM     24  C   UNL     1    -108.751  -8.997  78.995  1.00  0.00     0.197 A 
ATOM     25  C   UNL     1    -110.795  -9.125  77.711  1.00  0.00     0.138 A 
ATOM     26  C   UNL     1    -110.046  -9.491  78.840  1.00  0.00     0.100 A 
ATOM     27  O   UNL     1    -108.091  -9.335  80.014  1.00  0.00    -0.289 OA
BRANCH  18  28
ATOM     28  O   UNL     1    -105.137  -6.210  77.098  1.00  0.00    -0.502 OA
ATOM     29  H   UNL     1    -104.334  -6.683  77.481  1.00  0.00     0.293 HD
ENDBRANCH  18  28
BRANCH  20  30
ATOM     30  O   UNL     1    -106.113  -7.901  79.210  1.00  0.00    -0.504 OA
ATOM     31  H   UNL     1    -105.577  -8.749  79.314  1.00  0.00     0.293 HD
ENDBRANCH  20  30
BRANCH  25  32
ATOM     32  C   UNL     1    -112.181  -9.613  77.492  1.00  0.00     0.017 A 
ATOM     33  C   UNL     1    -112.621 -10.060  76.229  1.00  0.00     0.012 A 
ATOM     34  C   UNL     1    -113.093  -9.610  78.564  1.00  0.00     0.012 A 
ATOM     35  C   UNL     1    -113.932 -10.512  76.055  1.00  0.00     0.001 A 
ATOM     36  C   UNL     1    -114.404 -10.063  78.383  1.00  0.00     0.001 A 
ATOM     37  C   UNL     1    -114.822 -10.516  77.131  1.00  0.00     0.000 A 
ENDBRANCH  25  32
ENDBRANCH   1  17
TORSDOF 9
ENDMDL
MODEL 6
REMARK VINA RESULT:    -6.657      1.185      2.690
REMARK INTER + INTRA:         -10.630
REMARK INTER:                  -9.210
REMARK INTRA:                  -1.420
REMARK UNBOUND:                -1.444
REMARK SMILES O=C([O-])[C@@H]1O[C@@H](Oc2cc3oc(-c4ccccc4)cc(=O)c3c(O)c2O)[C@@H](O)[C@@H](O)[C@H]1O
REMARK SMILES IDX 7 1 6 2 4 3 31 4 5 5 29 6 27 7 2 8 1 9 3 10 32 11 30 13
REMARK SMILES IDX 28 15 8 17 25 18 9 19 23 20 10 21 22 22 11 23 20 24 12 25
REMARK SMILES IDX 19 26 21 27 26 28 24 30 13 32 14 33 18 34 15 35 17 36 16 37
REMARK H PARENT 32 12 30 14 28 16 26 29 24 31
REMARK Flexibility Score: inf
ROOT
ATOM      1  O   UNL     1    -110.854  -0.582  77.119  1.00  0.00    -0.458 OA
ENDROOT
BRANCH   1   2
ATOM      2  C   UNL     1    -110.415   0.332  76.109  1.00  0.00     0.339 C 
ATOM      3  C   UNL     1    -109.963  -1.379  74.560  1.00  0.00     0.199 C 
ATOM      4  C   UNL     1    -108.435  -1.142  74.623  1.00  0.00     0.180 C 
ATOM      5  O   UNL     1    -110.669  -0.172  74.805  1.00  0.00    -0.328 OA
ATOM      6  C   UNL     1    -108.036  -0.553  75.988  1.00  0.00     0.181 C 
ATOM      7  C   UNL     1    -108.922   0.669  76.294  1.00  0.00     0.214 C 
BRANCH   3   8
ATOM      8  C   UNL     1    -110.351  -1.893  73.206  1.00  0.00     0.073 C 
ATOM      9  O   UNL     1    -109.974  -3.033  72.825  1.00  0.00    -0.547 OA
ATOM     10  O   UNL     1    -111.158  -1.124  72.375  1.00  0.00    -0.547 OA
ENDBRANCH   3   8
BRANCH   4  11
ATOM     11  O   UNL     1    -107.708  -2.315  74.351  1.00  0.00    -0.387 OA
ATOM     12  H   UNL     1    -106.743  -2.082  74.337  1.00  0.00     0.211 HD
ENDBRANCH   4  11
BRANCH   6  13
ATOM     13  O   UNL     1    -108.186  -1.512  77.007  1.00  0.00    -0.387 OA
ATOM     14  H   UNL     1    -108.273  -2.395  76.563  1.00  0.00     0.211 HD
ENDBRANCH   6  13
BRANCH   7  15
ATOM     15  O   UNL     1    -108.699   1.124  77.603  1.00  0.00    -0.384 OA
ATOM     16  H   UNL     1    -108.113   0.455  78.042  1.00  0.00     0.211 HD
ENDBRANCH   7  15
ENDBRANCH   1   2
BRANCH   1  17
ATOM     17  C   UNL     1    -111.937  -0.422  78.005  1.00  0.00     0.172 A 
ATOM     18  C   UNL     1    -111.861   0.264  79.243  1.00  0.00     0.201 A 
ATOM     19  C   UNL     1    -113.145  -0.993  77.606  1.00  0.00     0.098 A 
ATOM     20  C   UNL     1    -113.027   0.396  80.046  1.00  0.00     0.176 A 
ATOM     21  C   UNL     1    -114.289  -0.884  78.393  1.00  0.00     0.146 A 
ATOM     22  C   UNL     1    -114.245  -0.190  79.620  1.00  0.00     0.111 A 
ATOM     23  O   UNL     1    -115.418  -1.441  77.966  1.00  0.00    -0.456 OA
ATOM     24  C   UNL     1    -115.445  -0.107  80.362  1.00  0.00     0.197 A 
ATOM     25  C   UNL     1    -116.562  -1.389  78.644  1.00  0.00     0.138 A 
ATOM     26  C   UNL     1    -116.604  -0.707  79.870  1.00  0.00     0.100 A 
ATOM     27  O   UNL     1    -115.499   0.501  81.464  1.00  0.00    -0.289 OA
BRANCH  18  28
ATOM     28  O   UNL     1    -110.633   0.780  79.660  1.00  0.00    -0.502 OA
ATOM     29  H   UNL     1    -109.733   0.481  79.319  1.00  0.00     0.293 HD
ENDBRANCH  18  28
BRANCH  20  30
ATOM     30  O   UNL     1    -113.005   1.100  81.256  1.00  0.00    -0.504 OA
ATOM     31  H   UNL     1    -112.776   2.077  81.353  1.00  0.00     0.293 HD
ENDBRANCH  20  30
BRANCH  25  32
ATOM     32  C   UNL     1    -117.764  -2.043  78.065  1.00  0.00     0.017 A 
ATOM     33  C   UNL     1    -118.879  -2.383  78.858  1.00  0.00     0.012 A 
ATOM     34  C   UNL     1    -117.789  -2.357  76.693  1.00  0.00     0.012 A 
ATOM     35  C   UNL     1    -119.995  -3.000  78.284  1.00  0.00     0.001 A 
ATOM     36  C   UNL     1    -118.908  -2.974  76.126  1.00  0.00     0.001 A 
ATOM     37  C   UNL     1    -120.010  -3.293  76.919  1.00  0.00     0.000 A 
ENDBRANCH  25  32
ENDBRANCH   1  17
TORSDOF 9
ENDMDL
MODEL 7
REMARK VINA RESULT:    -6.558      4.743      6.358
REMARK INTER + INTRA:         -10.494
REMARK INTER:                  -9.178
REMARK INTRA:                  -1.316
REMARK UNBOUND:                -1.444
REMARK SMILES O=C([O-])[C@@H]1O[C@@H](Oc2cc3oc(-c4ccccc4)cc(=O)c3c(O)c2O)[C@@H](O)[C@@H](O)[C@H]1O
REMARK SMILES IDX 7 1 6 2 4 3 31 4 5 5 29 6 27 7 2 8 1 9 3 10 32 11 30 13
REMARK SMILES IDX 28 15 8 17 25 18 9 19 23 20 10 21 22 22 11 23 20 24 12 25
REMARK SMILES IDX 19 26 21 27 26 28 24 30 13 32 14 33 18 34 15 35 17 36 16 37
REMARK H PARENT 32 12 30 14 28 16 26 29 24 31
REMARK Flexibility Score: inf
ROOT
ATOM      1  O   UNL     1    -107.354  -5.106  75.370  1.00  0.00    -0.458 OA
ENDROOT
BRANCH   1   2
ATOM      2  C   UNL     1    -106.204  -4.474  75.942  1.00  0.00     0.339 C 
ATOM      3  C   UNL     1    -106.085  -2.845  74.251  1.00  0.00     0.199 C 
ATOM      4  C   UNL     1    -104.766  -3.421  73.678  1.00  0.00     0.180 C 
ATOM      5  O   UNL     1    -106.173  -3.084  75.647  1.00  0.00    -0.328 OA
ATOM      6  C   UNL     1    -104.664  -4.928  73.974  1.00  0.00     0.181 C 
ATOM      7  C   UNL     1    -104.912  -5.171  75.474  1.00  0.00     0.214 C 
BRANCH   3   8
ATOM      8  C   UNL     1    -106.147  -1.365  74.015  1.00  0.00     0.073 C 
ATOM      9  O   UNL     1    -107.165  -0.708  74.359  1.00  0.00    -0.547 OA
ATOM     10  O   UNL     1    -105.066  -0.706  73.442  1.00  0.00    -0.547 OA
ENDBRANCH   3   8
BRANCH   4  11
ATOM     11  O   UNL     1    -104.635  -3.168  72.301  1.00  0.00    -0.387 OA
ATOM     12  H   UNL     1    -105.383  -2.576  72.025  1.00  0.00     0.211 HD
ENDBRANCH   4  11
BRANCH   6  13
ATOM     13  O   UNL     1    -105.605  -5.648  73.215  1.00  0.00    -0.387 OA
ATOM     14  H   UNL     1    -106.413  -5.079  73.138  1.00  0.00     0.211 HD
ENDBRANCH   6  13
BRANCH   7  15
ATOM     15  O   UNL     1    -104.993  -6.547  75.743  1.00  0.00    -0.384 OA
ATOM     16  H   UNL     1    -105.134  -7.001  74.871  1.00  0.00     0.211 HD
ENDBRANCH   7  15
ENDBRANCH   1   2
BRANCH   1  17
ATOM     17  C   UNL     1    -108.419  -5.724  76.052  1.00  0.00     0.172 A 
ATOM     18  C   UNL     1    -108.407  -7.069  76.500  1.00  0.00     0.201 A 
ATOM     19  C   UNL     1    -109.543  -4.931  76.283  1.00  0.00     0.098 A 
ATOM     20  C   UNL     1    -109.526  -7.583  77.211  1.00  0.00     0.176 A 
ATOM     21  C   UNL     1    -110.650  -5.429  76.963  1.00  0.00     0.146 A 
ATOM     22  C   UNL     1    -110.656  -6.758  77.436  1.00  0.00     0.111 A 
ATOM     23  O   UNL     1    -111.696  -4.632  77.162  1.00  0.00    -0.456 OA
ATOM     24  C   UNL     1    -111.807  -7.195  78.130  1.00  0.00     0.197 A 
ATOM     25  C   UNL     1    -112.797  -5.014  77.803  1.00  0.00     0.138 A 
ATOM     26  C   UNL     1    -112.877  -6.319  78.313  1.00  0.00     0.100 A 
ATOM     27  O   UNL     1    -111.895  -8.364  78.593  1.00  0.00    -0.289 OA
BRANCH  18  28
ATOM     28  O   UNL     1    -107.302  -7.871  76.213  1.00  0.00    -0.502 OA
ATOM     29  H   UNL     1    -107.339  -8.856  76.002  1.00  0.00     0.293 HD
ENDBRANCH  18  28
BRANCH  20  30
ATOM     30  O   UNL     1    -109.539  -8.893  77.705  1.00  0.00    -0.504 OA
ATOM     31  H   UNL     1    -108.727  -9.399  78.023  1.00  0.00     0.293 HD
ENDBRANCH  20  30
BRANCH  25  32
ATOM     32  C   UNL     1    -113.900  -4.034  77.972  1.00  0.00     0.017 A 
ATOM     33  C   UNL     1    -114.290  -3.565  79.244  1.00  0.00     0.012 A 
ATOM     34  C   UNL     1    -114.597  -3.573  76.840  1.00  0.00     0.012 A 
ATOM     35  C   UNL     1    -115.333  -2.644  79.371  1.00  0.00     0.001 A 
ATOM     36  C   UNL     1    -115.640  -2.651  76.973  1.00  0.00     0.001 A 
ATOM     37  C   UNL     1    -116.006  -2.185  78.236  1.00  0.00     0.000 A 
ENDBRANCH  25  32
ENDBRANCH   1  17
TORSDOF 9
ENDMDL
MODEL 8
REMARK VINA RESULT:    -6.514      4.878      5.892
REMARK INTER + INTRA:         -10.432
REMARK INTER:                  -9.201
REMARK INTRA:                  -1.232
REMARK UNBOUND:                -1.444
REMARK SMILES O=C([O-])[C@@H]1O[C@@H](Oc2cc3oc(-c4ccccc4)cc(=O)c3c(O)c2O)[C@@H](O)[C@@H](O)[C@H]1O
REMARK SMILES IDX 7 1 6 2 4 3 31 4 5 5 29 6 27 7 2 8 1 9 3 10 32 11 30 13
REMARK SMILES IDX 28 15 8 17 25 18 9 19 23 20 10 21 22 22 11 23 20 24 12 25
REMARK SMILES IDX 19 26 21 27 26 28 24 30 13 32 14 33 18 34 15 35 17 36 16 37
REMARK H PARENT 32 12 30 14 28 16 26 29 24 31
REMARK Flexibility Score: inf
ROOT
ATOM      1  O   UNL     1    -107.554  -4.609  75.456  1.00  0.00    -0.458 OA
ENDROOT
BRANCH   1   2
ATOM      2  C   UNL     1    -106.256  -4.244  75.936  1.00  0.00     0.339 C 
ATOM      3  C   UNL     1    -105.864  -2.755  74.158  1.00  0.00     0.199 C 
ATOM      4  C   UNL     1    -104.754  -3.646  73.551  1.00  0.00     0.180 C 
ATOM      5  O   UNL     1    -105.920  -2.913  75.568  1.00  0.00    -0.328 OA
ATOM      6  C   UNL     1    -104.987  -5.123  73.918  1.00  0.00     0.181 C 
ATOM      7  C   UNL     1    -105.193  -5.243  75.439  1.00  0.00     0.214 C 
BRANCH   3   8
ATOM      8  C   UNL     1    -105.595  -1.312  73.850  1.00  0.00     0.073 C 
ATOM      9  O   UNL     1    -106.421  -0.423  74.189  1.00  0.00    -0.547 OA
ATOM     10  O   UNL     1    -104.415  -0.946  73.214  1.00  0.00    -0.547 OA
ENDBRANCH   3   8
BRANCH   4  11
ATOM     11  O   UNL     1    -104.653  -3.485  72.157  1.00  0.00    -0.387 OA
ATOM     12  H   UNL     1    -105.572  -3.452  71.784  1.00  0.00     0.211 HD
ENDBRANCH   4  11
BRANCH   6  13
ATOM     13  O   UNL     1    -106.115  -5.630  73.246  1.00  0.00    -0.387 OA
ATOM     14  H   UNL     1    -106.849  -5.685  73.911  1.00  0.00     0.211 HD
ENDBRANCH   6  13
BRANCH   7  15
ATOM     15  O   UNL     1    -105.575  -6.550  75.783  1.00  0.00    -0.384 OA
ATOM     16  H   UNL     1    -104.767  -6.999  76.142  1.00  0.00     0.211 HD
ENDBRANCH   7  15
ENDBRANCH   1   2
BRANCH   1  17
ATOM     17  C   UNL     1    -108.797  -4.326  76.053  1.00  0.00     0.172 A 
ATOM     18  C   UNL     1    -109.232  -3.026  76.416  1.00  0.00     0.201 A 
ATOM     19  C   UNL     1    -109.627  -5.421  76.291  1.00  0.00     0.098 A 
ATOM     20  C   UNL     1    -110.524  -2.850  76.984  1.00  0.00     0.176 A 
ATOM     21  C   UNL     1    -110.887  -5.262  76.862  1.00  0.00     0.146 A 
ATOM     22  C   UNL     1    -111.351  -3.977  77.215  1.00  0.00     0.111 A 
ATOM     23  O   UNL     1    -111.643  -6.337  77.064  1.00  0.00    -0.456 OA
ATOM     24  C   UNL     1    -112.644  -3.886  77.778  1.00  0.00     0.197 A 
ATOM     25  C   UNL     1    -112.860  -6.288  77.600  1.00  0.00     0.138 A 
ATOM     26  C   UNL     1    -113.397  -5.044  77.968  1.00  0.00     0.100 A 
ATOM     27  O   UNL     1    -113.141  -2.778  78.114  1.00  0.00    -0.289 OA
BRANCH  18  28
ATOM     28  O   UNL     1    -108.371  -1.945  76.228  1.00  0.00    -0.502 OA
ATOM     29  H   UNL     1    -107.366  -1.986  76.294  1.00  0.00     0.293 HD
ENDBRANCH  18  28
BRANCH  20  30
ATOM     30  O   UNL     1    -111.007  -1.580  77.319  1.00  0.00    -0.504 OA
ATOM     31  H   UNL     1    -111.606  -1.016  76.737  1.00  0.00     0.293 HD
ENDBRANCH  20  30
BRANCH  25  32
ATOM     32  C   UNL     1    -113.615  -7.555  77.772  1.00  0.00     0.017 A 
ATOM     33  C   UNL     1    -114.426  -7.789  78.902  1.00  0.00     0.012 A 
ATOM     34  C   UNL     1    -113.506  -8.564  76.797  1.00  0.00     0.012 A 
ATOM     35  C   UNL     1    -115.123  -8.993  79.036  1.00  0.00     0.001 A 
ATOM     36  C   UNL     1    -114.206  -9.766  76.937  1.00  0.00     0.001 A 
ATOM     37  C   UNL     1    -115.015  -9.980  78.054  1.00  0.00     0.000 A 
ENDBRANCH  25  32
ENDBRANCH   1  17
TORSDOF 9
ENDMDL
MODEL 9
REMARK VINA RESULT:    -6.513      4.238      6.601
REMARK INTER + INTRA:         -10.431
REMARK INTER:                  -9.303
REMARK INTRA:                  -1.128
REMARK UNBOUND:                -1.444
REMARK SMILES O=C([O-])[C@@H]1O[C@@H](Oc2cc3oc(-c4ccccc4)cc(=O)c3c(O)c2O)[C@@H](O)[C@@H](O)[C@H]1O
REMARK SMILES IDX 7 1 6 2 4 3 31 4 5 5 29 6 27 7 2 8 1 9 3 10 32 11 30 13
REMARK SMILES IDX 28 15 8 17 25 18 9 19 23 20 10 21 22 22 11 23 20 24 12 25
REMARK SMILES IDX 19 26 21 27 26 28 24 30 13 32 14 33 18 34 15 35 17 36 16 37
REMARK H PARENT 32 12 30 14 28 16 26 29 24 31
REMARK Flexibility Score: inf
ROOT
ATOM      1  O   UNL     1    -107.719  -4.157  74.896  1.00  0.00    -0.458 OA
ENDROOT
BRANCH   1   2
ATOM      2  C   UNL     1    -106.530  -4.023  75.683  1.00  0.00     0.339 C 
ATOM      3  C   UNL     1    -105.424  -2.747  74.046  1.00  0.00     0.199 C 
ATOM      4  C   UNL     1    -104.404  -3.872  73.745  1.00  0.00     0.180 C 
ATOM      5  O   UNL     1    -105.853  -2.806  75.398  1.00  0.00    -0.328 OA
ATOM      6  C   UNL     1    -105.013  -5.251  74.057  1.00  0.00     0.181 C 
ATOM      7  C   UNL     1    -105.603  -5.237  75.479  1.00  0.00     0.214 C 
BRANCH   3   8
ATOM      8  C   UNL     1    -104.802  -1.405  73.801  1.00  0.00     0.073 C 
ATOM      9  O   UNL     1    -104.368  -0.719  74.764  1.00  0.00    -0.547 OA
ATOM     10  O   UNL     1    -104.672  -0.926  72.503  1.00  0.00    -0.547 OA
ENDBRANCH   3   8
BRANCH   4  11
ATOM     11  O   UNL     1    -103.935  -3.817  72.420  1.00  0.00    -0.387 OA
ATOM     12  H   UNL     1    -102.952  -3.685  72.447  1.00  0.00     0.211 HD
ENDBRANCH   4  11
BRANCH   6  13
ATOM     13  O   UNL     1    -106.022  -5.569  73.129  1.00  0.00    -0.387 OA
ATOM     14  H   UNL     1    -106.010  -4.862  72.433  1.00  0.00     0.211 HD
ENDBRANCH   6  13
BRANCH   7  15
ATOM     15  O   UNL     1    -106.314  -6.422  75.728  1.00  0.00    -0.384 OA
ATOM     16  H   UNL     1    -106.595  -6.391  76.680  1.00  0.00     0.211 HD
ENDBRANCH   7  15
ENDBRANCH   1   2
BRANCH   1  17
ATOM     17  C   UNL     1    -108.889  -3.379  74.975  1.00  0.00     0.172 A 
ATOM     18  C   UNL     1    -109.813  -3.216  73.913  1.00  0.00     0.201 A 
ATOM     19  C   UNL     1    -109.119  -2.738  76.192  1.00  0.00     0.098 A 
ATOM     20  C   UNL     1    -110.983  -2.433  74.112  1.00  0.00     0.176 A 
ATOM     21  C   UNL     1    -110.252  -1.954  76.393  1.00  0.00     0.146 A 
ATOM     22  C   UNL     1    -111.197  -1.793  75.358  1.00  0.00     0.111 A 
ATOM     23  O   UNL     1    -110.429  -1.368  77.573  1.00  0.00    -0.456 OA
ATOM     24  C   UNL     1    -112.331  -0.995  75.633  1.00  0.00     0.197 A 
ATOM     25  C   UNL     1    -111.479  -0.604  77.862  1.00  0.00     0.138 A 
ATOM     26  C   UNL     1    -112.470  -0.402  76.888  1.00  0.00     0.100 A 
ATOM     27  O   UNL     1    -113.229  -0.804  74.770  1.00  0.00    -0.289 OA
BRANCH  18  28
ATOM     28  O   UNL     1    -109.544  -3.815  72.681  1.00  0.00    -0.502 OA
ATOM     29  H   UNL     1    -109.304  -3.319  71.836  1.00  0.00     0.293 HD
ENDBRANCH  18  28
BRANCH  20  30
ATOM     30  O   UNL     1    -111.940  -2.280  73.102  1.00  0.00    -0.504 OA
ATOM     31  H   UNL     1    -112.892  -2.610  73.153  1.00  0.00     0.293 HD
ENDBRANCH  20  30
BRANCH  25  32
ATOM     32  C   UNL     1    -111.574  -0.005  79.217  1.00  0.00     0.017 A 
ATOM     33  C   UNL     1    -110.427   0.258  79.995  1.00  0.00     0.012 A 
ATOM     34  C   UNL     1    -112.839   0.289  79.758  1.00  0.00     0.012 A 
ATOM     35  C   UNL     1    -110.549   0.821  81.269  1.00  0.00     0.001 A 
ATOM     36  C   UNL     1    -112.954   0.851  81.033  1.00  0.00     0.001 A 
ATOM     37  C   UNL     1    -111.811   1.119  81.787  1.00  0.00     0.000 A 
ENDBRANCH  25  32
ENDBRANCH   1  17
TORSDOF 9
ENDMDL
