MODEL 1
REMARK VINA RESULT:    -5.527      0.000      0.000
REMARK INTER + INTRA:         -20.141
REMARK INTER:                 -14.575
REMARK INTRA:                  -5.566
REMARK UNBOUND:                -5.566
REMARK SMILES CCCCCCCCCCCCCCCCCCCCCCCCCCCCCC(=O)[O-]
REMARK SMILES IDX 16 1 17 2 18 3 19 4 20 5 21 6 22 7 23 8 24 9 25 10 26 11
REMARK SMILES IDX 27 12 28 13 29 14 30 15 31 16 32 17 15 18 14 19 13 20 12 21
REMARK SMILES IDX 11 22 10 23 9 24 8 25 7 26 6 27 5 28 4 29 3 30 2 31 1 32
REMARK H PARENT
REMARK Flexibility Score: inf
ROOT
ATOM      1  C   UNL     1     221.359 -10.555  25.788  1.00  0.00     0.000 C 
ENDROOT
BRANCH   1   2
ATOM      2  C   UNL     1     222.661 -10.945  26.521  1.00  0.00     0.000 C 
BRANCH   2   3
ATOM      3  C   UNL     1     222.585 -10.648  28.029  1.00  0.00     0.000 C 
BRANCH   3   4
ATOM      4  C   UNL     1     221.342  -9.830  28.414  1.00  0.00     0.000 C 
BRANCH   4   5
ATOM      5  C   UNL     1     221.700  -8.505  29.104  1.00  0.00     0.000 C 
BRANCH   5   6
ATOM      6  C   UNL     1     222.211  -7.468  28.091  1.00  0.00     0.000 C 
BRANCH   6   7
ATOM      7  C   UNL     1     223.745  -7.377  28.069  1.00  0.00     0.000 C 
BRANCH   7   8
ATOM      8  C   UNL     1     224.296  -6.421  29.137  1.00  0.00     0.000 C 
BRANCH   8   9
ATOM      9  C   UNL     1     225.405  -7.095  29.954  1.00  0.00     0.000 C 
BRANCH   9  10
ATOM     10  C   UNL     1     225.098  -8.583  30.180  1.00  0.00     0.000 C 
BRANCH  10  11
ATOM     11  C   UNL     1     224.973  -8.934  31.672  1.00  0.00     0.000 C 
BRANCH  11  12
ATOM     12  C   UNL     1     223.531  -8.786  32.185  1.00  0.00     0.000 C 
BRANCH  12  13
ATOM     13  C   UNL     1     222.776 -10.124  32.235  1.00  0.00     0.006 C 
BRANCH  13  14
ATOM     14  C   UNL     1     223.638 -11.311  31.784  1.00  0.00     0.053 C 
BRANCH  14  15
ATOM     15  C   UNL     1     223.490 -12.453  32.739  1.00  0.00     0.041 C 
ATOM     16  O   UNL     1     224.152 -12.472  33.811  1.00  0.00    -0.550 OA
ATOM     17  O   UNL     1     222.576 -13.465  32.476  1.00  0.00    -0.550 OA
ENDBRANCH  14  15
ENDBRANCH  13  14
ENDBRANCH  12  13
ENDBRANCH  11  12
ENDBRANCH  10  11
ENDBRANCH   9  10
ENDBRANCH   8   9
ENDBRANCH   7   8
ENDBRANCH   6   7
ENDBRANCH   5   6
ENDBRANCH   4   5
ENDBRANCH   3   4
ENDBRANCH   2   3
ENDBRANCH   1   2
BRANCH   1  18
ATOM     18  C   UNL     1     221.594  -9.850  24.441  1.00  0.00     0.000 C 
BRANCH  18  19
ATOM     19  C   UNL     1     221.646  -8.317  24.565  1.00  0.00     0.000 C 
BRANCH  19  20
ATOM     20  C   UNL     1     221.189  -7.595  23.281  1.00  0.00     0.000 C 
BRANCH  20  21
ATOM     21  C   UNL     1     221.446  -8.390  21.985  1.00  0.00     0.000 C 
BRANCH  21  22
ATOM     22  C   UNL     1     220.198  -8.687  21.135  1.00  0.00     0.000 C 
BRANCH  22  23
ATOM     23  C   UNL     1     218.867  -8.713  21.911  1.00  0.00     0.000 C 
BRANCH  23  24
ATOM     24  C   UNL     1     218.437 -10.131  22.318  1.00  0.00    -0.000 C 
BRANCH  24  25
ATOM     25  C   UNL     1     218.011 -10.172  23.792  1.00  0.00    -0.000 C 
BRANCH  25  26
ATOM     26  C   UNL     1     217.894  -8.776  24.424  1.00  0.00    -0.000 C 
BRANCH  26  27
ATOM     27  C   UNL     1     218.084  -8.767  25.955  1.00  0.00    -0.000 C 
BRANCH  27  28
ATOM     28  C   UNL     1     218.554  -7.396  26.473  1.00  0.00    -0.000 C 
BRANCH  28  29
ATOM     29  C   UNL     1     218.478  -7.281  28.005  1.00  0.00    -0.000 C 
BRANCH  29  30
ATOM     30  C   UNL     1     217.887  -8.542  28.659  1.00  0.00    -0.000 C 
BRANCH  30  31
ATOM     31  C   UNL     1     217.868  -8.458  30.195  1.00  0.00    -0.003 C 
ATOM     32  C   UNL     1     218.710  -9.547  30.858  1.00  0.00     0.004 C 
ENDBRANCH  30  31
ENDBRANCH  29  30
ENDBRANCH  28  29
ENDBRANCH  27  28
ENDBRANCH  26  27
ENDBRANCH  25  26
ENDBRANCH  24  25
ENDBRANCH  23  24
ENDBRANCH  22  23
ENDBRANCH  21  22
ENDBRANCH  20  21
ENDBRANCH  19  20
ENDBRANCH  18  19
ENDBRANCH   1  18
TORSDOF 28
ENDMDL
MODEL 2
REMARK VINA RESULT:    -5.520      2.920      7.698
REMARK INTER + INTRA:         -20.121
REMARK INTER:                 -15.836
REMARK INTRA:                  -4.285
REMARK UNBOUND:                -5.566
REMARK SMILES CCCCCCCCCCCCCCCCCCCCCCCCCCCCCC(=O)[O-]
REMARK SMILES IDX 16 1 17 2 18 3 19 4 20 5 21 6 22 7 23 8 24 9 25 10 26 11
REMARK SMILES IDX 27 12 28 13 29 14 30 15 31 16 32 17 15 18 14 19 13 20 12 21
REMARK SMILES IDX 11 22 10 23 9 24 8 25 7 26 6 27 5 28 4 29 3 30 2 31 1 32
REMARK H PARENT
REMARK Flexibility Score: inf
ROOT
ATOM      1  C   UNL     1     220.602 -10.773  24.675  1.00  0.00     0.000 C 
ENDROOT
BRANCH   1   2
ATOM      2  C   UNL     1     220.044 -10.067  23.420  1.00  0.00     0.000 C 
BRANCH   2   3
ATOM      3  C   UNL     1     221.021  -9.015  22.867  1.00  0.00     0.000 C 
BRANCH   3   4
ATOM      4  C   UNL     1     220.399  -7.612  22.777  1.00  0.00     0.000 C 
BRANCH   4   5
ATOM      5  C   UNL     1     220.821  -6.705  23.943  1.00  0.00     0.000 C 
BRANCH   5   6
ATOM      6  C   UNL     1     219.699  -6.577  24.986  1.00  0.00     0.000 C 
BRANCH   6   7
ATOM      7  C   UNL     1     218.315  -6.904  24.400  1.00  0.00     0.000 C 
BRANCH   7   8
ATOM      8  C   UNL     1     217.431  -7.693  25.377  1.00  0.00     0.000 C 
BRANCH   8   9
ATOM      9  C   UNL     1     218.288  -8.484  26.373  1.00  0.00     0.000 C 
BRANCH   9  10
ATOM     10  C   UNL     1     217.469  -8.883  27.610  1.00  0.00     0.000 C 
BRANCH  10  11
ATOM     11  C   UNL     1     218.359  -9.172  28.831  1.00  0.00     0.000 C 
BRANCH  11  12
ATOM     12  C   UNL     1     219.214  -7.956  29.227  1.00  0.00     0.000 C 
BRANCH  12  13
ATOM     13  C   UNL     1     220.224  -8.275  30.340  1.00  0.00     0.006 C 
BRANCH  13  14
ATOM     14  C   UNL     1     220.315  -9.776  30.649  1.00  0.00     0.053 C 
BRANCH  14  15
ATOM     15  C   UNL     1     221.354 -10.029  31.695  1.00  0.00     0.041 C 
ATOM     16  O   UNL     1     221.494 -11.182  32.183  1.00  0.00    -0.550 OA
ATOM     17  O   UNL     1     222.210  -9.007  32.087  1.00  0.00    -0.550 OA
ENDBRANCH  14  15
ENDBRANCH  13  14
ENDBRANCH  12  13
ENDBRANCH  11  12
ENDBRANCH  10  11
ENDBRANCH   9  10
ENDBRANCH   8   9
ENDBRANCH   7   8
ENDBRANCH   6   7
ENDBRANCH   5   6
ENDBRANCH   4   5
ENDBRANCH   3   4
ENDBRANCH   2   3
ENDBRANCH   1   2
BRANCH   1  18
ATOM     18  C   UNL     1     221.817 -10.064  25.296  1.00  0.00     0.000 C 
BRANCH  18  19
ATOM     19  C   UNL     1     221.568  -9.601  26.742  1.00  0.00     0.000 C 
BRANCH  19  20
ATOM     20  C   UNL     1     222.282 -10.483  27.787  1.00  0.00     0.000 C 
BRANCH  20  21
ATOM     21  C   UNL     1     223.472  -9.796  28.485  1.00  0.00     0.000 C 
BRANCH  21  22
ATOM     22  C   UNL     1     223.473  -8.258  28.426  1.00  0.00     0.000 C 
BRANCH  22  23
ATOM     23  C   UNL     1     224.144  -7.557  29.622  1.00  0.00     0.000 C 
BRANCH  23  24
ATOM     24  C   UNL     1     225.383  -6.741  29.224  1.00  0.00    -0.000 C 
BRANCH  24  25
ATOM     25  C   UNL     1     225.009  -5.280  28.937  1.00  0.00    -0.000 C 
BRANCH  25  26
ATOM     26  C   UNL     1     226.109  -4.514  28.186  1.00  0.00    -0.000 C 
BRANCH  26  27
ATOM     27  C   UNL     1     227.538  -5.002  28.504  1.00  0.00    -0.000 C 
BRANCH  27  28
ATOM     28  C   UNL     1     228.507  -4.762  27.333  1.00  0.00    -0.000 C 
BRANCH  28  29
ATOM     29  C   UNL     1     228.249  -3.429  26.611  1.00  0.00    -0.000 C 
BRANCH  29  30
ATOM     30  C   UNL     1     229.225  -2.324  27.052  1.00  0.00    -0.000 C 
BRANCH  30  31
ATOM     31  C   UNL     1     228.505  -1.102  27.647  1.00  0.00    -0.003 C 
ATOM     32  C   UNL     1     227.042  -1.010  27.217  1.00  0.00     0.004 C 
ENDBRANCH  30  31
ENDBRANCH  29  30
ENDBRANCH  28  29
ENDBRANCH  27  28
ENDBRANCH  26  27
ENDBRANCH  25  26
ENDBRANCH  24  25
ENDBRANCH  23  24
ENDBRANCH  22  23
ENDBRANCH  21  22
ENDBRANCH  20  21
ENDBRANCH  19  20
ENDBRANCH  18  19
ENDBRANCH   1  18
TORSDOF 28
ENDMDL
MODEL 3
REMARK VINA RESULT:    -5.495      1.769      7.377
REMARK INTER + INTRA:         -20.054
REMARK INTER:                 -14.862
REMARK INTRA:                  -5.193
REMARK UNBOUND:                -5.566
REMARK SMILES CCCCCCCCCCCCCCCCCCCCCCCCCCCCCC(=O)[O-]
REMARK SMILES IDX 16 1 17 2 18 3 19 4 20 5 21 6 22 7 23 8 24 9 25 10 26 11
REMARK SMILES IDX 27 12 28 13 29 14 30 15 31 16 32 17 15 18 14 19 13 20 12 21
REMARK SMILES IDX 11 22 10 23 9 24 8 25 7 26 6 27 5 28 4 29 3 30 2 31 1 32
REMARK H PARENT
REMARK Flexibility Score: inf
ROOT
ATOM      1  C   UNL     1     221.520  -7.904  24.635  1.00  0.00     0.000 C 
ENDROOT
BRANCH   1   2
ATOM      2  C   UNL     1     221.270  -7.564  23.149  1.00  0.00     0.000 C 
BRANCH   2   3
ATOM      3  C   UNL     1     221.696  -8.710  22.215  1.00  0.00     0.000 C 
BRANCH   3   4
ATOM      4  C   UNL     1     220.864  -8.768  20.924  1.00  0.00     0.000 C 
BRANCH   4   5
ATOM      5  C   UNL     1     219.371  -8.501  21.174  1.00  0.00     0.000 C 
BRANCH   5   6
ATOM      6  C   UNL     1     218.689  -9.714  21.825  1.00  0.00     0.000 C 
BRANCH   6   7
ATOM      7  C   UNL     1     217.590  -9.304  22.820  1.00  0.00     0.000 C 
BRANCH   7   8
ATOM      8  C   UNL     1     217.538  -7.786  23.050  1.00  0.00     0.000 C 
BRANCH   8   9
ATOM      9  C   UNL     1     217.833  -7.445  24.515  1.00  0.00     0.000 C 
BRANCH   9  10
ATOM     10  C   UNL     1     217.929  -8.717  25.370  1.00  0.00     0.000 C 
BRANCH  10  11
ATOM     11  C   UNL     1     217.534  -8.468  26.836  1.00  0.00     0.000 C 
BRANCH  11  12
ATOM     12  C   UNL     1     218.212  -7.214  27.414  1.00  0.00     0.000 C 
BRANCH  12  13
ATOM     13  C   UNL     1     218.449  -7.310  28.929  1.00  0.00     0.006 C 
BRANCH  13  14
ATOM     14  C   UNL     1     218.223  -8.725  29.478  1.00  0.00     0.053 C 
BRANCH  14  15
ATOM     15  C   UNL     1     219.166  -9.001  30.606  1.00  0.00     0.041 C 
ATOM     16  O   UNL     1     220.056  -8.162  30.908  1.00  0.00    -0.550 OA
ATOM     17  O   UNL     1     219.024 -10.157  31.365  1.00  0.00    -0.550 OA
ENDBRANCH  14  15
ENDBRANCH  13  14
ENDBRANCH  12  13
ENDBRANCH  11  12
ENDBRANCH  10  11
ENDBRANCH   9  10
ENDBRANCH   8   9
ENDBRANCH   7   8
ENDBRANCH   6   7
ENDBRANCH   5   6
ENDBRANCH   4   5
ENDBRANCH   3   4
ENDBRANCH   2   3
ENDBRANCH   1   2
BRANCH   1  18
ATOM     18  C   UNL     1     221.590  -9.413  24.923  1.00  0.00     0.000 C 
BRANCH  18  19
ATOM     19  C   UNL     1     221.540  -9.742  26.425  1.00  0.00     0.000 C 
BRANCH  19  20
ATOM     20  C   UNL     1     221.550  -8.482  27.315  1.00  0.00     0.000 C 
BRANCH  20  21
ATOM     21  C   UNL     1     222.502  -8.570  28.524  1.00  0.00     0.000 C 
BRANCH  21  22
ATOM     22  C   UNL     1     222.833  -9.996  29.000  1.00  0.00     0.000 C 
BRANCH  22  23
ATOM     23  C   UNL     1     224.308 -10.236  29.372  1.00  0.00     0.000 C 
BRANCH  23  24
ATOM     24  C   UNL     1     225.143  -8.947  29.380  1.00  0.00    -0.000 C 
BRANCH  24  25
ATOM     25  C   UNL     1     225.721  -8.677  30.777  1.00  0.00    -0.000 C 
BRANCH  25  26
ATOM     26  C   UNL     1     225.224  -7.358  31.389  1.00  0.00    -0.000 C 
BRANCH  26  27
ATOM     27  C   UNL     1     224.380  -7.541  32.667  1.00  0.00    -0.000 C 
BRANCH  27  28
ATOM     28  C   UNL     1     223.136  -8.413  32.421  1.00  0.00    -0.000 C 
BRANCH  28  29
ATOM     29  C   UNL     1     223.107  -9.671  33.305  1.00  0.00    -0.000 C 
BRANCH  29  30
ATOM     30  C   UNL     1     222.111 -10.726  32.792  1.00  0.00    -0.000 C 
BRANCH  30  31
ATOM     31  C   UNL     1     222.791 -12.062  32.446  1.00  0.00    -0.003 C 
ATOM     32  C   UNL     1     224.313 -11.999  32.561  1.00  0.00     0.004 C 
ENDBRANCH  30  31
ENDBRANCH  29  30
ENDBRANCH  28  29
ENDBRANCH  27  28
ENDBRANCH  26  27
ENDBRANCH  25  26
ENDBRANCH  24  25
ENDBRANCH  23  24
ENDBRANCH  22  23
ENDBRANCH  21  22
ENDBRANCH  20  21
ENDBRANCH  19  20
ENDBRANCH  18  19
ENDBRANCH   1  18
TORSDOF 28
ENDMDL
MODEL 4
REMARK VINA RESULT:    -5.480      4.339      5.686
REMARK INTER + INTRA:         -20.017
REMARK INTER:                 -16.017
REMARK INTRA:                  -4.000
REMARK UNBOUND:                -5.566
REMARK SMILES CCCCCCCCCCCCCCCCCCCCCCCCCCCCCC(=O)[O-]
REMARK SMILES IDX 16 1 17 2 18 3 19 4 20 5 21 6 22 7 23 8 24 9 25 10 26 11
REMARK SMILES IDX 27 12 28 13 29 14 30 15 31 16 32 17 15 18 14 19 13 20 12 21
REMARK SMILES IDX 11 22 10 23 9 24 8 25 7 26 6 27 5 28 4 29 3 30 2 31 1 32
REMARK H PARENT
REMARK Flexibility Score: inf
ROOT
ATOM      1  C   UNL     1     221.659 -10.469  25.890  1.00  0.00     0.000 C 
ENDROOT
BRANCH   1   2
ATOM      2  C   UNL     1     221.572  -9.484  27.076  1.00  0.00     0.000 C 
BRANCH   2   3
ATOM      3  C   UNL     1     221.832 -10.179  28.424  1.00  0.00     0.000 C 
BRANCH   3   4
ATOM      4  C   UNL     1     222.829  -9.412  29.308  1.00  0.00     0.000 C 
BRANCH   4   5
ATOM      5  C   UNL     1     223.570  -8.308  28.536  1.00  0.00     0.000 C 
BRANCH   5   6
ATOM      6  C   UNL     1     223.357  -6.933  29.188  1.00  0.00     0.000 C 
BRANCH   6   7
ATOM      7  C   UNL     1     224.673  -6.156  29.358  1.00  0.00     0.000 C 
BRANCH   7   8
ATOM      8  C   UNL     1     225.679  -6.444  28.234  1.00  0.00     0.000 C 
BRANCH   8   9
ATOM      9  C   UNL     1     227.104  -6.556  28.790  1.00  0.00     0.000 C 
BRANCH   9  10
ATOM     10  C   UNL     1     227.813  -5.194  28.770  1.00  0.00     0.000 C 
BRANCH  10  11
ATOM     11  C   UNL     1     228.574  -4.950  27.456  1.00  0.00     0.000 C 
BRANCH  11  12
ATOM     12  C   UNL     1     228.052  -3.714  26.704  1.00  0.00     0.000 C 
BRANCH  12  13
ATOM     13  C   UNL     1     228.348  -2.399  27.443  1.00  0.00     0.006 C 
BRANCH  13  14
ATOM     14  C   UNL     1     229.686  -1.772  27.028  1.00  0.00     0.053 C 
BRANCH  14  15
ATOM     15  C   UNL     1     230.649  -1.799  28.172  1.00  0.00     0.041 C 
ATOM     16  O   UNL     1     231.746  -1.184  28.092  1.00  0.00    -0.550 OA
ATOM     17  O   UNL     1     230.311  -2.453  29.351  1.00  0.00    -0.550 OA
ENDBRANCH  14  15
ENDBRANCH  13  14
ENDBRANCH  12  13
ENDBRANCH  11  12
ENDBRANCH  10  11
ENDBRANCH   9  10
ENDBRANCH   8   9
ENDBRANCH   7   8
ENDBRANCH   6   7
ENDBRANCH   5   6
ENDBRANCH   4   5
ENDBRANCH   3   4
ENDBRANCH   2   3
ENDBRANCH   1   2
BRANCH   1  18
ATOM     18  C   UNL     1     221.612  -9.786  24.513  1.00  0.00     0.000 C 
BRANCH  18  19
ATOM     19  C   UNL     1     221.588  -8.250  24.603  1.00  0.00     0.000 C 
BRANCH  19  20
ATOM     20  C   UNL     1     221.215  -7.577  23.266  1.00  0.00     0.000 C 
BRANCH  20  21
ATOM     21  C   UNL     1     221.388  -8.484  22.033  1.00  0.00     0.000 C 
BRANCH  21  22
ATOM     22  C   UNL     1     220.215  -8.476  21.036  1.00  0.00     0.000 C 
BRANCH  22  23
ATOM     23  C   UNL     1     218.824  -8.692  21.661  1.00  0.00     0.000 C 
BRANCH  23  24
ATOM     24  C   UNL     1     218.549 -10.159  22.024  1.00  0.00    -0.000 C 
BRANCH  24  25
ATOM     25  C   UNL     1     217.830 -10.264  23.377  1.00  0.00    -0.000 C 
BRANCH  25  26
ATOM     26  C   UNL     1     217.867  -8.955  24.181  1.00  0.00    -0.000 C 
BRANCH  26  27
ATOM     27  C   UNL     1     218.177  -9.152  25.680  1.00  0.00    -0.000 C 
BRANCH  27  28
ATOM     28  C   UNL     1     217.639  -7.995  26.540  1.00  0.00    -0.000 C 
BRANCH  28  29
ATOM     29  C   UNL     1     218.760  -7.121  27.129  1.00  0.00    -0.000 C 
BRANCH  29  30
ATOM     30  C   UNL     1     218.925  -7.322  28.646  1.00  0.00    -0.000 C 
BRANCH  30  31
ATOM     31  C   UNL     1     218.041  -8.456  29.191  1.00  0.00    -0.003 C 
ATOM     32  C   UNL     1     218.723  -9.256  30.301  1.00  0.00     0.004 C 
ENDBRANCH  30  31
ENDBRANCH  29  30
ENDBRANCH  28  29
ENDBRANCH  27  28
ENDBRANCH  26  27
ENDBRANCH  25  26
ENDBRANCH  24  25
ENDBRANCH  23  24
ENDBRANCH  22  23
ENDBRANCH  21  22
ENDBRANCH  20  21
ENDBRANCH  19  20
ENDBRANCH  18  19
ENDBRANCH   1  18
TORSDOF 28
ENDMDL
MODEL 5
REMARK VINA RESULT:    -5.461      3.249      8.138
REMARK INTER + INTRA:         -19.967
REMARK INTER:                 -14.634
REMARK INTRA:                  -5.333
REMARK UNBOUND:                -5.566
REMARK SMILES CCCCCCCCCCCCCCCCCCCCCCCCCCCCCC(=O)[O-]
REMARK SMILES IDX 16 1 17 2 18 3 19 4 20 5 21 6 22 7 23 8 24 9 25 10 26 11
REMARK SMILES IDX 27 12 28 13 29 14 30 15 31 16 32 17 15 18 14 19 13 20 12 21
REMARK SMILES IDX 11 22 10 23 9 24 8 25 7 26 6 27 5 28 4 29 3 30 2 31 1 32
REMARK H PARENT
REMARK Flexibility Score: inf
ROOT
ATOM      1  C   UNL     1     220.758 -10.108  30.738  1.00  0.00     0.000 C 
ENDROOT
BRANCH   1   2
ATOM      2  C   UNL     1     219.251 -10.225  30.422  1.00  0.00     0.000 C 
BRANCH   2   3
ATOM      3  C   UNL     1     218.531  -8.870  30.529  1.00  0.00     0.000 C 
BRANCH   3   4
ATOM      4  C   UNL     1     218.525  -8.092  29.203  1.00  0.00     0.000 C 
BRANCH   4   5
ATOM      5  C   UNL     1     217.810  -8.855  28.077  1.00  0.00     0.000 C 
BRANCH   5   6
ATOM      6  C   UNL     1     218.508  -8.641  26.726  1.00  0.00     0.000 C 
BRANCH   6   7
ATOM      7  C   UNL     1     217.611  -7.912  25.712  1.00  0.00     0.000 C 
BRANCH   7   8
ATOM      8  C   UNL     1     218.376  -6.857  24.898  1.00  0.00     0.000 C 
BRANCH   8   9
ATOM      9  C   UNL     1     219.853  -6.815  25.307  1.00  0.00     0.000 C 
BRANCH   9  10
ATOM     10  C   UNL     1     220.749  -6.473  24.108  1.00  0.00     0.000 C 
BRANCH  10  11
ATOM     11  C   UNL     1     221.073  -7.707  23.249  1.00  0.00     0.000 C 
BRANCH  11  12
ATOM     12  C   UNL     1     221.265  -8.972  24.102  1.00  0.00     0.000 C 
BRANCH  12  13
ATOM     13  C   UNL     1     220.261 -10.083  23.755  1.00  0.00     0.006 C 
BRANCH  13  14
ATOM     14  C   UNL     1     219.332  -9.704  22.593  1.00  0.00     0.053 C 
BRANCH  14  15
ATOM     15  C   UNL     1     217.932 -10.145  22.882  1.00  0.00     0.041 C 
ATOM     16  O   UNL     1     216.956  -9.443  22.504  1.00  0.00    -0.550 OA
ATOM     17  O   UNL     1     217.702 -11.360  23.515  1.00  0.00    -0.550 OA
ENDBRANCH  14  15
ENDBRANCH  13  14
ENDBRANCH  12  13
ENDBRANCH  11  12
ENDBRANCH  10  11
ENDBRANCH   9  10
ENDBRANCH   8   9
ENDBRANCH   7   8
ENDBRANCH   6   7
ENDBRANCH   5   6
ENDBRANCH   4   5
ENDBRANCH   3   4
ENDBRANCH   2   3
ENDBRANCH   1   2
BRANCH   1  18
ATOM     18  C   UNL     1     221.602 -11.265  30.177  1.00  0.00     0.000 C 
BRANCH  18  19
ATOM     19  C   UNL     1     222.480 -10.846  28.985  1.00  0.00     0.000 C 
BRANCH  19  20
ATOM     20  C   UNL     1     221.676 -10.164  27.859  1.00  0.00     0.000 C 
BRANCH  20  21
ATOM     21  C   UNL     1     222.294  -8.847  27.351  1.00  0.00     0.000 C 
BRANCH  21  22
ATOM     22  C   UNL     1     221.928  -7.590  28.162  1.00  0.00     0.000 C 
BRANCH  22  23
ATOM     23  C   UNL     1     222.936  -7.204  29.261  1.00  0.00     0.000 C 
BRANCH  23  24
ATOM     24  C   UNL     1     224.391  -7.510  28.877  1.00  0.00    -0.000 C 
BRANCH  24  25
ATOM     25  C   UNL     1     225.093  -8.311  29.983  1.00  0.00    -0.000 C 
BRANCH  25  26
ATOM     26  C   UNL     1     224.198  -8.558  31.208  1.00  0.00    -0.000 C 
BRANCH  26  27
ATOM     27  C   UNL     1     224.455  -7.582  32.375  1.00  0.00    -0.000 C 
BRANCH  27  28
ATOM     28  C   UNL     1     225.724  -6.740  32.158  1.00  0.00    -0.000 C 
BRANCH  28  29
ATOM     29  C   UNL     1     225.432  -5.231  32.084  1.00  0.00    -0.000 C 
BRANCH  29  30
ATOM     30  C   UNL     1     226.271  -4.524  31.005  1.00  0.00    -0.000 C 
BRANCH  30  31
ATOM     31  C   UNL     1     225.435  -4.108  29.783  1.00  0.00    -0.003 C 
ATOM     32  C   UNL     1     225.997  -2.878  29.073  1.00  0.00     0.004 C 
ENDBRANCH  30  31
ENDBRANCH  29  30
ENDBRANCH  28  29
ENDBRANCH  27  28
ENDBRANCH  26  27
ENDBRANCH  25  26
ENDBRANCH  24  25
ENDBRANCH  23  24
ENDBRANCH  22  23
ENDBRANCH  21  22
ENDBRANCH  20  21
ENDBRANCH  19  20
ENDBRANCH  18  19
ENDBRANCH   1  18
TORSDOF 28
ENDMDL
MODEL 6
REMARK VINA RESULT:    -5.447      4.150      5.691
REMARK INTER + INTRA:         -19.928
REMARK INTER:                 -15.577
REMARK INTRA:                  -4.351
REMARK UNBOUND:                -5.566
REMARK SMILES CCCCCCCCCCCCCCCCCCCCCCCCCCCCCC(=O)[O-]
REMARK SMILES IDX 16 1 17 2 18 3 19 4 20 5 21 6 22 7 23 8 24 9 25 10 26 11
REMARK SMILES IDX 27 12 28 13 29 14 30 15 31 16 32 17 15 18 14 19 13 20 12 21
REMARK SMILES IDX 11 22 10 23 9 24 8 25 7 26 6 27 5 28 4 29 3 30 2 31 1 32
REMARK H PARENT
REMARK Flexibility Score: inf
ROOT
ATOM      1  C   UNL     1     221.435  -9.712  24.450  1.00  0.00     0.000 C 
ENDROOT
BRANCH   1   2
ATOM      2  C   UNL     1     220.917  -9.780  25.902  1.00  0.00     0.000 C 
BRANCH   2   3
ATOM      3  C   UNL     1     221.955 -10.394  26.858  1.00  0.00     0.000 C 
BRANCH   3   4
ATOM      4  C   UNL     1     222.827  -9.336  27.551  1.00  0.00     0.000 C 
BRANCH   4   5
ATOM      5  C   UNL     1     222.122  -7.975  27.663  1.00  0.00     0.000 C 
BRANCH   5   6
ATOM      6  C   UNL     1     222.674  -7.154  28.839  1.00  0.00     0.000 C 
BRANCH   6   7
ATOM      7  C   UNL     1     223.681  -7.950  29.687  1.00  0.00     0.000 C 
BRANCH   7   8
ATOM      8  C   UNL     1     224.510  -7.051  30.617  1.00  0.00     0.000 C 
BRANCH   8   9
ATOM      9  C   UNL     1     225.698  -6.436  29.868  1.00  0.00     0.000 C 
BRANCH   9  10
ATOM     10  C   UNL     1     225.601  -4.904  29.843  1.00  0.00     0.000 C 
BRANCH  10  11
ATOM     11  C   UNL     1     225.786  -4.329  28.429  1.00  0.00     0.000 C 
BRANCH  11  12
ATOM     12  C   UNL     1     227.098  -3.538  28.292  1.00  0.00     0.000 C 
BRANCH  12  13
ATOM     13  C   UNL     1     227.000  -2.394  27.269  1.00  0.00     0.006 C 
BRANCH  13  14
ATOM     14  C   UNL     1     227.732  -1.124  27.724  1.00  0.00     0.053 C 
BRANCH  14  15
ATOM     15  C   UNL     1     229.179  -1.417  27.964  1.00  0.00     0.041 C 
ATOM     16  O   UNL     1     229.965  -1.570  26.991  1.00  0.00    -0.550 OA
ATOM     17  O   UNL     1     229.673  -1.460  29.262  1.00  0.00    -0.550 OA
ENDBRANCH  14  15
ENDBRANCH  13  14
ENDBRANCH  12  13
ENDBRANCH  11  12
ENDBRANCH  10  11
ENDBRANCH   9  10
ENDBRANCH   8   9
ENDBRANCH   7   8
ENDBRANCH   6   7
ENDBRANCH   5   6
ENDBRANCH   4   5
ENDBRANCH   3   4
ENDBRANCH   2   3
ENDBRANCH   1   2
BRANCH   1  18
ATOM     18  C   UNL     1     221.839  -8.297  24.001  1.00  0.00     0.000 C 
BRANCH  18  19
ATOM     19  C   UNL     1     221.587  -8.047  22.504  1.00  0.00     0.000 C 
BRANCH  19  20
ATOM     20  C   UNL     1     220.555  -9.020  21.898  1.00  0.00     0.000 C 
BRANCH  20  21
ATOM     21  C   UNL     1     219.172  -8.392  21.639  1.00  0.00     0.000 C 
BRANCH  21  22
ATOM     22  C   UNL     1     218.006  -9.013  22.429  1.00  0.00     0.000 C 
BRANCH  22  23
ATOM     23  C   UNL     1     217.312  -8.065  23.426  1.00  0.00     0.000 C 
BRANCH  23  24
ATOM     24  C   UNL     1     218.283  -7.082  24.096  1.00  0.00    -0.000 C 
BRANCH  24  25
ATOM     25  C   UNL     1     218.274  -7.256  25.622  1.00  0.00    -0.000 C 
BRANCH  25  26
ATOM     26  C   UNL     1     217.626  -8.575  26.073  1.00  0.00    -0.000 C 
BRANCH  26  27
ATOM     27  C   UNL     1     217.448  -8.692  27.601  1.00  0.00    -0.000 C 
BRANCH  27  28
ATOM     28  C   UNL     1     218.545  -7.936  28.373  1.00  0.00    -0.000 C 
BRANCH  28  29
ATOM     29  C   UNL     1     218.734  -8.462  29.806  1.00  0.00    -0.000 C 
BRANCH  29  30
ATOM     30  C   UNL     1     219.408  -9.845  29.839  1.00  0.00    -0.000 C 
BRANCH  30  31
ATOM     31  C   UNL     1     220.574  -9.911  30.839  1.00  0.00    -0.003 C 
ATOM     32  C   UNL     1     221.506 -11.095  30.586  1.00  0.00     0.004 C 
ENDBRANCH  30  31
ENDBRANCH  29  30
ENDBRANCH  28  29
ENDBRANCH  27  28
ENDBRANCH  26  27
ENDBRANCH  25  26
ENDBRANCH  24  25
ENDBRANCH  23  24
ENDBRANCH  22  23
ENDBRANCH  21  22
ENDBRANCH  20  21
ENDBRANCH  19  20
ENDBRANCH  18  19
ENDBRANCH   1  18
TORSDOF 28
ENDMDL
MODEL 7
REMARK VINA RESULT:    -5.442      3.640      5.491
REMARK INTER + INTRA:         -19.917
REMARK INTER:                 -15.533
REMARK INTRA:                  -4.384
REMARK UNBOUND:                -5.566
REMARK SMILES CCCCCCCCCCCCCCCCCCCCCCCCCCCCCC(=O)[O-]
REMARK SMILES IDX 16 1 17 2 18 3 19 4 20 5 21 6 22 7 23 8 24 9 25 10 26 11
REMARK SMILES IDX 27 12 28 13 29 14 30 15 31 16 32 17 15 18 14 19 13 20 12 21
REMARK SMILES IDX 11 22 10 23 9 24 8 25 7 26 6 27 5 28 4 29 3 30 2 31 1 32
REMARK H PARENT
REMARK Flexibility Score: inf
ROOT
ATOM      1  C   UNL     1     222.351  -8.752  22.547  1.00  0.00     0.000 C 
ENDROOT
BRANCH   1   2
ATOM      2  C   UNL     1     221.647  -8.488  23.896  1.00  0.00     0.000 C 
BRANCH   2   3
ATOM      3  C   UNL     1     221.356  -9.792  24.660  1.00  0.00     0.000 C 
BRANCH   3   4
ATOM      4  C   UNL     1     221.102  -9.560  26.158  1.00  0.00     0.000 C 
BRANCH   4   5
ATOM      5  C   UNL     1     221.988 -10.445  27.048  1.00  0.00     0.000 C 
BRANCH   5   6
ATOM      6  C   UNL     1     222.865  -9.596  27.982  1.00  0.00     0.000 C 
BRANCH   6   7
ATOM      7  C   UNL     1     222.392  -8.135  28.063  1.00  0.00     0.000 C 
BRANCH   7   8
ATOM      8  C   UNL     1     222.193  -7.658  29.509  1.00  0.00     0.000 C 
BRANCH   8   9
ATOM      9  C   UNL     1     223.537  -7.312  30.161  1.00  0.00     0.000 C 
BRANCH   9  10
ATOM     10  C   UNL     1     224.429  -6.514  29.199  1.00  0.00     0.000 C 
BRANCH  10  11
ATOM     11  C   UNL     1     225.926  -6.704  29.497  1.00  0.00     0.000 C 
BRANCH  11  12
ATOM     12  C   UNL     1     226.719  -5.396  29.336  1.00  0.00     0.000 C 
BRANCH  12  13
ATOM     13  C   UNL     1     226.023  -4.387  28.407  1.00  0.00     0.006 C 
BRANCH  13  14
ATOM     14  C   UNL     1     226.546  -2.956  28.586  1.00  0.00     0.053 C 
BRANCH  14  15
ATOM     15  C   UNL     1     227.037  -2.415  27.281  1.00  0.00     0.041 C 
ATOM     16  O   UNL     1     227.530  -3.191  26.419  1.00  0.00    -0.550 OA
ATOM     17  O   UNL     1     226.895  -1.064  26.990  1.00  0.00    -0.550 OA
ENDBRANCH  14  15
ENDBRANCH  13  14
ENDBRANCH  12  13
ENDBRANCH  11  12
ENDBRANCH  10  11
ENDBRANCH   9  10
ENDBRANCH   8   9
ENDBRANCH   7   8
ENDBRANCH   6   7
ENDBRANCH   5   6
ENDBRANCH   4   5
ENDBRANCH   3   4
ENDBRANCH   2   3
ENDBRANCH   1   2
BRANCH   1  18
ATOM     18  C   UNL     1     221.400  -8.735  21.337  1.00  0.00     0.000 C 
BRANCH  18  19
ATOM     19  C   UNL     1     220.053  -8.057  21.641  1.00  0.00     0.000 C 
BRANCH  19  20
ATOM     20  C   UNL     1     218.854  -9.018  21.507  1.00  0.00     0.000 C 
BRANCH  20  21
ATOM     21  C   UNL     1     217.862  -8.958  22.684  1.00  0.00     0.000 C 
BRANCH  21  22
ATOM     22  C   UNL     1     217.828  -7.623  23.451  1.00  0.00     0.000 C 
BRANCH  22  23
ATOM     23  C   UNL     1     218.142  -7.724  24.956  1.00  0.00     0.000 C 
BRANCH  23  24
ATOM     24  C   UNL     1     217.633  -9.027  25.590  1.00  0.00    -0.000 C 
BRANCH  24  25
ATOM     25  C   UNL     1     217.316  -8.826  27.078  1.00  0.00    -0.000 C 
BRANCH  25  26
ATOM     26  C   UNL     1     218.113  -7.674  27.713  1.00  0.00    -0.000 C 
BRANCH  26  27
ATOM     27  C   UNL     1     218.773  -8.040  29.059  1.00  0.00    -0.000 C 
BRANCH  27  28
ATOM     28  C   UNL     1     218.757  -9.556  29.320  1.00  0.00    -0.000 C 
BRANCH  28  29
ATOM     29  C   UNL     1     219.262  -9.923  30.726  1.00  0.00    -0.000 C 
BRANCH  29  30
ATOM     30  C   UNL     1     220.578 -10.719  30.688  1.00  0.00    -0.000 C 
BRANCH  30  31
ATOM     31  C   UNL     1     221.552 -10.306  31.805  1.00  0.00    -0.003 C 
ATOM     32  C   UNL     1     222.790 -11.198  31.870  1.00  0.00     0.004 C 
ENDBRANCH  30  31
ENDBRANCH  29  30
ENDBRANCH  28  29
ENDBRANCH  27  28
ENDBRANCH  26  27
ENDBRANCH  25  26
ENDBRANCH  24  25
ENDBRANCH  23  24
ENDBRANCH  22  23
ENDBRANCH  21  22
ENDBRANCH  20  21
ENDBRANCH  19  20
ENDBRANCH  18  19
ENDBRANCH   1  18
TORSDOF 28
ENDMDL
MODEL 8
REMARK VINA RESULT:    -5.434      2.818      7.972
REMARK INTER + INTRA:         -19.895
REMARK INTER:                 -15.878
REMARK INTRA:                  -4.017
REMARK UNBOUND:                -5.566
REMARK SMILES CCCCCCCCCCCCCCCCCCCCCCCCCCCCCC(=O)[O-]
REMARK SMILES IDX 16 1 17 2 18 3 19 4 20 5 21 6 22 7 23 8 24 9 25 10 26 11
REMARK SMILES IDX 27 12 28 13 29 14 30 15 31 16 32 17 15 18 14 19 13 20 12 21
REMARK SMILES IDX 11 22 10 23 9 24 8 25 7 26 6 27 5 28 4 29 3 30 2 31 1 32
REMARK H PARENT
REMARK Flexibility Score: inf
ROOT
ATOM      1  C   UNL     1     221.597  -8.484  24.601  1.00  0.00     0.000 C 
ENDROOT
BRANCH   1   2
ATOM      2  C   UNL     1     221.351  -7.705  23.290  1.00  0.00     0.000 C 
BRANCH   2   3
ATOM      3  C   UNL     1     221.878  -8.463  22.060  1.00  0.00     0.000 C 
BRANCH   3   4
ATOM      4  C   UNL     1     220.781  -8.757  21.025  1.00  0.00     0.000 C 
BRANCH   4   5
ATOM      5  C   UNL     1     219.379  -8.382  21.531  1.00  0.00     0.000 C 
BRANCH   5   6
ATOM      6  C   UNL     1     218.599  -9.626  21.986  1.00  0.00     0.000 C 
BRANCH   6   7
ATOM      7  C   UNL     1     217.744  -9.356  23.236  1.00  0.00     0.000 C 
BRANCH   7   8
ATOM      8  C   UNL     1     217.551  -7.857  23.508  1.00  0.00     0.000 C 
BRANCH   8   9
ATOM      9  C   UNL     1     217.897  -7.516  24.962  1.00  0.00     0.000 C 
BRANCH   9  10
ATOM     10  C   UNL     1     218.091  -8.791  25.797  1.00  0.00     0.000 C 
BRANCH  10  11
ATOM     11  C   UNL     1     217.685  -8.594  27.267  1.00  0.00     0.000 C 
BRANCH  11  12
ATOM     12  C   UNL     1     218.107  -7.216  27.806  1.00  0.00     0.000 C 
BRANCH  12  13
ATOM     13  C   UNL     1     218.629  -7.276  29.250  1.00  0.00     0.006 C 
BRANCH  13  14
ATOM     14  C   UNL     1     220.066  -7.807  29.342  1.00  0.00     0.053 C 
BRANCH  14  15
ATOM     15  C   UNL     1     220.140  -8.937  30.320  1.00  0.00     0.041 C 
ATOM     16  O   UNL     1     220.917  -8.868  31.310  1.00  0.00    -0.550 OA
ATOM     17  O   UNL     1     219.308 -10.040  30.174  1.00  0.00    -0.550 OA
ENDBRANCH  14  15
ENDBRANCH  13  14
ENDBRANCH  12  13
ENDBRANCH  11  12
ENDBRANCH  10  11
ENDBRANCH   9  10
ENDBRANCH   8   9
ENDBRANCH   7   8
ENDBRANCH   6   7
ENDBRANCH   5   6
ENDBRANCH   4   5
ENDBRANCH   3   4
ENDBRANCH   2   3
ENDBRANCH   1   2
BRANCH   1  18
ATOM     18  C   UNL     1     221.247  -9.979  24.509  1.00  0.00     0.000 C 
BRANCH  18  19
ATOM     19  C   UNL     1     221.786 -10.796  25.696  1.00  0.00     0.000 C 
BRANCH  19  20
ATOM     20  C   UNL     1     221.622 -10.071  27.048  1.00  0.00     0.000 C 
BRANCH  20  21
ATOM     21  C   UNL     1     222.626 -10.515  28.129  1.00  0.00     0.000 C 
BRANCH  21  22
ATOM     22  C   UNL     1     223.517  -9.399  28.702  1.00  0.00     0.000 C 
BRANCH  22  23
ATOM     23  C   UNL     1     223.457  -8.059  27.944  1.00  0.00     0.000 C 
BRANCH  23  24
ATOM     24  C   UNL     1     223.585  -6.839  28.869  1.00  0.00    -0.000 C 
BRANCH  24  25
ATOM     25  C   UNL     1     225.050  -6.601  29.263  1.00  0.00    -0.000 C 
BRANCH  25  26
ATOM     26  C   UNL     1     225.777  -5.633  28.316  1.00  0.00    -0.000 C 
BRANCH  26  27
ATOM     27  C   UNL     1     227.303  -5.855  28.249  1.00  0.00    -0.000 C 
BRANCH  27  28
ATOM     28  C   UNL     1     228.058  -4.576  27.848  1.00  0.00    -0.000 C 
BRANCH  28  29
ATOM     29  C   UNL     1     227.133  -3.353  27.724  1.00  0.00    -0.000 C 
BRANCH  29  30
ATOM     30  C   UNL     1     227.782  -2.069  28.271  1.00  0.00    -0.000 C 
BRANCH  30  31
ATOM     31  C   UNL     1     227.927  -0.977  27.198  1.00  0.00    -0.003 C 
ATOM     32  C   UNL     1     226.737  -0.019  27.163  1.00  0.00     0.004 C 
ENDBRANCH  30  31
ENDBRANCH  29  30
ENDBRANCH  28  29
ENDBRANCH  27  28
ENDBRANCH  26  27
ENDBRANCH  25  26
ENDBRANCH  24  25
ENDBRANCH  23  24
ENDBRANCH  22  23
ENDBRANCH  21  22
ENDBRANCH  20  21
ENDBRANCH  19  20
ENDBRANCH  18  19
ENDBRANCH   1  18
TORSDOF 28
ENDMDL
MODEL 9
REMARK VINA RESULT:    -5.427      4.163      6.330
REMARK INTER + INTRA:         -19.877
REMARK INTER:                 -15.041
REMARK INTRA:                  -4.836
REMARK UNBOUND:                -5.566
REMARK SMILES CCCCCCCCCCCCCCCCCCCCCCCCCCCCCC(=O)[O-]
REMARK SMILES IDX 16 1 17 2 18 3 19 4 20 5 21 6 22 7 23 8 24 9 25 10 26 11
REMARK SMILES IDX 27 12 28 13 29 14 30 15 31 16 32 17 15 18 14 19 13 20 12 21
REMARK SMILES IDX 11 22 10 23 9 24 8 25 7 26 6 27 5 28 4 29 3 30 2 31 1 32
REMARK H PARENT
REMARK Flexibility Score: inf
ROOT
ATOM      1  C   UNL     1     221.970  -9.190  24.499  1.00  0.00     0.000 C 
ENDROOT
BRANCH   1   2
ATOM      2  C   UNL     1     221.201 -10.173  25.409  1.00  0.00     0.000 C 
BRANCH   2   3
ATOM      3  C   UNL     1     221.237  -9.741  26.886  1.00  0.00     0.000 C 
BRANCH   3   4
ATOM      4  C   UNL     1     222.329  -8.698  27.175  1.00  0.00     0.000 C 
BRANCH   4   5
ATOM      5  C   UNL     1     221.834  -7.570  28.094  1.00  0.00     0.000 C 
BRANCH   5   6
ATOM      6  C   UNL     1     222.913  -7.163  29.110  1.00  0.00     0.000 C 
BRANCH   6   7
ATOM      7  C   UNL     1     224.163  -6.575  28.434  1.00  0.00     0.000 C 
BRANCH   7   8
ATOM      8  C   UNL     1     224.985  -5.690  29.382  1.00  0.00     0.000 C 
BRANCH   8   9
ATOM      9  C   UNL     1     226.352  -6.321  29.672  1.00  0.00     0.000 C 
BRANCH   9  10
ATOM     10  C   UNL     1     227.224  -6.356  28.408  1.00  0.00     0.000 C 
BRANCH  10  11
ATOM     11  C   UNL     1     228.324  -5.281  28.427  1.00  0.00     0.000 C 
BRANCH  11  12
ATOM     12  C   UNL     1     228.210  -4.315  27.236  1.00  0.00     0.000 C 
BRANCH  12  13
ATOM     13  C   UNL     1     227.068  -3.299  27.400  1.00  0.00     0.006 C 
BRANCH  13  14
ATOM     14  C   UNL     1     227.482  -1.872  27.014  1.00  0.00     0.053 C 
BRANCH  14  15
ATOM     15  C   UNL     1     228.724  -1.476  27.747  1.00  0.00     0.041 C 
ATOM     16  O   UNL     1     229.781  -1.221  27.109  1.00  0.00    -0.550 OA
ATOM     17  O   UNL     1     228.701  -1.328  29.128  1.00  0.00    -0.550 OA
ENDBRANCH  14  15
ENDBRANCH  13  14
ENDBRANCH  12  13
ENDBRANCH  11  12
ENDBRANCH  10  11
ENDBRANCH   9  10
ENDBRANCH   8   9
ENDBRANCH   7   8
ENDBRANCH   6   7
ENDBRANCH   5   6
ENDBRANCH   4   5
ENDBRANCH   3   4
ENDBRANCH   2   3
ENDBRANCH   1   2
BRANCH   1  18
ATOM     18  C   UNL     1     221.341  -9.013  23.107  1.00  0.00     0.000 C 
BRANCH  18  19
ATOM     19  C   UNL     1     220.368  -7.823  23.033  1.00  0.00     0.000 C 
BRANCH  19  20
ATOM     20  C   UNL     1     220.506  -6.861  24.232  1.00  0.00     0.000 C 
BRANCH  20  21
ATOM     21  C   UNL     1     219.163  -6.374  24.808  1.00  0.00     0.000 C 
BRANCH  21  22
ATOM     22  C   UNL     1     218.763  -6.989  26.161  1.00  0.00     0.000 C 
BRANCH  22  23
ATOM     23  C   UNL     1     217.697  -8.098  26.088  1.00  0.00     0.000 C 
BRANCH  23  24
ATOM     24  C   UNL     1     217.494  -8.827  27.425  1.00  0.00    -0.000 C 
BRANCH  24  25
ATOM     25  C   UNL     1     218.273  -8.133  28.551  1.00  0.00    -0.000 C 
BRANCH  25  26
ATOM     26  C   UNL     1     218.257  -8.923  29.869  1.00  0.00    -0.000 C 
BRANCH  26  27
ATOM     27  C   UNL     1     219.640  -9.040  30.544  1.00  0.00    -0.000 C 
BRANCH  27  28
ATOM     28  C   UNL     1     220.255 -10.440  30.365  1.00  0.00    -0.000 C 
BRANCH  28  29
ATOM     29  C   UNL     1     221.599 -10.596  31.097  1.00  0.00    -0.000 C 
BRANCH  29  30
ATOM     30  C   UNL     1     222.759 -10.904  30.133  1.00  0.00    -0.000 C 
BRANCH  30  31
ATOM     31  C   UNL     1     224.068 -10.209  30.542  1.00  0.00    -0.003 C 
ATOM     32  C   UNL     1     225.091 -10.160  29.408  1.00  0.00     0.004 C 
ENDBRANCH  30  31
ENDBRANCH  29  30
ENDBRANCH  28  29
ENDBRANCH  27  28
ENDBRANCH  26  27
ENDBRANCH  25  26
ENDBRANCH  24  25
ENDBRANCH  23  24
ENDBRANCH  22  23
ENDBRANCH  21  22
ENDBRANCH  20  21
ENDBRANCH  19  20
ENDBRANCH  18  19
ENDBRANCH   1  18
TORSDOF 28
ENDMDL
