MODEL 1
REMARK VINA RESULT:    -4.396      0.000      0.000
REMARK INTER + INTRA:          -6.888
REMARK INTER:                  -6.452
REMARK INTRA:                  -0.436
REMARK UNBOUND:                -0.436
REMARK SMILES O=C([O-])CCCCCCCC(=O)[O-]
REMARK SMILES IDX 7 1 6 2 5 3 4 4 2 5 1 6 3 7 8 8 9 9 10 10 11 11 12 12 13 13
REMARK H PARENT
REMARK Flexibility Score: inf
ROOT
ATOM      1  C   UNL     1      15.287 -33.251  22.472  1.00  0.00     0.000 C 
ENDROOT
BRANCH   1   2
ATOM      2  C   UNL     1      15.152 -32.228  23.610  1.00  0.00     0.000 C 
BRANCH   2   3
ATOM      3  C   UNL     1      13.696 -31.789  23.841  1.00  0.00     0.006 C 
BRANCH   3   4
ATOM      4  C   UNL     1      13.529 -30.265  23.752  1.00  0.00     0.053 C 
BRANCH   4   5
ATOM      5  C   UNL     1      12.312 -29.883  22.966  1.00  0.00     0.041 C 
ATOM      6  O   UNL     1      11.971 -30.557  21.959  1.00  0.00    -0.550 OA
ATOM      7  O   UNL     1      11.538 -28.801  23.364  1.00  0.00    -0.550 OA
ENDBRANCH   4   5
ENDBRANCH   3   4
ENDBRANCH   2   3
ENDBRANCH   1   2
BRANCH   1   8
ATOM      8  C   UNL     1      14.546 -32.821  21.196  1.00  0.00     0.000 C 
BRANCH   8   9
ATOM      9  C   UNL     1      14.722 -33.864  20.082  1.00  0.00     0.006 C 
BRANCH   9  10
ATOM     10  C   UNL     1      15.680 -34.991  20.487  1.00  0.00     0.053 C 
BRANCH  10  11
ATOM     11  C   UNL     1      16.723 -35.236  19.438  1.00  0.00     0.041 C 
ATOM     12  O   UNL     1      17.369 -34.272  18.948  1.00  0.00    -0.550 OA
ATOM     13  O   UNL     1      17.003 -36.533  19.027  1.00  0.00    -0.550 OA
ENDBRANCH  10  11
ENDBRANCH   9  10
ENDBRANCH   8   9
ENDBRANCH   1   8
TORSDOF 8
ENDMDL
MODEL 2
REMARK VINA RESULT:    -4.353      1.733      2.336
REMARK INTER + INTRA:          -6.824
REMARK INTER:                  -6.496
REMARK INTRA:                  -0.329
REMARK UNBOUND:                -0.436
REMARK SMILES O=C([O-])CCCCCCCC(=O)[O-]
REMARK SMILES IDX 7 1 6 2 5 3 4 4 2 5 1 6 3 7 8 8 9 9 10 10 11 11 12 12 13 13
REMARK H PARENT
REMARK Flexibility Score: inf
ROOT
ATOM      1  C   UNL     1      14.356 -32.783  21.083  1.00  0.00     0.000 C 
ENDROOT
BRANCH   1   2
ATOM      2  C   UNL     1      13.391 -31.708  20.558  1.00  0.00     0.000 C 
BRANCH   2   3
ATOM      3  C   UNL     1      12.593 -31.029  21.684  1.00  0.00     0.006 C 
BRANCH   3   4
ATOM      4  C   UNL     1      13.275 -31.182  23.051  1.00  0.00     0.053 C 
BRANCH   4   5
ATOM      5  C   UNL     1      13.684 -29.858  23.621  1.00  0.00     0.041 C 
ATOM      6  O   UNL     1      14.813 -29.372  23.348  1.00  0.00    -0.550 OA
ATOM      7  O   UNL     1      12.806 -29.148  24.430  1.00  0.00    -0.550 OA
ENDBRANCH   4   5
ENDBRANCH   3   4
ENDBRANCH   2   3
ENDBRANCH   1   2
BRANCH   1   8
ATOM      8  C   UNL     1      14.614 -33.900  20.060  1.00  0.00     0.000 C 
BRANCH   8   9
ATOM      9  C   UNL     1      16.118 -34.075  19.807  1.00  0.00     0.006 C 
BRANCH   9  10
ATOM     10  C   UNL     1      16.498 -35.537  19.545  1.00  0.00     0.053 C 
BRANCH  10  11
ATOM     11  C   UNL     1      17.175 -36.155  20.731  1.00  0.00     0.041 C 
ATOM     12  O   UNL     1      17.721 -37.286  20.632  1.00  0.00    -0.550 OA
ATOM     13  O   UNL     1      17.232 -35.466  21.935  1.00  0.00    -0.550 OA
ENDBRANCH  10  11
ENDBRANCH   9  10
ENDBRANCH   8   9
ENDBRANCH   1   8
TORSDOF 8
ENDMDL
MODEL 3
REMARK VINA RESULT:    -4.319      1.063      5.870
REMARK INTER + INTRA:          -6.774
REMARK INTER:                  -6.112
REMARK INTRA:                  -0.663
REMARK UNBOUND:                -0.436
REMARK SMILES O=C([O-])CCCCCCCC(=O)[O-]
REMARK SMILES IDX 7 1 6 2 5 3 4 4 2 5 1 6 3 7 8 8 9 9 10 10 11 11 12 12 13 13
REMARK H PARENT
REMARK Flexibility Score: inf
ROOT
ATOM      1  C   UNL     1      15.869 -32.272  23.383  1.00  0.00     0.000 C 
ENDROOT
BRANCH   1   2
ATOM      2  C   UNL     1      16.447 -33.149  22.261  1.00  0.00     0.000 C 
BRANCH   2   3
ATOM      3  C   UNL     1      15.417 -34.142  21.697  1.00  0.00     0.006 C 
BRANCH   3   4
ATOM      4  C   UNL     1      15.227 -33.981  20.182  1.00  0.00     0.053 C 
BRANCH   4   5
ATOM      5  C   UNL     1      16.312 -34.666  19.409  1.00  0.00     0.041 C 
ATOM      6  O   UNL     1      16.392 -35.923  19.407  1.00  0.00    -0.550 OA
ATOM      7  O   UNL     1      17.217 -33.918  18.667  1.00  0.00    -0.550 OA
ENDBRANCH   4   5
ENDBRANCH   3   4
ENDBRANCH   2   3
ENDBRANCH   1   2
BRANCH   1   8
ATOM      8  C   UNL     1      14.619 -32.884  24.032  1.00  0.00     0.000 C 
BRANCH   8   9
ATOM      9  C   UNL     1      13.483 -31.854  24.116  1.00  0.00     0.006 C 
BRANCH   9  10
ATOM     10  C   UNL     1      13.676 -30.695  23.130  1.00  0.00     0.053 C 
BRANCH  10  11
ATOM     11  C   UNL     1      12.726 -30.786  21.974  1.00  0.00     0.041 C 
ATOM     12  O   UNL     1      13.057 -31.406  20.928  1.00  0.00    -0.550 OA
ATOM     13  O   UNL     1      11.463 -30.215  22.066  1.00  0.00    -0.550 OA
ENDBRANCH  10  11
ENDBRANCH   9  10
ENDBRANCH   8   9
ENDBRANCH   1   8
TORSDOF 8
ENDMDL
MODEL 4
REMARK VINA RESULT:    -4.312      1.781      2.486
REMARK INTER + INTRA:          -6.764
REMARK INTER:                  -6.002
REMARK INTRA:                  -0.762
REMARK UNBOUND:                -0.436
REMARK SMILES O=C([O-])CCCCCCCC(=O)[O-]
REMARK SMILES IDX 7 1 6 2 5 3 4 4 2 5 1 6 3 7 8 8 9 9 10 10 11 11 12 12 13 13
REMARK H PARENT
REMARK Flexibility Score: inf
ROOT
ATOM      1  C   UNL     1      15.999 -30.330  21.644  1.00  0.00     0.000 C 
ENDROOT
BRANCH   1   2
ATOM      2  C   UNL     1      15.756 -30.134  23.148  1.00  0.00     0.000 C 
BRANCH   2   3
ATOM      3  C   UNL     1      14.375 -29.529  23.451  1.00  0.00     0.006 C 
BRANCH   3   4
ATOM      4  C   UNL     1      13.271 -30.595  23.479  1.00  0.00     0.053 C 
BRANCH   4   5
ATOM      5  C   UNL     1      12.334 -30.459  22.318  1.00  0.00     0.041 C 
ATOM      6  O   UNL     1      11.345 -29.682  22.390  1.00  0.00    -0.550 OA
ATOM      7  O   UNL     1      12.570 -31.166  21.146  1.00  0.00    -0.550 OA
ENDBRANCH   4   5
ENDBRANCH   3   4
ENDBRANCH   2   3
ENDBRANCH   1   2
BRANCH   1   8
ATOM      8  C   UNL     1      16.561 -31.720  21.309  1.00  0.00     0.000 C 
BRANCH   8   9
ATOM      9  C   UNL     1      16.243 -32.724  22.426  1.00  0.00     0.006 C 
BRANCH   9  10
ATOM     10  C   UNL     1      15.027 -33.597  22.095  1.00  0.00     0.053 C 
BRANCH  10  11
ATOM     11  C   UNL     1      15.112 -34.166  20.712  1.00  0.00     0.041 C 
ATOM     12  O   UNL     1      15.880 -35.134  20.469  1.00  0.00    -0.550 OA
ATOM     13  O   UNL     1      14.316 -33.647  19.698  1.00  0.00    -0.550 OA
ENDBRANCH  10  11
ENDBRANCH   9  10
ENDBRANCH   8   9
ENDBRANCH   1   8
TORSDOF 8
ENDMDL
MODEL 5
REMARK VINA RESULT:    -4.302      1.114      6.843
REMARK INTER + INTRA:          -6.749
REMARK INTER:                  -6.413
REMARK INTRA:                  -0.336
REMARK UNBOUND:                -0.436
REMARK SMILES O=C([O-])CCCCCCCC(=O)[O-]
REMARK SMILES IDX 7 1 6 2 5 3 4 4 2 5 1 6 3 7 8 8 9 9 10 10 11 11 12 12 13 13
REMARK H PARENT
REMARK Flexibility Score: inf
ROOT
ATOM      1  C   UNL     1      14.240 -33.011  20.475  1.00  0.00     0.000 C 
ENDROOT
BRANCH   1   2
ATOM      2  C   UNL     1      15.493 -33.153  21.354  1.00  0.00     0.000 C 
BRANCH   2   3
ATOM      3  C   UNL     1      16.053 -34.585  21.360  1.00  0.00     0.006 C 
BRANCH   3   4
ATOM      4  C   UNL     1      15.880 -35.279  20.001  1.00  0.00     0.053 C 
BRANCH   4   5
ATOM      5  C   UNL     1      17.198 -35.667  19.402  1.00  0.00     0.041 C 
ATOM      6  O   UNL     1      17.996 -34.780  18.999  1.00  0.00    -0.550 OA
ATOM      7  O   UNL     1      17.557 -37.006  19.317  1.00  0.00    -0.550 OA
ENDBRANCH   4   5
ENDBRANCH   3   4
ENDBRANCH   2   3
ENDBRANCH   1   2
BRANCH   1   8
ATOM      8  C   UNL     1      13.442 -31.734  20.779  1.00  0.00     0.000 C 
BRANCH   8   9
ATOM      9  C   UNL     1      14.117 -30.916  21.890  1.00  0.00     0.006 C 
BRANCH   9  10
ATOM     10  C   UNL     1      13.314 -30.933  23.196  1.00  0.00     0.053 C 
BRANCH  10  11
ATOM     11  C   UNL     1      12.490 -29.692  23.357  1.00  0.00     0.041 C 
ATOM     12  O   UNL     1      12.729 -28.889  24.297  1.00  0.00    -0.550 OA
ATOM     13  O   UNL     1      11.479 -29.407  22.447  1.00  0.00    -0.550 OA
ENDBRANCH  10  11
ENDBRANCH   9  10
ENDBRANCH   8   9
ENDBRANCH   1   8
TORSDOF 8
ENDMDL
MODEL 6
REMARK VINA RESULT:    -4.301      2.758      3.668
REMARK INTER + INTRA:          -6.748
REMARK INTER:                  -5.890
REMARK INTRA:                  -0.858
REMARK UNBOUND:                -0.436
REMARK SMILES O=C([O-])CCCCCCCC(=O)[O-]
REMARK SMILES IDX 7 1 6 2 5 3 4 4 2 5 1 6 3 7 8 8 9 9 10 10 11 11 12 12 13 13
REMARK H PARENT
REMARK Flexibility Score: inf
ROOT
ATOM      1  C   UNL     1      13.442 -31.342  22.902  1.00  0.00     0.000 C 
ENDROOT
BRANCH   1   2
ATOM      2  C   UNL     1      14.060 -30.075  23.515  1.00  0.00     0.000 C 
BRANCH   2   3
ATOM      3  C   UNL     1      15.319 -29.609  22.765  1.00  0.00     0.006 C 
BRANCH   3   4
ATOM      4  C   UNL     1      16.592 -30.284  23.296  1.00  0.00     0.053 C 
BRANCH   4   5
ATOM      5  C   UNL     1      17.369 -30.947  22.200  1.00  0.00     0.041 C 
ATOM      6  O   UNL     1      17.105 -30.696  20.995  1.00  0.00    -0.550 OA
ATOM      7  O   UNL     1      18.406 -31.818  22.510  1.00  0.00    -0.550 OA
ENDBRANCH   4   5
ENDBRANCH   3   4
ENDBRANCH   2   3
ENDBRANCH   1   2
BRANCH   1   8
ATOM      8  C   UNL     1      13.472 -31.335  21.366  1.00  0.00     0.000 C 
BRANCH   8   9
ATOM      9  C   UNL     1      14.096 -32.628  20.823  1.00  0.00     0.006 C 
BRANCH   9  10
ATOM     10  C   UNL     1      14.802 -33.438  21.919  1.00  0.00     0.053 C 
BRANCH  10  11
ATOM     11  C   UNL     1      15.676 -34.509  21.341  1.00  0.00     0.041 C 
ATOM     12  O   UNL     1      16.734 -34.852  21.931  1.00  0.00    -0.550 OA
ATOM     13  O   UNL     1      15.303 -35.152  20.167  1.00  0.00    -0.550 OA
ENDBRANCH  10  11
ENDBRANCH   9  10
ENDBRANCH   8   9
ENDBRANCH   1   8
TORSDOF 8
ENDMDL
MODEL 7
REMARK VINA RESULT:    -4.252      2.027      2.547
REMARK INTER + INTRA:          -6.677
REMARK INTER:                  -6.108
REMARK INTRA:                  -0.569
REMARK UNBOUND:                -0.436
REMARK SMILES O=C([O-])CCCCCCCC(=O)[O-]
REMARK SMILES IDX 7 1 6 2 5 3 4 4 2 5 1 6 3 7 8 8 9 9 10 10 11 11 12 12 13 13
REMARK H PARENT
REMARK Flexibility Score: inf
ROOT
ATOM      1  C   UNL     1      14.289 -32.640  20.971  1.00  0.00     0.000 C 
ENDROOT
BRANCH   1   2
ATOM      2  C   UNL     1      13.417 -31.453  21.413  1.00  0.00     0.000 C 
BRANCH   2   3
ATOM      3  C   UNL     1      13.468 -31.215  22.931  1.00  0.00     0.006 C 
BRANCH   3   4
ATOM      4  C   UNL     1      14.041 -29.834  23.281  1.00  0.00     0.053 C 
BRANCH   4   5
ATOM      5  C   UNL     1      15.509 -29.751  22.993  1.00  0.00     0.041 C 
ATOM      6  O   UNL     1      16.329 -30.408  23.687  1.00  0.00    -0.550 OA
ATOM      7  O   UNL     1      15.969 -28.970  21.941  1.00  0.00    -0.550 OA
ENDBRANCH   4   5
ENDBRANCH   3   4
ENDBRANCH   2   3
ENDBRANCH   1   2
BRANCH   1   8
ATOM      8  C   UNL     1      14.893 -33.407  22.157  1.00  0.00     0.000 C 
BRANCH   8   9
ATOM      9  C   UNL     1      15.952 -34.410  21.679  1.00  0.00     0.006 C 
BRANCH   9  10
ATOM     10  C   UNL     1      15.625 -34.987  20.296  1.00  0.00     0.053 C 
BRANCH  10  11
ATOM     11  C   UNL     1      16.832 -35.018  19.408  1.00  0.00     0.041 C 
ATOM     12  O   UNL     1      17.490 -36.083  19.268  1.00  0.00    -0.550 OA
ATOM     13  O   UNL     1      17.209 -33.878  18.709  1.00  0.00    -0.550 OA
ENDBRANCH  10  11
ENDBRANCH   9  10
ENDBRANCH   8   9
ENDBRANCH   1   8
TORSDOF 8
ENDMDL
MODEL 8
REMARK VINA RESULT:    -4.226      2.228      3.264
REMARK INTER + INTRA:          -6.638
REMARK INTER:                  -6.080
REMARK INTRA:                  -0.559
REMARK UNBOUND:                -0.436
REMARK SMILES O=C([O-])CCCCCCCC(=O)[O-]
REMARK SMILES IDX 7 1 6 2 5 3 4 4 2 5 1 6 3 7 8 8 9 9 10 10 11 11 12 12 13 13
REMARK H PARENT
REMARK Flexibility Score: inf
ROOT
ATOM      1  C   UNL     1      15.426 -34.792  20.411  1.00  0.00     0.000 C 
ENDROOT
BRANCH   1   2
ATOM      2  C   UNL     1      14.568 -33.557  20.094  1.00  0.00     0.000 C 
BRANCH   2   3
ATOM      3  C   UNL     1      14.328 -32.672  21.328  1.00  0.00     0.006 C 
BRANCH   3   4
ATOM      4  C   UNL     1      13.514 -31.415  20.990  1.00  0.00     0.053 C 
BRANCH   4   5
ATOM      5  C   UNL     1      12.719 -30.933  22.164  1.00  0.00     0.041 C 
ATOM      6  O   UNL     1      11.598 -30.387  21.989  1.00  0.00    -0.550 OA
ATOM      7  O   UNL     1      13.202 -31.113  23.454  1.00  0.00    -0.550 OA
ENDBRANCH   4   5
ENDBRANCH   3   4
ENDBRANCH   2   3
ENDBRANCH   1   2
BRANCH   1   8
ATOM      8  C   UNL     1      16.534 -35.029  19.373  1.00  0.00     0.000 C 
BRANCH   8   9
ATOM      9  C   UNL     1      17.468 -33.813  19.281  1.00  0.00     0.006 C 
BRANCH   9  10
ATOM     10  C   UNL     1      18.328 -33.644  20.540  1.00  0.00     0.053 C 
BRANCH  10  11
ATOM     11  C   UNL     1      18.257 -32.247  21.077  1.00  0.00     0.041 C 
ATOM     12  O   UNL     1      18.872 -31.942  22.134  1.00  0.00    -0.550 OA
ATOM     13  O   UNL     1      17.540 -31.275  20.392  1.00  0.00    -0.550 OA
ENDBRANCH  10  11
ENDBRANCH   9  10
ENDBRANCH   8   9
ENDBRANCH   1   8
TORSDOF 8
ENDMDL
MODEL 9
REMARK VINA RESULT:    -4.196      2.739      5.160
REMARK INTER + INTRA:          -6.594
REMARK INTER:                  -5.751
REMARK INTRA:                  -0.843
REMARK UNBOUND:                -0.436
REMARK SMILES O=C([O-])CCCCCCCC(=O)[O-]
REMARK SMILES IDX 7 1 6 2 5 3 4 4 2 5 1 6 3 7 8 8 9 9 10 10 11 11 12 12 13 13
REMARK H PARENT
REMARK Flexibility Score: inf
ROOT
ATOM      1  C   UNL     1      13.029 -30.995  22.587  1.00  0.00     0.000 C 
ENDROOT
BRANCH   1   2
ATOM      2  C   UNL     1      13.593 -31.042  21.158  1.00  0.00     0.000 C 
BRANCH   2   3
ATOM      3  C   UNL     1      13.918 -32.473  20.697  1.00  0.00     0.006 C 
BRANCH   3   4
ATOM      4  C   UNL     1      14.730 -33.248  21.744  1.00  0.00     0.053 C 
BRANCH   4   5
ATOM      5  C   UNL     1      15.746 -34.147  21.108  1.00  0.00     0.041 C 
ATOM      6  O   UNL     1      16.954 -34.087  21.460  1.00  0.00    -0.550 OA
ATOM      7  O   UNL     1      15.354 -35.072  20.149  1.00  0.00    -0.550 OA
ENDBRANCH   4   5
ENDBRANCH   3   4
ENDBRANCH   2   3
ENDBRANCH   1   2
BRANCH   1   8
ATOM      8  C   UNL     1      13.830 -30.067  23.512  1.00  0.00     0.000 C 
BRANCH   8   9
ATOM      9  C   UNL     1      15.157 -29.653  22.858  1.00  0.00     0.006 C 
BRANCH   9  10
ATOM     10  C   UNL     1      16.364 -30.346  23.501  1.00  0.00     0.053 C 
BRANCH  10  11
ATOM     11  C   UNL     1      17.404 -30.706  22.484  1.00  0.00     0.041 C 
ATOM     12  O   UNL     1      18.555 -31.062  22.851  1.00  0.00    -0.550 OA
ATOM     13  O   UNL     1      17.090 -30.679  21.130  1.00  0.00    -0.550 OA
ENDBRANCH  10  11
ENDBRANCH   9  10
ENDBRANCH   8   9
ENDBRANCH   1   8
TORSDOF 8
ENDMDL
