MODEL 1
REMARK VINA RESULT:    -4.335      0.000      0.000
REMARK INTER + INTRA:          -5.412
REMARK INTER:                  -5.221
REMARK INTRA:                  -0.191
REMARK UNBOUND:                -0.191
REMARK SMILES C=CCc1ccc(O)c(OC)c1
REMARK SMILES IDX 9 1 7 2 6 3 5 4 4 5 12 6 10 7 11 8 8 9 3 11 2 12 1 13
REMARK H PARENT 8 10
REMARK Flexibility Score: inf
ROOT
ATOM      1  C   UNL     1       8.548 -29.549  17.172  1.00  0.00     0.160 A 
ATOM      2  C   UNL     1       7.640 -30.258  17.973  1.00  0.00     0.157 A 
ATOM      3  C   UNL     1       6.559 -30.928  17.387  1.00  0.00     0.050 A 
ATOM      4  C   UNL     1       6.376 -30.895  16.003  1.00  0.00     0.008 A 
ATOM      5  C   UNL     1       7.269 -30.182  15.189  1.00  0.00    -0.040 A 
ATOM      6  C   UNL     1       8.357 -29.518  15.776  1.00  0.00     0.054 A 
ENDROOT
BRANCH   1   7
ATOM      7  O   UNL     1       9.621 -28.894  17.796  1.00  0.00    -0.493 OA
ATOM      8  C   UNL     1      10.457 -27.931  17.161  1.00  0.00     0.278 C 
ENDBRANCH   1   7
BRANCH   2   9
ATOM      9  O   UNL     1       7.822 -30.292  19.355  1.00  0.00    -0.504 OA
ATOM     10  H   UNL     1       7.044 -30.186  19.994  1.00  0.00     0.293 HD
ENDBRANCH   2   9
BRANCH   5  11
ATOM     11  C   UNL     1       7.089 -30.167  13.693  1.00  0.00     0.062 C 
BRANCH  11  12
ATOM     12  C   UNL     1       8.372 -29.789  13.008  1.00  0.00    -0.030 C 
ATOM     13  C   UNL     1       8.381 -29.079  11.876  1.00  0.00     0.004 C 
ENDBRANCH  11  12
ENDBRANCH   5  11
TORSDOF 4
ENDMDL
MODEL 2
REMARK VINA RESULT:    -4.254      2.395      4.247
REMARK INTER + INTRA:          -5.315
REMARK INTER:                  -5.073
REMARK INTRA:                  -0.242
REMARK UNBOUND:                -0.191
REMARK SMILES C=CCc1ccc(O)c(OC)c1
REMARK SMILES IDX 9 1 7 2 6 3 5 4 4 5 12 6 10 7 11 8 8 9 3 11 2 12 1 13
REMARK H PARENT 8 10
REMARK Flexibility Score: inf
ROOT
ATOM      1  C   UNL     1       9.520 -29.272  15.230  1.00  0.00     0.160 A 
ATOM      2  C   UNL     1      10.326 -28.492  16.072  1.00  0.00     0.157 A 
ATOM      3  C   UNL     1      10.046 -28.417  17.443  1.00  0.00     0.050 A 
ATOM      4  C   UNL     1       8.963 -29.115  17.979  1.00  0.00     0.008 A 
ATOM      5  C   UNL     1       8.141 -29.891  17.149  1.00  0.00    -0.040 A 
ATOM      6  C   UNL     1       8.427 -29.973  15.777  1.00  0.00     0.054 A 
ENDROOT
BRANCH   1   7
ATOM      7  O   UNL     1       9.836 -29.325  13.863  1.00  0.00    -0.493 OA
ATOM      8  C   UNL     1      10.515 -30.408  13.235  1.00  0.00     0.278 C 
ENDBRANCH   1   7
BRANCH   2   9
ATOM      9  O   UNL     1      11.409 -27.795  15.538  1.00  0.00    -0.504 OA
ATOM     10  H   UNL     1      11.573 -26.820  15.760  1.00  0.00     0.293 HD
ENDBRANCH   2   9
BRANCH   5  11
ATOM     11  C   UNL     1       6.987 -30.667  17.729  1.00  0.00     0.062 C 
BRANCH  11  12
ATOM     12  C   UNL     1       6.851 -32.002  17.053  1.00  0.00    -0.030 C 
ATOM     13  C   UNL     1       7.401 -33.108  17.564  1.00  0.00     0.004 C 
ENDBRANCH  11  12
ENDBRANCH   5  11
TORSDOF 4
ENDMDL
MODEL 3
REMARK VINA RESULT:    -4.217      1.861      2.520
REMARK INTER + INTRA:          -5.271
REMARK INTER:                  -5.001
REMARK INTRA:                  -0.270
REMARK UNBOUND:                -0.191
REMARK SMILES C=CCc1ccc(O)c(OC)c1
REMARK SMILES IDX 9 1 7 2 6 3 5 4 4 5 12 6 10 7 11 8 8 9 3 11 2 12 1 13
REMARK H PARENT 8 10
REMARK Flexibility Score: inf
ROOT
ATOM      1  C   UNL     1       8.182 -29.777  16.488  1.00  0.00     0.160 A 
ATOM      2  C   UNL     1       6.956 -30.147  15.917  1.00  0.00     0.157 A 
ATOM      3  C   UNL     1       6.820 -30.214  14.524  1.00  0.00     0.050 A 
ATOM      4  C   UNL     1       7.902 -29.911  13.696  1.00  0.00     0.008 A 
ATOM      5  C   UNL     1       9.132 -29.528  14.252  1.00  0.00    -0.040 A 
ATOM      6  C   UNL     1       9.271 -29.470  15.647  1.00  0.00     0.054 A 
ENDROOT
BRANCH   1   7
ATOM      7  O   UNL     1       8.280 -29.726  17.888  1.00  0.00    -0.493 OA
ATOM      8  C   UNL     1       9.176 -28.881  18.603  1.00  0.00     0.278 C 
ENDBRANCH   1   7
BRANCH   2   9
ATOM      9  O   UNL     1       5.875 -30.451  16.743  1.00  0.00    -0.504 OA
ATOM     10  H   UNL     1       4.923 -30.244  16.467  1.00  0.00     0.293 HD
ENDBRANCH   2   9
BRANCH   5  11
ATOM     11  C   UNL     1      10.310 -29.227  13.361  1.00  0.00     0.062 C 
BRANCH  11  12
ATOM     12  C   UNL     1      10.470 -30.292  12.313  1.00  0.00    -0.030 C 
ATOM     13  C   UNL     1      11.145 -31.420  12.556  1.00  0.00     0.004 C 
ENDBRANCH  11  12
ENDBRANCH   5  11
TORSDOF 4
ENDMDL
MODEL 4
REMARK VINA RESULT:    -4.183      1.747      3.083
REMARK INTER + INTRA:          -5.230
REMARK INTER:                  -4.988
REMARK INTRA:                  -0.242
REMARK UNBOUND:                -0.191
REMARK SMILES C=CCc1ccc(O)c(OC)c1
REMARK SMILES IDX 9 1 7 2 6 3 5 4 4 5 12 6 10 7 11 8 8 9 3 11 2 12 1 13
REMARK H PARENT 8 10
REMARK Flexibility Score: inf
ROOT
ATOM      1  C   UNL     1       7.860 -30.775  16.979  1.00  0.00     0.160 A 
ATOM      2  C   UNL     1       8.452 -29.933  17.932  1.00  0.00     0.157 A 
ATOM      3  C   UNL     1       9.353 -28.938  17.529  1.00  0.00     0.050 A 
ATOM      4  C   UNL     1       9.668 -28.779  16.178  1.00  0.00     0.008 A 
ATOM      5  C   UNL     1       9.093 -29.620  15.214  1.00  0.00    -0.040 A 
ATOM      6  C   UNL     1       8.183 -30.611  15.617  1.00  0.00     0.054 A 
ENDROOT
BRANCH   1   7
ATOM      7  O   UNL     1       6.959 -31.756  17.422  1.00  0.00    -0.493 OA
ATOM      8  C   UNL     1       6.971 -33.114  16.992  1.00  0.00     0.278 C 
ENDBRANCH   1   7
BRANCH   2   9
ATOM      9  O   UNL     1       8.137 -30.091  19.281  1.00  0.00    -0.504 OA
ATOM     10  H   UNL     1       8.728 -29.710  20.010  1.00  0.00     0.293 HD
ENDBRANCH   2   9
BRANCH   5  11
ATOM     11  C   UNL     1       9.410 -29.433  13.753  1.00  0.00     0.062 C 
BRANCH  11  12
ATOM     12  C   UNL     1      10.832 -29.824  13.464  1.00  0.00    -0.030 C 
ATOM     13  C   UNL     1      11.141 -31.012  12.937  1.00  0.00     0.004 C 
ENDBRANCH  11  12
ENDBRANCH   5  11
TORSDOF 4
ENDMDL
MODEL 5
REMARK VINA RESULT:    -4.147      1.632      3.049
REMARK INTER + INTRA:          -5.186
REMARK INTER:                  -4.940
REMARK INTRA:                  -0.245
REMARK UNBOUND:                -0.191
REMARK SMILES C=CCc1ccc(O)c(OC)c1
REMARK SMILES IDX 9 1 7 2 6 3 5 4 4 5 12 6 10 7 11 8 8 9 3 11 2 12 1 13
REMARK H PARENT 8 10
REMARK Flexibility Score: inf
ROOT
ATOM      1  C   UNL     1       8.188 -29.479  17.417  1.00  0.00     0.160 A 
ATOM      2  C   UNL     1       9.251 -28.734  17.950  1.00  0.00     0.157 A 
ATOM      3  C   UNL     1      10.328 -28.362  17.136  1.00  0.00     0.050 A 
ATOM      4  C   UNL     1      10.352 -28.731  15.789  1.00  0.00     0.008 A 
ATOM      5  C   UNL     1       9.302 -29.485  15.244  1.00  0.00    -0.040 A 
ATOM      6  C   UNL     1       8.219 -29.849  16.058  1.00  0.00     0.054 A 
ENDROOT
BRANCH   1   7
ATOM      7  O   UNL     1       7.125 -29.828  18.265  1.00  0.00    -0.493 OA
ATOM      8  C   UNL     1       5.875 -29.147  18.312  1.00  0.00     0.278 C 
ENDBRANCH   1   7
BRANCH   2   9
ATOM      9  O   UNL     1       9.227 -28.366  19.295  1.00  0.00    -0.504 OA
ATOM     10  H   UNL     1       8.930 -29.012  20.016  1.00  0.00     0.293 HD
ENDBRANCH   2   9
BRANCH   5  11
ATOM     11  C   UNL     1       9.313 -29.860  13.785  1.00  0.00     0.062 C 
BRANCH  11  12
ATOM     12  C   UNL     1      10.722 -29.986  13.278  1.00  0.00    -0.030 C 
ATOM     13  C   UNL     1      11.175 -31.120  12.736  1.00  0.00     0.004 C 
ENDBRANCH  11  12
ENDBRANCH   5  11
TORSDOF 4
ENDMDL
MODEL 6
REMARK VINA RESULT:    -4.038      1.587      3.458
REMARK INTER + INTRA:          -5.055
REMARK INTER:                  -4.824
REMARK INTRA:                  -0.231
REMARK UNBOUND:                -0.191
REMARK SMILES C=CCc1ccc(O)c(OC)c1
REMARK SMILES IDX 9 1 7 2 6 3 5 4 4 5 12 6 10 7 11 8 8 9 3 11 2 12 1 13
REMARK H PARENT 8 10
REMARK Flexibility Score: inf
ROOT
ATOM      1  C   UNL     1       9.082 -29.209  16.555  1.00  0.00     0.160 A 
ATOM      2  C   UNL     1       9.745 -29.138  15.321  1.00  0.00     0.157 A 
ATOM      3  C   UNL     1       9.165 -29.699  14.176  1.00  0.00     0.050 A 
ATOM      4  C   UNL     1       7.924 -30.333  14.255  1.00  0.00     0.008 A 
ATOM      5  C   UNL     1       7.252 -30.422  15.484  1.00  0.00    -0.040 A 
ATOM      6  C   UNL     1       7.830 -29.851  16.629  1.00  0.00     0.054 A 
ENDROOT
BRANCH   1   7
ATOM      7  O   UNL     1       9.694 -28.630  17.678  1.00  0.00    -0.493 OA
ATOM      8  C   UNL     1       9.237 -28.790  19.017  1.00  0.00     0.278 C 
ENDBRANCH   1   7
BRANCH   2   9
ATOM      9  O   UNL     1      10.985 -28.504  15.241  1.00  0.00    -0.504 OA
ATOM     10  H   UNL     1      11.060 -27.500  15.130  1.00  0.00     0.293 HD
ENDBRANCH   2   9
BRANCH   5  11
ATOM     11  C   UNL     1       5.900 -31.082  15.567  1.00  0.00     0.062 C 
BRANCH  11  12
ATOM     12  C   UNL     1       6.036 -32.578  15.543  1.00  0.00    -0.030 C 
ATOM     13  C   UNL     1       6.531 -33.255  16.584  1.00  0.00     0.004 C 
ENDBRANCH  11  12
ENDBRANCH   5  11
TORSDOF 4
ENDMDL
MODEL 7
REMARK VINA RESULT:    -4.028      1.722      3.293
REMARK INTER + INTRA:          -5.044
REMARK INTER:                  -4.813
REMARK INTRA:                  -0.230
REMARK UNBOUND:                -0.191
REMARK SMILES C=CCc1ccc(O)c(OC)c1
REMARK SMILES IDX 9 1 7 2 6 3 5 4 4 5 12 6 10 7 11 8 8 9 3 11 2 12 1 13
REMARK H PARENT 8 10
REMARK Flexibility Score: inf
ROOT
ATOM      1  C   UNL     1       9.235 -29.194  15.755  1.00  0.00     0.160 A 
ATOM      2  C   UNL     1      10.190 -29.053  14.737  1.00  0.00     0.157 A 
ATOM      3  C   UNL     1       9.871 -29.404  13.419  1.00  0.00     0.050 A 
ATOM      4  C   UNL     1       8.603 -29.899  13.110  1.00  0.00     0.008 A 
ATOM      5  C   UNL     1       7.640 -30.056  14.118  1.00  0.00    -0.040 A 
ATOM      6  C   UNL     1       7.958 -29.695  15.437  1.00  0.00     0.054 A 
ENDROOT
BRANCH   1   7
ATOM      7  O   UNL     1       9.592 -28.827  17.063  1.00  0.00    -0.493 OA
ATOM      8  C   UNL     1       8.905 -29.253  18.235  1.00  0.00     0.278 C 
ENDBRANCH   1   7
BRANCH   2   9
ATOM      9  O   UNL     1      11.457 -28.559  15.045  1.00  0.00    -0.504 OA
ATOM     10  H   UNL     1      12.298 -28.994  14.685  1.00  0.00     0.293 HD
ENDBRANCH   2   9
BRANCH   5  11
ATOM     11  C   UNL     1       6.262 -30.564  13.783  1.00  0.00     0.062 C 
BRANCH  11  12
ATOM     12  C   UNL     1       6.176 -30.949  12.333  1.00  0.00    -0.030 C 
ATOM     13  C   UNL     1       5.875 -32.194  11.953  1.00  0.00     0.004 C 
ENDBRANCH  11  12
ENDBRANCH   5  11
TORSDOF 4
ENDMDL
MODEL 8
REMARK VINA RESULT:    -4.020      2.712      4.701
REMARK INTER + INTRA:          -5.033
REMARK INTER:                  -4.801
REMARK INTRA:                  -0.232
REMARK UNBOUND:                -0.191
REMARK SMILES C=CCc1ccc(O)c(OC)c1
REMARK SMILES IDX 9 1 7 2 6 3 5 4 4 5 12 6 10 7 11 8 8 9 3 11 2 12 1 13
REMARK H PARENT 8 10
REMARK Flexibility Score: inf
ROOT
ATOM      1  C   UNL     1      10.282 -29.444  13.977  1.00  0.00     0.160 A 
ATOM      2  C   UNL     1      11.090 -28.721  14.867  1.00  0.00     0.157 A 
ATOM      3  C   UNL     1      10.618 -28.405  16.148  1.00  0.00     0.050 A 
ATOM      4  C   UNL     1       9.342 -28.805  16.546  1.00  0.00     0.008 A 
ATOM      5  C   UNL     1       8.517 -29.519  15.664  1.00  0.00    -0.040 A 
ATOM      6  C   UNL     1       8.994 -29.844  14.384  1.00  0.00     0.054 A 
ENDROOT
BRANCH   1   7
ATOM      7  O   UNL     1      10.792 -29.745  12.704  1.00  0.00    -0.493 OA
ATOM      8  C   UNL     1      10.831 -31.053  12.141  1.00  0.00     0.278 C 
ENDBRANCH   1   7
BRANCH   2   9
ATOM      9  O   UNL     1      12.365 -28.321  14.470  1.00  0.00    -0.504 OA
ATOM     10  H   UNL     1      12.621 -27.343  14.416  1.00  0.00     0.293 HD
ENDBRANCH   2   9
BRANCH   5  11
ATOM     11  C   UNL     1       7.150 -29.976  16.102  1.00  0.00     0.062 C 
BRANCH  11  12
ATOM     12  C   UNL     1       7.016 -29.898  17.597  1.00  0.00    -0.030 C 
ATOM     13  C   UNL     1       6.030 -29.209  18.179  1.00  0.00     0.004 C 
ENDBRANCH  11  12
ENDBRANCH   5  11
TORSDOF 4
ENDMDL
MODEL 9
REMARK VINA RESULT:    -3.931      2.577      4.407
REMARK INTER + INTRA:          -4.926
REMARK INTER:                  -4.741
REMARK INTRA:                  -0.184
REMARK UNBOUND:                -0.191
REMARK SMILES C=CCc1ccc(O)c(OC)c1
REMARK SMILES IDX 9 1 7 2 6 3 5 4 4 5 12 6 10 7 11 8 8 9 3 11 2 12 1 13
REMARK H PARENT 8 10
REMARK Flexibility Score: inf
ROOT
ATOM      1  C   UNL     1       8.767 -29.557  14.186  1.00  0.00     0.160 A 
ATOM      2  C   UNL     1       7.549 -29.931  13.601  1.00  0.00     0.157 A 
ATOM      3  C   UNL     1       6.457 -30.278  14.407  1.00  0.00     0.050 A 
ATOM      4  C   UNL     1       6.575 -30.257  15.798  1.00  0.00     0.008 A 
ATOM      5  C   UNL     1       7.790 -29.896  16.399  1.00  0.00    -0.040 A 
ATOM      6  C   UNL     1       8.881 -29.539  15.590  1.00  0.00     0.054 A 
ENDROOT
BRANCH   1   7
ATOM      7  O   UNL     1       9.836 -29.212  13.344  1.00  0.00    -0.493 OA
ATOM      8  C   UNL     1      11.200 -29.167  13.750  1.00  0.00     0.278 C 
ENDBRANCH   1   7
BRANCH   2   9
ATOM      9  O   UNL     1       7.430 -29.952  12.211  1.00  0.00    -0.504 OA
ATOM     10  H   UNL     1       8.049 -29.411  11.619  1.00  0.00     0.293 HD
ENDBRANCH   2   9
BRANCH   5  11
ATOM     11  C   UNL     1       7.912 -29.846  17.900  1.00  0.00     0.062 C 
BRANCH  11  12
ATOM     12  C   UNL     1       9.162 -29.118  18.308  1.00  0.00    -0.030 C 
ATOM     13  C   UNL     1       9.379 -28.750  19.574  1.00  0.00     0.004 C 
ENDBRANCH  11  12
ENDBRANCH   5  11
TORSDOF 4
ENDMDL
