MODEL 1
REMARK VINA RESULT:    -6.779      0.000      0.000
REMARK INTER + INTRA:          -8.302
REMARK INTER:                  -8.166
REMARK INTRA:                  -0.136
REMARK UNBOUND:                -0.136
REMARK SMILES O=c1c(O)c(-c2ccc(O)c(O)c2)oc2cc(O)cc(O)c12
REMARK SMILES IDX 5 1 3 2 2 3 1 4 22 5 20 6 19 7 17 8 16 9 15 10 14 11 6 12
REMARK SMILES IDX 7 13 8 14 9 15 13 16 11 17 10 18 12 20 4 22 21 24 18 26
REMARK H PARENT 10 19 12 21 4 23 21 25 18 27
REMARK Flexibility Score: inf
ROOT
ATOM      1  C   UNL     1      62.145  40.904   9.615  1.00  0.00     0.180 A 
ATOM      2  C   UNL     1      61.654  41.795   8.643  1.00  0.00     0.208 A 
ATOM      3  C   UNL     1      60.708  41.335   7.714  1.00  0.00     0.238 A 
ATOM      4  O   UNL     1      60.314  42.121   6.814  1.00  0.00    -0.285 OA
ATOM      5  C   UNL     1      60.253  39.995   7.776  1.00  0.00     0.111 A 
ATOM      6  C   UNL     1      59.267  39.434   6.910  1.00  0.00     0.134 A 
ATOM      7  C   UNL     1      58.988  38.063   6.979  1.00  0.00     0.093 A 
ATOM      8  C   UNL     1      59.610  37.248   7.922  1.00  0.00     0.123 A 
ATOM      9  C   UNL     1      60.532  37.799   8.814  1.00  0.00     0.094 A 
ATOM     10  C   UNL     1      60.857  39.155   8.747  1.00  0.00     0.146 A 
ATOM     11  O   UNL     1      61.747  39.637   9.606  1.00  0.00    -0.452 OA
ENDROOT
BRANCH   1  12
ATOM     12  C   UNL     1      63.124  41.322  10.643  1.00  0.00     0.025 A 
ATOM     13  C   UNL     1      64.414  41.714  10.250  1.00  0.00     0.016 A 
ATOM     14  C   UNL     1      65.361  42.092  11.206  1.00  0.00     0.051 A 
ATOM     15  C   UNL     1      65.039  42.071  12.567  1.00  0.00     0.157 A 
ATOM     16  C   UNL     1      62.810  41.282  12.014  1.00  0.00     0.062 A 
ATOM     17  C   UNL     1      63.760  41.660  12.974  1.00  0.00     0.158 A 
BRANCH  15  18
ATOM     18  O   UNL     1      66.004  42.456  13.497  1.00  0.00    -0.504 OA
ATOM     19  H   UNL     1      66.228  43.429  13.669  1.00  0.00     0.293 HD
ENDBRANCH  15  18
BRANCH  17  20
ATOM     20  O   UNL     1      63.437  41.622  14.330  1.00  0.00    -0.504 OA
ATOM     21  H   UNL     1      62.521  41.896  14.665  1.00  0.00     0.293 HD
ENDBRANCH  17  20
ENDBRANCH   1  12
BRANCH   2  22
ATOM     22  O   UNL     1      62.134  43.107   8.586  1.00  0.00    -0.502 OA
ATOM     23  H   UNL     1      62.813  43.408   7.897  1.00  0.00     0.293 HD
ENDBRANCH   2  22
BRANCH   6  24
ATOM     24  O   UNL     1      58.519  40.178   5.992  1.00  0.00    -0.507 OA
ATOM     25  H   UNL     1      57.511  40.230   5.980  1.00  0.00     0.293 HD
ENDBRANCH   6  24
BRANCH   8  26
ATOM     26  O   UNL     1      59.296  35.891   7.973  1.00  0.00    -0.508 OA
ATOM     27  H   UNL     1      59.116  35.422   8.852  1.00  0.00     0.293 HD
ENDBRANCH   8  26
TORSDOF 6
ENDMDL
MODEL 2
REMARK VINA RESULT:    -6.206      2.496      3.969
REMARK INTER + INTRA:          -7.612
REMARK INTER:                  -7.291
REMARK INTRA:                  -0.321
REMARK UNBOUND:                -0.136
REMARK SMILES O=c1c(O)c(-c2ccc(O)c(O)c2)oc2cc(O)cc(O)c12
REMARK SMILES IDX 5 1 3 2 2 3 1 4 22 5 20 6 19 7 17 8 16 9 15 10 14 11 6 12
REMARK SMILES IDX 7 13 8 14 9 15 13 16 11 17 10 18 12 20 4 22 21 24 18 26
REMARK H PARENT 10 19 12 21 4 23 21 25 18 27
REMARK Flexibility Score: inf
ROOT
ATOM      1  C   UNL     1      63.327  40.545  10.326  1.00  0.00     0.180 A 
ATOM      2  C   UNL     1      64.592  40.928   9.848  1.00  0.00     0.208 A 
ATOM      3  C   UNL     1      64.759  41.163   8.474  1.00  0.00     0.238 A 
ATOM      4  O   UNL     1      65.906  41.453   8.045  1.00  0.00    -0.285 OA
ATOM      5  C   UNL     1      63.655  41.027   7.598  1.00  0.00     0.111 A 
ATOM      6  C   UNL     1      63.699  41.279   6.193  1.00  0.00     0.134 A 
ATOM      7  C   UNL     1      62.581  40.988   5.404  1.00  0.00     0.093 A 
ATOM      8  C   UNL     1      61.400  40.515   5.974  1.00  0.00     0.123 A 
ATOM      9  C   UNL     1      61.326  40.321   7.354  1.00  0.00     0.094 A 
ATOM     10  C   UNL     1      62.437  40.570   8.164  1.00  0.00     0.146 A 
ATOM     11  O   UNL     1      62.328  40.363   9.470  1.00  0.00    -0.452 OA
ENDROOT
BRANCH   1  12
ATOM     12  C   UNL     1      63.068  40.305  11.764  1.00  0.00     0.025 A 
ATOM     13  C   UNL     1      62.747  41.387  12.598  1.00  0.00     0.016 A 
ATOM     14  C   UNL     1      62.519  41.186  13.962  1.00  0.00     0.051 A 
ATOM     15  C   UNL     1      62.623  39.906  14.516  1.00  0.00     0.157 A 
ATOM     16  C   UNL     1      63.193  39.022  12.327  1.00  0.00     0.062 A 
ATOM     17  C   UNL     1      62.966  38.819  13.696  1.00  0.00     0.158 A 
BRANCH  15  18
ATOM     18  O   UNL     1      62.388  39.736  15.880  1.00  0.00    -0.504 OA
ATOM     19  H   UNL     1      61.519  39.354  16.232  1.00  0.00     0.293 HD
ENDBRANCH  15  18
BRANCH  17  20
ATOM     20  O   UNL     1      63.086  37.542  14.243  1.00  0.00    -0.504 OA
ATOM     21  H   UNL     1      62.558  37.264  15.062  1.00  0.00     0.293 HD
ENDBRANCH  17  20
ENDBRANCH   1  12
BRANCH   2  22
ATOM     22  O   UNL     1      65.674  41.035  10.728  1.00  0.00    -0.502 OA
ATOM     23  H   UNL     1      65.891  40.319  11.412  1.00  0.00     0.293 HD
ENDBRANCH   2  22
BRANCH   6  24
ATOM     24  O   UNL     1      64.799  41.838   5.535  1.00  0.00    -0.507 OA
ATOM     25  H   UNL     1      64.985  41.747   4.547  1.00  0.00     0.293 HD
ENDBRANCH   6  24
BRANCH   8  26
ATOM     26  O   UNL     1      60.301  40.250   5.159  1.00  0.00    -0.508 OA
ATOM     27  H   UNL     1      59.435  39.889   5.541  1.00  0.00     0.293 HD
ENDBRANCH   8  26
TORSDOF 6
ENDMDL
MODEL 3
REMARK VINA RESULT:    -6.109      1.545      6.709
REMARK INTER + INTRA:          -7.494
REMARK INTER:                  -7.942
REMARK INTRA:                   0.447
REMARK UNBOUND:                -0.136
REMARK SMILES O=c1c(O)c(-c2ccc(O)c(O)c2)oc2cc(O)cc(O)c12
REMARK SMILES IDX 5 1 3 2 2 3 1 4 22 5 20 6 19 7 17 8 16 9 15 10 14 11 6 12
REMARK SMILES IDX 7 13 8 14 9 15 13 16 11 17 10 18 12 20 4 22 21 24 18 26
REMARK H PARENT 10 19 12 21 4 23 21 25 18 27
REMARK Flexibility Score: inf
ROOT
ATOM      1  C   UNL     1      61.974  39.960   8.641  1.00  0.00     0.180 A 
ATOM      2  C   UNL     1      62.825  40.880   8.004  1.00  0.00     0.208 A 
ATOM      3  C   UNL     1      63.673  41.679   8.788  1.00  0.00     0.238 A 
ATOM      4  O   UNL     1      64.393  42.538   8.216  1.00  0.00    -0.285 OA
ATOM      5  C   UNL     1      63.671  41.536  10.197  1.00  0.00     0.111 A 
ATOM      6  C   UNL     1      64.518  42.265  11.086  1.00  0.00     0.134 A 
ATOM      7  C   UNL     1      64.339  42.138  12.469  1.00  0.00     0.093 A 
ATOM      8  C   UNL     1      63.391  41.262  12.995  1.00  0.00     0.123 A 
ATOM      9  C   UNL     1      62.598  40.501  12.134  1.00  0.00     0.094 A 
ATOM     10  C   UNL     1      62.728  40.632  10.750  1.00  0.00     0.146 A 
ATOM     11  O   UNL     1      61.948  39.897   9.967  1.00  0.00    -0.452 OA
ENDROOT
BRANCH   1  12
ATOM     12  C   UNL     1      61.070  39.067   7.881  1.00  0.00     0.025 A 
ATOM     13  C   UNL     1      60.708  39.406   6.568  1.00  0.00     0.016 A 
ATOM     14  C   UNL     1      59.840  38.588   5.839  1.00  0.00     0.051 A 
ATOM     15  C   UNL     1      59.309  37.430   6.416  1.00  0.00     0.157 A 
ATOM     16  C   UNL     1      60.519  37.913   8.465  1.00  0.00     0.062 A 
ATOM     17  C   UNL     1      59.646  37.092   7.737  1.00  0.00     0.158 A 
BRANCH  15  18
ATOM     18  O   UNL     1      58.447  36.632   5.664  1.00  0.00    -0.504 OA
ATOM     19  H   UNL     1      58.174  35.704   5.964  1.00  0.00     0.293 HD
ENDBRANCH  15  18
BRANCH  17  20
ATOM     20  O   UNL     1      59.110  35.946   8.323  1.00  0.00    -0.504 OA
ATOM     21  H   UNL     1      58.135  35.894   8.592  1.00  0.00     0.293 HD
ENDBRANCH  17  20
ENDBRANCH   1  12
BRANCH   2  22
ATOM     22  O   UNL     1      62.795  41.020   6.613  1.00  0.00    -0.502 OA
ATOM     23  H   UNL     1      63.625  41.221   6.069  1.00  0.00     0.293 HD
ENDBRANCH   2  22
BRANCH   6  24
ATOM     24  O   UNL     1      65.559  43.098  10.665  1.00  0.00    -0.507 OA
ATOM     25  H   UNL     1      66.055  43.744  11.261  1.00  0.00     0.293 HD
ENDBRANCH   6  24
BRANCH   8  26
ATOM     26  O   UNL     1      63.251  41.149  14.377  1.00  0.00    -0.508 OA
ATOM     27  H   UNL     1      63.496  40.296  14.866  1.00  0.00     0.293 HD
ENDBRANCH   8  26
TORSDOF 6
ENDMDL
MODEL 4
REMARK VINA RESULT:    -5.764     18.386     21.055
REMARK INTER + INTRA:          -7.080
REMARK INTER:                  -7.148
REMARK INTRA:                   0.068
REMARK UNBOUND:                -0.136
REMARK SMILES O=c1c(O)c(-c2ccc(O)c(O)c2)oc2cc(O)cc(O)c12
REMARK SMILES IDX 5 1 3 2 2 3 1 4 22 5 20 6 19 7 17 8 16 9 15 10 14 11 6 12
REMARK SMILES IDX 7 13 8 14 9 15 13 16 11 17 10 18 12 20 4 22 21 24 18 26
REMARK H PARENT 10 19 12 21 4 23 21 25 18 27
REMARK Flexibility Score: inf
ROOT
ATOM      1  C   UNL     1      49.632  26.947  19.806  1.00  0.00     0.180 A 
ATOM      2  C   UNL     1      48.365  27.234  20.343  1.00  0.00     0.208 A 
ATOM      3  C   UNL     1      47.541  28.161  19.686  1.00  0.00     0.238 A 
ATOM      4  O   UNL     1      46.431  28.454  20.201  1.00  0.00    -0.285 OA
ATOM      5  C   UNL     1      47.988  28.778  18.492  1.00  0.00     0.111 A 
ATOM      6  C   UNL     1      47.220  29.703  17.722  1.00  0.00     0.134 A 
ATOM      7  C   UNL     1      47.811  30.349  16.629  1.00  0.00     0.093 A 
ATOM      8  C   UNL     1      49.117  30.058  16.241  1.00  0.00     0.123 A 
ATOM      9  C   UNL     1      49.857  29.112  16.952  1.00  0.00     0.094 A 
ATOM     10  C   UNL     1      49.307  28.476  18.067  1.00  0.00     0.146 A 
ATOM     11  O   UNL     1      50.048  27.590  18.722  1.00  0.00    -0.452 OA
ENDROOT
BRANCH   1  12
ATOM     12  C   UNL     1      50.546  25.962  20.428  1.00  0.00     0.025 A 
ATOM     13  C   UNL     1      51.140  24.971  19.630  1.00  0.00     0.016 A 
ATOM     14  C   UNL     1      51.989  24.019  20.199  1.00  0.00     0.051 A 
ATOM     15  C   UNL     1      52.246  24.032  21.574  1.00  0.00     0.157 A 
ATOM     16  C   UNL     1      50.789  25.960  21.813  1.00  0.00     0.062 A 
ATOM     17  C   UNL     1      51.641  25.004  22.386  1.00  0.00     0.158 A 
BRANCH  15  18
ATOM     18  O   UNL     1      53.101  23.070  22.113  1.00  0.00    -0.504 OA
ATOM     19  H   UNL     1      53.659  23.249  22.938  1.00  0.00     0.293 HD
ENDBRANCH  15  18
BRANCH  17  20
ATOM     20  O   UNL     1      51.881  25.015  23.759  1.00  0.00    -0.504 OA
ATOM     21  H   UNL     1      52.724  24.614  24.154  1.00  0.00     0.293 HD
ENDBRANCH  17  20
ENDBRANCH   1  12
BRANCH   2  22
ATOM     22  O   UNL     1      47.953  26.630  21.535  1.00  0.00    -0.502 OA
ATOM     23  H   UNL     1      47.016  26.739  21.905  1.00  0.00     0.293 HD
ENDBRANCH   2  22
BRANCH   6  24
ATOM     24  O   UNL     1      45.875  29.997  17.968  1.00  0.00    -0.507 OA
ATOM     25  H   UNL     1      45.234  29.390  18.457  1.00  0.00     0.293 HD
ENDBRANCH   6  24
BRANCH   8  26
ATOM     26  O   UNL     1      49.668  30.710  15.139  1.00  0.00    -0.508 OA
ATOM     27  H   UNL     1      50.609  31.085  15.162  1.00  0.00     0.293 HD
ENDBRANCH   8  26
TORSDOF 6
ENDMDL
MODEL 5
REMARK VINA RESULT:    -5.761     18.015     20.337
REMARK INTER + INTRA:          -7.076
REMARK INTER:                  -6.847
REMARK INTRA:                  -0.229
REMARK UNBOUND:                -0.136
REMARK SMILES O=c1c(O)c(-c2ccc(O)c(O)c2)oc2cc(O)cc(O)c12
REMARK SMILES IDX 5 1 3 2 2 3 1 4 22 5 20 6 19 7 17 8 16 9 15 10 14 11 6 12
REMARK SMILES IDX 7 13 8 14 9 15 13 16 11 17 10 18 12 20 4 22 21 24 18 26
REMARK H PARENT 10 19 12 21 4 23 21 25 18 27
REMARK Flexibility Score: inf
ROOT
ATOM      1  C   UNL     1      47.900  29.755  16.999  1.00  0.00     0.180 A 
ATOM      2  C   UNL     1      49.269  29.446  17.084  1.00  0.00     0.208 A 
ATOM      3  C   UNL     1      49.716  28.609  18.119  1.00  0.00     0.238 A 
ATOM      4  O   UNL     1      50.949  28.381  18.221  1.00  0.00    -0.285 OA
ATOM      5  C   UNL     1      48.787  28.080  19.047  1.00  0.00     0.111 A 
ATOM      6  C   UNL     1      49.122  27.190  20.111  1.00  0.00     0.134 A 
ATOM      7  C   UNL     1      48.144  26.832  21.046  1.00  0.00     0.093 A 
ATOM      8  C   UNL     1      46.830  27.278  20.921  1.00  0.00     0.123 A 
ATOM      9  C   UNL     1      46.478  28.101  19.850  1.00  0.00     0.094 A 
ATOM     10  C   UNL     1      47.439  28.504  18.920  1.00  0.00     0.146 A 
ATOM     11  O   UNL     1      47.064  29.296  17.923  1.00  0.00    -0.452 OA
ENDROOT
BRANCH   1  12
ATOM     12  C   UNL     1      47.351  30.609  15.922  1.00  0.00     0.025 A 
ATOM     13  C   UNL     1      47.299  30.116  14.608  1.00  0.00     0.016 A 
ATOM     14  C   UNL     1      46.804  30.912  13.572  1.00  0.00     0.051 A 
ATOM     15  C   UNL     1      46.367  32.216  13.829  1.00  0.00     0.157 A 
ATOM     16  C   UNL     1      46.931  31.927  16.173  1.00  0.00     0.062 A 
ATOM     17  C   UNL     1      46.434  32.728  15.134  1.00  0.00     0.158 A 
BRANCH  15  18
ATOM     18  O   UNL     1      45.875  32.986  12.775  1.00  0.00    -0.504 OA
ATOM     19  H   UNL     1      46.376  33.789  12.417  1.00  0.00     0.293 HD
ENDBRANCH  15  18
BRANCH  17  20
ATOM     20  O   UNL     1      46.014  34.031  15.396  1.00  0.00    -0.504 OA
ATOM     21  H   UNL     1      45.099  34.362  15.111  1.00  0.00     0.293 HD
ENDBRANCH  17  20
ENDBRANCH   1  12
BRANCH   2  22
ATOM     22  O   UNL     1      50.172  29.998  16.170  1.00  0.00    -0.502 OA
ATOM     23  H   UNL     1      50.126  30.967  15.878  1.00  0.00     0.293 HD
ENDBRANCH   2  22
BRANCH   6  24
ATOM     24  O   UNL     1      50.385  26.611  20.276  1.00  0.00    -0.507 OA
ATOM     25  H   UNL     1      50.666  25.724  19.886  1.00  0.00     0.293 HD
ENDBRANCH   6  24
BRANCH   8  26
ATOM     26  O   UNL     1      45.879  26.890  21.862  1.00  0.00    -0.508 OA
ATOM     27  H   UNL     1      45.797  25.926  22.165  1.00  0.00     0.293 HD
ENDBRANCH   8  26
TORSDOF 6
ENDMDL
MODEL 6
REMARK VINA RESULT:    -5.615      1.619      6.846
REMARK INTER + INTRA:          -6.900
REMARK INTER:                  -7.346
REMARK INTRA:                   0.446
REMARK UNBOUND:                -0.136
REMARK SMILES O=c1c(O)c(-c2ccc(O)c(O)c2)oc2cc(O)cc(O)c12
REMARK SMILES IDX 5 1 3 2 2 3 1 4 22 5 20 6 19 7 17 8 16 9 15 10 14 11 6 12
REMARK SMILES IDX 7 13 8 14 9 15 13 16 11 17 10 18 12 20 4 22 21 24 18 26
REMARK H PARENT 10 19 12 21 4 23 21 25 18 27
REMARK Flexibility Score: inf
ROOT
ATOM      1  C   UNL     1      61.703  39.784   8.585  1.00  0.00     0.180 A 
ATOM      2  C   UNL     1      62.388  40.919   8.118  1.00  0.00     0.208 A 
ATOM      3  C   UNL     1      63.171  41.660   9.016  1.00  0.00     0.238 A 
ATOM      4  O   UNL     1      63.738  42.705   8.604  1.00  0.00    -0.285 OA
ATOM      5  C   UNL     1      63.272  41.248  10.367  1.00  0.00     0.111 A 
ATOM      6  C   UNL     1      64.070  41.900  11.355  1.00  0.00     0.134 A 
ATOM      7  C   UNL     1      63.994  41.484  12.690  1.00  0.00     0.093 A 
ATOM      8  C   UNL     1      63.200  40.400  13.061  1.00  0.00     0.123 A 
ATOM      9  C   UNL     1      62.462  39.717  12.093  1.00  0.00     0.094 A 
ATOM     10  C   UNL     1      62.490  40.131  10.760  1.00  0.00     0.146 A 
ATOM     11  O   UNL     1      61.766  39.462   9.872  1.00  0.00    -0.452 OA
ENDROOT
BRANCH   1  12
ATOM     12  C   UNL     1      60.878  38.938   7.693  1.00  0.00     0.025 A 
ATOM     13  C   UNL     1      60.111  37.898   8.241  1.00  0.00     0.016 A 
ATOM     14  C   UNL     1      59.342  37.074   7.415  1.00  0.00     0.051 A 
ATOM     15  C   UNL     1      59.339  37.266   6.030  1.00  0.00     0.157 A 
ATOM     16  C   UNL     1      60.889  39.116   6.298  1.00  0.00     0.062 A 
ATOM     17  C   UNL     1      60.119  38.289   5.467  1.00  0.00     0.158 A 
BRANCH  15  18
ATOM     18  O   UNL     1      58.559  36.430   5.232  1.00  0.00    -0.504 OA
ATOM     19  H   UNL     1      58.798  36.230   4.268  1.00  0.00     0.293 HD
ENDBRANCH  15  18
BRANCH  17  20
ATOM     20  O   UNL     1      60.131  38.478   4.086  1.00  0.00    -0.504 OA
ATOM     21  H   UNL     1      60.916  38.187   3.517  1.00  0.00     0.293 HD
ENDBRANCH  17  20
ENDBRANCH   1  12
BRANCH   2  22
ATOM     22  O   UNL     1      62.255  41.320   6.785  1.00  0.00    -0.502 OA
ATOM     23  H   UNL     1      62.438  42.269   6.482  1.00  0.00     0.293 HD
ENDBRANCH   2  22
BRANCH   6  24
ATOM     24  O   UNL     1      64.968  42.936  11.075  1.00  0.00    -0.507 OA
ATOM     25  H   UNL     1      65.523  43.003  10.236  1.00  0.00     0.293 HD
ENDBRANCH   6  24
BRANCH   8  26
ATOM     26  O   UNL     1      63.160  40.003  14.397  1.00  0.00    -0.508 OA
ATOM     27  H   UNL     1      62.364  40.212  14.987  1.00  0.00     0.293 HD
ENDBRANCH   8  26
TORSDOF 6
ENDMDL
MODEL 7
REMARK VINA RESULT:    -5.518     17.878     19.445
REMARK INTER + INTRA:          -6.783
REMARK INTER:                  -6.491
REMARK INTRA:                  -0.291
REMARK UNBOUND:                -0.136
REMARK SMILES O=c1c(O)c(-c2ccc(O)c(O)c2)oc2cc(O)cc(O)c12
REMARK SMILES IDX 5 1 3 2 2 3 1 4 22 5 20 6 19 7 17 8 16 9 15 10 14 11 6 12
REMARK SMILES IDX 7 13 8 14 9 15 13 16 11 17 10 18 12 20 4 22 21 24 18 26
REMARK H PARENT 10 19 12 21 4 23 21 25 18 27
REMARK Flexibility Score: inf
ROOT
ATOM      1  C   UNL     1      47.106  30.505  16.600  1.00  0.00     0.180 A 
ATOM      2  C   UNL     1      46.810  30.119  15.281  1.00  0.00     0.208 A 
ATOM      3  C   UNL     1      46.431  31.102  14.352  1.00  0.00     0.238 A 
ATOM      4  O   UNL     1      46.115  30.742  13.188  1.00  0.00    -0.285 OA
ATOM      5  C   UNL     1      46.367  32.459  14.750  1.00  0.00     0.111 A 
ATOM      6  C   UNL     1      46.034  33.542  13.883  1.00  0.00     0.134 A 
ATOM      7  C   UNL     1      45.875  34.828  14.413  1.00  0.00     0.093 A 
ATOM      8  C   UNL     1      46.100  35.082  15.765  1.00  0.00     0.123 A 
ATOM      9  C   UNL     1      46.484  34.040  16.611  1.00  0.00     0.094 A 
ATOM     10  C   UNL     1      46.617  32.741  16.118  1.00  0.00     0.146 A 
ATOM     11  O   UNL     1      46.973  31.777  16.958  1.00  0.00    -0.452 OA
ENDROOT
BRANCH   1  12
ATOM     12  C   UNL     1      47.537  29.530  17.628  1.00  0.00     0.025 A 
ATOM     13  C   UNL     1      46.637  29.146  18.635  1.00  0.00     0.016 A 
ATOM     14  C   UNL     1      47.029  28.244  19.627  1.00  0.00     0.051 A 
ATOM     15  C   UNL     1      48.328  27.724  19.638  1.00  0.00     0.157 A 
ATOM     16  C   UNL     1      48.848  29.023  17.653  1.00  0.00     0.062 A 
ATOM     17  C   UNL     1      49.244  28.118  18.649  1.00  0.00     0.158 A 
BRANCH  15  18
ATOM     18  O   UNL     1      48.690  26.824  20.639  1.00  0.00    -0.504 OA
ATOM     19  H   UNL     1      49.546  26.284  20.594  1.00  0.00     0.293 HD
ENDBRANCH  15  18
BRANCH  17  20
ATOM     20  O   UNL     1      50.544  27.615  18.661  1.00  0.00    -0.504 OA
ATOM     21  H   UNL     1      50.781  26.745  18.200  1.00  0.00     0.293 HD
ENDBRANCH  17  20
ENDBRANCH   1  12
BRANCH   2  22
ATOM     22  O   UNL     1      46.857  28.770  14.916  1.00  0.00    -0.502 OA
ATOM     23  H   UNL     1      47.020  28.030  15.588  1.00  0.00     0.293 HD
ENDBRANCH   2  22
BRANCH   6  24
ATOM     24  O   UNL     1      45.877  33.415  12.499  1.00  0.00    -0.507 OA
ATOM     25  H   UNL     1      45.036  33.646  11.992  1.00  0.00     0.293 HD
ENDBRANCH   6  24
BRANCH   8  26
ATOM     26  O   UNL     1      45.948  36.377  16.256  1.00  0.00    -0.508 OA
ATOM     27  H   UNL     1      46.506  36.719  17.030  1.00  0.00     0.293 HD
ENDBRANCH   8  26
TORSDOF 6
ENDMDL
MODEL 8
REMARK VINA RESULT:    -5.472     18.276     20.707
REMARK INTER + INTRA:          -6.728
REMARK INTER:                  -6.530
REMARK INTRA:                  -0.198
REMARK UNBOUND:                -0.136
REMARK SMILES O=c1c(O)c(-c2ccc(O)c(O)c2)oc2cc(O)cc(O)c12
REMARK SMILES IDX 5 1 3 2 2 3 1 4 22 5 20 6 19 7 17 8 16 9 15 10 14 11 6 12
REMARK SMILES IDX 7 13 8 14 9 15 13 16 11 17 10 18 12 20 4 22 21 24 18 26
REMARK H PARENT 10 19 12 21 4 23 21 25 18 27
REMARK Flexibility Score: inf
ROOT
ATOM      1  C   UNL     1      48.059  29.326  17.353  1.00  0.00     0.180 A 
ATOM      2  C   UNL     1      49.421  29.013  17.498  1.00  0.00     0.208 A 
ATOM      3  C   UNL     1      49.831  28.250  18.604  1.00  0.00     0.238 A 
ATOM      4  O   UNL     1      51.058  28.019  18.757  1.00  0.00    -0.285 OA
ATOM      5  C   UNL     1      48.871  27.798  19.542  1.00  0.00     0.111 A 
ATOM      6  C   UNL     1      49.168  26.985  20.677  1.00  0.00     0.134 A 
ATOM      7  C   UNL     1      48.162  26.705  21.608  1.00  0.00     0.093 A 
ATOM      8  C   UNL     1      46.856  27.153  21.414  1.00  0.00     0.123 A 
ATOM      9  C   UNL     1      46.541  27.898  20.276  1.00  0.00     0.094 A 
ATOM     10  C   UNL     1      47.532  28.223  19.347  1.00  0.00     0.146 A 
ATOM     11  O   UNL     1      47.193  28.943  18.285  1.00  0.00    -0.452 OA
ENDROOT
BRANCH   1  12
ATOM     12  C   UNL     1      47.548  30.104  16.202  1.00  0.00     0.025 A 
ATOM     13  C   UNL     1      46.938  31.349  16.425  1.00  0.00     0.016 A 
ATOM     14  C   UNL     1      46.430  32.090  15.355  1.00  0.00     0.051 A 
ATOM     15  C   UNL     1      46.509  31.593  14.050  1.00  0.00     0.157 A 
ATOM     16  C   UNL     1      47.607  29.598  14.891  1.00  0.00     0.062 A 
ATOM     17  C   UNL     1      47.096  30.340  13.816  1.00  0.00     0.158 A 
BRANCH  15  18
ATOM     18  O   UNL     1      45.995  32.357  13.002  1.00  0.00    -0.504 OA
ATOM     19  H   UNL     1      45.750  33.333  13.118  1.00  0.00     0.293 HD
ENDBRANCH  15  18
BRANCH  17  20
ATOM     20  O   UNL     1      47.166  29.832  12.519  1.00  0.00    -0.504 OA
ATOM     21  H   UNL     1      46.381  29.355  12.093  1.00  0.00     0.293 HD
ENDBRANCH  17  20
ENDBRANCH   1  12
BRANCH   2  22
ATOM     22  O   UNL     1      50.354  29.489  16.572  1.00  0.00    -0.502 OA
ATOM     23  H   UNL     1      50.551  30.476  16.457  1.00  0.00     0.293 HD
ENDBRANCH   2  22
BRANCH   6  24
ATOM     24  O   UNL     1      50.420  26.410  20.919  1.00  0.00    -0.507 OA
ATOM     25  H   UNL     1      51.209  26.896  21.318  1.00  0.00     0.293 HD
ENDBRANCH   6  24
BRANCH   8  26
ATOM     26  O   UNL     1      45.875  26.842  22.354  1.00  0.00    -0.508 OA
ATOM     27  H   UNL     1      45.421  25.936  22.366  1.00  0.00     0.293 HD
ENDBRANCH   8  26
TORSDOF 6
ENDMDL
MODEL 9
REMARK VINA RESULT:    -4.974      2.711      4.289
REMARK INTER + INTRA:          -6.128
REMARK INTER:                  -5.972
REMARK INTRA:                  -0.156
REMARK UNBOUND:                -0.136
REMARK SMILES O=c1c(O)c(-c2ccc(O)c(O)c2)oc2cc(O)cc(O)c12
REMARK SMILES IDX 5 1 3 2 2 3 1 4 22 5 20 6 19 7 17 8 16 9 15 10 14 11 6 12
REMARK SMILES IDX 7 13 8 14 9 15 13 16 11 17 10 18 12 20 4 22 21 24 18 26
REMARK H PARENT 10 19 12 21 4 23 21 25 18 27
REMARK Flexibility Score: inf
ROOT
ATOM      1  C   UNL     1      62.722  40.504   9.678  1.00  0.00     0.180 A 
ATOM      2  C   UNL     1      61.710  39.893   8.917  1.00  0.00     0.208 A 
ATOM      3  C   UNL     1      61.788  39.943   7.516  1.00  0.00     0.238 A 
ATOM      4  O   UNL     1      60.852  39.441   6.841  1.00  0.00    -0.285 OA
ATOM      5  C   UNL     1      62.884  40.589   6.894  1.00  0.00     0.111 A 
ATOM      6  C   UNL     1      63.085  40.665   5.483  1.00  0.00     0.134 A 
ATOM      7  C   UNL     1      64.135  41.440   4.976  1.00  0.00     0.093 A 
ATOM      8  C   UNL     1      65.027  42.088   5.827  1.00  0.00     0.123 A 
ATOM      9  C   UNL     1      64.875  41.972   7.210  1.00  0.00     0.094 A 
ATOM     10  C   UNL     1      63.817  41.235   7.745  1.00  0.00     0.146 A 
ATOM     11  O   UNL     1      63.701  41.158   9.065  1.00  0.00    -0.452 OA
ENDROOT
BRANCH   1  12
ATOM     12  C   UNL     1      62.722  40.471  11.158  1.00  0.00     0.025 A 
ATOM     13  C   UNL     1      62.716  41.678  11.876  1.00  0.00     0.016 A 
ATOM     14  C   UNL     1      62.737  41.671  13.273  1.00  0.00     0.051 A 
ATOM     15  C   UNL     1      62.780  40.461  13.973  1.00  0.00     0.157 A 
ATOM     16  C   UNL     1      62.786  39.257  11.865  1.00  0.00     0.062 A 
ATOM     17  C   UNL     1      62.808  39.248  13.267  1.00  0.00     0.158 A 
BRANCH  15  18
ATOM     18  O   UNL     1      62.797  40.486  15.368  1.00  0.00    -0.504 OA
ATOM     19  H   UNL     1      63.649  40.645  15.892  1.00  0.00     0.293 HD
ENDBRANCH  15  18
BRANCH  17  20
ATOM     20  O   UNL     1      62.865  38.039  13.959  1.00  0.00    -0.504 OA
ATOM     21  H   UNL     1      62.801  37.149  13.479  1.00  0.00     0.293 HD
ENDBRANCH  17  20
ENDBRANCH   1  12
BRANCH   2  22
ATOM     22  O   UNL     1      60.626  39.280   9.552  1.00  0.00    -0.502 OA
ATOM     23  H   UNL     1      60.073  38.557   9.107  1.00  0.00     0.293 HD
ENDBRANCH   2  22
BRANCH   6  24
ATOM     24  O   UNL     1      62.306  39.980   4.545  1.00  0.00    -0.507 OA
ATOM     25  H   UNL     1      61.491  39.428   4.768  1.00  0.00     0.293 HD
ENDBRANCH   6  24
BRANCH   8  26
ATOM     26  O   UNL     1      66.070  42.839   5.288  1.00  0.00    -0.508 OA
ATOM     27  H   UNL     1      66.462  42.624   4.378  1.00  0.00     0.293 HD
ENDBRANCH   8  26
TORSDOF 6
ENDMDL
