MODEL 1
REMARK VINA RESULT:    -4.258      0.000      0.000
REMARK INTER + INTRA:          -6.314
REMARK INTER:                  -5.752
REMARK INTRA:                  -0.562
REMARK UNBOUND:                -0.562
REMARK SMILES CCCCCCCC(=O)[O-]
REMARK SMILES IDX 5 1 6 2 7 3 8 4 9 5 10 6 4 7 3 8 2 9 1 10
REMARK H PARENT
REMARK Flexibility Score: inf
ROOT
ATOM      1  C   UNL     1     -13.171  -9.293  10.169  1.00  0.00     0.000 C 
ENDROOT
BRANCH   1   2
ATOM      2  C   UNL     1     -13.522 -10.655  10.784  1.00  0.00     0.006 C 
BRANCH   2   3
ATOM      3  C   UNL     1     -12.260 -11.392  11.240  1.00  0.00     0.053 C 
BRANCH   3   4
ATOM      4  C   UNL     1     -11.962 -12.539  10.326  1.00  0.00     0.041 C 
ATOM      5  O   UNL     1     -10.803 -13.028  10.279  1.00  0.00    -0.550 OA
ATOM      6  O   UNL     1     -12.953 -13.035   9.488  1.00  0.00    -0.550 OA
ENDBRANCH   3   4
ENDBRANCH   2   3
ENDBRANCH   1   2
BRANCH   1   7
ATOM      7  C   UNL     1     -11.956  -8.628  10.840  1.00  0.00     0.000 C 
BRANCH   7   8
ATOM      8  C   UNL     1     -10.910  -8.047   9.867  1.00  0.00    -0.000 C 
BRANCH   8   9
ATOM      9  C   UNL     1     -10.381  -9.038   8.814  1.00  0.00    -0.003 C 
ATOM     10  C   UNL     1      -9.272  -9.942   9.352  1.00  0.00     0.004 C 
ENDBRANCH   8   9
ENDBRANCH   7   8
ENDBRANCH   1   7
TORSDOF 6
ENDMDL
MODEL 2
REMARK VINA RESULT:    -4.257      1.636      2.565
REMARK INTER + INTRA:          -6.313
REMARK INTER:                  -5.659
REMARK INTRA:                  -0.654
REMARK UNBOUND:                -0.562
REMARK SMILES CCCCCCCC(=O)[O-]
REMARK SMILES IDX 5 1 6 2 7 3 8 4 9 5 10 6 4 7 3 8 2 9 1 10
REMARK H PARENT
REMARK Flexibility Score: inf
ROOT
ATOM      1  C   UNL     1     -12.391 -11.387  11.345  1.00  0.00     0.000 C 
ENDROOT
BRANCH   1   2
ATOM      2  C   UNL     1     -11.855 -12.425  10.349  1.00  0.00     0.006 C 
BRANCH   2   3
ATOM      3  C   UNL     1     -10.433 -12.073   9.902  1.00  0.00     0.053 C 
BRANCH   3   4
ATOM      4  C   UNL     1     -10.379 -11.889   8.418  1.00  0.00     0.041 C 
ATOM      5  O   UNL     1      -9.447 -12.407   7.749  1.00  0.00    -0.550 OA
ATOM      6  O   UNL     1     -11.332 -11.105   7.780  1.00  0.00    -0.550 OA
ENDBRANCH   3   4
ENDBRANCH   2   3
ENDBRANCH   1   2
BRANCH   1   7
ATOM      7  C   UNL     1     -13.513 -10.514  10.756  1.00  0.00     0.000 C 
BRANCH   7   8
ATOM      8  C   UNL     1     -13.058  -9.145  10.210  1.00  0.00    -0.000 C 
BRANCH   8   9
ATOM      9  C   UNL     1     -11.730  -8.625  10.787  1.00  0.00    -0.003 C 
ATOM     10  C   UNL     1     -10.749  -8.171   9.706  1.00  0.00     0.004 C 
ENDBRANCH   8   9
ENDBRANCH   7   8
ENDBRANCH   1   7
TORSDOF 6
ENDMDL
MODEL 3
REMARK VINA RESULT:    -4.250      3.744      5.464
REMARK INTER + INTRA:          -6.304
REMARK INTER:                  -6.085
REMARK INTRA:                  -0.218
REMARK UNBOUND:                -0.562
REMARK SMILES CCCCCCCC(=O)[O-]
REMARK SMILES IDX 5 1 6 2 7 3 8 4 9 5 10 6 4 7 3 8 2 9 1 10
REMARK H PARENT
REMARK Flexibility Score: inf
ROOT
ATOM      1  C   UNL     1     -10.043 -11.361  10.091  1.00  0.00     0.000 C 
ENDROOT
BRANCH   1   2
ATOM      2  C   UNL     1      -9.366 -10.179   9.383  1.00  0.00     0.006 C 
BRANCH   2   3
ATOM      3  C   UNL     1      -9.106 -10.499   7.909  1.00  0.00     0.053 C 
BRANCH   3   4
ATOM      4  C   UNL     1      -8.004  -9.640   7.372  1.00  0.00     0.041 C 
ATOM      5  O   UNL     1      -8.192  -8.408   7.193  1.00  0.00    -0.550 OA
ATOM      6  O   UNL     1      -6.786 -10.209   7.023  1.00  0.00    -0.550 OA
ENDBRANCH   3   4
ENDBRANCH   2   3
ENDBRANCH   1   2
BRANCH   1   7
ATOM      7  C   UNL     1     -10.893 -12.223   9.139  1.00  0.00     0.000 C 
BRANCH   7   8
ATOM      8  C   UNL     1     -11.076 -13.691   9.576  1.00  0.00    -0.000 C 
BRANCH   8   9
ATOM      9  C   UNL     1     -10.152 -14.699   8.869  1.00  0.00    -0.003 C 
ATOM     10  C   UNL     1     -10.372 -16.137   9.337  1.00  0.00     0.004 C 
ENDBRANCH   8   9
ENDBRANCH   7   8
ENDBRANCH   1   7
TORSDOF 6
ENDMDL
MODEL 4
REMARK VINA RESULT:    -4.219      2.056      3.562
REMARK INTER + INTRA:          -6.261
REMARK INTER:                  -5.654
REMARK INTRA:                  -0.607
REMARK UNBOUND:                -0.562
REMARK SMILES CCCCCCCC(=O)[O-]
REMARK SMILES IDX 5 1 6 2 7 3 8 4 9 5 10 6 4 7 3 8 2 9 1 10
REMARK H PARENT
REMARK Flexibility Score: inf
ROOT
ATOM      1  C   UNL     1     -11.760  -9.858  11.603  1.00  0.00     0.000 C 
ENDROOT
BRANCH   1   2
ATOM      2  C   UNL     1     -12.104  -8.734  10.616  1.00  0.00     0.006 C 
BRANCH   2   3
ATOM      3  C   UNL     1     -10.835  -8.135  10.003  1.00  0.00     0.053 C 
BRANCH   3   4
ATOM      4  C   UNL     1     -10.169  -9.127   9.102  1.00  0.00     0.041 C 
ATOM      5  O   UNL     1      -8.978  -9.476   9.316  1.00  0.00    -0.550 OA
ATOM      6  O   UNL     1     -10.846  -9.628   7.998  1.00  0.00    -0.550 OA
ENDBRANCH   3   4
ENDBRANCH   2   3
ENDBRANCH   1   2
BRANCH   1   7
ATOM      7  C   UNL     1     -12.710 -11.064  11.493  1.00  0.00     0.000 C 
BRANCH   7   8
ATOM      8  C   UNL     1     -12.380 -12.055  10.358  1.00  0.00    -0.000 C 
BRANCH   8   9
ATOM      9  C   UNL     1     -10.913 -12.516  10.304  1.00  0.00    -0.003 C 
ATOM     10  C   UNL     1     -10.497 -13.016   8.921  1.00  0.00     0.004 C 
ENDBRANCH   8   9
ENDBRANCH   7   8
ENDBRANCH   1   7
TORSDOF 6
ENDMDL
MODEL 5
REMARK VINA RESULT:    -4.206      2.235      3.380
REMARK INTER + INTRA:          -6.244
REMARK INTER:                  -5.815
REMARK INTRA:                  -0.429
REMARK UNBOUND:                -0.562
REMARK SMILES CCCCCCCC(=O)[O-]
REMARK SMILES IDX 5 1 6 2 7 3 8 4 9 5 10 6 4 7 3 8 2 9 1 10
REMARK H PARENT
REMARK Flexibility Score: inf
ROOT
ATOM      1  C   UNL     1     -10.814 -13.066   8.759  1.00  0.00     0.000 C 
ENDROOT
BRANCH   1   2
ATOM      2  C   UNL     1     -10.902 -12.669  10.240  1.00  0.00     0.006 C 
BRANCH   2   3
ATOM      3  C   UNL     1     -12.299 -12.143  10.584  1.00  0.00     0.053 C 
BRANCH   3   4
ATOM      4  C   UNL     1     -12.203 -10.852  11.333  1.00  0.00     0.041 C 
ATOM      5  O   UNL     1     -12.151 -10.852  12.591  1.00  0.00    -0.550 OA
ATOM      6  O   UNL     1     -12.222  -9.645  10.645  1.00  0.00    -0.550 OA
ENDBRANCH   3   4
ENDBRANCH   2   3
ENDBRANCH   1   2
BRANCH   1   7
ATOM      7  C   UNL     1     -10.586 -11.862   7.828  1.00  0.00     0.000 C 
BRANCH   7   8
ATOM      8  C   UNL     1      -9.137 -11.686   7.331  1.00  0.00    -0.000 C 
BRANCH   8   9
ATOM      9  C   UNL     1      -8.503 -10.320   7.649  1.00  0.00    -0.003 C 
ATOM     10  C   UNL     1      -9.090  -9.668   8.900  1.00  0.00     0.004 C 
ENDBRANCH   8   9
ENDBRANCH   7   8
ENDBRANCH   1   7
TORSDOF 6
ENDMDL
MODEL 6
REMARK VINA RESULT:    -4.204      1.049      1.918
REMARK INTER + INTRA:          -6.241
REMARK INTER:                  -5.753
REMARK INTRA:                  -0.488
REMARK UNBOUND:                -0.562
REMARK SMILES CCCCCCCC(=O)[O-]
REMARK SMILES IDX 5 1 6 2 7 3 8 4 9 5 10 6 4 7 3 8 2 9 1 10
REMARK H PARENT
REMARK Flexibility Score: inf
ROOT
ATOM      1  C   UNL     1     -11.612  -9.148  10.793  1.00  0.00     0.000 C 
ENDROOT
BRANCH   1   2
ATOM      2  C   UNL     1     -11.630 -10.603  11.282  1.00  0.00     0.006 C 
BRANCH   2   3
ATOM      3  C   UNL     1     -12.728 -11.405  10.577  1.00  0.00     0.053 C 
BRANCH   3   4
ATOM      4  C   UNL     1     -12.149 -12.613   9.911  1.00  0.00     0.041 C 
ATOM      5  O   UNL     1     -12.797 -13.213   9.014  1.00  0.00    -0.550 OA
ATOM      6  O   UNL     1     -10.914 -13.105  10.314  1.00  0.00    -0.550 OA
ENDBRANCH   3   4
ENDBRANCH   2   3
ENDBRANCH   1   2
BRANCH   1   7
ATOM      7  C   UNL     1     -10.642  -8.922   9.619  1.00  0.00     0.000 C 
BRANCH   7   8
ATOM      8  C   UNL     1      -9.485  -9.938   9.523  1.00  0.00    -0.000 C 
BRANCH   8   9
ATOM      9  C   UNL     1      -8.963 -10.194   8.098  1.00  0.00    -0.003 C 
ATOM     10  C   UNL     1      -9.414 -11.540   7.532  1.00  0.00     0.004 C 
ENDBRANCH   8   9
ENDBRANCH   7   8
ENDBRANCH   1   7
TORSDOF 6
ENDMDL
MODEL 7
REMARK VINA RESULT:    -4.172      2.352      4.220
REMARK INTER + INTRA:          -6.198
REMARK INTER:                  -5.872
REMARK INTRA:                  -0.327
REMARK UNBOUND:                -0.562
REMARK SMILES CCCCCCCC(=O)[O-]
REMARK SMILES IDX 5 1 6 2 7 3 8 4 9 5 10 6 4 7 3 8 2 9 1 10
REMARK H PARENT
REMARK Flexibility Score: inf
ROOT
ATOM      1  C   UNL     1     -10.083 -10.962   9.803  1.00  0.00     0.000 C 
ENDROOT
BRANCH   1   2
ATOM      2  C   UNL     1     -11.160  -9.924   9.456  1.00  0.00     0.006 C 
BRANCH   2   3
ATOM      3  C   UNL     1     -11.782  -9.334  10.724  1.00  0.00     0.053 C 
BRANCH   3   4
ATOM      4  C   UNL     1     -12.462 -10.402  11.521  1.00  0.00     0.041 C 
ATOM      5  O   UNL     1     -13.428 -11.042  11.029  1.00  0.00    -0.550 OA
ATOM      6  O   UNL     1     -12.062 -10.657  12.827  1.00  0.00    -0.550 OA
ENDBRANCH   3   4
ENDBRANCH   2   3
ENDBRANCH   1   2
BRANCH   1   7
ATOM      7  C   UNL     1     -10.222 -12.264   8.992  1.00  0.00     0.000 C 
BRANCH   7   8
ATOM      8  C   UNL     1     -10.898 -13.430   9.741  1.00  0.00    -0.000 C 
BRANCH   8   9
ATOM      9  C   UNL     1     -11.020 -14.736   8.935  1.00  0.00    -0.003 C 
ATOM     10  C   UNL     1     -10.210 -15.884   9.536  1.00  0.00     0.004 C 
ENDBRANCH   8   9
ENDBRANCH   7   8
ENDBRANCH   1   7
TORSDOF 6
ENDMDL
MODEL 8
REMARK VINA RESULT:    -4.170      1.671      3.273
REMARK INTER + INTRA:          -6.195
REMARK INTER:                  -5.545
REMARK INTRA:                  -0.651
REMARK UNBOUND:                -0.562
REMARK SMILES CCCCCCCC(=O)[O-]
REMARK SMILES IDX 5 1 6 2 7 3 8 4 9 5 10 6 4 7 3 8 2 9 1 10
REMARK H PARENT
REMARK Flexibility Score: inf
ROOT
ATOM      1  C   UNL     1     -10.769  -8.721   9.128  1.00  0.00     0.000 C 
ENDROOT
BRANCH   1   2
ATOM      2  C   UNL     1      -9.481  -9.530   9.339  1.00  0.00     0.006 C 
BRANCH   2   3
ATOM      3  C   UNL     1      -9.789 -11.023   9.482  1.00  0.00     0.053 C 
BRANCH   3   4
ATOM      4  C   UNL     1     -10.479 -11.537   8.258  1.00  0.00     0.041 C 
ATOM      5  O   UNL     1     -11.625 -12.052   8.346  1.00  0.00    -0.550 OA
ATOM      6  O   UNL     1      -9.837 -11.493   7.028  1.00  0.00    -0.550 OA
ENDBRANCH   3   4
ENDBRANCH   2   3
ENDBRANCH   1   2
BRANCH   1   7
ATOM      7  C   UNL     1     -11.610  -8.589  10.410  1.00  0.00     0.000 C 
BRANCH   7   8
ATOM      8  C   UNL     1     -12.986  -9.286  10.364  1.00  0.00    -0.000 C 
BRANCH   8   9
ATOM      9  C   UNL     1     -13.086 -10.580  11.190  1.00  0.00    -0.003 C 
ATOM     10  C   UNL     1     -12.175 -10.575  12.417  1.00  0.00     0.004 C 
ENDBRANCH   8   9
ENDBRANCH   7   8
ENDBRANCH   1   7
TORSDOF 6
ENDMDL
MODEL 9
REMARK VINA RESULT:    -4.163      1.164      2.743
REMARK INTER + INTRA:          -6.186
REMARK INTER:                  -5.579
REMARK INTRA:                  -0.607
REMARK UNBOUND:                -0.562
REMARK SMILES CCCCCCCC(=O)[O-]
REMARK SMILES IDX 5 1 6 2 7 3 8 4 9 5 10 6 4 7 3 8 2 9 1 10
REMARK H PARENT
REMARK Flexibility Score: inf
ROOT
ATOM      1  C   UNL     1      -9.643 -10.606   9.638  1.00  0.00     0.000 C 
ENDROOT
BRANCH   1   2
ATOM      2  C   UNL     1      -9.984 -11.450   8.402  1.00  0.00     0.006 C 
BRANCH   2   3
ATOM      3  C   UNL     1     -11.381 -12.065   8.526  1.00  0.00     0.053 C 
BRANCH   3   4
ATOM      4  C   UNL     1     -11.498 -12.850   9.794  1.00  0.00     0.041 C 
ATOM      5  O   UNL     1     -10.781 -13.869   9.976  1.00  0.00    -0.550 OA
ATOM      6  O   UNL     1     -12.434 -12.487  10.754  1.00  0.00    -0.550 OA
ENDBRANCH   3   4
ENDBRANCH   2   3
ENDBRANCH   1   2
BRANCH   1   7
ATOM      7  C   UNL     1      -9.495  -9.107   9.318  1.00  0.00     0.000 C 
BRANCH   7   8
ATOM      8  C   UNL     1     -10.685  -8.226   9.750  1.00  0.00    -0.000 C 
BRANCH   8   9
ATOM      9  C   UNL     1     -11.672  -8.898  10.722  1.00  0.00    -0.003 C 
ATOM     10  C   UNL     1     -13.069  -9.070  10.127  1.00  0.00     0.004 C 
ENDBRANCH   8   9
ENDBRANCH   7   8
ENDBRANCH   1   7
TORSDOF 6
ENDMDL
