MODEL 1
REMARK VINA RESULT:    -3.303      0.000      0.000
REMARK INTER + INTRA:          -6.282
REMARK INTER:                  -5.040
REMARK INTRA:                  -1.242
REMARK UNBOUND:                -1.242
REMARK SMILES CCCCCCCCCCC(=O)[O-]
REMARK SMILES IDX 7 1 8 2 9 3 10 4 11 5 12 6 13 7 6 8 5 9 4 10 3 11 2 12 1 13
REMARK H PARENT
REMARK Flexibility Score: inf
ROOT
ATOM      1  C   UNL     1      -3.495  -2.907  34.008  1.00  0.00     0.000 C 
ENDROOT
BRANCH   1   2
ATOM      2  C   UNL     1      -2.542  -2.005  34.800  1.00  0.00     0.000 C 
BRANCH   2   3
ATOM      3  C   UNL     1      -1.717  -2.821  35.803  1.00  0.00     0.006 C 
BRANCH   3   4
ATOM      4  C   UNL     1      -0.812  -1.912  36.638  1.00  0.00     0.053 C 
BRANCH   4   5
ATOM      5  C   UNL     1       0.545  -1.811  36.017  1.00  0.00     0.041 C 
ATOM      6  O   UNL     1       1.002  -0.690  35.670  1.00  0.00    -0.550 OA
ATOM      7  O   UNL     1       1.287  -2.961  35.775  1.00  0.00    -0.550 OA
ENDBRANCH   4   5
ENDBRANCH   3   4
ENDBRANCH   2   3
ENDBRANCH   1   2
BRANCH   1   8
ATOM      8  C   UNL     1      -4.958  -2.633  34.390  1.00  0.00     0.000 C 
BRANCH   8   9
ATOM      9  C   UNL     1      -5.366  -3.316  35.704  1.00  0.00    -0.000 C 
BRANCH   9  10
ATOM     10  C   UNL     1      -5.821  -2.315  36.776  1.00  0.00    -0.000 C 
BRANCH  10  11
ATOM     11  C   UNL     1      -4.833  -2.277  37.947  1.00  0.00    -0.000 C 
BRANCH  11  12
ATOM     12  C   UNL     1      -4.135  -0.915  38.034  1.00  0.00    -0.003 C 
ATOM     13  C   UNL     1      -4.743   0.079  37.050  1.00  0.00     0.004 C 
ENDBRANCH  11  12
ENDBRANCH  10  11
ENDBRANCH   9  10
ENDBRANCH   8   9
ENDBRANCH   1   8
TORSDOF 9
ENDMDL
MODEL 2
REMARK VINA RESULT:    -3.278      1.318      2.218
REMARK INTER + INTRA:          -6.245
REMARK INTER:                  -4.979
REMARK INTRA:                  -1.266
REMARK UNBOUND:                -1.242
REMARK SMILES CCCCCCCCCCC(=O)[O-]
REMARK SMILES IDX 7 1 8 2 9 3 10 4 11 5 12 6 13 7 6 8 5 9 4 10 3 11 2 12 1 13
REMARK H PARENT
REMARK Flexibility Score: inf
ROOT
ATOM      1  C   UNL     1      -3.879  -3.671  35.416  1.00  0.00     0.000 C 
ENDROOT
BRANCH   1   2
ATOM      2  C   UNL     1      -3.402  -2.827  34.229  1.00  0.00     0.000 C 
BRANCH   2   3
ATOM      3  C   UNL     1      -2.276  -1.874  34.647  1.00  0.00     0.006 C 
BRANCH   3   4
ATOM      4  C   UNL     1      -1.995  -1.981  36.148  1.00  0.00     0.053 C 
BRANCH   4   5
ATOM      5  C   UNL     1      -0.528  -2.136  36.397  1.00  0.00     0.041 C 
ATOM      6  O   UNL     1      -0.043  -3.272  36.644  1.00  0.00    -0.550 OA
ATOM      7  O   UNL     1       0.298  -1.019  36.404  1.00  0.00    -0.550 OA
ENDBRANCH   4   5
ENDBRANCH   3   4
ENDBRANCH   2   3
ENDBRANCH   1   2
BRANCH   1   8
ATOM      8  C   UNL     1      -5.361  -3.406  35.720  1.00  0.00     0.000 C 
BRANCH   8   9
ATOM      9  C   UNL     1      -5.563  -2.529  36.965  1.00  0.00    -0.000 C 
BRANCH   9  10
ATOM     10  C   UNL     1      -6.242  -1.189  36.643  1.00  0.00    -0.000 C 
BRANCH  10  11
ATOM     11  C   UNL     1      -5.209  -0.136  36.227  1.00  0.00    -0.000 C 
BRANCH  11  12
ATOM     12  C   UNL     1      -5.691   0.653  35.004  1.00  0.00    -0.003 C 
ATOM     13  C   UNL     1      -6.127  -0.283  33.881  1.00  0.00     0.004 C 
ENDBRANCH  11  12
ENDBRANCH  10  11
ENDBRANCH   9  10
ENDBRANCH   8   9
ENDBRANCH   1   8
TORSDOF 9
ENDMDL
MODEL 3
REMARK VINA RESULT:    -3.226      1.153      1.690
REMARK INTER + INTRA:          -6.165
REMARK INTER:                  -4.936
REMARK INTRA:                  -1.230
REMARK UNBOUND:                -1.242
REMARK SMILES CCCCCCCCCCC(=O)[O-]
REMARK SMILES IDX 7 1 8 2 9 3 10 4 11 5 12 6 13 7 6 8 5 9 4 10 3 11 2 12 1 13
REMARK H PARENT
REMARK Flexibility Score: inf
ROOT
ATOM      1  C   UNL     1      -3.627  -1.641  33.968  1.00  0.00     0.000 C 
ENDROOT
BRANCH   1   2
ATOM      2  C   UNL     1      -2.199  -1.272  34.386  1.00  0.00     0.000 C 
BRANCH   2   3
ATOM      3  C   UNL     1      -2.201  -0.420  35.662  1.00  0.00     0.006 C 
BRANCH   3   4
ATOM      4  C   UNL     1      -1.752  -1.243  36.872  1.00  0.00     0.053 C 
BRANCH   4   5
ATOM      5  C   UNL     1      -0.448  -1.919  36.590  1.00  0.00     0.041 C 
ATOM      6  O   UNL     1      -0.365  -3.175  36.622  1.00  0.00    -0.550 OA
ATOM      7  O   UNL     1       0.690  -1.160  36.341  1.00  0.00    -0.550 OA
ENDBRANCH   4   5
ENDBRANCH   3   4
ENDBRANCH   2   3
ENDBRANCH   1   2
BRANCH   1   8
ATOM      8  C   UNL     1      -3.815  -3.165  33.942  1.00  0.00     0.000 C 
BRANCH   8   9
ATOM      9  C   UNL     1      -4.034  -3.759  35.342  1.00  0.00    -0.000 C 
BRANCH   9  10
ATOM     10  C   UNL     1      -5.407  -3.401  35.930  1.00  0.00    -0.000 C 
BRANCH  10  11
ATOM     11  C   UNL     1      -5.259  -2.514  37.172  1.00  0.00    -0.000 C 
BRANCH  11  12
ATOM     12  C   UNL     1      -6.275  -1.367  37.152  1.00  0.00    -0.003 C 
ATOM     13  C   UNL     1      -5.576  -0.011  37.193  1.00  0.00     0.004 C 
ENDBRANCH  11  12
ENDBRANCH  10  11
ENDBRANCH   9  10
ENDBRANCH   8   9
ENDBRANCH   1   8
TORSDOF 9
ENDMDL
MODEL 4
REMARK VINA RESULT:    -3.217      0.915      2.781
REMARK INTER + INTRA:          -6.151
REMARK INTER:                  -4.841
REMARK INTRA:                  -1.310
REMARK UNBOUND:                -1.242
REMARK SMILES CCCCCCCCCCC(=O)[O-]
REMARK SMILES IDX 7 1 8 2 9 3 10 4 11 5 12 6 13 7 6 8 5 9 4 10 3 11 2 12 1 13
REMARK H PARENT
REMARK Flexibility Score: inf
ROOT
ATOM      1  C   UNL     1      -3.709  -0.038  37.392  1.00  0.00     0.000 C 
ENDROOT
BRANCH   1   2
ATOM      2  C   UNL     1      -2.487  -0.958  37.494  1.00  0.00     0.000 C 
BRANCH   2   3
ATOM      3  C   UNL     1      -1.780  -1.087  36.139  1.00  0.00     0.006 C 
BRANCH   3   4
ATOM      4  C   UNL     1      -1.044  -2.424  36.029  1.00  0.00     0.053 C 
BRANCH   4   5
ATOM      5  C   UNL     1       0.437  -2.210  36.053  1.00  0.00     0.041 C 
ATOM      6  O   UNL     1       1.221  -3.172  35.839  1.00  0.00    -0.550 OA
ATOM      7  O   UNL     1       0.953  -0.957  36.361  1.00  0.00    -0.550 OA
ENDBRANCH   4   5
ENDBRANCH   3   4
ENDBRANCH   2   3
ENDBRANCH   1   2
BRANCH   1   8
ATOM      8  C   UNL     1      -4.967  -0.733  37.933  1.00  0.00     0.000 C 
BRANCH   8   9
ATOM      9  C   UNL     1      -4.913  -2.261  37.779  1.00  0.00    -0.000 C 
BRANCH   9  10
ATOM     10  C   UNL     1      -5.647  -2.756  36.524  1.00  0.00    -0.000 C 
BRANCH  10  11
ATOM     11  C   UNL     1      -4.684  -3.473  35.571  1.00  0.00    -0.000 C 
BRANCH  11  12
ATOM     12  C   UNL     1      -4.589  -2.738  34.229  1.00  0.00    -0.003 C 
ATOM     13  C   UNL     1      -5.390  -1.440  34.254  1.00  0.00     0.004 C 
ENDBRANCH  11  12
ENDBRANCH  10  11
ENDBRANCH   9  10
ENDBRANCH   8   9
ENDBRANCH   1   8
TORSDOF 9
ENDMDL
MODEL 5
REMARK VINA RESULT:    -3.205      2.572      4.944
REMARK INTER + INTRA:          -6.133
REMARK INTER:                  -5.122
REMARK INTRA:                  -1.011
REMARK UNBOUND:                -1.242
REMARK SMILES CCCCCCCCCCC(=O)[O-]
REMARK SMILES IDX 7 1 8 2 9 3 10 4 11 5 12 6 13 7 6 8 5 9 4 10 3 11 2 12 1 13
REMARK H PARENT
REMARK Flexibility Score: inf
ROOT
ATOM      1  C   UNL     1      -4.342  -0.713  37.626  1.00  0.00     0.000 C 
ENDROOT
BRANCH   1   2
ATOM      2  C   UNL     1      -4.948  -2.120  37.688  1.00  0.00     0.000 C 
BRANCH   2   3
ATOM      3  C   UNL     1      -5.831  -2.393  36.464  1.00  0.00     0.006 C 
BRANCH   3   4
ATOM      4  C   UNL     1      -5.190  -3.437  35.546  1.00  0.00     0.053 C 
BRANCH   4   5
ATOM      5  C   UNL     1      -4.761  -2.809  34.258  1.00  0.00     0.041 C 
ATOM      6  O   UNL     1      -5.086  -1.621  33.993  1.00  0.00    -0.550 OA
ATOM      7  O   UNL     1      -4.044  -3.550  33.327  1.00  0.00    -0.550 OA
ENDBRANCH   4   5
ENDBRANCH   3   4
ENDBRANCH   2   3
ENDBRANCH   1   2
BRANCH   1   8
ATOM      8  C   UNL     1      -2.861  -0.734  38.034  1.00  0.00     0.000 C 
BRANCH   8   9
ATOM      9  C   UNL     1      -1.933  -0.219  36.923  1.00  0.00    -0.000 C 
BRANCH   9  10
ATOM     10  C   UNL     1      -1.884  -1.160  35.709  1.00  0.00    -0.000 C 
BRANCH  10  11
ATOM     11  C   UNL     1      -1.563  -2.596  36.140  1.00  0.00    -0.000 C 
BRANCH  11  12
ATOM     12  C   UNL     1      -0.075  -2.752  36.472  1.00  0.00    -0.003 C 
ATOM     13  C   UNL     1       0.800  -2.154  35.374  1.00  0.00     0.004 C 
ENDBRANCH  11  12
ENDBRANCH  10  11
ENDBRANCH   9  10
ENDBRANCH   8   9
ENDBRANCH   1   8
TORSDOF 9
ENDMDL
MODEL 6
REMARK VINA RESULT:    -3.174      3.348      5.004
REMARK INTER + INTRA:          -6.086
REMARK INTER:                  -4.708
REMARK INTRA:                  -1.379
REMARK UNBOUND:                -1.242
REMARK SMILES CCCCCCCCCCC(=O)[O-]
REMARK SMILES IDX 7 1 8 2 9 3 10 4 11 5 12 6 13 7 6 8 5 9 4 10 3 11 2 12 1 13
REMARK H PARENT
REMARK Flexibility Score: inf
ROOT
ATOM      1  C   UNL     1      -5.382  -3.488  35.936  1.00  0.00     0.000 C 
ENDROOT
BRANCH   1   2
ATOM      2  C   UNL     1      -5.196  -2.527  37.116  1.00  0.00     0.000 C 
BRANCH   2   3
ATOM      3  C   UNL     1      -6.070  -1.277  36.952  1.00  0.00     0.006 C 
BRANCH   3   4
ATOM      4  C   UNL     1      -5.397  -0.254  36.033  1.00  0.00     0.053 C 
BRANCH   4   5
ATOM      5  C   UNL     1      -6.282   0.069  34.871  1.00  0.00     0.041 C 
ATOM      6  O   UNL     1      -6.356  -0.719  33.892  1.00  0.00    -0.550 OA
ATOM      7  O   UNL     1      -6.991   1.264  34.848  1.00  0.00    -0.550 OA
ENDBRANCH   4   5
ENDBRANCH   3   4
ENDBRANCH   2   3
ENDBRANCH   1   2
BRANCH   1   8
ATOM      8  C   UNL     1      -4.033  -3.819  35.280  1.00  0.00     0.000 C 
BRANCH   8   9
ATOM      9  C   UNL     1      -3.862  -3.152  33.907  1.00  0.00    -0.000 C 
BRANCH   9  10
ATOM     10  C   UNL     1      -2.858  -1.989  33.935  1.00  0.00    -0.000 C 
BRANCH  10  11
ATOM     11  C   UNL     1      -1.974  -2.057  35.186  1.00  0.00    -0.000 C 
BRANCH  11  12
ATOM     12  C   UNL     1      -1.748  -0.660  35.775  1.00  0.00    -0.003 C 
ATOM     13  C   UNL     1      -1.663  -0.712  37.298  1.00  0.00     0.004 C 
ENDBRANCH  11  12
ENDBRANCH  10  11
ENDBRANCH   9  10
ENDBRANCH   8   9
ENDBRANCH   1   8
TORSDOF 9
ENDMDL
MODEL 7
REMARK VINA RESULT:    -3.170      3.835      5.643
REMARK INTER + INTRA:          -6.080
REMARK INTER:                  -4.926
REMARK INTRA:                  -1.154
REMARK UNBOUND:                -1.242
REMARK SMILES CCCCCCCCCCC(=O)[O-]
REMARK SMILES IDX 7 1 8 2 9 3 10 4 11 5 12 6 13 7 6 8 5 9 4 10 3 11 2 12 1 13
REMARK H PARENT
REMARK Flexibility Score: inf
ROOT
ATOM      1  C   UNL     1      -5.804  -1.157  37.362  1.00  0.00     0.000 C 
ENDROOT
BRANCH   1   2
ATOM      2  C   UNL     1      -5.281  -0.241  36.251  1.00  0.00     0.000 C 
BRANCH   2   3
ATOM      3  C   UNL     1      -6.424   0.237  35.347  1.00  0.00     0.006 C 
BRANCH   3   4
ATOM      4  C   UNL     1      -6.242  -0.272  33.915  1.00  0.00     0.053 C 
BRANCH   4   5
ATOM      5  C   UNL     1      -6.720   0.749  32.932  1.00  0.00     0.041 C 
ATOM      6  O   UNL     1      -7.897   1.193  33.000  1.00  0.00    -0.550 OA
ATOM      7  O   UNL     1      -5.882   1.176  31.908  1.00  0.00    -0.550 OA
ENDBRANCH   4   5
ENDBRANCH   3   4
ENDBRANCH   2   3
ENDBRANCH   1   2
BRANCH   1   8
ATOM      8  C   UNL     1      -5.112  -2.528  37.317  1.00  0.00     0.000 C 
BRANCH   8   9
ATOM      9  C   UNL     1      -5.406  -3.298  36.021  1.00  0.00    -0.000 C 
BRANCH   9  10
ATOM     10  C   UNL     1      -4.130  -3.789  35.320  1.00  0.00    -0.000 C 
BRANCH  10  11
ATOM     11  C   UNL     1      -3.907  -3.042  34.000  1.00  0.00    -0.000 C 
BRANCH  11  12
ATOM     12  C   UNL     1      -2.773  -2.020  34.132  1.00  0.00    -0.003 C 
ATOM     13  C   UNL     1      -1.891  -2.328  35.338  1.00  0.00     0.004 C 
ENDBRANCH  11  12
ENDBRANCH  10  11
ENDBRANCH   9  10
ENDBRANCH   8   9
ENDBRANCH   1   8
TORSDOF 9
ENDMDL
MODEL 8
REMARK VINA RESULT:    -3.116      1.414      2.718
REMARK INTER + INTRA:          -5.998
REMARK INTER:                  -4.600
REMARK INTRA:                  -1.398
REMARK UNBOUND:                -1.242
REMARK SMILES CCCCCCCCCCC(=O)[O-]
REMARK SMILES IDX 7 1 8 2 9 3 10 4 11 5 12 6 13 7 6 8 5 9 4 10 3 11 2 12 1 13
REMARK H PARENT
REMARK Flexibility Score: inf
ROOT
ATOM      1  C   UNL     1      -5.456  -3.096  36.240  1.00  0.00     0.000 C 
ENDROOT
BRANCH   1   2
ATOM      2  C   UNL     1      -5.058  -2.715  34.810  1.00  0.00     0.000 C 
BRANCH   2   3
ATOM      3  C   UNL     1      -3.599  -3.092  34.525  1.00  0.00     0.006 C 
BRANCH   3   4
ATOM      4  C   UNL     1      -2.834  -3.349  35.826  1.00  0.00     0.053 C 
BRANCH   4   5
ATOM      5  C   UNL     1      -1.487  -2.699  35.778  1.00  0.00     0.041 C 
ATOM      6  O   UNL     1      -0.582  -3.056  36.577  1.00  0.00    -0.550 OA
ATOM      7  O   UNL     1      -1.246  -1.663  34.884  1.00  0.00    -0.550 OA
ENDBRANCH   4   5
ENDBRANCH   3   4
ENDBRANCH   2   3
ENDBRANCH   1   2
BRANCH   1   8
ATOM      8  C   UNL     1      -6.187  -1.937  36.935  1.00  0.00     0.000 C 
BRANCH   8   9
ATOM      9  C   UNL     1      -6.134  -0.632  36.125  1.00  0.00    -0.000 C 
BRANCH   9  10
ATOM     10  C   UNL     1      -5.250   0.438  36.784  1.00  0.00    -0.000 C 
BRANCH  10  11
ATOM     11  C   UNL     1      -3.861   0.479  36.136  1.00  0.00    -0.000 C 
BRANCH  11  12
ATOM     12  C   UNL     1      -2.758   0.488  37.199  1.00  0.00    -0.003 C 
ATOM     13  C   UNL     1      -3.066  -0.499  38.321  1.00  0.00     0.004 C 
ENDBRANCH  11  12
ENDBRANCH  10  11
ENDBRANCH   9  10
ENDBRANCH   8   9
ENDBRANCH   1   8
TORSDOF 9
ENDMDL
MODEL 9
REMARK VINA RESULT:    -3.111      2.502      3.443
REMARK INTER + INTRA:          -5.990
REMARK INTER:                  -4.521
REMARK INTRA:                  -1.469
REMARK UNBOUND:                -1.242
REMARK SMILES CCCCCCCCCCC(=O)[O-]
REMARK SMILES IDX 7 1 8 2 9 3 10 4 11 5 12 6 13 7 6 8 5 9 4 10 3 11 2 12 1 13
REMARK H PARENT
REMARK Flexibility Score: inf
ROOT
ATOM      1  C   UNL     1      -1.795  -2.631  35.951  1.00  0.00     0.000 C 
ENDROOT
BRANCH   1   2
ATOM      2  C   UNL     1      -2.064  -1.415  36.844  1.00  0.00     0.000 C 
BRANCH   2   3
ATOM      3  C   UNL     1      -1.949  -0.110  36.046  1.00  0.00     0.006 C 
BRANCH   3   4
ATOM      4  C   UNL     1      -3.331   0.409  35.639  1.00  0.00     0.053 C 
BRANCH   4   5
ATOM      5  C   UNL     1      -3.520   0.289  34.160  1.00  0.00     0.041 C 
ATOM      6  O   UNL     1      -2.530   0.087  33.408  1.00  0.00    -0.550 OA
ATOM      7  O   UNL     1      -4.784   0.449  33.605  1.00  0.00    -0.550 OA
ENDBRANCH   4   5
ENDBRANCH   3   4
ENDBRANCH   2   3
ENDBRANCH   1   2
BRANCH   1   8
ATOM      8  C   UNL     1      -3.010  -3.571  35.922  1.00  0.00     0.000 C 
BRANCH   8   9
ATOM      9  C   UNL     1      -3.870  -3.391  34.662  1.00  0.00    -0.000 C 
BRANCH   9  10
ATOM     10  C   UNL     1      -5.276  -2.856  34.976  1.00  0.00    -0.000 C 
BRANCH  10  11
ATOM     11  C   UNL     1      -5.558  -2.904  36.482  1.00  0.00    -0.000 C 
BRANCH  11  12
ATOM     12  C   UNL     1      -6.131  -1.572  36.977  1.00  0.00    -0.003 C 
ATOM     13  C   UNL     1      -5.546  -1.190  38.334  1.00  0.00     0.004 C 
ENDBRANCH  11  12
ENDBRANCH  10  11
ENDBRANCH   9  10
ENDBRANCH   8   9
ENDBRANCH   1   8
TORSDOF 9
ENDMDL
