MODEL 1
REMARK VINA RESULT:    -4.044      0.000      0.000
REMARK INTER + INTRA:          -5.009
REMARK INTER:                  -4.989
REMARK INTRA:                  -0.020
REMARK UNBOUND:                -0.020
REMARK SMILES CCCCCC(=O)[O-]
REMARK SMILES IDX 4 1 5 2 6 3 7 4 8 5 3 6 2 7 1 8
REMARK H PARENT
REMARK Flexibility Score: inf
ROOT
ATOM      1  C   UNL     1     126.248 143.428 140.099  1.00  0.00     0.006 C 
ENDROOT
BRANCH   1   2
ATOM      2  C   UNL     1     126.102 144.944 139.932  1.00  0.00     0.053 C 
BRANCH   2   3
ATOM      3  C   UNL     1     125.988 145.303 138.484  1.00  0.00     0.041 C 
ATOM      4  O   UNL     1     125.849 144.400 137.617  1.00  0.00    -0.550 OA
ATOM      5  O   UNL     1     125.986 146.636 138.096  1.00  0.00    -0.550 OA
ENDBRANCH   2   3
ENDBRANCH   1   2
BRANCH   1   6
ATOM      6  C   UNL     1     127.717 143.001 139.975  1.00  0.00     0.000 C 
BRANCH   6   7
ATOM      7  C   UNL     1     128.183 142.137 141.158  1.00  0.00    -0.003 C 
ATOM      8  C   UNL     1     129.520 142.600 141.737  1.00  0.00     0.004 C 
ENDBRANCH   6   7
ENDBRANCH   1   6
TORSDOF 4
ENDMDL
MODEL 2
REMARK VINA RESULT:    -3.992      1.065      1.727
REMARK INTER + INTRA:          -4.946
REMARK INTER:                  -4.805
REMARK INTRA:                  -0.141
REMARK UNBOUND:                -0.020
REMARK SMILES CCCCCC(=O)[O-]
REMARK SMILES IDX 4 1 5 2 6 3 7 4 8 5 3 6 2 7 1 8
REMARK H PARENT
REMARK Flexibility Score: inf
ROOT
ATOM      1  C   UNL     1     126.144 143.443 139.864  1.00  0.00     0.006 C 
ENDROOT
BRANCH   1   2
ATOM      2  C   UNL     1     126.083 144.970 139.759  1.00  0.00     0.053 C 
BRANCH   2   3
ATOM      3  C   UNL     1     125.882 145.389 138.336  1.00  0.00     0.041 C 
ATOM      4  O   UNL     1     125.880 146.611 138.030  1.00  0.00    -0.550 OA
ATOM      5  O   UNL     1     125.744 144.430 137.342  1.00  0.00    -0.550 OA
ENDBRANCH   2   3
ENDBRANCH   1   2
BRANCH   1   6
ATOM      6  C   UNL     1     127.587 142.966 140.084  1.00  0.00     0.000 C 
BRANCH   6   7
ATOM      7  C   UNL     1     128.167 142.252 138.853  1.00  0.00    -0.003 C 
ATOM      8  C   UNL     1     129.488 141.543 139.149  1.00  0.00     0.004 C 
ENDBRANCH   6   7
ENDBRANCH   1   6
TORSDOF 4
ENDMDL
MODEL 3
REMARK VINA RESULT:    -3.876      2.302      4.173
REMARK INTER + INTRA:          -4.803
REMARK INTER:                  -4.673
REMARK INTRA:                  -0.130
REMARK UNBOUND:                -0.020
REMARK SMILES CCCCCC(=O)[O-]
REMARK SMILES IDX 4 1 5 2 6 3 7 4 8 5 3 6 2 7 1 8
REMARK H PARENT
REMARK Flexibility Score: inf
ROOT
ATOM      1  C   UNL     1     126.373 143.331 140.296  1.00  0.00     0.006 C 
ENDROOT
BRANCH   1   2
ATOM      2  C   UNL     1     127.841 142.909 140.420  1.00  0.00     0.053 C 
BRANCH   2   3
ATOM      3  C   UNL     1     128.281 142.177 139.192  1.00  0.00     0.041 C 
ATOM      4  O   UNL     1     129.503 141.945 138.997  1.00  0.00    -0.550 OA
ATOM      5  O   UNL     1     127.338 141.709 138.286  1.00  0.00    -0.550 OA
ENDBRANCH   2   3
ENDBRANCH   1   2
BRANCH   1   6
ATOM      6  C   UNL     1     126.258 144.804 139.881  1.00  0.00     0.000 C 
BRANCH   6   7
ATOM      7  C   UNL     1     126.012 144.976 138.374  1.00  0.00    -0.003 C 
ATOM      8  C   UNL     1     125.752 146.429 137.979  1.00  0.00     0.004 C 
ENDBRANCH   6   7
ENDBRANCH   1   6
TORSDOF 4
ENDMDL
MODEL 4
REMARK VINA RESULT:    -3.876      3.079      4.516
REMARK INTER + INTRA:          -4.802
REMARK INTER:                  -4.704
REMARK INTRA:                  -0.098
REMARK UNBOUND:                -0.020
REMARK SMILES CCCCCC(=O)[O-]
REMARK SMILES IDX 4 1 5 2 6 3 7 4 8 5 3 6 2 7 1 8
REMARK H PARENT
REMARK Flexibility Score: inf
ROOT
ATOM      1  C   UNL     1     127.224 142.798 139.051  1.00  0.00     0.006 C 
ENDROOT
BRANCH   1   2
ATOM      2  C   UNL     1     127.214 143.085 140.556  1.00  0.00     0.053 C 
BRANCH   2   3
ATOM      3  C   UNL     1     128.208 142.216 141.261  1.00  0.00     0.041 C 
ATOM      4  O   UNL     1     127.911 141.031 141.565  1.00  0.00    -0.550 OA
ATOM      5  O   UNL     1     129.479 142.700 141.540  1.00  0.00    -0.550 OA
ENDBRANCH   2   3
ENDBRANCH   1   2
BRANCH   1   6
ATOM      6  C   UNL     1     126.316 143.782 138.299  1.00  0.00     0.000 C 
BRANCH   6   7
ATOM      7  C   UNL     1     126.093 145.090 139.075  1.00  0.00    -0.003 C 
ATOM      8  C   UNL     1     125.849 146.287 138.157  1.00  0.00     0.004 C 
ENDBRANCH   6   7
ENDBRANCH   1   6
TORSDOF 4
ENDMDL
MODEL 5
REMARK VINA RESULT:    -3.756     16.111     16.815
REMARK INTER + INTRA:          -4.655
REMARK INTER:                  -4.468
REMARK INTRA:                  -0.186
REMARK UNBOUND:                -0.020
REMARK SMILES CCCCCC(=O)[O-]
REMARK SMILES IDX 4 1 5 2 6 3 7 4 8 5 3 6 2 7 1 8
REMARK H PARENT
REMARK Flexibility Score: inf
ROOT
ATOM      1  C   UNL     1     141.798 145.414 136.389  1.00  0.00     0.006 C 
ENDROOT
BRANCH   1   2
ATOM      2  C   UNL     1     143.132 144.827 136.862  1.00  0.00     0.053 C 
BRANCH   2   3
ATOM      3  C   UNL     1     143.768 144.024 135.770  1.00  0.00     0.041 C 
ATOM      4  O   UNL     1     144.125 144.582 134.700  1.00  0.00    -0.550 OA
ATOM      5  O   UNL     1     144.009 142.670 135.954  1.00  0.00    -0.550 OA
ENDBRANCH   2   3
ENDBRANCH   1   2
BRANCH   1   6
ATOM      6  C   UNL     1     141.746 146.928 136.639  1.00  0.00     0.000 C 
BRANCH   6   7
ATOM      7  C   UNL     1     141.585 147.735 135.341  1.00  0.00    -0.003 C 
ATOM      8  C   UNL     1     141.580 146.853 134.093  1.00  0.00     0.004 C 
ENDBRANCH   6   7
ENDBRANCH   1   6
TORSDOF 4
ENDMDL
MODEL 6
REMARK VINA RESULT:    -3.753     14.869     15.996
REMARK INTER + INTRA:          -4.651
REMARK INTER:                  -4.448
REMARK INTRA:                  -0.203
REMARK UNBOUND:                -0.020
REMARK SMILES CCCCCC(=O)[O-]
REMARK SMILES IDX 4 1 5 2 6 3 7 4 8 5 3 6 2 7 1 8
REMARK H PARENT
REMARK Flexibility Score: inf
ROOT
ATOM      1  C   UNL     1     139.693 133.851 140.951  1.00  0.00     0.006 C 
ENDROOT
BRANCH   1   2
ATOM      2  C   UNL     1     140.509 135.093 140.578  1.00  0.00     0.053 C 
BRANCH   2   3
ATOM      3  C   UNL     1     139.621 136.295 140.489  1.00  0.00     0.041 C 
ATOM      4  O   UNL     1     139.246 136.885 141.536  1.00  0.00    -0.550 OA
ATOM      5  O   UNL     1     139.248 136.792 139.248  1.00  0.00    -0.550 OA
ENDBRANCH   2   3
ENDBRANCH   1   2
BRANCH   1   6
ATOM      6  C   UNL     1     139.446 132.968 139.720  1.00  0.00     0.000 C 
BRANCH   6   7
ATOM      7  C   UNL     1     140.361 133.329 138.540  1.00  0.00    -0.003 C 
ATOM      8  C   UNL     1     139.583 133.659 137.267  1.00  0.00     0.004 C 
ENDBRANCH   6   7
ENDBRANCH   1   6
TORSDOF 4
ENDMDL
MODEL 7
REMARK VINA RESULT:    -3.727      3.333      4.743
REMARK INTER + INTRA:          -4.619
REMARK INTER:                  -4.564
REMARK INTRA:                  -0.054
REMARK UNBOUND:                -0.020
REMARK SMILES CCCCCC(=O)[O-]
REMARK SMILES IDX 4 1 5 2 6 3 7 4 8 5 3 6 2 7 1 8
REMARK H PARENT
REMARK Flexibility Score: inf
ROOT
ATOM      1  C   UNL     1     127.661 142.825 138.839  1.00  0.00     0.006 C 
ENDROOT
BRANCH   1   2
ATOM      2  C   UNL     1     127.113 143.051 140.252  1.00  0.00     0.053 C 
BRANCH   2   3
ATOM      3  C   UNL     1     127.977 142.367 141.265  1.00  0.00     0.041 C 
ATOM      4  O   UNL     1     127.545 141.364 141.891  1.00  0.00    -0.550 OA
ATOM      5  O   UNL     1     129.275 142.808 141.482  1.00  0.00    -0.550 OA
ENDBRANCH   2   3
ENDBRANCH   1   2
BRANCH   1   6
ATOM      6  C   UNL     1     126.569 142.282 137.907  1.00  0.00     0.000 C 
BRANCH   6   7
ATOM      7  C   UNL     1     126.069 143.336 136.907  1.00  0.00    -0.003 C 
ATOM      8  C   UNL     1     125.434 142.717 135.663  1.00  0.00     0.004 C 
ENDBRANCH   6   7
ENDBRANCH   1   6
TORSDOF 4
ENDMDL
MODEL 8
REMARK VINA RESULT:    -3.660     15.608     16.447
REMARK INTER + INTRA:          -4.536
REMARK INTER:                  -4.298
REMARK INTRA:                  -0.239
REMARK UNBOUND:                -0.020
REMARK SMILES CCCCCC(=O)[O-]
REMARK SMILES IDX 4 1 5 2 6 3 7 4 8 5 3 6 2 7 1 8
REMARK H PARENT
REMARK Flexibility Score: inf
ROOT
ATOM      1  C   UNL     1     140.424 135.033 139.593  1.00  0.00     0.006 C 
ENDROOT
BRANCH   1   2
ATOM      2  C   UNL     1     140.170 133.532 139.421  1.00  0.00     0.053 C 
BRANCH   2   3
ATOM      3  C   UNL     1     138.820 133.165 139.951  1.00  0.00     0.041 C 
ATOM      4  O   UNL     1     137.934 132.721 139.174  1.00  0.00    -0.550 OA
ATOM      5  O   UNL     1     138.555 133.267 141.310  1.00  0.00    -0.550 OA
ENDBRANCH   2   3
ENDBRANCH   1   2
BRANCH   1   6
ATOM      6  C   UNL     1     141.641 135.283 140.496  1.00  0.00     0.000 C 
BRANCH   6   7
ATOM      7  C   UNL     1     141.250 135.503 141.966  1.00  0.00    -0.003 C 
ATOM      8  C   UNL     1     140.015 136.390 142.123  1.00  0.00     0.004 C 
ENDBRANCH   6   7
ENDBRANCH   1   6
TORSDOF 4
ENDMDL
MODEL 9
REMARK VINA RESULT:    -3.616     15.070     16.122
REMARK INTER + INTRA:          -4.481
REMARK INTER:                  -4.265
REMARK INTRA:                  -0.216
REMARK UNBOUND:                -0.020
REMARK SMILES CCCCCC(=O)[O-]
REMARK SMILES IDX 4 1 5 2 6 3 7 4 8 5 3 6 2 7 1 8
REMARK H PARENT
REMARK Flexibility Score: inf
ROOT
ATOM      1  C   UNL     1     140.747 134.114 139.529  1.00  0.00     0.006 C 
ENDROOT
BRANCH   1   2
ATOM      2  C   UNL     1     139.695 133.001 139.485  1.00  0.00     0.053 C 
BRANCH   2   3
ATOM      3  C   UNL     1     138.724 133.241 138.372  1.00  0.00     0.041 C 
ATOM      4  O   UNL     1     137.502 132.983 138.531  1.00  0.00    -0.550 OA
ATOM      5  O   UNL     1     139.161 133.794 137.176  1.00  0.00    -0.550 OA
ENDBRANCH   2   3
ENDBRANCH   1   2
BRANCH   1   6
ATOM      6  C   UNL     1     140.574 134.982 140.784  1.00  0.00     0.000 C 
BRANCH   6   7
ATOM      7  C   UNL     1     139.577 136.133 140.572  1.00  0.00    -0.003 C 
ATOM      8  C   UNL     1     139.684 136.760 139.183  1.00  0.00     0.004 C 
ENDBRANCH   6   7
ENDBRANCH   1   6
TORSDOF 4
ENDMDL
