MODEL 1
REMARK VINA RESULT:    -4.737      0.000      0.000
REMARK INTER + INTRA:          -5.250
REMARK INTER:                  -5.014
REMARK INTRA:                  -0.236
REMARK UNBOUND:                -0.236
REMARK SMILES O=c1cc(-c2ccccc2)oc2ccccc12
REMARK SMILES IDX 4 1 3 2 2 3 1 4 17 5 16 6 15 7 14 8 13 9 12 10 11 11 5 12
REMARK SMILES IDX 8 13 7 14 9 15 6 16 10 17
REMARK H PARENT
REMARK Flexibility Score: inf
ROOT
ATOM      1  C   UNL     1      10.155  69.799  -1.172  1.00  0.00     0.138 A 
ATOM      2  C   UNL     1       9.019  69.109  -1.647  1.00  0.00     0.100 A 
ATOM      3  C   UNL     1       8.399  68.160  -0.833  1.00  0.00     0.193 A 
ATOM      4  O   UNL     1       7.384  67.544  -1.257  1.00  0.00    -0.289 OA
ATOM      5  C   UNL     1       8.915  67.905   0.446  1.00  0.00     0.065 A 
ATOM      6  C   UNL     1       8.340  66.962   1.316  1.00  0.00     0.016 A 
ATOM      7  C   UNL     1       8.895  66.747   2.582  1.00  0.00     0.001 A 
ATOM      8  C   UNL     1      10.023  67.466   2.986  1.00  0.00     0.004 A 
ATOM      9  C   UNL     1      10.602  68.405   2.127  1.00  0.00     0.048 A 
ATOM     10  C   UNL     1      10.055  68.629   0.859  1.00  0.00     0.138 A 
ATOM     11  O   UNL     1      10.612  69.524   0.050  1.00  0.00    -0.456 OA
ENDROOT
BRANCH   1  12
ATOM     12  C   UNL     1      10.878  70.830  -1.980  1.00  0.00     0.017 A 
ATOM     13  C   UNL     1      12.225  72.841  -3.431  1.00  0.00     0.000 A 
ATOM     14  C   UNL     1      11.692  73.125  -2.175  1.00  0.00     0.001 A 
ATOM     15  C   UNL     1      12.091  71.562  -3.971  1.00  0.00     0.001 A 
ATOM     16  C   UNL     1      11.025  72.131  -1.454  1.00  0.00     0.012 A 
ATOM     17  C   UNL     1      11.425  70.561  -3.256  1.00  0.00     0.012 A 
ENDBRANCH   1  12
TORSDOF 1
ENDMDL
MODEL 2
REMARK VINA RESULT:    -4.216      1.313      6.156
REMARK INTER + INTRA:          -4.699
REMARK INTER:                  -4.444
REMARK INTRA:                  -0.254
REMARK UNBOUND:                -0.236
REMARK SMILES O=c1cc(-c2ccccc2)oc2ccccc12
REMARK SMILES IDX 4 1 3 2 2 3 1 4 17 5 16 6 15 7 14 8 13 9 12 10 11 11 5 12
REMARK SMILES IDX 8 13 7 14 9 15 6 16 10 17
REMARK H PARENT
REMARK Flexibility Score: inf
ROOT
ATOM      1  C   UNL     1       9.993  69.592   0.403  1.00  0.00     0.138 A 
ATOM      2  C   UNL     1       9.970  70.877   0.986  1.00  0.00     0.100 A 
ATOM      3  C   UNL     1      10.406  71.977   0.245  1.00  0.00     0.193 A 
ATOM      4  O   UNL     1      10.385  73.125   0.767  1.00  0.00    -0.289 OA
ATOM      5  C   UNL     1      10.860  71.789  -1.067  1.00  0.00     0.065 A 
ATOM      6  C   UNL     1      11.313  72.854  -1.867  1.00  0.00     0.016 A 
ATOM      7  C   UNL     1      11.755  72.611  -3.172  1.00  0.00     0.001 A 
ATOM      8  C   UNL     1      11.752  71.310  -3.685  1.00  0.00     0.004 A 
ATOM      9  C   UNL     1      11.304  70.246  -2.896  1.00  0.00     0.048 A 
ATOM     10  C   UNL     1      10.858  70.477  -1.591  1.00  0.00     0.138 A 
ATOM     11  O   UNL     1      10.434  69.459  -0.849  1.00  0.00    -0.456 OA
ENDROOT
BRANCH   1  12
ATOM     12  C   UNL     1       9.544  68.361   1.126  1.00  0.00     0.017 A 
ATOM     13  C   UNL     1       8.728  66.081   2.575  1.00  0.00     0.000 A 
ATOM     14  C   UNL     1       9.304  67.162   3.240  1.00  0.00     0.001 A 
ATOM     15  C   UNL     1       8.556  66.128   1.191  1.00  0.00     0.001 A 
ATOM     16  C   UNL     1       9.709  68.292   2.525  1.00  0.00     0.012 A 
ATOM     17  C   UNL     1       8.958  67.255   0.468  1.00  0.00     0.012 A 
ENDBRANCH   1  12
TORSDOF 1
ENDMDL
MODEL 3
REMARK VINA RESULT:    -4.162      2.943      4.888
REMARK INTER + INTRA:          -4.641
REMARK INTER:                  -4.393
REMARK INTRA:                  -0.249
REMARK UNBOUND:                -0.236
REMARK SMILES O=c1cc(-c2ccccc2)oc2ccccc12
REMARK SMILES IDX 4 1 3 2 2 3 1 4 17 5 16 6 15 7 14 8 13 9 12 10 11 11 5 12
REMARK SMILES IDX 8 13 7 14 9 15 6 16 10 17
REMARK H PARENT
REMARK Flexibility Score: inf
ROOT
ATOM      1  C   UNL     1       9.516  69.621   0.064  1.00  0.00     0.138 A 
ATOM      2  C   UNL     1       9.962  70.840  -0.490  1.00  0.00     0.100 A 
ATOM      3  C   UNL     1       9.862  72.014   0.259  1.00  0.00     0.193 A 
ATOM      4  O   UNL     1      10.260  73.103  -0.236  1.00  0.00    -0.289 OA
ATOM      5  C   UNL     1       9.320  71.965   1.551  1.00  0.00     0.065 A 
ATOM      6  C   UNL     1       9.190  73.109   2.358  1.00  0.00     0.016 A 
ATOM      7  C   UNL     1       8.642  73.004   3.640  1.00  0.00     0.001 A 
ATOM      8  C   UNL     1       8.220  71.762   4.124  1.00  0.00     0.004 A 
ATOM      9  C   UNL     1       8.344  70.619   3.328  1.00  0.00     0.048 A 
ATOM     10  C   UNL     1       8.892  70.713   2.045  1.00  0.00     0.138 A 
ATOM     11  O   UNL     1       9.006  69.621   1.296  1.00  0.00    -0.456 OA
ENDROOT
BRANCH   1  12
ATOM     12  C   UNL     1       9.587  68.319  -0.671  1.00  0.00     0.017 A 
ATOM     13  C   UNL     1       9.694  65.911  -2.138  1.00  0.00     0.000 A 
ATOM     14  C   UNL     1       9.334  67.100  -2.771  1.00  0.00     0.001 A 
ATOM     15  C   UNL     1      10.000  65.914  -0.777  1.00  0.00     0.001 A 
ATOM     16  C   UNL     1       9.281  68.294  -2.047  1.00  0.00     0.012 A 
ATOM     17  C   UNL     1       9.949  67.104  -0.045  1.00  0.00     0.012 A 
ENDBRANCH   1  12
TORSDOF 1
ENDMDL
MODEL 4
REMARK VINA RESULT:    -3.467      1.317      2.441
REMARK INTER + INTRA:          -3.905
REMARK INTER:                  -3.639
REMARK INTRA:                  -0.266
REMARK UNBOUND:                -0.236
REMARK SMILES O=c1cc(-c2ccccc2)oc2ccccc12
REMARK SMILES IDX 4 1 3 2 2 3 1 4 17 5 16 6 15 7 14 8 13 9 12 10 11 11 5 12
REMARK SMILES IDX 8 13 7 14 9 15 6 16 10 17
REMARK H PARENT
REMARK Flexibility Score: inf
ROOT
ATOM      1  C   UNL     1      10.354  70.120  -0.255  1.00  0.00     0.138 A 
ATOM      2  C   UNL     1      10.051  70.618   1.030  1.00  0.00     0.100 A 
ATOM      3  C   UNL     1       9.549  69.752   2.003  1.00  0.00     0.193 A 
ATOM      4  O   UNL     1       9.279  70.197   3.152  1.00  0.00    -0.289 OA
ATOM      5  C   UNL     1       9.351  68.400   1.688  1.00  0.00     0.065 A 
ATOM      6  C   UNL     1       8.848  67.476   2.621  1.00  0.00     0.016 A 
ATOM      7  C   UNL     1       8.670  66.138   2.255  1.00  0.00     0.001 A 
ATOM      8  C   UNL     1       8.990  65.714   0.962  1.00  0.00     0.004 A 
ATOM      9  C   UNL     1       9.491  66.627   0.028  1.00  0.00     0.048 A 
ATOM     10  C   UNL     1       9.673  67.967   0.384  1.00  0.00     0.138 A 
ATOM     11  O   UNL     1      10.150  68.827  -0.511  1.00  0.00    -0.456 OA
ENDROOT
BRANCH   1  12
ATOM     12  C   UNL     1      10.895  70.979  -1.354  1.00  0.00     0.017 A 
ATOM     13  C   UNL     1      11.920  72.519  -3.485  1.00  0.00     0.000 A 
ATOM     14  C   UNL     1      11.705  71.152  -3.652  1.00  0.00     0.001 A 
ATOM     15  C   UNL     1      11.630  73.125  -2.263  1.00  0.00     0.001 A 
ATOM     16  C   UNL     1      11.197  70.387  -2.599  1.00  0.00     0.012 A 
ATOM     17  C   UNL     1      11.121  72.367  -1.203  1.00  0.00     0.012 A 
ENDBRANCH   1  12
TORSDOF 1
ENDMDL
MODEL 5
REMARK VINA RESULT:    -3.415      1.867      5.728
REMARK INTER + INTRA:          -3.850
REMARK INTER:                  -3.587
REMARK INTRA:                  -0.264
REMARK UNBOUND:                -0.236
REMARK SMILES O=c1cc(-c2ccccc2)oc2ccccc12
REMARK SMILES IDX 4 1 3 2 2 3 1 4 17 5 16 6 15 7 14 8 13 9 12 10 11 11 5 12
REMARK SMILES IDX 8 13 7 14 9 15 6 16 10 17
REMARK H PARENT
REMARK Flexibility Score: inf
ROOT
ATOM      1  C   UNL     1       9.531  68.243  -0.220  1.00  0.00     0.138 A 
ATOM      2  C   UNL     1       9.653  68.488  -1.605  1.00  0.00     0.100 A 
ATOM      3  C   UNL     1       9.945  69.777  -2.053  1.00  0.00     0.193 A 
ATOM      4  O   UNL     1      10.054  69.996  -3.290  1.00  0.00    -0.289 OA
ATOM      5  C   UNL     1      10.113  70.811  -1.121  1.00  0.00     0.065 A 
ATOM      6  C   UNL     1      10.407  72.131  -1.505  1.00  0.00     0.016 A 
ATOM      7  C   UNL     1      10.565  73.125  -0.533  1.00  0.00     0.001 A 
ATOM      8  C   UNL     1      10.429  72.811   0.822  1.00  0.00     0.004 A 
ATOM      9  C   UNL     1      10.135  71.501   1.213  1.00  0.00     0.048 A 
ATOM     10  C   UNL     1       9.976  70.499   0.250  1.00  0.00     0.138 A 
ATOM     11  O   UNL     1       9.697  69.256   0.631  1.00  0.00    -0.456 OA
ENDROOT
BRANCH   1  12
ATOM     12  C   UNL     1       9.220  66.893   0.344  1.00  0.00     0.017 A 
ATOM     13  C   UNL     1       8.612  64.388   1.493  1.00  0.00     0.000 A 
ATOM     14  C   UNL     1       8.506  65.551   2.256  1.00  0.00     0.001 A 
ATOM     15  C   UNL     1       9.020  64.464   0.162  1.00  0.00     0.001 A 
ATOM     16  C   UNL     1       8.806  66.792   1.689  1.00  0.00     0.012 A 
ATOM     17  C   UNL     1       9.322  65.703  -0.414  1.00  0.00     0.012 A 
ENDBRANCH   1  12
TORSDOF 1
ENDMDL
MODEL 6
REMARK VINA RESULT:    -3.187      2.887      4.800
REMARK INTER + INTRA:          -3.609
REMARK INTER:                  -3.351
REMARK INTRA:                  -0.258
REMARK UNBOUND:                -0.236
REMARK SMILES O=c1cc(-c2ccccc2)oc2ccccc12
REMARK SMILES IDX 4 1 3 2 2 3 1 4 17 5 16 6 15 7 14 8 13 9 12 10 11 11 5 12
REMARK SMILES IDX 8 13 7 14 9 15 6 16 10 17
REMARK H PARENT
REMARK Flexibility Score: inf
ROOT
ATOM      1  C   UNL     1       9.112  69.407   1.344  1.00  0.00     0.138 A 
ATOM      2  C   UNL     1       9.182  68.138   1.958  1.00  0.00     0.100 A 
ATOM      3  C   UNL     1       9.325  66.997   1.167  1.00  0.00     0.193 A 
ATOM      4  O   UNL     1       9.387  65.864   1.716  1.00  0.00    -0.289 OA
ATOM      5  C   UNL     1       9.396  67.128  -0.227  1.00  0.00     0.065 A 
ATOM      6  C   UNL     1       9.539  66.020  -1.081  1.00  0.00     0.016 A 
ATOM      7  C   UNL     1       9.606  66.208  -2.466  1.00  0.00     0.001 A 
ATOM      8  C   UNL     1       9.529  67.495  -3.006  1.00  0.00     0.004 A 
ATOM      9  C   UNL     1       9.386  68.602  -2.163  1.00  0.00     0.048 A 
ATOM     10  C   UNL     1       9.319  68.427  -0.777  1.00  0.00     0.138 A 
ATOM     11  O   UNL     1       9.183  69.485   0.015  1.00  0.00    -0.456 OA
ENDROOT
BRANCH   1  12
ATOM     12  C   UNL     1       8.960  70.678   2.118  1.00  0.00     0.017 A 
ATOM     13  C   UNL     1       8.716  73.125   3.503  1.00  0.00     0.000 A 
ATOM     14  C   UNL     1       9.324  73.090   2.249  1.00  0.00     0.001 A 
ATOM     15  C   UNL     1       8.230  71.949   4.073  1.00  0.00     0.001 A 
ATOM     16  C   UNL     1       9.445  71.880   1.561  1.00  0.00     0.012 A 
ATOM     17  C   UNL     1       8.347  70.733   3.392  1.00  0.00     0.012 A 
ENDBRANCH   1  12
TORSDOF 1
ENDMDL
MODEL 7
REMARK VINA RESULT:    -3.085      2.798      4.523
REMARK INTER + INTRA:          -3.501
REMARK INTER:                  -3.237
REMARK INTRA:                  -0.264
REMARK UNBOUND:                -0.236
REMARK SMILES O=c1cc(-c2ccccc2)oc2ccccc12
REMARK SMILES IDX 4 1 3 2 2 3 1 4 17 5 16 6 15 7 14 8 13 9 12 10 11 11 5 12
REMARK SMILES IDX 8 13 7 14 9 15 6 16 10 17
REMARK H PARENT
REMARK Flexibility Score: inf
ROOT
ATOM      1  C   UNL     1       9.281  69.961   0.378  1.00  0.00     0.138 A 
ATOM      2  C   UNL     1       9.489  70.399  -0.948  1.00  0.00     0.100 A 
ATOM      3  C   UNL     1       9.664  69.458  -1.964  1.00  0.00     0.193 A 
ATOM      4  O   UNL     1       9.850  69.850  -3.148  1.00  0.00    -0.289 OA
ATOM      5  C   UNL     1       9.632  68.092  -1.653  1.00  0.00     0.065 A 
ATOM      6  C   UNL     1       9.802  67.093  -2.628  1.00  0.00     0.016 A 
ATOM      7  C   UNL     1       9.760  65.743  -2.263  1.00  0.00     0.001 A 
ATOM      8  C   UNL     1       9.551  65.382  -0.929  1.00  0.00     0.004 A 
ATOM      9  C   UNL     1       9.381  66.369   0.047  1.00  0.00     0.048 A 
ATOM     10  C   UNL     1       9.420  67.722  -0.306  1.00  0.00     0.138 A 
ATOM     11  O   UNL     1       9.258  68.652   0.629  1.00  0.00    -0.456 OA
ENDROOT
BRANCH   1  12
ATOM     12  C   UNL     1       9.085  70.902   1.525  1.00  0.00     0.017 A 
ATOM     13  C   UNL     1       8.684  72.601   3.743  1.00  0.00     0.000 A 
ATOM     14  C   UNL     1       8.416  71.237   3.850  1.00  0.00     0.001 A 
ATOM     15  C   UNL     1       9.150  73.125   2.537  1.00  0.00     0.001 A 
ATOM     16  C   UNL     1       8.614  70.393   2.753  1.00  0.00     0.012 A 
ATOM     17  C   UNL     1       9.351  72.288   1.435  1.00  0.00     0.012 A 
ENDBRANCH   1  12
TORSDOF 1
ENDMDL
MODEL 8
REMARK VINA RESULT:    -3.051      2.145      5.947
REMARK INTER + INTRA:          -3.465
REMARK INTER:                  -3.202
REMARK INTRA:                  -0.263
REMARK UNBOUND:                -0.236
REMARK SMILES O=c1cc(-c2ccccc2)oc2ccccc12
REMARK SMILES IDX 4 1 3 2 2 3 1 4 17 5 16 6 15 7 14 8 13 9 12 10 11 11 5 12
REMARK SMILES IDX 8 13 7 14 9 15 6 16 10 17
REMARK H PARENT
REMARK Flexibility Score: inf
ROOT
ATOM      1  C   UNL     1       9.551  68.218   0.757  1.00  0.00     0.138 A 
ATOM      2  C   UNL     1       9.556  68.739   2.068  1.00  0.00     0.100 A 
ATOM      3  C   UNL     1       9.741  70.109   2.264  1.00  0.00     0.193 A 
ATOM      4  O   UNL     1       9.746  70.574   3.436  1.00  0.00    -0.289 OA
ATOM      5  C   UNL     1       9.920  70.947   1.155  1.00  0.00     0.065 A 
ATOM      6  C   UNL     1      10.112  72.334   1.282  1.00  0.00     0.016 A 
ATOM      7  C   UNL     1      10.284  73.125   0.141  1.00  0.00     0.001 A 
ATOM      8  C   UNL     1      10.268  72.540  -1.129  1.00  0.00     0.004 A 
ATOM      9  C   UNL     1      10.079  71.162  -1.264  1.00  0.00     0.048 A 
ATOM     10  C   UNL     1       9.904  70.361  -0.130  1.00  0.00     0.138 A 
ATOM     11  O   UNL     1       9.725  69.052  -0.269  1.00  0.00    -0.456 OA
ENDROOT
BRANCH   1  12
ATOM     12  C   UNL     1       9.359  66.764   0.459  1.00  0.00     0.017 A 
ATOM     13  C   UNL     1       9.034  64.038  -0.192  1.00  0.00     0.000 A 
ATOM     14  C   UNL     1       9.562  64.922  -1.132  1.00  0.00     0.001 A 
ATOM     15  C   UNL     1       8.665  64.502   1.070  1.00  0.00     0.001 A 
ATOM     16  C   UNL     1       9.725  66.273  -0.811  1.00  0.00     0.012 A 
ATOM     17  C   UNL     1       8.824  65.852   1.399  1.00  0.00     0.012 A 
ENDBRANCH   1  12
TORSDOF 1
ENDMDL
MODEL 9
REMARK VINA RESULT:    -2.984      2.341      5.901
REMARK INTER + INTRA:          -3.394
REMARK INTER:                  -3.141
REMARK INTRA:                  -0.253
REMARK UNBOUND:                -0.236
REMARK SMILES O=c1cc(-c2ccccc2)oc2ccccc12
REMARK SMILES IDX 4 1 3 2 2 3 1 4 17 5 16 6 15 7 14 8 13 9 12 10 11 11 5 12
REMARK SMILES IDX 8 13 7 14 9 15 6 16 10 17
REMARK H PARENT
REMARK Flexibility Score: inf
ROOT
ATOM      1  C   UNL     1      10.011  70.981   0.154  1.00  0.00     0.138 A 
ATOM      2  C   UNL     1       9.806  69.819  -0.622  1.00  0.00     0.100 A 
ATOM      3  C   UNL     1      10.304  69.765  -1.924  1.00  0.00     0.193 A 
ATOM      4  O   UNL     1      10.121  68.727  -2.617  1.00  0.00    -0.289 OA
ATOM      5  C   UNL     1      11.000  70.865  -2.444  1.00  0.00     0.065 A 
ATOM      6  C   UNL     1      11.526  70.876  -3.748  1.00  0.00     0.016 A 
ATOM      7  C   UNL     1      12.213  72.000  -4.217  1.00  0.00     0.001 A 
ATOM      8  C   UNL     1      12.377  73.118  -3.393  1.00  0.00     0.004 A 
ATOM      9  C   UNL     1      11.857  73.116  -2.096  1.00  0.00     0.048 A 
ATOM     10  C   UNL     1      11.169  71.996  -1.616  1.00  0.00     0.138 A 
ATOM     11  O   UNL     1      10.678  72.004  -0.381  1.00  0.00    -0.456 OA
ENDROOT
BRANCH   1  12
ATOM     12  C   UNL     1       9.511  71.121   1.557  1.00  0.00     0.017 A 
ATOM     13  C   UNL     1       8.583  71.290   4.217  1.00  0.00     0.000 A 
ATOM     14  C   UNL     1       9.000  70.065   3.699  1.00  0.00     0.001 A 
ATOM     15  C   UNL     1       8.624  72.433   3.418  1.00  0.00     0.001 A 
ATOM     16  C   UNL     1       9.460  69.978   2.382  1.00  0.00     0.012 A 
ATOM     17  C   UNL     1       9.084  72.356   2.100  1.00  0.00     0.012 A 
ENDBRANCH   1  12
TORSDOF 1
ENDMDL
