MODEL 1
REMARK VINA RESULT:    -4.687      0.000      0.000
REMARK INTER + INTRA:          -4.239
REMARK INTER:                  -5.783
REMARK INTRA:                   1.544
REMARK UNBOUND:                 1.544
REMARK SMILES C=C1CC[C@H]2[C@@H]([C@H]3[C@H](C)CC[C@H]13)C2(C)C
REMARK SMILES IDX 3 1 2 2 1 3 12 4 9 5 8 6 10 7 7 8 11 9 4 11 5 12 6 13 13 14
REMARK SMILES IDX 14 16 15 17
REMARK H PARENT
REMARK Flexibility Score: 80.00
ROOT
ATOM      1  C   UNL     1     -50.761 -48.450  24.266  1.00  0.00     0.031 C 
ENDROOT
BRANCH   1   2
ATOM      2  C   UNL     1     -49.881 -49.148  23.239  1.00  0.00    -0.074 C 
ATOM      3  C   UNL     1     -48.884 -49.936  23.695  1.00  0.00     0.008 C 
BRANCH   2   4
ATOM      4  C   UNL     1     -50.002 -48.766  21.756  1.00  0.00     0.018 C 
ATOM      5  C   UNL     1     -52.107 -50.234  19.077  1.00  0.00     0.008 C 
ATOM      6  C   UNL     1     -51.233 -49.117  19.665  1.00  0.00    -0.010 C 
ATOM      7  C   UNL     1     -49.739 -49.369  19.423  1.00  0.00     0.004 C 
ATOM      8  C   UNL     1     -51.415 -48.988  21.194  1.00  0.00     0.003 CG0
ATOM      9  C   UNL     1     -49.115 -49.557  20.793  1.00  0.00     0.008 C 
ATOM     10  G   UNL     1     -52.348 -47.800  21.530  1.00  0.00     0.000 G0
ENDBRANCH   2   4
ENDBRANCH   1   2
BRANCH   1  11
ATOM     11  C   UNL     1     -52.259 -48.668  24.016  1.00  0.00     0.009 C 
BRANCH  11  12
ATOM     12  C   UNL     1     -52.796 -47.635  23.008  1.00  0.00    -0.001 C 
ATOM     13  C   UNL     1     -52.360 -47.796  21.542  1.00  0.00     0.002 CG0
ATOM     14  C   UNL     1     -53.830 -48.028  21.938  1.00  0.00    -0.029 C 
ATOM     15  G   UNL     1     -51.421 -48.979  21.200  1.00  0.00     0.000 G0
ATOM     16  C   UNL     1     -54.787 -46.894  21.549  1.00  0.00     0.011 C 
ATOM     17  C   UNL     1     -54.468 -49.431  21.990  1.00  0.00     0.011 C 
ENDBRANCH  11  12
ENDBRANCH   1  11
TORSDOF 0
ENDMDL
MODEL 2
REMARK VINA RESULT:    -4.664     10.461     13.200
REMARK INTER + INTRA:          -4.211
REMARK INTER:                  -5.759
REMARK INTRA:                   1.549
REMARK UNBOUND:                 1.544
REMARK SMILES C=C1CC[C@H]2[C@@H]([C@H]3[C@H](C)CC[C@H]13)C2(C)C
REMARK SMILES IDX 3 1 2 2 1 3 12 4 9 5 8 6 10 7 7 8 11 9 4 11 5 12 6 13 13 14
REMARK SMILES IDX 14 16 15 17
REMARK H PARENT
REMARK Flexibility Score: 80.00
ROOT
ATOM      1  C   UNL     1     -41.374 -49.998  30.810  1.00  0.00     0.031 C 
ENDROOT
BRANCH   1   2
ATOM      2  C   UNL     1     -42.490 -49.797  29.795  1.00  0.00    -0.074 C 
ATOM      3  C   UNL     1     -43.763 -49.926  30.225  1.00  0.00     0.008 C 
BRANCH   2   4
ATOM      4  C   UNL     1     -42.142 -49.681  28.303  1.00  0.00     0.018 C 
ATOM      5  C   UNL     1     -41.437 -46.680  26.241  1.00  0.00     0.008 C 
ATOM      6  C   UNL     1     -41.403 -48.192  26.502  1.00  0.00    -0.010 C 
ATOM      7  C   UNL     1     -42.713 -48.876  26.089  1.00  0.00     0.004 C 
ATOM      8  C   UNL     1     -41.192 -48.514  27.998  1.00  0.00     0.003 CG0
ATOM      9  C   UNL     1     -43.323 -49.424  27.365  1.00  0.00     0.008 C 
ATOM     10  G   UNL     1     -39.717 -48.903  28.266  1.00  0.00     0.000 G0
ENDBRANCH   2   4
ENDBRANCH   1   2
BRANCH   1  11
ATOM     11  C   UNL     1     -40.363 -48.845  30.823  1.00  0.00     0.009 C 
BRANCH  11  12
ATOM     12  C   UNL     1     -39.279 -49.061  29.751  1.00  0.00    -0.001 C 
ATOM     13  C   UNL     1     -39.706 -48.894  28.283  1.00  0.00     0.002 CG0
ATOM     14  C   UNL     1     -38.733 -47.885  28.921  1.00  0.00    -0.029 C 
ATOM     15  G   UNL     1     -41.183 -48.524  28.004  1.00  0.00     0.000 G0
ATOM     16  C   UNL     1     -37.268 -48.049  28.498  1.00  0.00     0.011 C 
ATOM     17  C   UNL     1     -39.149 -46.448  29.292  1.00  0.00     0.011 C 
ENDBRANCH  11  12
ENDBRANCH   1  11
TORSDOF 0
ENDMDL
MODEL 3
REMARK VINA RESULT:    -4.623      8.829     12.083
REMARK INTER + INTRA:          -4.160
REMARK INTER:                  -5.687
REMARK INTRA:                   1.527
REMARK UNBOUND:                 1.544
REMARK SMILES C=C1CC[C@H]2[C@@H]([C@H]3[C@H](C)CC[C@H]13)C2(C)C
REMARK SMILES IDX 3 1 2 2 1 3 12 4 9 5 8 6 10 7 7 8 11 9 4 11 5 12 6 13 13 14
REMARK SMILES IDX 14 16 15 17
REMARK H PARENT
REMARK Flexibility Score: 80.00
ROOT
ATOM      1  C   UNL     1     -43.298 -48.337  25.726  1.00  0.00     0.031 C 
ENDROOT
BRANCH   1   2
ATOM      2  C   UNL     1     -44.114 -49.212  26.666  1.00  0.00    -0.074 C 
ATOM      3  C   UNL     1     -45.034 -50.037  26.122  1.00  0.00     0.008 C 
BRANCH   2   4
ATOM      4  C   UNL     1     -44.032 -48.972  28.182  1.00  0.00     0.018 C 
ATOM      5  C   UNL     1     -41.818 -50.517  30.726  1.00  0.00     0.008 C 
ATOM      6  C   UNL     1     -42.783 -49.426  30.242  1.00  0.00    -0.010 C 
ATOM      7  C   UNL     1     -44.250 -49.828  30.440  1.00  0.00     0.004 C 
ATOM      8  C   UNL     1     -42.608 -49.128  28.736  1.00  0.00     0.003 CG0
ATOM      9  C   UNL     1     -44.851 -49.930  29.049  1.00  0.00     0.008 C 
ATOM     10  G   UNL     1     -41.779 -47.836  28.532  1.00  0.00     0.000 G0
ENDBRANCH   2   4
ENDBRANCH   1   2
BRANCH   1  11
ATOM     11  C   UNL     1     -41.788 -48.445  25.969  1.00  0.00     0.009 C 
BRANCH  11  12
ATOM     12  C   UNL     1     -41.348 -47.479  27.084  1.00  0.00    -0.001 C 
ATOM     13  C   UNL     1     -41.770 -47.831  28.520  1.00  0.00     0.002 CG0
ATOM     14  C   UNL     1     -40.284 -47.887  28.118  1.00  0.00    -0.029 C 
ATOM     15  G   UNL     1     -42.598 -49.122  28.727  1.00  0.00     0.000 G0
ATOM     16  C   UNL     1     -39.434 -46.719  28.633  1.00  0.00     0.011 C 
ATOM     17  C   UNL     1     -39.522 -49.214  27.928  1.00  0.00     0.011 C 
ENDBRANCH  11  12
ENDBRANCH   1  11
TORSDOF 0
ENDMDL
MODEL 4
REMARK VINA RESULT:    -4.602      8.545     11.500
REMARK INTER + INTRA:          -4.134
REMARK INTER:                  -5.658
REMARK INTRA:                   1.523
REMARK UNBOUND:                 1.544
REMARK SMILES C=C1CC[C@H]2[C@@H]([C@H]3[C@H](C)CC[C@H]13)C2(C)C
REMARK SMILES IDX 3 1 2 2 1 3 12 4 9 5 8 6 10 7 7 8 11 9 4 11 5 12 6 13 13 14
REMARK SMILES IDX 14 16 15 17
REMARK H PARENT
REMARK Flexibility Score: 80.00
ROOT
ATOM      1  C   UNL     1     -40.628 -48.527  27.495  1.00  0.00     0.031 C 
ENDROOT
BRANCH   1   2
ATOM      2  C   UNL     1     -40.699 -48.903  28.968  1.00  0.00    -0.074 C 
ATOM      3  C   UNL     1     -39.710 -48.471  29.778  1.00  0.00     0.008 C 
BRANCH   2   4
ATOM      4  C   UNL     1     -41.746 -49.926  29.435  1.00  0.00     0.018 C 
ATOM      5  C   UNL     1     -45.183 -49.404  30.730  1.00  0.00     0.008 C 
ATOM      6  C   UNL     1     -44.071 -50.276  30.132  1.00  0.00    -0.010 C 
ATOM      7  C   UNL     1     -43.129 -50.826  31.212  1.00  0.00     0.004 C 
ATOM      8  C   UNL     1     -43.188 -49.485  29.141  1.00  0.00     0.003 CG0
ATOM      9  C   UNL     1     -41.768 -50.211  30.938  1.00  0.00     0.008 C 
ATOM     10  G   UNL     1     -43.589 -49.809  27.681  1.00  0.00     0.000 G0
ENDBRANCH   2   4
ENDBRANCH   1   2
BRANCH   1  11
ATOM     11  C   UNL     1     -41.927 -47.902  26.973  1.00  0.00     0.009 C 
BRANCH  11  12
ATOM     12  C   UNL     1     -42.925 -48.997  26.552  1.00  0.00    -0.001 C 
ATOM     13  C   UNL     1     -43.584 -49.812  27.676  1.00  0.00     0.002 CG0
ATOM     14  C   UNL     1     -44.432 -48.850  26.824  1.00  0.00    -0.029 C 
ATOM     15  G   UNL     1     -43.194 -49.467  29.134  1.00  0.00     0.000 G0
ATOM     16  C   UNL     1     -45.324 -49.532  25.780  1.00  0.00     0.011 C 
ATOM     17  C   UNL     1     -44.969 -47.510  27.366  1.00  0.00     0.011 C 
ENDBRANCH  11  12
ENDBRANCH   1  11
TORSDOF 0
ENDMDL
MODEL 5
REMARK VINA RESULT:    -4.594      1.258      3.811
REMARK INTER + INTRA:          -4.125
REMARK INTER:                  -5.638
REMARK INTRA:                   1.513
REMARK UNBOUND:                 1.544
REMARK SMILES C=C1CC[C@H]2[C@@H]([C@H]3[C@H](C)CC[C@H]13)C2(C)C
REMARK SMILES IDX 3 1 2 2 1 3 12 4 9 5 8 6 10 7 7 8 11 9 4 11 5 12 6 13 13 14
REMARK SMILES IDX 14 16 15 17
REMARK H PARENT
REMARK Flexibility Score: 80.00
ROOT
ATOM      1  C   UNL     1     -52.985 -48.660  22.924  1.00  0.00     0.031 C 
ENDROOT
BRANCH   1   2
ATOM      2  C   UNL     1     -53.088 -48.868  21.420  1.00  0.00    -0.074 C 
ATOM      3  C   UNL     1     -54.177 -48.379  20.789  1.00  0.00     0.008 C 
BRANCH   2   4
ATOM      4  C   UNL     1     -52.090 -49.801  20.717  1.00  0.00     0.018 C 
ATOM      5  C   UNL     1     -48.847 -49.037  19.088  1.00  0.00     0.008 C 
ATOM      6  C   UNL     1     -49.863 -50.003  19.711  1.00  0.00    -0.010 C 
ATOM      7  C   UNL     1     -50.921 -50.457  18.697  1.00  0.00     0.004 C 
ATOM      8  C   UNL     1     -50.631 -49.353  20.885  1.00  0.00     0.003 CG0
ATOM      9  C   UNL     1     -52.248 -49.917  19.200  1.00  0.00     0.008 C 
ATOM     10  G   UNL     1     -50.049 -49.825  22.240  1.00  0.00     0.000 G0
ENDBRANCH   2   4
ENDBRANCH   1   2
BRANCH   1  11
ATOM     11  C   UNL     1     -51.640 -48.063  23.355  1.00  0.00     0.009 C 
BRANCH  11  12
ATOM     12  C   UNL     1     -50.585 -49.171  23.529  1.00  0.00    -0.001 C 
ATOM     13  C   UNL     1     -50.052 -49.836  22.249  1.00  0.00     0.002 CG0
ATOM     14  C   UNL     1     -49.122 -48.954  23.103  1.00  0.00    -0.029 C 
ATOM     15  G   UNL     1     -50.615 -49.339  20.895  1.00  0.00     0.000 G0
ATOM     16  C   UNL     1     -48.105 -49.726  23.952  1.00  0.00     0.011 C 
ATOM     17  C   UNL     1     -48.670 -47.548  22.661  1.00  0.00     0.011 C 
ENDBRANCH  11  12
ENDBRANCH   1  11
TORSDOF 0
ENDMDL
MODEL 6
REMARK VINA RESULT:    -4.505      7.910     10.806
REMARK INTER + INTRA:          -4.014
REMARK INTER:                  -5.548
REMARK INTRA:                   1.534
REMARK UNBOUND:                 1.544
REMARK SMILES C=C1CC[C@H]2[C@@H]([C@H]3[C@H](C)CC[C@H]13)C2(C)C
REMARK SMILES IDX 3 1 2 2 1 3 12 4 9 5 8 6 10 7 7 8 11 9 4 11 5 12 6 13 13 14
REMARK SMILES IDX 14 16 15 17
REMARK H PARENT
REMARK Flexibility Score: 80.00
ROOT
ATOM      1  C   UNL     1     -41.423 -47.364  26.222  1.00  0.00     0.031 C 
ENDROOT
BRANCH   1   2
ATOM      2  C   UNL     1     -41.101 -47.775  27.651  1.00  0.00    -0.074 C 
ATOM      3  C   UNL     1     -40.221 -47.019  28.341  1.00  0.00     0.008 C 
BRANCH   2   4
ATOM      4  C   UNL     1     -41.596 -49.132  28.175  1.00  0.00     0.018 C 
ATOM      5  C   UNL     1     -44.703 -49.992  30.011  1.00  0.00     0.008 C 
ATOM      6  C   UNL     1     -43.468 -50.359  29.177  1.00  0.00    -0.010 C 
ATOM      7  C   UNL     1     -42.218 -50.537  30.050  1.00  0.00     0.004 C 
ATOM      8  C   UNL     1     -43.126 -49.265  28.140  1.00  0.00     0.003 CG0
ATOM      9  C   UNL     1     -41.252 -49.444  29.633  1.00  0.00     0.008 C 
ATOM     10  G   UNL     1     -43.624 -49.678  26.734  1.00  0.00     0.000 G0
ENDBRANCH   2   4
ENDBRANCH   1   2
BRANCH   1  11
ATOM     11  C   UNL     1     -42.930 -47.259  25.955  1.00  0.00     0.009 C 
BRANCH  11  12
ATOM     12  C   UNL     1     -43.513 -48.637  25.589  1.00  0.00    -0.001 C 
ATOM     13  C   UNL     1     -43.611 -49.676  26.718  1.00  0.00     0.002 CG0
ATOM     14  C   UNL     1     -44.893 -49.081  26.106  1.00  0.00    -0.029 C 
ATOM     15  G   UNL     1     -43.119 -49.255  28.124  1.00  0.00     0.000 G0
ATOM     16  C   UNL     1     -45.644 -50.017  25.152  1.00  0.00     0.011 C 
ATOM     17  C   UNL     1     -45.778 -48.063  26.853  1.00  0.00     0.011 C 
ENDBRANCH  11  12
ENDBRANCH   1  11
TORSDOF 0
ENDMDL
MODEL 7
REMARK VINA RESULT:    -4.418      1.394      3.605
REMARK INTER + INTRA:          -3.908
REMARK INTER:                  -5.428
REMARK INTRA:                   1.521
REMARK UNBOUND:                 1.544
REMARK SMILES C=C1CC[C@H]2[C@@H]([C@H]3[C@H](C)CC[C@H]13)C2(C)C
REMARK SMILES IDX 3 1 2 2 1 3 12 4 9 5 8 6 10 7 7 8 11 9 4 11 5 12 6 13 13 14
REMARK SMILES IDX 14 16 15 17
REMARK H PARENT
REMARK Flexibility Score: 80.00
ROOT
ATOM      1  C   UNL     1     -54.623 -47.778  22.127  1.00  0.00     0.031 C 
ENDROOT
BRANCH   1   2
ATOM      2  C   UNL     1     -54.014 -48.442  20.901  1.00  0.00    -0.074 C 
ATOM      3  C   UNL     1     -54.713 -48.399  19.748  1.00  0.00     0.008 C 
BRANCH   2   4
ATOM      4  C   UNL     1     -52.761 -49.317  21.062  1.00  0.00     0.018 C 
ATOM      5  C   UNL     1     -49.172 -48.427  20.761  1.00  0.00     0.008 C 
ATOM      6  C   UNL     1     -50.314 -49.349  21.212  1.00  0.00    -0.010 C 
ATOM      7  C   UNL     1     -50.765 -50.294  20.091  1.00  0.00     0.004 C 
ATOM      8  C   UNL     1     -51.565 -48.549  21.643  1.00  0.00     0.003 CG0
ATOM      9  C   UNL     1     -52.199 -49.913  19.770  1.00  0.00     0.008 C 
ATOM     10  G   UNL     1     -51.646 -48.462  23.186  1.00  0.00     0.000 G0
ENDBRANCH   2   4
ENDBRANCH   1   2
BRANCH   1  11
ATOM     11  C   UNL     1     -53.660 -46.808  22.823  1.00  0.00     0.009 C 
BRANCH  11  12
ATOM     12  C   UNL     1     -52.744 -47.563  23.803  1.00  0.00    -0.001 C 
ATOM     13  C   UNL     1     -51.655 -48.460  23.192  1.00  0.00     0.002 CG0
ATOM     14  C   UNL     1     -51.261 -47.185  23.960  1.00  0.00    -0.029 C 
ATOM     15  G   UNL     1     -51.568 -48.530  21.648  1.00  0.00     0.000 G0
ATOM     16  C   UNL     1     -50.700 -47.429  25.367  1.00  0.00     0.011 C 
ATOM     17  C   UNL     1     -50.730 -45.919  23.257  1.00  0.00     0.011 C 
ENDBRANCH  11  12
ENDBRANCH   1  11
TORSDOF 0
ENDMDL
MODEL 8
REMARK VINA RESULT:    -4.378      9.397     11.726
REMARK INTER + INTRA:          -3.858
REMARK INTER:                  -5.454
REMARK INTRA:                   1.596
REMARK UNBOUND:                 1.544
REMARK SMILES C=C1CC[C@H]2[C@@H]([C@H]3[C@H](C)CC[C@H]13)C2(C)C
REMARK SMILES IDX 3 1 2 2 1 3 12 4 9 5 8 6 10 7 7 8 11 9 4 11 5 12 6 13 13 14
REMARK SMILES IDX 14 16 15 17
REMARK H PARENT
REMARK Flexibility Score: 80.00
ROOT
ATOM      1  C   UNL     1     -39.602 -47.655  28.118  1.00  0.00     0.031 C 
ENDROOT
BRANCH   1   2
ATOM      2  C   UNL     1     -40.198 -48.523  29.216  1.00  0.00    -0.074 C 
ATOM      3  C   UNL     1     -39.567 -48.553  30.409  1.00  0.00     0.008 C 
BRANCH   2   4
ATOM      4  C   UNL     1     -41.340 -49.493  28.875  1.00  0.00     0.018 C 
ATOM      5  C   UNL     1     -45.014 -49.005  29.033  1.00  0.00     0.008 C 
ATOM      6  C   UNL     1     -43.758 -49.749  28.559  1.00  0.00    -0.010 C 
ATOM      7  C   UNL     1     -43.270 -50.771  29.594  1.00  0.00     0.004 C 
ATOM      8  C   UNL     1     -42.577 -48.784  28.305  1.00  0.00     0.003 CG0
ATOM      9  C   UNL     1     -41.905 -50.291  30.051  1.00  0.00     0.008 C 
ATOM     10  G   UNL     1     -42.421 -48.506  26.790  1.00  0.00     0.000 G0
ENDBRANCH   2   4
ENDBRANCH   1   2
BRANCH   1  11
ATOM     11  C   UNL     1     -40.627 -46.709  27.479  1.00  0.00     0.009 C 
BRANCH  11  12
ATOM     12  C   UNL     1     -41.405 -47.429  26.362  1.00  0.00    -0.001 C 
ATOM     13  C   UNL     1     -42.411 -48.509  26.794  1.00  0.00     0.002 CG0
ATOM     14  C   UNL     1     -42.913 -47.196  26.163  1.00  0.00    -0.029 C 
ATOM     15  G   UNL     1     -42.560 -48.784  28.310  1.00  0.00     0.000 G0
ATOM     16  C   UNL     1     -43.377 -47.319  24.707  1.00  0.00     0.011 C 
ATOM     17  C   UNL     1     -43.617 -46.095  26.982  1.00  0.00     0.011 C 
ENDBRANCH  11  12
ENDBRANCH   1  11
TORSDOF 0
ENDMDL
MODEL 9
REMARK VINA RESULT:    -4.287      1.172      3.862
REMARK INTER + INTRA:          -3.745
REMARK INTER:                  -5.352
REMARK INTRA:                   1.607
REMARK UNBOUND:                 1.544
REMARK SMILES C=C1CC[C@H]2[C@@H]([C@H]3[C@H](C)CC[C@H]13)C2(C)C
REMARK SMILES IDX 3 1 2 2 1 3 12 4 9 5 8 6 10 7 7 8 11 9 4 11 5 12 6 13 13 14
REMARK SMILES IDX 14 16 15 17
REMARK H PARENT
REMARK Flexibility Score: 80.00
ROOT
ATOM      1  C   UNL     1     -52.901 -46.878  24.202  1.00  0.00     0.031 C 
ENDROOT
BRANCH   1   2
ATOM      2  C   UNL     1     -53.479 -47.120  22.816  1.00  0.00    -0.074 C 
ATOM      3  C   UNL     1     -54.436 -46.276  22.375  1.00  0.00     0.008 C 
BRANCH   2   4
ATOM      4  C   UNL     1     -53.131 -48.418  22.070  1.00  0.00     0.018 C 
ATOM      5  C   UNL     1     -50.377 -49.139  19.692  1.00  0.00     0.008 C 
ATOM      6  C   UNL     1     -51.490 -49.568  20.658  1.00  0.00    -0.010 C 
ATOM      7  C   UNL     1     -52.862 -49.605  19.973  1.00  0.00     0.004 C 
ATOM      8  C   UNL     1     -51.621 -48.598  21.854  1.00  0.00     0.003 CG0
ATOM      9  C   UNL     1     -53.704 -48.543  20.657  1.00  0.00     0.008 C 
ATOM     10  G   UNL     1     -50.939 -49.191  23.110  1.00  0.00     0.000 G0
ENDBRANCH   2   4
ENDBRANCH   1   2
BRANCH   1  11
ATOM     11  C   UNL     1     -51.368 -46.848  24.215  1.00  0.00     0.009 C 
BRANCH  11  12
ATOM     12  C   UNL     1     -50.798 -48.273  24.339  1.00  0.00    -0.001 C 
ATOM     13  C   UNL     1     -50.934 -49.190  23.113  1.00  0.00     0.002 CG0
ATOM     14  C   UNL     1     -49.543 -48.701  23.559  1.00  0.00    -0.029 C 
ATOM     15  G   UNL     1     -51.628 -48.608  21.857  1.00  0.00     0.000 G0
ATOM     16  C   UNL     1     -48.691 -49.755  24.277  1.00  0.00     0.011 C 
ATOM     17  C   UNL     1     -48.744 -47.637  22.779  1.00  0.00     0.011 C 
ENDBRANCH  11  12
ENDBRANCH   1  11
TORSDOF 0
ENDMDL
