MODEL 1
REMARK VINA RESULT:    -4.382      0.000      0.000
REMARK INTER + INTRA:          -7.053
REMARK INTER:                  -6.688
REMARK INTRA:                  -0.366
REMARK UNBOUND:                -0.366
REMARK SMILES CCCCCCCCCCC(=O)[O-]
REMARK SMILES IDX 7 1 8 2 9 3 10 4 11 5 12 6 13 7 6 8 5 9 4 10 3 11 2 12 1 13
REMARK H PARENT
REMARK Flexibility Score: inf
ROOT
ATOM      1  C   UNL     1      -4.033  37.251  19.759  1.00  0.00     0.000 C 
ENDROOT
BRANCH   1   2
ATOM      2  C   UNL     1      -5.448  36.911  20.251  1.00  0.00     0.000 C 
BRANCH   2   3
ATOM      3  C   UNL     1      -5.467  35.722  21.227  1.00  0.00     0.006 C 
BRANCH   3   4
ATOM      4  C   UNL     1      -6.119  36.085  22.569  1.00  0.00     0.053 C 
BRANCH   4   5
ATOM      5  C   UNL     1      -5.701  35.147  23.660  1.00  0.00     0.041 C 
ATOM      6  O   UNL     1      -4.996  34.138  23.394  1.00  0.00    -0.550 OA
ATOM      7  O   UNL     1      -6.118  35.370  24.967  1.00  0.00    -0.550 OA
ENDBRANCH   4   5
ENDBRANCH   3   4
ENDBRANCH   2   3
ENDBRANCH   1   2
BRANCH   1   8
ATOM      8  C   UNL     1      -3.721  36.638  18.383  1.00  0.00     0.000 C 
BRANCH   8   9
ATOM      9  C   UNL     1      -2.300  36.992  17.895  1.00  0.00    -0.000 C 
BRANCH   9  10
ATOM     10  C   UNL     1      -2.021  36.554  16.447  1.00  0.00    -0.000 C 
BRANCH  10  11
ATOM     11  C   UNL     1      -3.280  36.056  15.720  1.00  0.00    -0.000 C 
BRANCH  11  12
ATOM     12  C   UNL     1      -3.413  36.638  14.304  1.00  0.00    -0.003 C 
ATOM     13  C   UNL     1      -4.248  37.917  14.269  1.00  0.00     0.004 C 
ENDBRANCH  11  12
ENDBRANCH  10  11
ENDBRANCH   9  10
ENDBRANCH   8   9
ENDBRANCH   1   8
TORSDOF 9
ENDMDL
MODEL 2
REMARK VINA RESULT:    -4.186      3.755      7.488
REMARK INTER + INTRA:          -6.755
REMARK INTER:                  -6.324
REMARK INTRA:                  -0.431
REMARK UNBOUND:                -0.366
REMARK SMILES CCCCCCCCCCC(=O)[O-]
REMARK SMILES IDX 7 1 8 2 9 3 10 4 11 5 12 6 13 7 6 8 5 9 4 10 3 11 2 12 1 13
REMARK H PARENT
REMARK Flexibility Score: inf
ROOT
ATOM      1  C   UNL     1      -4.590  35.369  19.820  1.00  0.00     0.000 C 
ENDROOT
BRANCH   1   2
ATOM      2  C   UNL     1      -3.988  36.782  19.780  1.00  0.00     0.000 C 
BRANCH   2   3
ATOM      3  C   UNL     1      -3.435  37.153  18.393  1.00  0.00     0.006 C 
BRANCH   3   4
ATOM      4  C   UNL     1      -3.682  36.047  17.357  1.00  0.00     0.053 C 
BRANCH   4   5
ATOM      5  C   UNL     1      -2.750  36.163  16.189  1.00  0.00     0.041 C 
ATOM      6  O   UNL     1      -1.531  36.419  16.373  1.00  0.00    -0.550 OA
ATOM      7  O   UNL     1      -3.237  36.023  14.895  1.00  0.00    -0.550 OA
ENDBRANCH   4   5
ENDBRANCH   3   4
ENDBRANCH   2   3
ENDBRANCH   1   2
BRANCH   1   8
ATOM      8  C   UNL     1      -5.979  35.335  20.482  1.00  0.00     0.000 C 
BRANCH   8   9
ATOM      9  C   UNL     1      -5.936  35.810  21.951  1.00  0.00    -0.000 C 
BRANCH   9  10
ATOM     10  C   UNL     1      -5.413  34.741  22.926  1.00  0.00    -0.000 C 
BRANCH  10  11
ATOM     11  C   UNL     1      -5.930  34.936  24.360  1.00  0.00    -0.000 C 
BRANCH  11  12
ATOM     12  C   UNL     1      -6.121  36.417  24.722  1.00  0.00    -0.003 C 
ATOM     13  C   UNL     1      -5.166  36.884  25.820  1.00  0.00     0.004 C 
ENDBRANCH  11  12
ENDBRANCH  10  11
ENDBRANCH   9  10
ENDBRANCH   8   9
ENDBRANCH   1   8
TORSDOF 9
ENDMDL
MODEL 3
REMARK VINA RESULT:    -4.150      3.995      7.455
REMARK INTER + INTRA:          -6.699
REMARK INTER:                  -6.292
REMARK INTRA:                  -0.407
REMARK UNBOUND:                -0.366
REMARK SMILES CCCCCCCCCCC(=O)[O-]
REMARK SMILES IDX 7 1 8 2 9 3 10 4 11 5 12 6 13 7 6 8 5 9 4 10 3 11 2 12 1 13
REMARK H PARENT
REMARK Flexibility Score: inf
ROOT
ATOM      1  C   UNL     1      -3.609  36.879  20.265  1.00  0.00     0.000 C 
ENDROOT
BRANCH   1   2
ATOM      2  C   UNL     1      -2.755  37.205  19.030  1.00  0.00     0.000 C 
BRANCH   2   3
ATOM      3  C   UNL     1      -3.444  36.810  17.712  1.00  0.00     0.006 C 
BRANCH   3   4
ATOM      4  C   UNL     1      -2.434  36.567  16.582  1.00  0.00     0.053 C 
BRANCH   4   5
ATOM      5  C   UNL     1      -3.060  36.745  15.231  1.00  0.00     0.041 C 
ATOM      6  O   UNL     1      -2.771  35.959  14.291  1.00  0.00    -0.550 OA
ATOM      7  O   UNL     1      -3.935  37.799  15.003  1.00  0.00    -0.550 OA
ENDBRANCH   4   5
ENDBRANCH   3   4
ENDBRANCH   2   3
ENDBRANCH   1   2
BRANCH   1   8
ATOM      8  C   UNL     1      -4.137  35.434  20.255  1.00  0.00     0.000 C 
BRANCH   8   9
ATOM      9  C   UNL     1      -5.665  35.370  20.463  1.00  0.00    -0.000 C 
BRANCH   9  10
ATOM     10  C   UNL     1      -6.108  35.746  21.888  1.00  0.00    -0.000 C 
BRANCH  10  11
ATOM     11  C   UNL     1      -5.424  34.894  22.970  1.00  0.00    -0.000 C 
BRANCH  11  12
ATOM     12  C   UNL     1      -6.125  34.999  24.333  1.00  0.00    -0.003 C 
ATOM     13  C   UNL     1      -5.718  36.251  25.110  1.00  0.00     0.004 C 
ENDBRANCH  11  12
ENDBRANCH  10  11
ENDBRANCH   9  10
ENDBRANCH   8   9
ENDBRANCH   1   8
TORSDOF 9
ENDMDL
MODEL 4
REMARK VINA RESULT:    -3.838      4.193      7.377
REMARK INTER + INTRA:          -6.223
REMARK INTER:                  -5.760
REMARK INTRA:                  -0.463
REMARK UNBOUND:                -0.366
REMARK SMILES CCCCCCCCCCC(=O)[O-]
REMARK SMILES IDX 7 1 8 2 9 3 10 4 11 5 12 6 13 7 6 8 5 9 4 10 3 11 2 12 1 13
REMARK H PARENT
REMARK Flexibility Score: inf
ROOT
ATOM      1  C   UNL     1      -3.494  37.241  18.185  1.00  0.00     0.000 C 
ENDROOT
BRANCH   1   2
ATOM      2  C   UNL     1      -3.417  36.148  17.108  1.00  0.00     0.000 C 
BRANCH   2   3
ATOM      3  C   UNL     1      -2.406  36.481  15.996  1.00  0.00     0.006 C 
BRANCH   3   4
ATOM      4  C   UNL     1      -2.995  36.267  14.596  1.00  0.00     0.053 C 
BRANCH   4   5
ATOM      5  C   UNL     1      -4.136  37.199  14.325  1.00  0.00     0.041 C 
ATOM      6  O   UNL     1      -5.226  36.755  13.876  1.00  0.00    -0.550 OA
ATOM      7  O   UNL     1      -3.984  38.564  14.536  1.00  0.00    -0.550 OA
ENDBRANCH   4   5
ENDBRANCH   3   4
ENDBRANCH   2   3
ENDBRANCH   1   2
BRANCH   1   8
ATOM      8  C   UNL     1      -3.285  36.688  19.606  1.00  0.00     0.000 C 
BRANCH   8   9
ATOM      9  C   UNL     1      -4.595  36.668  20.422  1.00  0.00    -0.000 C 
BRANCH   9  10
ATOM     10  C   UNL     1      -5.430  35.393  20.210  1.00  0.00    -0.000 C 
BRANCH  10  11
ATOM     11  C   UNL     1      -6.105  34.899  21.500  1.00  0.00    -0.000 C 
BRANCH  11  12
ATOM     12  C   UNL     1      -6.104  35.962  22.610  1.00  0.00    -0.003 C 
ATOM     13  C   UNL     1      -6.024  35.352  24.009  1.00  0.00     0.004 C 
ENDBRANCH  11  12
ENDBRANCH  10  11
ENDBRANCH   9  10
ENDBRANCH   8   9
ENDBRANCH   1   8
TORSDOF 9
ENDMDL
MODEL 5
REMARK VINA RESULT:    -3.523      4.192      6.760
REMARK INTER + INTRA:          -5.742
REMARK INTER:                  -5.380
REMARK INTRA:                  -0.362
REMARK UNBOUND:                -0.366
REMARK SMILES CCCCCCCCCCC(=O)[O-]
REMARK SMILES IDX 7 1 8 2 9 3 10 4 11 5 12 6 13 7 6 8 5 9 4 10 3 11 2 12 1 13
REMARK H PARENT
REMARK Flexibility Score: inf
ROOT
ATOM      1  C   UNL     1      -3.475  37.379  18.023  1.00  0.00     0.000 C 
ENDROOT
BRANCH   1   2
ATOM      2  C   UNL     1      -3.236  36.169  17.106  1.00  0.00     0.000 C 
BRANCH   2   3
ATOM      3  C   UNL     1      -2.071  36.390  16.125  1.00  0.00     0.006 C 
BRANCH   3   4
ATOM      4  C   UNL     1      -2.528  36.329  14.661  1.00  0.00     0.053 C 
BRANCH   4   5
ATOM      5  C   UNL     1      -3.789  37.108  14.440  1.00  0.00     0.041 C 
ATOM      6  O   UNL     1      -3.855  38.317  14.785  1.00  0.00    -0.550 OA
ATOM      7  O   UNL     1      -4.901  36.488  13.885  1.00  0.00    -0.550 OA
ENDBRANCH   4   5
ENDBRANCH   3   4
ENDBRANCH   2   3
ENDBRANCH   1   2
BRANCH   1   8
ATOM      8  C   UNL     1      -3.610  36.982  19.504  1.00  0.00     0.000 C 
BRANCH   8   9
ATOM      9  C   UNL     1      -4.925  37.496  20.128  1.00  0.00    -0.000 C 
BRANCH   9  10
ATOM     10  C   UNL     1      -5.588  36.487  21.081  1.00  0.00    -0.000 C 
BRANCH  10  11
ATOM     11  C   UNL     1      -5.274  35.027  20.718  1.00  0.00    -0.000 C 
BRANCH  11  12
ATOM     12  C   UNL     1      -6.123  34.515  19.544  1.00  0.00    -0.003 C 
ATOM     13  C   UNL     1      -5.274  33.944  18.409  1.00  0.00     0.004 C 
ENDBRANCH  11  12
ENDBRANCH  10  11
ENDBRANCH   9  10
ENDBRANCH   8   9
ENDBRANCH   1   8
TORSDOF 9
ENDMDL
MODEL 6
REMARK VINA RESULT:    -3.364      4.171      6.997
REMARK INTER + INTRA:          -5.499
REMARK INTER:                  -5.424
REMARK INTRA:                  -0.075
REMARK UNBOUND:                -0.366
REMARK SMILES CCCCCCCCCCC(=O)[O-]
REMARK SMILES IDX 7 1 8 2 9 3 10 4 11 5 12 6 13 7 6 8 5 9 4 10 3 11 2 12 1 13
REMARK H PARENT
REMARK Flexibility Score: inf
ROOT
ATOM      1  C   UNL     1      -3.735  36.808  19.519  1.00  0.00     0.000 C 
ENDROOT
BRANCH   1   2
ATOM      2  C   UNL     1      -3.146  37.250  18.171  1.00  0.00     0.000 C 
BRANCH   2   3
ATOM      3  C   UNL     1      -3.264  36.164  17.087  1.00  0.00     0.006 C 
BRANCH   3   4
ATOM      4  C   UNL     1      -2.558  36.567  15.785  1.00  0.00     0.053 C 
BRANCH   4   5
ATOM      5  C   UNL     1      -3.536  36.988  14.731  1.00  0.00     0.041 C 
ATOM      6  O   UNL     1      -3.947  36.158  13.879  1.00  0.00    -0.550 OA
ATOM      7  O   UNL     1      -3.967  38.308  14.669  1.00  0.00    -0.550 OA
ENDBRANCH   4   5
ENDBRANCH   3   4
ENDBRANCH   2   3
ENDBRANCH   1   2
BRANCH   1   8
ATOM      8  C   UNL     1      -4.529  35.494  19.415  1.00  0.00     0.000 C 
BRANCH   8   9
ATOM      9  C   UNL     1      -5.868  35.560  20.181  1.00  0.00    -0.000 C 
BRANCH   9  10
ATOM     10  C   UNL     1      -5.707  35.470  21.709  1.00  0.00    -0.000 C 
BRANCH  10  11
ATOM     11  C   UNL     1      -5.899  36.823  22.411  1.00  0.00    -0.000 C 
BRANCH  11  12
ATOM     12  C   UNL     1      -5.819  38.009  21.438  1.00  0.00    -0.003 C 
ATOM     13  C   UNL     1      -5.631  39.346  22.154  1.00  0.00     0.004 C 
ENDBRANCH  11  12
ENDBRANCH  10  11
ENDBRANCH   9  10
ENDBRANCH   8   9
ENDBRANCH   1   8
TORSDOF 9
ENDMDL
MODEL 7
REMARK VINA RESULT:    -3.338      2.642      3.066
REMARK INTER + INTRA:          -5.460
REMARK INTER:                  -5.084
REMARK INTRA:                  -0.376
REMARK UNBOUND:                -0.366
REMARK SMILES CCCCCCCCCCC(=O)[O-]
REMARK SMILES IDX 7 1 8 2 9 3 10 4 11 5 12 6 13 7 6 8 5 9 4 10 3 11 2 12 1 13
REMARK H PARENT
REMARK Flexibility Score: inf
ROOT
ATOM      1  C   UNL     1      -3.525  36.578  19.812  1.00  0.00     0.000 C 
ENDROOT
BRANCH   1   2
ATOM      2  C   UNL     1      -4.906  37.242  19.702  1.00  0.00     0.000 C 
BRANCH   2   3
ATOM      3  C   UNL     1      -5.409  37.790  21.049  1.00  0.00     0.006 C 
BRANCH   3   4
ATOM      4  C   UNL     1      -6.010  39.196  20.914  1.00  0.00     0.053 C 
BRANCH   4   5
ATOM      5  C   UNL     1      -5.797  40.012  22.153  1.00  0.00     0.041 C 
ATOM      6  O   UNL     1      -5.351  39.472  23.199  1.00  0.00    -0.550 OA
ATOM      7  O   UNL     1      -6.123  41.363  22.161  1.00  0.00    -0.550 OA
ENDBRANCH   4   5
ENDBRANCH   3   4
ENDBRANCH   2   3
ENDBRANCH   1   2
BRANCH   1   8
ATOM      8  C   UNL     1      -2.443  37.326  19.014  1.00  0.00     0.000 C 
BRANCH   8   9
ATOM      9  C   UNL     1      -2.695  37.267  17.492  1.00  0.00    -0.000 C 
BRANCH   9  10
ATOM     10  C   UNL     1      -3.139  35.879  16.997  1.00  0.00    -0.000 C 
BRANCH  10  11
ATOM     11  C   UNL     1      -3.387  35.837  15.481  1.00  0.00    -0.000 C 
BRANCH  11  12
ATOM     12  C   UNL     1      -3.061  37.172  14.792  1.00  0.00    -0.003 C 
ATOM     13  C   UNL     1      -4.304  37.873  14.247  1.00  0.00     0.004 C 
ENDBRANCH  11  12
ENDBRANCH  10  11
ENDBRANCH   9  10
ENDBRANCH   8   9
ENDBRANCH   1   8
TORSDOF 9
ENDMDL
MODEL 8
REMARK VINA RESULT:    -3.215      4.016      6.767
REMARK INTER + INTRA:          -5.273
REMARK INTER:                  -4.835
REMARK INTRA:                  -0.438
REMARK UNBOUND:                -0.366
REMARK SMILES CCCCCCCCCCC(=O)[O-]
REMARK SMILES IDX 7 1 8 2 9 3 10 4 11 5 12 6 13 7 6 8 5 9 4 10 3 11 2 12 1 13
REMARK H PARENT
REMARK Flexibility Score: inf
ROOT
ATOM      1  C   UNL     1      -4.437  35.442  20.740  1.00  0.00     0.000 C 
ENDROOT
BRANCH   1   2
ATOM      2  C   UNL     1      -4.682  35.022  19.282  1.00  0.00     0.000 C 
BRANCH   2   3
ATOM      3  C   UNL     1      -4.206  36.082  18.272  1.00  0.00     0.006 C 
BRANCH   3   4
ATOM      4  C   UNL     1      -3.750  35.454  16.947  1.00  0.00     0.053 C 
BRANCH   4   5
ATOM      5  C   UNL     1      -2.867  36.382  16.169  1.00  0.00     0.041 C 
ATOM      6  O   UNL     1      -1.677  36.060  15.915  1.00  0.00    -0.550 OA
ATOM      7  O   UNL     1      -3.350  37.618  15.755  1.00  0.00    -0.550 OA
ENDBRANCH   4   5
ENDBRANCH   3   4
ENDBRANCH   2   3
ENDBRANCH   1   2
BRANCH   1   8
ATOM      8  C   UNL     1      -5.739  35.796  21.480  1.00  0.00     0.000 C 
BRANCH   8   9
ATOM      9  C   UNL     1      -5.778  37.277  21.916  1.00  0.00    -0.000 C 
BRANCH   9  10
ATOM     10  C   UNL     1      -5.649  38.265  20.743  1.00  0.00    -0.000 C 
BRANCH  10  11
ATOM     11  C   UNL     1      -6.078  39.693  21.116  1.00  0.00    -0.000 C 
BRANCH  11  12
ATOM     12  C   UNL     1      -5.701  40.065  22.558  1.00  0.00    -0.003 C 
ATOM     13  C   UNL     1      -6.124  41.485  22.930  1.00  0.00     0.004 C 
ENDBRANCH  11  12
ENDBRANCH  10  11
ENDBRANCH   9  10
ENDBRANCH   8   9
ENDBRANCH   1   8
TORSDOF 9
ENDMDL
MODEL 9
REMARK VINA RESULT:    -3.191      2.828      6.156
REMARK INTER + INTRA:          -5.237
REMARK INTER:                  -4.564
REMARK INTRA:                  -0.672
REMARK UNBOUND:                -0.366
REMARK SMILES CCCCCCCCCCC(=O)[O-]
REMARK SMILES IDX 7 1 8 2 9 3 10 4 11 5 12 6 13 7 6 8 5 9 4 10 3 11 2 12 1 13
REMARK H PARENT
REMARK Flexibility Score: inf
ROOT
ATOM      1  C   UNL     1      -4.379  35.479  17.242  1.00  0.00     0.000 C 
ENDROOT
BRANCH   1   2
ATOM      2  C   UNL     1      -3.073  35.339  16.446  1.00  0.00     0.000 C 
BRANCH   2   3
ATOM      3  C   UNL     1      -2.106  36.513  16.681  1.00  0.00     0.006 C 
BRANCH   3   4
ATOM      4  C   UNL     1      -2.623  37.483  17.753  1.00  0.00     0.053 C 
BRANCH   4   5
ATOM      5  C   UNL     1      -1.695  37.559  18.927  1.00  0.00     0.041 C 
ATOM      6  O   UNL     1      -0.448  37.561  18.751  1.00  0.00    -0.550 OA
ATOM      7  O   UNL     1      -2.208  37.592  20.218  1.00  0.00    -0.550 OA
ENDBRANCH   4   5
ENDBRANCH   3   4
ENDBRANCH   2   3
ENDBRANCH   1   2
BRANCH   1   8
ATOM      8  C   UNL     1      -4.666  34.256  18.131  1.00  0.00     0.000 C 
BRANCH   8   9
ATOM      9  C   UNL     1      -5.438  34.634  19.413  1.00  0.00    -0.000 C 
BRANCH   9  10
ATOM     10  C   UNL     1      -5.189  36.081  19.875  1.00  0.00    -0.000 C 
BRANCH  10  11
ATOM     11  C   UNL     1      -5.574  36.312  21.345  1.00  0.00    -0.000 C 
BRANCH  11  12
ATOM     12  C   UNL     1      -6.125  35.046  22.017  1.00  0.00    -0.003 C 
ATOM     13  C   UNL     1      -5.893  35.032  23.528  1.00  0.00     0.004 C 
ENDBRANCH  11  12
ENDBRANCH  10  11
ENDBRANCH   9  10
ENDBRANCH   8   9
ENDBRANCH   1   8
TORSDOF 9
ENDMDL
