MODEL 1
REMARK VINA RESULT:    -4.031      0.000      0.000
REMARK INTER + INTRA:          -4.708
REMARK INTER:                  -4.502
REMARK INTRA:                  -0.206
REMARK UNBOUND:                -0.206
REMARK SMILES O=C([O-])c1ccccc1C(=O)[O-]
REMARK SMILES IDX 4 1 9 2 5 3 8 4 6 5 7 6 2 7 1 8 3 9 10 10 11 11 12 12
REMARK H PARENT
REMARK Flexibility Score: inf
ROOT
ATOM      1  C   UNL     1     168.946 187.108  32.131  1.00  0.00     0.006 A 
ATOM      2  C   UNL     1     168.910 186.081  31.149  1.00  0.00     0.006 A 
ATOM      3  C   UNL     1     170.149 187.358  32.817  1.00  0.00     0.010 A 
ATOM      4  C   UNL     1     170.094 185.385  30.842  1.00  0.00     0.010 A 
ATOM      5  C   UNL     1     171.307 186.640  32.512  1.00  0.00     0.001 A 
ATOM      6  C   UNL     1     171.282 185.664  31.519  1.00  0.00     0.001 A 
ENDROOT
BRANCH   1   7
ATOM      7  C   UNL     1     167.784 187.982  32.416  1.00  0.00     0.072 C 
ATOM      8  O   UNL     1     167.149 187.860  33.497  1.00  0.00    -0.545 OA
ATOM      9  O   UNL     1     167.421 188.988  31.530  1.00  0.00    -0.545 OA
ENDBRANCH   1   7
BRANCH   2  10
ATOM     10  C   UNL     1     167.657 185.658  30.481  1.00  0.00     0.072 C 
ATOM     11  O   UNL     1     167.431 185.991  29.288  1.00  0.00    -0.545 OA
ATOM     12  O   UNL     1     166.747 184.838  31.138  1.00  0.00    -0.545 OA
ENDBRANCH   2  10
TORSDOF 2
ENDMDL
MODEL 2
REMARK VINA RESULT:    -4.024      0.051      3.164
REMARK INTER + INTRA:          -4.700
REMARK INTER:                  -4.494
REMARK INTRA:                  -0.206
REMARK UNBOUND:                -0.206
REMARK SMILES O=C([O-])c1ccccc1C(=O)[O-]
REMARK SMILES IDX 4 1 9 2 5 3 8 4 6 5 7 6 2 7 1 8 3 9 10 10 11 11 12 12
REMARK H PARENT
REMARK Flexibility Score: inf
ROOT
ATOM      1  C   UNL     1     168.895 186.109  31.124  1.00  0.00     0.006 A 
ATOM      2  C   UNL     1     168.919 187.140  32.103  1.00  0.00     0.006 A 
ATOM      3  C   UNL     1     170.083 185.415  30.830  1.00  0.00     0.010 A 
ATOM      4  C   UNL     1     170.116 187.394  32.800  1.00  0.00     0.010 A 
ATOM      5  C   UNL     1     171.264 185.698  31.519  1.00  0.00     0.001 A 
ATOM      6  C   UNL     1     171.277 186.678  32.509  1.00  0.00     0.001 A 
ENDROOT
BRANCH   1   7
ATOM      7  C   UNL     1     167.650 185.682  30.445  1.00  0.00     0.072 C 
ATOM      8  O   UNL     1     167.437 186.008  29.247  1.00  0.00    -0.545 OA
ATOM      9  O   UNL     1     166.733 184.865  31.095  1.00  0.00    -0.545 OA
ENDBRANCH   1   7
BRANCH   2  10
ATOM     10  C   UNL     1     167.754 188.013  32.374  1.00  0.00     0.072 C 
ATOM     11  O   UNL     1     167.107 187.893  33.448  1.00  0.00    -0.545 OA
ATOM     12  O   UNL     1     167.397 189.015  31.479  1.00  0.00    -0.545 OA
ENDBRANCH   2  10
TORSDOF 2
ENDMDL
MODEL 3
REMARK VINA RESULT:    -3.696      1.705      3.555
REMARK INTER + INTRA:          -4.334
REMARK INTER:                  -4.107
REMARK INTRA:                  -0.227
REMARK UNBOUND:                -0.206
REMARK SMILES O=C([O-])c1ccccc1C(=O)[O-]
REMARK SMILES IDX 4 1 9 2 5 3 8 4 6 5 7 6 2 7 1 8 3 9 10 10 11 11 12 12
REMARK H PARENT
REMARK Flexibility Score: inf
ROOT
ATOM      1  C   UNL     1     170.073 185.250  31.883  1.00  0.00     0.006 A 
ATOM      2  C   UNL     1     170.434 186.019  33.024  1.00  0.00     0.006 A 
ATOM      3  C   UNL     1     170.883 184.162  31.507  1.00  0.00     0.010 A 
ATOM      4  C   UNL     1     171.553 185.632  33.784  1.00  0.00     0.010 A 
ATOM      5  C   UNL     1     172.002 183.810  32.263  1.00  0.00     0.001 A 
ATOM      6  C   UNL     1     172.330 184.536  33.405  1.00  0.00     0.001 A 
ENDROOT
BRANCH   1   7
ATOM      7  C   UNL     1     168.835 185.501  31.111  1.00  0.00     0.072 C 
ATOM      8  O   UNL     1     168.882 186.149  30.031  1.00  0.00    -0.545 OA
ATOM      9  O   UNL     1     167.620 184.972  31.528  1.00  0.00    -0.545 OA
ENDBRANCH   1   7
BRANCH   2  10
ATOM     10  C   UNL     1     169.722 187.259  33.410  1.00  0.00     0.072 C 
ATOM     11  O   UNL     1     170.090 188.371  32.946  1.00  0.00    -0.545 OA
ATOM     12  O   UNL     1     168.605 187.208  34.235  1.00  0.00    -0.545 OA
ENDBRANCH   2  10
TORSDOF 2
ENDMDL
MODEL 4
REMARK VINA RESULT:    -3.658      1.733      2.239
REMARK INTER + INTRA:          -4.291
REMARK INTER:                  -4.070
REMARK INTRA:                  -0.221
REMARK UNBOUND:                -0.206
REMARK SMILES O=C([O-])c1ccccc1C(=O)[O-]
REMARK SMILES IDX 4 1 9 2 5 3 8 4 6 5 7 6 2 7 1 8 3 9 10 10 11 11 12 12
REMARK H PARENT
REMARK Flexibility Score: inf
ROOT
ATOM      1  C   UNL     1     170.430 186.021  33.047  1.00  0.00     0.006 A 
ATOM      2  C   UNL     1     170.037 185.232  31.932  1.00  0.00     0.006 A 
ATOM      3  C   UNL     1     171.573 185.649  33.780  1.00  0.00     0.010 A 
ATOM      4  C   UNL     1     170.837 184.139  31.550  1.00  0.00     0.010 A 
ATOM      5  C   UNL     1     172.340 184.548  33.396  1.00  0.00     0.001 A 
ATOM      6  C   UNL     1     171.979 183.801  32.277  1.00  0.00     0.001 A 
ENDROOT
BRANCH   1   7
ATOM      7  C   UNL     1     169.727 187.266  33.432  1.00  0.00     0.072 C 
ATOM      8  O   UNL     1     168.789 187.231  34.272  1.00  0.00    -0.545 OA
ATOM      9  O   UNL     1     170.134 188.495  32.926  1.00  0.00    -0.545 OA
ENDBRANCH   1   7
BRANCH   2  10
ATOM     10  C   UNL     1     168.775 185.467  31.192  1.00  0.00     0.072 C 
ATOM     11  O   UNL     1     167.696 184.963  31.604  1.00  0.00    -0.545 OA
ATOM     12  O   UNL     1     168.752 186.293  30.075  1.00  0.00    -0.545 OA
ENDBRANCH   2  10
TORSDOF 2
ENDMDL
MODEL 5
REMARK VINA RESULT:    -3.608      3.254      4.246
REMARK INTER + INTRA:          -4.235
REMARK INTER:                  -4.032
REMARK INTRA:                  -0.203
REMARK UNBOUND:                -0.206
REMARK SMILES O=C([O-])c1ccccc1C(=O)[O-]
REMARK SMILES IDX 4 1 9 2 5 3 8 4 6 5 7 6 2 7 1 8 3 9 10 10 11 11 12 12
REMARK H PARENT
REMARK Flexibility Score: inf
ROOT
ATOM      1  C   UNL     1     169.003 184.824  32.734  1.00  0.00     0.006 A 
ATOM      2  C   UNL     1     170.145 185.085  31.928  1.00  0.00     0.006 A 
ATOM      3  C   UNL     1     167.721 185.048  32.199  1.00  0.00     0.010 A 
ATOM      4  C   UNL     1     169.962 185.499  30.596  1.00  0.00     0.010 A 
ATOM      5  C   UNL     1     167.563 185.480  30.881  1.00  0.00     0.001 A 
ATOM      6  C   UNL     1     168.681 185.694  30.078  1.00  0.00     0.001 A 
ENDROOT
BRANCH   1   7
ATOM      7  C   UNL     1     169.103 184.253  34.098  1.00  0.00     0.072 C 
ATOM      8  O   UNL     1     169.007 185.002  35.107  1.00  0.00    -0.545 OA
ATOM      9  O   UNL     1     169.234 182.883  34.284  1.00  0.00    -0.545 OA
ENDBRANCH   1   7
BRANCH   2  10
ATOM     10  C   UNL     1     171.528 185.012  32.453  1.00  0.00     0.072 C 
ATOM     11  O   UNL     1     171.978 185.932  33.186  1.00  0.00    -0.545 OA
ATOM     12  O   UNL     1     172.325 183.901  32.198  1.00  0.00    -0.545 OA
ENDBRANCH   2  10
TORSDOF 2
ENDMDL
MODEL 6
REMARK VINA RESULT:    -3.489     21.776     23.072
REMARK INTER + INTRA:          -4.103
REMARK INTER:                  -3.880
REMARK INTRA:                  -0.224
REMARK UNBOUND:                -0.206
REMARK SMILES O=C([O-])c1ccccc1C(=O)[O-]
REMARK SMILES IDX 4 1 9 2 5 3 8 4 6 5 7 6 2 7 1 8 3 9 10 10 11 11 12 12
REMARK H PARENT
REMARK Flexibility Score: inf
ROOT
ATOM      1  C   UNL     1     162.858 170.167  17.338  1.00  0.00     0.006 A 
ATOM      2  C   UNL     1     162.078 170.310  16.158  1.00  0.00     0.006 A 
ATOM      3  C   UNL     1     164.260 170.245  17.246  1.00  0.00     0.010 A 
ATOM      4  C   UNL     1     162.725 170.591  14.940  1.00  0.00     0.010 A 
ATOM      5  C   UNL     1     164.882 170.503  16.023  1.00  0.00     0.001 A 
ATOM      6  C   UNL     1     164.115 170.687  14.875  1.00  0.00     0.001 A 
ENDROOT
BRANCH   1   7
ATOM      7  C   UNL     1     162.253 170.010  18.681  1.00  0.00     0.072 C 
ATOM      8  O   UNL     1     162.206 168.875  19.226  1.00  0.00    -0.545 OA
ATOM      9  O   UNL     1     161.791 171.116  19.383  1.00  0.00    -0.545 OA
ENDBRANCH   1   7
BRANCH   2  10
ATOM     10  C   UNL     1     160.612 170.103  16.139  1.00  0.00     0.072 C 
ATOM     11  O   UNL     1     160.137 168.940  16.049  1.00  0.00    -0.545 OA
ATOM     12  O   UNL     1     159.742 171.178  16.282  1.00  0.00    -0.545 OA
ENDBRANCH   2  10
TORSDOF 2
ENDMDL
MODEL 7
REMARK VINA RESULT:    -3.474     21.866     23.203
REMARK INTER + INTRA:          -4.086
REMARK INTER:                  -3.882
REMARK INTRA:                  -0.203
REMARK UNBOUND:                -0.206
REMARK SMILES O=C([O-])c1ccccc1C(=O)[O-]
REMARK SMILES IDX 4 1 9 2 5 3 8 4 6 5 7 6 2 7 1 8 3 9 10 10 11 11 12 12
REMARK H PARENT
REMARK Flexibility Score: inf
ROOT
ATOM      1  C   UNL     1     162.053 170.482  16.032  1.00  0.00     0.006 A 
ATOM      2  C   UNL     1     162.735 170.193  17.246  1.00  0.00     0.006 A 
ATOM      3  C   UNL     1     162.803 170.764  14.875  1.00  0.00     0.010 A 
ATOM      4  C   UNL     1     164.141 170.133  17.243  1.00  0.00     0.010 A 
ATOM      5  C   UNL     1     164.198 170.719  14.901  1.00  0.00     0.001 A 
ATOM      6  C   UNL     1     164.865 170.394  16.079  1.00  0.00     0.001 A 
ENDROOT
BRANCH   1   7
ATOM      7  C   UNL     1     160.578 170.428  15.914  1.00  0.00     0.072 C 
ATOM      8  O   UNL     1     159.911 171.492  15.809  1.00  0.00    -0.545 OA
ATOM      9  O   UNL     1     159.916 169.208  15.849  1.00  0.00    -0.545 OA
ENDBRANCH   1   7
BRANCH   2  10
ATOM     10  C   UNL     1     162.031 170.024  18.538  1.00  0.00     0.072 C 
ATOM     11  O   UNL     1     161.629 168.886  18.897  1.00  0.00    -0.545 OA
ATOM     12  O   UNL     1     161.860 171.103  19.398  1.00  0.00    -0.545 OA
ENDBRANCH   2  10
TORSDOF 2
ENDMDL
MODEL 8
REMARK VINA RESULT:    -3.412      1.787      3.393
REMARK INTER + INTRA:          -4.017
REMARK INTER:                  -3.804
REMARK INTRA:                  -0.213
REMARK UNBOUND:                -0.206
REMARK SMILES O=C([O-])c1ccccc1C(=O)[O-]
REMARK SMILES IDX 4 1 9 2 5 3 8 4 6 5 7 6 2 7 1 8 3 9 10 10 11 11 12 12
REMARK H PARENT
REMARK Flexibility Score: inf
ROOT
ATOM      1  C   UNL     1     168.175 186.774  31.723  1.00  0.00     0.006 A 
ATOM      2  C   UNL     1     169.542 186.660  32.096  1.00  0.00     0.006 A 
ATOM      3  C   UNL     1     167.424 187.865  32.199  1.00  0.00     0.010 A 
ATOM      4  C   UNL     1     170.126 187.674  32.879  1.00  0.00     0.010 A 
ATOM      5  C   UNL     1     168.018 188.849  32.992  1.00  0.00     0.001 A 
ATOM      6  C   UNL     1     169.368 188.758  33.322  1.00  0.00     0.001 A 
ENDROOT
BRANCH   1   7
ATOM      7  C   UNL     1     167.521 185.829  30.789  1.00  0.00     0.072 C 
ATOM      8  O   UNL     1     167.616 185.999  29.545  1.00  0.00    -0.545 OA
ATOM      9  O   UNL     1     166.853 184.708  31.268  1.00  0.00    -0.545 OA
ENDBRANCH   1   7
BRANCH   2  10
ATOM     10  C   UNL     1     170.367 185.476  31.759  1.00  0.00     0.072 C 
ATOM     11  O   UNL     1     171.287 185.568  30.904  1.00  0.00    -0.545 OA
ATOM     12  O   UNL     1     170.179 184.269  32.422  1.00  0.00    -0.545 OA
ENDBRANCH   2  10
TORSDOF 2
ENDMDL
MODEL 9
REMARK VINA RESULT:    -3.333      2.760      3.969
REMARK INTER + INTRA:          -3.929
REMARK INTER:                  -3.701
REMARK INTRA:                  -0.228
REMARK UNBOUND:                -0.206
REMARK SMILES O=C([O-])c1ccccc1C(=O)[O-]
REMARK SMILES IDX 4 1 9 2 5 3 8 4 6 5 7 6 2 7 1 8 3 9 10 10 11 11 12 12
REMARK H PARENT
REMARK Flexibility Score: inf
ROOT
ATOM      1  C   UNL     1     170.020 185.271  32.678  1.00  0.00     0.006 A 
ATOM      2  C   UNL     1     168.646 185.595  32.844  1.00  0.00     0.006 A 
ATOM      3  C   UNL     1     170.545 185.159  31.377  1.00  0.00     0.010 A 
ATOM      4  C   UNL     1     167.862 185.859  31.706  1.00  0.00     0.010 A 
ATOM      5  C   UNL     1     169.744 185.404  30.261  1.00  0.00     0.001 A 
ATOM      6  C   UNL     1     168.409 185.764  30.425  1.00  0.00     0.001 A 
ENDROOT
BRANCH   1   7
ATOM      7  C   UNL     1     170.948 185.115  33.823  1.00  0.00     0.072 C 
ATOM      8  O   UNL     1     171.551 186.118  34.290  1.00  0.00    -0.545 OA
ATOM      9  O   UNL     1     171.114 183.880  34.437  1.00  0.00    -0.545 OA
ENDBRANCH   1   7
BRANCH   2  10
ATOM     10  C   UNL     1     167.979 185.596  34.167  1.00  0.00     0.072 C 
ATOM     11  O   UNL     1     167.805 186.677  34.789  1.00  0.00    -0.545 OA
ATOM     12  O   UNL     1     167.482 184.416  34.710  1.00  0.00    -0.545 OA
ENDBRANCH   2  10
TORSDOF 2
ENDMDL
