MODEL 1
REMARK VINA RESULT:    -4.684      0.000      0.000
REMARK INTER + INTRA:          -8.070
REMARK INTER:                  -7.422
REMARK INTRA:                  -0.649
REMARK UNBOUND:                -0.649
REMARK SMILES CCCCCCCCCCCC(=O)[O-]
REMARK SMILES IDX 7 1 8 2 9 3 10 4 11 5 12 6 13 7 14 8 6 9 5 10 4 11 3 12 2 13
REMARK SMILES IDX 1 14
REMARK H PARENT
REMARK Flexibility Score: inf
ROOT
ATOM      1  C   UNL     1      17.739 116.769 296.068  1.00  0.00     0.000 C 
ENDROOT
BRANCH   1   2
ATOM      2  C   UNL     1      18.642 117.880 296.636  1.00  0.00     0.000 C 
BRANCH   2   3
ATOM      3  C   UNL     1      20.099 117.417 296.818  1.00  0.00     0.000 C 
BRANCH   3   4
ATOM      4  C   UNL     1      21.025 117.932 295.704  1.00  0.00     0.006 C 
BRANCH   4   5
ATOM      5  C   UNL     1      22.490 117.531 295.921  1.00  0.00     0.053 C 
BRANCH   5   6
ATOM      6  C   UNL     1      23.368 118.203 294.913  1.00  0.00     0.041 C 
ATOM      7  O   UNL     1      24.228 117.538 294.275  1.00  0.00    -0.550 OA
ATOM      8  O   UNL     1      23.272 119.574 294.711  1.00  0.00    -0.550 OA
ENDBRANCH   5   6
ENDBRANCH   4   5
ENDBRANCH   3   4
ENDBRANCH   2   3
ENDBRANCH   1   2
BRANCH   1   9
ATOM      9  C   UNL     1      16.643 117.277 295.113  1.00  0.00     0.000 C 
BRANCH   9  10
ATOM     10  C   UNL     1      17.217 118.086 293.937  1.00  0.00    -0.000 C 
BRANCH  10  11
ATOM     11  C   UNL     1      18.141 117.252 293.031  1.00  0.00    -0.000 C 
BRANCH  11  12
ATOM     12  C   UNL     1      17.458 116.076 292.304  1.00  0.00    -0.000 C 
BRANCH  12  13
ATOM     13  C   UNL     1      18.183 115.588 291.037  1.00  0.00    -0.003 C 
ATOM     14  C   UNL     1      17.298 114.725 290.139  1.00  0.00     0.004 C 
ENDBRANCH  12  13
ENDBRANCH  11  12
ENDBRANCH  10  11
ENDBRANCH   9  10
ENDBRANCH   1   9
TORSDOF 10
ENDMDL
MODEL 2
REMARK VINA RESULT:    -4.677      1.791      2.221
REMARK INTER + INTRA:          -8.059
REMARK INTER:                  -7.549
REMARK INTRA:                  -0.510
REMARK UNBOUND:                -0.649
REMARK SMILES CCCCCCCCCCCC(=O)[O-]
REMARK SMILES IDX 7 1 8 2 9 3 10 4 11 5 12 6 13 7 14 8 6 9 5 10 4 11 3 12 2 13
REMARK SMILES IDX 1 14
REMARK H PARENT
REMARK Flexibility Score: inf
ROOT
ATOM      1  C   UNL     1      19.512 118.514 294.332  1.00  0.00     0.000 C 
ENDROOT
BRANCH   1   2
ATOM      2  C   UNL     1      20.161 119.068 295.614  1.00  0.00     0.000 C 
BRANCH   2   3
ATOM      3  C   UNL     1      19.950 118.144 296.826  1.00  0.00     0.000 C 
BRANCH   3   4
ATOM      4  C   UNL     1      21.016 117.040 296.922  1.00  0.00     0.006 C 
BRANCH   4   5
ATOM      5  C   UNL     1      22.417 117.537 296.541  1.00  0.00     0.053 C 
BRANCH   5   6
ATOM      6  C   UNL     1      23.002 118.347 297.655  1.00  0.00     0.041 C 
ATOM      7  O   UNL     1      23.138 119.593 297.530  1.00  0.00    -0.550 OA
ATOM      8  O   UNL     1      23.442 117.720 298.814  1.00  0.00    -0.550 OA
ENDBRANCH   5   6
ENDBRANCH   4   5
ENDBRANCH   3   4
ENDBRANCH   2   3
ENDBRANCH   1   2
BRANCH   1   9
ATOM      9  C   UNL     1      18.300 117.598 294.586  1.00  0.00     0.000 C 
BRANCH   9  10
ATOM     10  C   UNL     1      17.284 117.636 293.431  1.00  0.00    -0.000 C 
BRANCH  10  11
ATOM     11  C   UNL     1      17.266 116.335 292.608  1.00  0.00    -0.000 C 
BRANCH  11  12
ATOM     12  C   UNL     1      18.360 116.228 291.526  1.00  0.00    -0.000 C 
BRANCH  12  13
ATOM     13  C   UNL     1      17.867 115.749 290.149  1.00  0.00    -0.003 C 
ATOM     14  C   UNL     1      17.206 114.372 290.199  1.00  0.00     0.004 C 
ENDBRANCH  12  13
ENDBRANCH  11  12
ENDBRANCH  10  11
ENDBRANCH   9  10
ENDBRANCH   1   9
TORSDOF 10
ENDMDL
MODEL 3
REMARK VINA RESULT:    -4.601      0.950      1.580
REMARK INTER + INTRA:          -7.940
REMARK INTER:                  -7.229
REMARK INTRA:                  -0.711
REMARK UNBOUND:                -0.649
REMARK SMILES CCCCCCCCCCCC(=O)[O-]
REMARK SMILES IDX 7 1 8 2 9 3 10 4 11 5 12 6 13 7 14 8 6 9 5 10 4 11 3 12 2 13
REMARK SMILES IDX 1 14
REMARK H PARENT
REMARK Flexibility Score: inf
ROOT
ATOM      1  C   UNL     1      18.765 117.061 296.406  1.00  0.00     0.000 C 
ENDROOT
BRANCH   1   2
ATOM      2  C   UNL     1      19.996 116.454 297.104  1.00  0.00     0.000 C 
BRANCH   2   3
ATOM      3  C   UNL     1      20.828 117.511 297.852  1.00  0.00     0.000 C 
BRANCH   3   4
ATOM      4  C   UNL     1      22.302 117.520 297.416  1.00  0.00     0.006 C 
BRANCH   4   5
ATOM      5  C   UNL     1      22.490 117.087 295.956  1.00  0.00     0.053 C 
BRANCH   5   6
ATOM      6  C   UNL     1      23.403 118.036 295.245  1.00  0.00     0.041 C 
ATOM      7  O   UNL     1      23.341 119.272 295.478  1.00  0.00    -0.550 OA
ATOM      8  O   UNL     1      24.290 117.561 294.288  1.00  0.00    -0.550 OA
ENDBRANCH   5   6
ENDBRANCH   4   5
ENDBRANCH   3   4
ENDBRANCH   2   3
ENDBRANCH   1   2
BRANCH   1   9
ATOM      9  C   UNL     1      19.087 118.248 295.480  1.00  0.00     0.000 C 
BRANCH   9  10
ATOM     10  C   UNL     1      18.846 117.918 293.997  1.00  0.00    -0.000 C 
BRANCH  10  11
ATOM     11  C   UNL     1      17.413 117.429 293.719  1.00  0.00    -0.000 C 
BRANCH  11  12
ATOM     12  C   UNL     1      17.309 116.176 292.826  1.00  0.00    -0.000 C 
BRANCH  12  13
ATOM     13  C   UNL     1      18.195 116.199 291.568  1.00  0.00    -0.003 C 
ATOM     14  C   UNL     1      17.906 115.042 290.613  1.00  0.00     0.004 C 
ENDBRANCH  12  13
ENDBRANCH  11  12
ENDBRANCH  10  11
ENDBRANCH   9  10
ENDBRANCH   1   9
TORSDOF 10
ENDMDL
MODEL 4
REMARK VINA RESULT:    -4.543      2.026      2.429
REMARK INTER + INTRA:          -7.847
REMARK INTER:                  -7.104
REMARK INTRA:                  -0.743
REMARK UNBOUND:                -0.649
REMARK SMILES CCCCCCCCCCCC(=O)[O-]
REMARK SMILES IDX 7 1 8 2 9 3 10 4 11 5 12 6 13 7 14 8 6 9 5 10 4 11 3 12 2 13
REMARK SMILES IDX 1 14
REMARK H PARENT
REMARK Flexibility Score: inf
ROOT
ATOM      1  C   UNL     1      19.611 118.001 295.202  1.00  0.00     0.000 C 
ENDROOT
BRANCH   1   2
ATOM      2  C   UNL     1      19.112 117.240 296.443  1.00  0.00     0.000 C 
BRANCH   2   3
ATOM      3  C   UNL     1      20.264 116.626 297.259  1.00  0.00     0.000 C 
BRANCH   3   4
ATOM      4  C   UNL     1      21.647 117.011 296.710  1.00  0.00     0.006 C 
BRANCH   4   5
ATOM      5  C   UNL     1      22.541 117.670 297.769  1.00  0.00     0.053 C 
BRANCH   5   6
ATOM      6  C   UNL     1      21.909 118.928 298.274  1.00  0.00     0.041 C 
ATOM      7  O   UNL     1      21.622 119.049 299.494  1.00  0.00    -0.550 OA
ATOM      8  O   UNL     1      21.593 119.951 297.389  1.00  0.00    -0.550 OA
ENDBRANCH   5   6
ENDBRANCH   4   5
ENDBRANCH   3   4
ENDBRANCH   2   3
ENDBRANCH   1   2
BRANCH   1   9
ATOM      9  C   UNL     1      18.500 118.375 294.203  1.00  0.00     0.000 C 
BRANCH   9  10
ATOM     10  C   UNL     1      17.277 117.448 294.312  1.00  0.00    -0.000 C 
BRANCH  10  11
ATOM     11  C   UNL     1      17.314 116.288 293.300  1.00  0.00    -0.000 C 
BRANCH  11  12
ATOM     12  C   UNL     1      18.070 116.585 291.989  1.00  0.00    -0.000 C 
BRANCH  12  13
ATOM     13  C   UNL     1      18.221 115.383 291.040  1.00  0.00    -0.003 C 
ATOM     14  C   UNL     1      17.374 115.512 289.775  1.00  0.00     0.004 C 
ENDBRANCH  12  13
ENDBRANCH  11  12
ENDBRANCH  10  11
ENDBRANCH   9  10
ENDBRANCH   1   9
TORSDOF 10
ENDMDL
MODEL 5
REMARK VINA RESULT:    -4.373      1.871      2.083
REMARK INTER + INTRA:          -7.578
REMARK INTER:                  -6.671
REMARK INTRA:                  -0.907
REMARK UNBOUND:                -0.649
REMARK SMILES CCCCCCCCCCCC(=O)[O-]
REMARK SMILES IDX 7 1 8 2 9 3 10 4 11 5 12 6 13 7 14 8 6 9 5 10 4 11 3 12 2 13
REMARK SMILES IDX 1 14
REMARK H PARENT
REMARK Flexibility Score: inf
ROOT
ATOM      1  C   UNL     1      17.886 118.185 296.255  1.00  0.00     0.000 C 
ENDROOT
BRANCH   1   2
ATOM      2  C   UNL     1      18.180 119.602 295.727  1.00  0.00     0.000 C 
BRANCH   2   3
ATOM      3  C   UNL     1      19.651 119.782 295.314  1.00  0.00     0.000 C 
BRANCH   3   4
ATOM      4  C   UNL     1      20.266 118.494 294.742  1.00  0.00     0.006 C 
BRANCH   4   5
ATOM      5  C   UNL     1      21.650 118.187 295.330  1.00  0.00     0.053 C 
BRANCH   5   6
ATOM      6  C   UNL     1      21.521 117.699 296.739  1.00  0.00     0.041 C 
ATOM      7  O   UNL     1      21.066 116.549 296.973  1.00  0.00    -0.550 OA
ATOM      8  O   UNL     1      21.858 118.534 297.797  1.00  0.00    -0.550 OA
ENDBRANCH   5   6
ENDBRANCH   4   5
ENDBRANCH   3   4
ENDBRANCH   2   3
ENDBRANCH   1   2
BRANCH   1   9
ATOM      9  C   UNL     1      16.697 117.491 295.566  1.00  0.00     0.000 C 
BRANCH   9  10
ATOM     10  C   UNL     1      17.143 116.548 294.435  1.00  0.00    -0.000 C 
BRANCH  10  11
ATOM     11  C   UNL     1      17.250 117.257 293.072  1.00  0.00    -0.000 C 
BRANCH  11  12
ATOM     12  C   UNL     1      17.992 116.464 291.976  1.00  0.00    -0.000 C 
BRANCH  12  13
ATOM     13  C   UNL     1      17.281 115.182 291.508  1.00  0.00    -0.003 C 
ATOM     14  C   UNL     1      17.458 114.914 290.014  1.00  0.00     0.004 C 
ENDBRANCH  12  13
ENDBRANCH  11  12
ENDBRANCH  10  11
ENDBRANCH   9  10
ENDBRANCH   1   9
TORSDOF 10
ENDMDL
MODEL 6
REMARK VINA RESULT:    -4.370      3.649      4.328
REMARK INTER + INTRA:          -7.573
REMARK INTER:                  -6.890
REMARK INTRA:                  -0.683
REMARK UNBOUND:                -0.649
REMARK SMILES CCCCCCCCCCCC(=O)[O-]
REMARK SMILES IDX 7 1 8 2 9 3 10 4 11 5 12 6 13 7 14 8 6 9 5 10 4 11 3 12 2 13
REMARK SMILES IDX 1 14
REMARK H PARENT
REMARK Flexibility Score: inf
ROOT
ATOM      1  C   UNL     1      16.301 119.354 293.571  1.00  0.00     0.000 C 
ENDROOT
BRANCH   1   2
ATOM      2  C   UNL     1      16.455 120.793 294.098  1.00  0.00     0.000 C 
BRANCH   2   3
ATOM      3  C   UNL     1      17.075 120.840 295.506  1.00  0.00     0.000 C 
BRANCH   3   4
ATOM      4  C   UNL     1      18.327 121.730 295.572  1.00  0.00     0.006 C 
BRANCH   4   5
ATOM      5  C   UNL     1      19.102 121.760 294.248  1.00  0.00     0.053 C 
BRANCH   5   6
ATOM      6  C   UNL     1      19.208 123.162 293.737  1.00  0.00     0.041 C 
ATOM      7  O   UNL     1      18.732 124.119 294.405  1.00  0.00    -0.550 OA
ATOM      8  O   UNL     1      19.788 123.409 292.500  1.00  0.00    -0.550 OA
ENDBRANCH   5   6
ENDBRANCH   4   5
ENDBRANCH   3   4
ENDBRANCH   2   3
ENDBRANCH   1   2
BRANCH   1   9
ATOM      9  C   UNL     1      16.274 118.280 294.675  1.00  0.00     0.000 C 
BRANCH   9  10
ATOM     10  C   UNL     1      17.422 117.265 294.534  1.00  0.00    -0.000 C 
BRANCH  10  11
ATOM     11  C   UNL     1      17.999 117.209 293.108  1.00  0.00    -0.000 C 
BRANCH  11  12
ATOM     12  C   UNL     1      17.346 116.167 292.176  1.00  0.00    -0.000 C 
BRANCH  12  13
ATOM     13  C   UNL     1      18.194 115.763 290.958  1.00  0.00    -0.003 C 
ATOM     14  C   UNL     1      17.464 114.810 290.012  1.00  0.00     0.004 C 
ENDBRANCH  12  13
ENDBRANCH  11  12
ENDBRANCH  10  11
ENDBRANCH   9  10
ENDBRANCH   1   9
TORSDOF 10
ENDMDL
MODEL 7
REMARK VINA RESULT:    -4.322      4.149      5.470
REMARK INTER + INTRA:          -7.498
REMARK INTER:                  -7.106
REMARK INTRA:                  -0.392
REMARK UNBOUND:                -0.649
REMARK SMILES CCCCCCCCCCCC(=O)[O-]
REMARK SMILES IDX 7 1 8 2 9 3 10 4 11 5 12 6 13 7 14 8 6 9 5 10 4 11 3 12 2 13
REMARK SMILES IDX 1 14
REMARK H PARENT
REMARK Flexibility Score: inf
ROOT
ATOM      1  C   UNL     1      16.403 120.402 293.647  1.00  0.00     0.000 C 
ENDROOT
BRANCH   1   2
ATOM      2  C   UNL     1      15.451 121.304 292.837  1.00  0.00     0.000 C 
BRANCH   2   3
ATOM      3  C   UNL     1      15.904 122.775 292.825  1.00  0.00     0.000 C 
BRANCH   3   4
ATOM      4  C   UNL     1      17.434 122.922 292.792  1.00  0.00     0.006 C 
BRANCH   4   5
ATOM      5  C   UNL     1      17.923 123.751 291.597  1.00  0.00     0.053 C 
BRANCH   5   6
ATOM      6  C   UNL     1      19.389 124.026 291.720  1.00  0.00     0.041 C 
ATOM      7  O   UNL     1      20.192 123.590 290.854  1.00  0.00    -0.550 OA
ATOM      8  O   UNL     1      19.875 124.725 292.818  1.00  0.00    -0.550 OA
ENDBRANCH   5   6
ENDBRANCH   4   5
ENDBRANCH   3   4
ENDBRANCH   2   3
ENDBRANCH   1   2
BRANCH   1   9
ATOM      9  C   UNL     1      16.092 118.898 293.535  1.00  0.00     0.000 C 
BRANCH   9  10
ATOM     10  C   UNL     1      17.258 118.020 294.019  1.00  0.00    -0.000 C 
BRANCH  10  11
ATOM     11  C   UNL     1      17.259 116.620 293.377  1.00  0.00    -0.000 C 
BRANCH  11  12
ATOM     12  C   UNL     1      18.078 116.495 292.076  1.00  0.00    -0.000 C 
BRANCH  12  13
ATOM     13  C   UNL     1      17.294 115.960 290.865  1.00  0.00    -0.003 C 
ATOM     14  C   UNL     1      17.319 114.435 290.766  1.00  0.00     0.004 C 
ENDBRANCH  12  13
ENDBRANCH  11  12
ENDBRANCH  10  11
ENDBRANCH   9  10
ENDBRANCH   1   9
TORSDOF 10
ENDMDL
MODEL 8
REMARK VINA RESULT:    -4.278      2.350      3.107
REMARK INTER + INTRA:          -7.428
REMARK INTER:                  -6.627
REMARK INTRA:                  -0.800
REMARK UNBOUND:                -0.649
REMARK SMILES CCCCCCCCCCCC(=O)[O-]
REMARK SMILES IDX 7 1 8 2 9 3 10 4 11 5 12 6 13 7 14 8 6 9 5 10 4 11 3 12 2 13
REMARK SMILES IDX 1 14
REMARK H PARENT
REMARK Flexibility Score: inf
ROOT
ATOM      1  C   UNL     1      16.008 120.318 294.299  1.00  0.00     0.000 C 
ENDROOT
BRANCH   1   2
ATOM      2  C   UNL     1      17.187 121.281 294.066  1.00  0.00     0.000 C 
BRANCH   2   3
ATOM      3  C   UNL     1      18.125 121.368 295.283  1.00  0.00     0.000 C 
BRANCH   3   4
ATOM      4  C   UNL     1      19.607 121.449 294.883  1.00  0.00     0.006 C 
BRANCH   4   5
ATOM      5  C   UNL     1      20.232 120.068 294.646  1.00  0.00     0.053 C 
BRANCH   5   6
ATOM      6  C   UNL     1      20.662 119.461 295.945  1.00  0.00     0.041 C 
ATOM      7  O   UNL     1      19.912 118.646 296.544  1.00  0.00    -0.550 OA
ATOM      8  O   UNL     1      21.870 119.834 296.520  1.00  0.00    -0.550 OA
ENDBRANCH   5   6
ENDBRANCH   4   5
ENDBRANCH   3   4
ENDBRANCH   2   3
ENDBRANCH   1   2
BRANCH   1   9
ATOM      9  C   UNL     1      16.141 118.971 293.564  1.00  0.00     0.000 C 
BRANCH   9  10
ATOM     10  C   UNL     1      17.151 118.029 294.242  1.00  0.00    -0.000 C 
BRANCH  10  11
ATOM     11  C   UNL     1      18.085 117.331 293.237  1.00  0.00    -0.000 C 
BRANCH  11  12
ATOM     12  C   UNL     1      17.424 116.231 292.381  1.00  0.00    -0.000 C 
BRANCH  12  13
ATOM     13  C   UNL     1      18.229 115.801 291.142  1.00  0.00    -0.003 C 
ATOM     14  C   UNL     1      17.489 114.783 290.275  1.00  0.00     0.004 C 
ENDBRANCH  12  13
ENDBRANCH  11  12
ENDBRANCH  10  11
ENDBRANCH   9  10
ENDBRANCH   1   9
TORSDOF 10
ENDMDL
MODEL 9
REMARK VINA RESULT:    -4.274      2.991      5.731
REMARK INTER + INTRA:          -7.422
REMARK INTER:                  -6.404
REMARK INTRA:                  -1.018
REMARK UNBOUND:                -0.649
REMARK SMILES CCCCCCCCCCCC(=O)[O-]
REMARK SMILES IDX 7 1 8 2 9 3 10 4 11 5 12 6 13 7 14 8 6 9 5 10 4 11 3 12 2 13
REMARK SMILES IDX 1 14
REMARK H PARENT
REMARK Flexibility Score: inf
ROOT
ATOM      1  C   UNL     1      18.321 117.191 296.523  1.00  0.00     0.000 C 
ENDROOT
BRANCH   1   2
ATOM      2  C   UNL     1      18.317 118.268 295.423  1.00  0.00     0.000 C 
BRANCH   2   3
ATOM      3  C   UNL     1      18.652 117.692 294.035  1.00  0.00     0.000 C 
BRANCH   3   4
ATOM      4  C   UNL     1      17.594 116.692 293.540  1.00  0.00     0.006 C 
BRANCH   4   5
ATOM      5  C   UNL     1      17.324 116.814 292.035  1.00  0.00     0.053 C 
BRANCH   5   6
ATOM      6  C   UNL     1      17.934 115.660 291.302  1.00  0.00     0.041 C 
ATOM      7  O   UNL     1      19.127 115.720 290.903  1.00  0.00    -0.550 OA
ATOM      8  O   UNL     1      17.170 114.536 291.016  1.00  0.00    -0.550 OA
ENDBRANCH   5   6
ENDBRANCH   4   5
ENDBRANCH   3   4
ENDBRANCH   2   3
ENDBRANCH   1   2
BRANCH   1   9
ATOM      9  C   UNL     1      19.710 116.592 296.813  1.00  0.00     0.000 C 
BRANCH   9  10
ATOM     10  C   UNL     1      20.476 117.380 297.889  1.00  0.00    -0.000 C 
BRANCH  10  11
ATOM     11  C   UNL     1      21.693 118.135 297.325  1.00  0.00    -0.000 C 
BRANCH  11  12
ATOM     12  C   UNL     1      22.422 117.429 296.163  1.00  0.00    -0.000 C 
BRANCH  12  13
ATOM     13  C   UNL     1      22.269 118.110 294.791  1.00  0.00    -0.003 C 
ATOM     14  C   UNL     1      22.266 119.636 294.880  1.00  0.00     0.004 C 
ENDBRANCH  12  13
ENDBRANCH  11  12
ENDBRANCH  10  11
ENDBRANCH   9  10
ENDBRANCH   1   9
TORSDOF 10
ENDMDL
