MODEL 1
REMARK VINA RESULT:    -4.737      0.000      0.000
REMARK INTER + INTRA:         -10.212
REMARK INTER:                  -9.167
REMARK INTRA:                  -1.045
REMARK UNBOUND:                -1.045
REMARK SMILES CCCCCCCCCCCCCCCCCC(=O)[O-]
REMARK SMILES IDX 10 1 11 2 12 3 13 4 14 5 15 6 16 7 17 8 18 9 19 10 20 11
REMARK SMILES IDX 9 12 8 13 7 14 6 15 5 16 4 17 3 18 2 19 1 20
REMARK H PARENT
REMARK Flexibility Score: inf
ROOT
ATOM      1  C   UNL     1     111.191 101.666 111.340  1.00  0.00     0.000 C 
ENDROOT
BRANCH   1   2
ATOM      2  C   UNL     1     111.966 102.420 112.437  1.00  0.00     0.000 C 
BRANCH   2   3
ATOM      3  C   UNL     1     113.480 102.153 112.385  1.00  0.00     0.000 C 
BRANCH   3   4
ATOM      4  C   UNL     1     114.143 102.762 111.139  1.00  0.00     0.000 C 
BRANCH   4   5
ATOM      5  C   UNL     1     115.140 103.885 111.478  1.00  0.00     0.000 C 
BRANCH   5   6
ATOM      6  C   UNL     1     114.874 104.620 112.805  1.00  0.00     0.000 C 
BRANCH   6   7
ATOM      7  C   UNL     1     116.165 105.032 113.533  1.00  0.00     0.006 C 
BRANCH   7   8
ATOM      8  C   UNL     1     117.423 104.635 112.751  1.00  0.00     0.053 C 
BRANCH   8   9
ATOM      9  C   UNL     1     118.660 105.247 113.334  1.00  0.00     0.041 C 
ATOM     10  O   UNL     1     119.100 104.850 114.445  1.00  0.00    -0.550 OA
ATOM     11  O   UNL     1     119.345 106.234 112.635  1.00  0.00    -0.550 OA
ENDBRANCH   8   9
ENDBRANCH   7   8
ENDBRANCH   6   7
ENDBRANCH   5   6
ENDBRANCH   4   5
ENDBRANCH   3   4
ENDBRANCH   2   3
ENDBRANCH   1   2
BRANCH   1  12
ATOM     12  C   UNL     1     110.292 102.598 110.512  1.00  0.00     0.000 C 
BRANCH  12  13
ATOM     13  C   UNL     1     110.248 104.028 111.076  1.00  0.00    -0.000 C 
BRANCH  13  14
ATOM     14  C   UNL     1     108.970 104.789 110.678  1.00  0.00    -0.000 C 
BRANCH  14  15
ATOM     15  C   UNL     1     109.093 106.324 110.687  1.00  0.00    -0.000 C 
BRANCH  15  16
ATOM     16  C   UNL     1     107.956 107.013 111.461  1.00  0.00    -0.000 C 
BRANCH  16  17
ATOM     17  C   UNL     1     107.828 106.509 112.910  1.00  0.00    -0.000 C 
BRANCH  17  18
ATOM     18  C   UNL     1     106.461 105.894 113.276  1.00  0.00    -0.000 C 
BRANCH  18  19
ATOM     19  C   UNL     1     105.370 106.910 113.656  1.00  0.00    -0.003 C 
ATOM     20  C   UNL     1     103.959 106.330 113.568  1.00  0.00     0.004 C 
ENDBRANCH  18  19
ENDBRANCH  17  18
ENDBRANCH  16  17
ENDBRANCH  15  16
ENDBRANCH  14  15
ENDBRANCH  13  14
ENDBRANCH  12  13
ENDBRANCH   1  12
TORSDOF 16
ENDMDL
MODEL 2
REMARK VINA RESULT:    -4.394      4.721      9.469
REMARK INTER + INTRA:          -9.550
REMARK INTER:                  -8.666
REMARK INTRA:                  -0.883
REMARK UNBOUND:                -1.045
REMARK SMILES CCCCCCCCCCCCCCCCCC(=O)[O-]
REMARK SMILES IDX 10 1 11 2 12 3 13 4 14 5 15 6 16 7 17 8 18 9 19 10 20 11
REMARK SMILES IDX 9 12 8 13 7 14 6 15 5 16 4 17 3 18 2 19 1 20
REMARK H PARENT
REMARK Flexibility Score: inf
ROOT
ATOM      1  C   UNL     1     111.115 101.927 111.330  1.00  0.00     0.000 C 
ENDROOT
BRANCH   1   2
ATOM      2  C   UNL     1     110.509 103.080 110.508  1.00  0.00     0.000 C 
BRANCH   2   3
ATOM      3  C   UNL     1     109.839 104.148 111.389  1.00  0.00     0.000 C 
BRANCH   3   4
ATOM      4  C   UNL     1     108.632 104.807 110.700  1.00  0.00     0.000 C 
BRANCH   4   5
ATOM      5  C   UNL     1     108.647 106.343 110.802  1.00  0.00     0.000 C 
BRANCH   5   6
ATOM      6  C   UNL     1     108.353 106.911 112.202  1.00  0.00     0.000 C 
BRANCH   6   7
ATOM      7  C   UNL     1     107.141 106.247 112.877  1.00  0.00     0.006 C 
BRANCH   7   8
ATOM      8  C   UNL     1     105.928 107.183 112.943  1.00  0.00     0.053 C 
BRANCH   8   9
ATOM      9  C   UNL     1     104.933 106.737 113.969  1.00  0.00     0.041 C 
ATOM     10  O   UNL     1     105.008 107.161 115.152  1.00  0.00    -0.550 OA
ATOM     11  O   UNL     1     103.901 105.876 113.611  1.00  0.00    -0.550 OA
ENDBRANCH   8   9
ENDBRANCH   7   8
ENDBRANCH   6   7
ENDBRANCH   5   6
ENDBRANCH   4   5
ENDBRANCH   3   4
ENDBRANCH   2   3
ENDBRANCH   1   2
BRANCH   1  12
ATOM     12  C   UNL     1     112.157 102.417 112.348  1.00  0.00     0.000 C 
BRANCH  12  13
ATOM     13  C   UNL     1     113.593 102.029 111.953  1.00  0.00    -0.000 C 
BRANCH  13  14
ATOM     14  C   UNL     1     114.330 103.150 111.198  1.00  0.00    -0.000 C 
BRANCH  14  15
ATOM     15  C   UNL     1     114.488 104.468 111.977  1.00  0.00    -0.000 C 
BRANCH  15  16
ATOM     16  C   UNL     1     115.142 104.275 113.357  1.00  0.00    -0.000 C 
BRANCH  16  17
ATOM     17  C   UNL     1     116.372 105.175 113.568  1.00  0.00    -0.000 C 
BRANCH  17  18
ATOM     18  C   UNL     1     117.712 104.590 113.073  1.00  0.00    -0.000 C 
BRANCH  18  19
ATOM     19  C   UNL     1     118.952 105.445 113.386  1.00  0.00    -0.003 C 
ATOM     20  C   UNL     1     119.342 106.373 112.236  1.00  0.00     0.004 C 
ENDBRANCH  18  19
ENDBRANCH  17  18
ENDBRANCH  16  17
ENDBRANCH  15  16
ENDBRANCH  14  15
ENDBRANCH  13  14
ENDBRANCH  12  13
ENDBRANCH   1  12
TORSDOF 16
ENDMDL
MODEL 3
REMARK VINA RESULT:    -4.256      4.548      9.401
REMARK INTER + INTRA:          -9.283
REMARK INTER:                  -8.512
REMARK INTRA:                  -0.770
REMARK UNBOUND:                -1.045
REMARK SMILES CCCCCCCCCCCCCCCCCC(=O)[O-]
REMARK SMILES IDX 10 1 11 2 12 3 13 4 14 5 15 6 16 7 17 8 18 9 19 10 20 11
REMARK SMILES IDX 9 12 8 13 7 14 6 15 5 16 4 17 3 18 2 19 1 20
REMARK H PARENT
REMARK Flexibility Score: inf
ROOT
ATOM      1  C   UNL     1     112.251 102.529 112.246  1.00  0.00     0.000 C 
ENDROOT
BRANCH   1   2
ATOM      2  C   UNL     1     111.120 101.852 111.451  1.00  0.00     0.000 C 
BRANCH   2   3
ATOM      3  C   UNL     1     110.320 102.846 110.593  1.00  0.00     0.000 C 
BRANCH   3   4
ATOM      4  C   UNL     1     109.890 104.094 111.383  1.00  0.00     0.000 C 
BRANCH   4   5
ATOM      5  C   UNL     1     108.868 104.961 110.626  1.00  0.00     0.000 C 
BRANCH   5   6
ATOM      6  C   UNL     1     108.490 106.284 111.316  1.00  0.00     0.000 C 
BRANCH   6   7
ATOM      7  C   UNL     1     107.783 106.077 112.666  1.00  0.00     0.006 C 
BRANCH   7   8
ATOM      8  C   UNL     1     106.680 107.116 112.908  1.00  0.00     0.053 C 
BRANCH   8   9
ATOM      9  C   UNL     1     105.581 106.574 113.769  1.00  0.00     0.041 C 
ATOM     10  O   UNL     1     105.055 105.461 113.500  1.00  0.00    -0.550 OA
ATOM     11  O   UNL     1     105.157 107.283 114.886  1.00  0.00    -0.550 OA
ENDBRANCH   8   9
ENDBRANCH   7   8
ENDBRANCH   6   7
ENDBRANCH   5   6
ENDBRANCH   4   5
ENDBRANCH   3   4
ENDBRANCH   2   3
ENDBRANCH   1   2
BRANCH   1  12
ATOM     12  C   UNL     1     113.642 102.018 111.838  1.00  0.00     0.000 C 
BRANCH  12  13
ATOM     13  C   UNL     1     114.524 103.129 111.241  1.00  0.00    -0.000 C 
BRANCH  13  14
ATOM     14  C   UNL     1     114.352 104.480 111.957  1.00  0.00    -0.000 C 
BRANCH  14  15
ATOM     15  C   UNL     1     114.825 104.508 113.422  1.00  0.00    -0.000 C 
BRANCH  15  16
ATOM     16  C   UNL     1     116.137 105.288 113.615  1.00  0.00    -0.000 C 
BRANCH  16  17
ATOM     17  C   UNL     1     117.352 104.580 112.987  1.00  0.00    -0.000 C 
BRANCH  17  18
ATOM     18  C   UNL     1     118.633 104.580 113.846  1.00  0.00    -0.000 C 
BRANCH  18  19
ATOM     19  C   UNL     1     119.618 105.723 113.547  1.00  0.00    -0.003 C 
ATOM     20  C   UNL     1     119.359 106.395 112.200  1.00  0.00     0.004 C 
ENDBRANCH  18  19
ENDBRANCH  17  18
ENDBRANCH  16  17
ENDBRANCH  15  16
ENDBRANCH  14  15
ENDBRANCH  13  14
ENDBRANCH  12  13
ENDBRANCH   1  12
TORSDOF 16
ENDMDL
MODEL 4
REMARK VINA RESULT:    -4.133      1.088      1.596
REMARK INTER + INTRA:          -9.044
REMARK INTER:                  -8.312
REMARK INTRA:                  -0.732
REMARK UNBOUND:                -1.045
REMARK SMILES CCCCCCCCCCCCCCCCCC(=O)[O-]
REMARK SMILES IDX 10 1 11 2 12 3 13 4 14 5 15 6 16 7 17 8 18 9 19 10 20 11
REMARK SMILES IDX 9 12 8 13 7 14 6 15 5 16 4 17 3 18 2 19 1 20
REMARK H PARENT
REMARK Flexibility Score: inf
ROOT
ATOM      1  C   UNL     1     110.759 103.173 110.871  1.00  0.00     0.000 C 
ENDROOT
BRANCH   1   2
ATOM      2  C   UNL     1     111.279 102.066 111.806  1.00  0.00     0.000 C 
BRANCH   2   3
ATOM      3  C   UNL     1     112.716 102.323 112.288  1.00  0.00     0.000 C 
BRANCH   3   4
ATOM      4  C   UNL     1     113.656 102.737 111.143  1.00  0.00     0.000 C 
BRANCH   4   5
ATOM      5  C   UNL     1     114.683 103.804 111.566  1.00  0.00     0.000 C 
BRANCH   5   6
ATOM      6  C   UNL     1     114.877 103.962 113.085  1.00  0.00     0.000 C 
BRANCH   6   7
ATOM      7  C   UNL     1     116.044 104.896 113.448  1.00  0.00     0.006 C 
BRANCH   7   8
ATOM      8  C   UNL     1     117.335 104.526 112.707  1.00  0.00     0.053 C 
BRANCH   8   9
ATOM      9  C   UNL     1     118.555 104.895 113.493  1.00  0.00     0.041 C 
ATOM     10  O   UNL     1     118.877 104.232 114.514  1.00  0.00    -0.550 OA
ATOM     11  O   UNL     1     119.357 105.952 113.079  1.00  0.00    -0.550 OA
ENDBRANCH   8   9
ENDBRANCH   7   8
ENDBRANCH   6   7
ENDBRANCH   5   6
ENDBRANCH   4   5
ENDBRANCH   3   4
ENDBRANCH   2   3
ENDBRANCH   1   2
BRANCH   1  12
ATOM     12  C   UNL     1     109.554 103.923 111.461  1.00  0.00     0.000 C 
BRANCH  12  13
ATOM     13  C   UNL     1     108.962 104.951 110.481  1.00  0.00    -0.000 C 
BRANCH  13  14
ATOM     14  C   UNL     1     108.587 106.279 111.163  1.00  0.00    -0.000 C 
BRANCH  14  15
ATOM     15  C   UNL     1     108.065 106.149 112.606  1.00  0.00    -0.000 C 
BRANCH  15  16
ATOM     16  C   UNL     1     106.780 106.958 112.855  1.00  0.00    -0.000 C 
BRANCH  16  17
ATOM     17  C   UNL     1     105.722 106.173 113.651  1.00  0.00    -0.000 C 
BRANCH  17  18
ATOM     18  C   UNL     1     104.654 107.033 114.357  1.00  0.00    -0.000 C 
BRANCH  18  19
ATOM     19  C   UNL     1     105.167 107.862 115.547  1.00  0.00    -0.003 C 
ATOM     20  C   UNL     1     104.699 107.320 116.897  1.00  0.00     0.004 C 
ENDBRANCH  18  19
ENDBRANCH  17  18
ENDBRANCH  16  17
ENDBRANCH  15  16
ENDBRANCH  14  15
ENDBRANCH  13  14
ENDBRANCH  12  13
ENDBRANCH   1  12
TORSDOF 16
ENDMDL
MODEL 5
REMARK VINA RESULT:    -3.967      4.794      9.815
REMARK INTER + INTRA:          -8.722
REMARK INTER:                  -8.090
REMARK INTRA:                  -0.631
REMARK UNBOUND:                -1.045
REMARK SMILES CCCCCCCCCCCCCCCCCC(=O)[O-]
REMARK SMILES IDX 10 1 11 2 12 3 13 4 14 5 15 6 16 7 17 8 18 9 19 10 20 11
REMARK SMILES IDX 9 12 8 13 7 14 6 15 5 16 4 17 3 18 2 19 1 20
REMARK H PARENT
REMARK Flexibility Score: inf
ROOT
ATOM      1  C   UNL     1     109.984 104.094 111.566  1.00  0.00     0.000 C 
ENDROOT
BRANCH   1   2
ATOM      2  C   UNL     1     108.995 104.764 110.594  1.00  0.00     0.000 C 
BRANCH   2   3
ATOM      3  C   UNL     1     108.500 106.130 111.099  1.00  0.00     0.000 C 
BRANCH   3   4
ATOM      4  C   UNL     1     108.170 106.118 112.601  1.00  0.00     0.000 C 
BRANCH   4   5
ATOM      5  C   UNL     1     106.890 106.903 112.940  1.00  0.00     0.000 C 
BRANCH   5   6
ATOM      6  C   UNL     1     105.691 106.045 113.383  1.00  0.00     0.000 C 
BRANCH   6   7
ATOM      7  C   UNL     1     104.752 106.780 114.355  1.00  0.00     0.006 C 
BRANCH   7   8
ATOM      8  C   UNL     1     105.414 108.015 114.978  1.00  0.00     0.053 C 
BRANCH   8   9
ATOM      9  C   UNL     1     105.148 108.110 116.449  1.00  0.00     0.041 C 
ATOM     10  O   UNL     1     105.596 109.081 117.114  1.00  0.00    -0.550 OA
ATOM     11  O   UNL     1     104.377 107.141 117.081  1.00  0.00    -0.550 OA
ENDBRANCH   8   9
ENDBRANCH   7   8
ENDBRANCH   6   7
ENDBRANCH   5   6
ENDBRANCH   4   5
ENDBRANCH   3   4
ENDBRANCH   2   3
ENDBRANCH   1   2
BRANCH   1  12
ATOM     12  C   UNL     1     110.786 102.964 110.900  1.00  0.00     0.000 C 
BRANCH  12  13
ATOM     13  C   UNL     1     111.537 102.093 111.923  1.00  0.00    -0.000 C 
BRANCH  13  14
ATOM     14  C   UNL     1     113.042 101.981 111.622  1.00  0.00    -0.000 C 
BRANCH  14  15
ATOM     15  C   UNL     1     113.793 103.323 111.534  1.00  0.00    -0.000 C 
BRANCH  15  16
ATOM     16  C   UNL     1     114.684 103.594 112.759  1.00  0.00    -0.000 C 
BRANCH  16  17
ATOM     17  C   UNL     1     116.061 104.169 112.382  1.00  0.00    -0.000 C 
BRANCH  17  18
ATOM     18  C   UNL     1     116.753 105.002 113.481  1.00  0.00    -0.000 C 
BRANCH  18  19
ATOM     19  C   UNL     1     118.290 104.989 113.439  1.00  0.00    -0.003 C 
ATOM     20  C   UNL     1     118.867 106.005 112.454  1.00  0.00     0.004 C 
ENDBRANCH  18  19
ENDBRANCH  17  18
ENDBRANCH  16  17
ENDBRANCH  15  16
ENDBRANCH  14  15
ENDBRANCH  13  14
ENDBRANCH  12  13
ENDBRANCH   1  12
TORSDOF 16
ENDMDL
MODEL 6
REMARK VINA RESULT:    -3.092      3.932      9.166
REMARK INTER + INTRA:          -7.028
REMARK INTER:                  -6.318
REMARK INTRA:                  -0.710
REMARK UNBOUND:                -1.045
REMARK SMILES CCCCCCCCCCCCCCCCCC(=O)[O-]
REMARK SMILES IDX 10 1 11 2 12 3 13 4 14 5 15 6 16 7 17 8 18 9 19 10 20 11
REMARK SMILES IDX 9 12 8 13 7 14 6 15 5 16 4 17 3 18 2 19 1 20
REMARK H PARENT
REMARK Flexibility Score: inf
ROOT
ATOM      1  C   UNL     1     114.640 103.122 111.300  1.00  0.00     0.000 C 
ENDROOT
BRANCH   1   2
ATOM      2  C   UNL     1     113.786 101.973 111.868  1.00  0.00     0.000 C 
BRANCH   2   3
ATOM      3  C   UNL     1     112.324 102.384 112.108  1.00  0.00     0.000 C 
BRANCH   3   4
ATOM      4  C   UNL     1     111.341 101.618 111.206  1.00  0.00     0.000 C 
BRANCH   4   5
ATOM      5  C   UNL     1     110.101 102.450 110.830  1.00  0.00     0.000 C 
BRANCH   5   6
ATOM      6  C   UNL     1     110.246 103.970 111.024  1.00  0.00     0.000 C 
BRANCH   6   7
ATOM      7  C   UNL     1     108.953 104.742 110.709  1.00  0.00     0.006 C 
BRANCH   7   8
ATOM      8  C   UNL     1     109.134 106.259 110.852  1.00  0.00     0.053 C 
BRANCH   8   9
ATOM      9  C   UNL     1     108.104 106.862 111.757  1.00  0.00     0.041 C 
ATOM     10  O   UNL     1     108.018 106.491 112.957  1.00  0.00    -0.550 OA
ATOM     11  O   UNL     1     107.258 107.857 111.283  1.00  0.00    -0.550 OA
ENDBRANCH   8   9
ENDBRANCH   7   8
ENDBRANCH   6   7
ENDBRANCH   5   6
ENDBRANCH   4   5
ENDBRANCH   3   4
ENDBRANCH   2   3
ENDBRANCH   1   2
BRANCH   1  12
ATOM     12  C   UNL     1     114.118 104.504 111.721  1.00  0.00     0.000 C 
BRANCH  12  13
ATOM     13  C   UNL     1     114.848 105.059 112.956  1.00  0.00    -0.000 C 
BRANCH  13  14
ATOM     14  C   UNL     1     116.120 104.264 113.306  1.00  0.00    -0.000 C 
BRANCH  14  15
ATOM     15  C   UNL     1     117.303 104.466 112.343  1.00  0.00    -0.000 C 
BRANCH  15  16
ATOM     16  C   UNL     1     118.047 105.793 112.575  1.00  0.00    -0.000 C 
BRANCH  16  17
ATOM     17  C   UNL     1     119.409 105.603 113.268  1.00  0.00    -0.000 C 
BRANCH  17  18
ATOM     18  C   UNL     1     119.397 104.681 114.505  1.00  0.00    -0.000 C 
BRANCH  18  19
ATOM     19  C   UNL     1     120.111 105.246 115.745  1.00  0.00    -0.003 C 
ATOM     20  C   UNL     1     119.533 104.718 117.057  1.00  0.00     0.004 C 
ENDBRANCH  18  19
ENDBRANCH  17  18
ENDBRANCH  16  17
ENDBRANCH  15  16
ENDBRANCH  14  15
ENDBRANCH  13  14
ENDBRANCH  12  13
ENDBRANCH   1  12
TORSDOF 16
ENDMDL
MODEL 7
REMARK VINA RESULT:    -2.976      1.544      3.018
REMARK INTER + INTRA:          -6.805
REMARK INTER:                  -5.898
REMARK INTRA:                  -0.908
REMARK UNBOUND:                -1.045
REMARK SMILES CCCCCCCCCCCCCCCCCC(=O)[O-]
REMARK SMILES IDX 10 1 11 2 12 3 13 4 14 5 15 6 16 7 17 8 18 9 19 10 20 11
REMARK SMILES IDX 9 12 8 13 7 14 6 15 5 16 4 17 3 18 2 19 1 20
REMARK H PARENT
REMARK Flexibility Score: inf
ROOT
ATOM      1  C   UNL     1     108.940 104.227 110.266  1.00  0.00     0.000 C 
ENDROOT
BRANCH   1   2
ATOM      2  C   UNL     1     110.252 104.214 111.073  1.00  0.00     0.000 C 
BRANCH   2   3
ATOM      3  C   UNL     1     110.947 102.842 111.055  1.00  0.00     0.000 C 
BRANCH   3   4
ATOM      4  C   UNL     1     111.521 102.455 112.429  1.00  0.00     0.000 C 
BRANCH   4   5
ATOM      5  C   UNL     1     112.993 102.873 112.603  1.00  0.00     0.000 C 
BRANCH   5   6
ATOM      6  C   UNL     1     113.861 102.760 111.337  1.00  0.00     0.000 C 
BRANCH   6   7
ATOM      7  C   UNL     1     114.958 103.835 111.262  1.00  0.00     0.006 C 
BRANCH   7   8
ATOM      8  C   UNL     1     115.377 104.334 112.651  1.00  0.00     0.053 C 
BRANCH   8   9
ATOM      9  C   UNL     1     116.859 104.524 112.754  1.00  0.00     0.041 C 
ATOM     10  O   UNL     1     117.577 104.480 111.721  1.00  0.00    -0.550 OA
ATOM     11  O   UNL     1     117.444 104.779 113.989  1.00  0.00    -0.550 OA
ENDBRANCH   8   9
ENDBRANCH   7   8
ENDBRANCH   6   7
ENDBRANCH   5   6
ENDBRANCH   4   5
ENDBRANCH   3   4
ENDBRANCH   2   3
ENDBRANCH   1   2
BRANCH   1  12
ATOM     12  C   UNL     1     108.085 105.469 110.558  1.00  0.00     0.000 C 
BRANCH  12  13
ATOM     13  C   UNL     1     108.853 106.540 111.352  1.00  0.00    -0.000 C 
BRANCH  13  14
ATOM     14  C   UNL     1     108.253 106.796 112.747  1.00  0.00    -0.000 C 
BRANCH  14  15
ATOM     15  C   UNL     1     106.863 106.178 112.984  1.00  0.00    -0.000 C 
BRANCH  15  16
ATOM     16  C   UNL     1     105.774 107.233 113.244  1.00  0.00    -0.000 C 
BRANCH  16  17
ATOM     17  C   UNL     1     104.929 106.926 114.494  1.00  0.00    -0.000 C 
BRANCH  17  18
ATOM     18  C   UNL     1     105.158 107.869 115.693  1.00  0.00    -0.000 C 
BRANCH  18  19
ATOM     19  C   UNL     1     104.709 107.313 117.055  1.00  0.00    -0.003 C 
ATOM     20  C   UNL     1     103.219 106.976 117.099  1.00  0.00     0.004 C 
ENDBRANCH  18  19
ENDBRANCH  17  18
ENDBRANCH  16  17
ENDBRANCH  15  16
ENDBRANCH  14  15
ENDBRANCH  13  14
ENDBRANCH  12  13
ENDBRANCH   1  12
TORSDOF 16
ENDMDL
MODEL 8
REMARK VINA RESULT:    -2.839      1.957      4.283
REMARK INTER + INTRA:          -6.539
REMARK INTER:                  -5.822
REMARK INTRA:                  -0.717
REMARK UNBOUND:                -1.045
REMARK SMILES CCCCCCCCCCCCCCCCCC(=O)[O-]
REMARK SMILES IDX 10 1 11 2 12 3 13 4 14 5 15 6 16 7 17 8 18 9 19 10 20 11
REMARK SMILES IDX 9 12 8 13 7 14 6 15 5 16 4 17 3 18 2 19 1 20
REMARK H PARENT
REMARK Flexibility Score: inf
ROOT
ATOM      1  C   UNL     1     108.517 106.189 110.630  1.00  0.00     0.000 C 
ENDROOT
BRANCH   1   2
ATOM      2  C   UNL     1     108.810 104.685 110.777  1.00  0.00     0.000 C 
BRANCH   2   3
ATOM      3  C   UNL     1     110.279 104.398 111.131  1.00  0.00     0.000 C 
BRANCH   3   4
ATOM      4  C   UNL     1     110.632 102.905 111.017  1.00  0.00     0.000 C 
BRANCH   4   5
ATOM      5  C   UNL     1     111.606 102.433 112.112  1.00  0.00     0.000 C 
BRANCH   5   6
ATOM      6  C   UNL     1     112.979 101.953 111.607  1.00  0.00     0.000 C 
BRANCH   6   7
ATOM      7  C   UNL     1     114.149 102.476 112.458  1.00  0.00     0.006 C 
BRANCH   7   8
ATOM      8  C   UNL     1     114.131 104.004 112.591  1.00  0.00     0.053 C 
BRANCH   8   9
ATOM      9  C   UNL     1     115.499 104.559 112.845  1.00  0.00     0.041 C 
ATOM     10  O   UNL     1     115.713 105.282 113.853  1.00  0.00    -0.550 OA
ATOM     11  O   UNL     1     116.546 104.252 111.984  1.00  0.00    -0.550 OA
ENDBRANCH   8   9
ENDBRANCH   7   8
ENDBRANCH   6   7
ENDBRANCH   5   6
ENDBRANCH   4   5
ENDBRANCH   3   4
ENDBRANCH   2   3
ENDBRANCH   1   2
BRANCH   1  12
ATOM     12  C   UNL     1     108.486 106.916 111.984  1.00  0.00     0.000 C 
BRANCH  12  13
ATOM     13  C   UNL     1     107.397 106.366 112.922  1.00  0.00    -0.000 C 
BRANCH  13  14
ATOM     14  C   UNL     1     106.152 107.270 112.989  1.00  0.00    -0.000 C 
BRANCH  14  15
ATOM     15  C   UNL     1     105.076 106.828 113.998  1.00  0.00    -0.000 C 
BRANCH  15  16
ATOM     16  C   UNL     1     104.125 105.760 113.432  1.00  0.00    -0.000 C 
BRANCH  16  17
ATOM     17  C   UNL     1     102.648 106.193 113.470  1.00  0.00    -0.000 C 
BRANCH  17  18
ATOM     18  C   UNL     1     102.066 106.674 112.124  1.00  0.00    -0.000 C 
BRANCH  18  19
ATOM     19  C   UNL     1     100.536 106.578 112.004  1.00  0.00    -0.003 C 
ATOM     20  C   UNL     1     100.069 106.231 110.591  1.00  0.00     0.004 C 
ENDBRANCH  18  19
ENDBRANCH  17  18
ENDBRANCH  16  17
ENDBRANCH  15  16
ENDBRANCH  14  15
ENDBRANCH  13  14
ENDBRANCH  12  13
ENDBRANCH   1  12
TORSDOF 16
ENDMDL
