MODEL 1
REMARK VINA RESULT:    -4.520      0.000      0.000
REMARK INTER + INTRA:          -6.172
REMARK INTER:                  -6.105
REMARK INTRA:                  -0.067
REMARK UNBOUND:                -0.067
REMARK SMILES [NH3+]CCCC[C@@H]([NH3+])C(=O)[O-]
REMARK SMILES IDX 4 1 3 2 2 3 1 4 5 8 6 9 7 10 8 14 9 15 10 16
REMARK H PARENT 1 5 1 6 1 7 7 11 7 12 7 13
REMARK Flexibility Score: inf
ROOT
ATOM      1  C   UNL     1      13.602 -49.102  72.733  1.00  0.00     0.012 C 
ENDROOT
BRANCH   1   2
ATOM      2  C   UNL     1      12.195 -48.682  72.273  1.00  0.00     0.061 C 
BRANCH   2   3
ATOM      3  C   UNL     1      11.811 -47.229  72.609  1.00  0.00     0.258 C 
BRANCH   3   4
ATOM      4  N   UNL     1      10.769 -47.151  73.635  1.00  0.00    -0.358 N 
ATOM      5  H   UNL     1      10.539 -46.153  73.842  1.00  0.00     0.344 HD
ATOM      6  H   UNL     1      11.123 -47.594  74.514  1.00  0.00     0.344 HD
ATOM      7  H   UNL     1       9.911 -47.661  73.324  1.00  0.00     0.344 HD
ENDBRANCH   3   4
ENDBRANCH   2   3
ENDBRANCH   1   2
BRANCH   1   8
ATOM      8  C   UNL     1      14.712 -48.615  71.785  1.00  0.00     0.072 C 
BRANCH   8   9
ATOM      9  C   UNL     1      16.092 -48.570  72.477  1.00  0.00     0.227 C 
BRANCH   9  10
ATOM     10  N   UNL     1      16.712 -49.900  72.471  1.00  0.00    -0.350 N 
ATOM     11  H   UNL     1      17.228 -50.064  71.576  1.00  0.00     0.345 HD
ATOM     12  H   UNL     1      17.379 -49.985  73.274  1.00  0.00     0.345 HD
ATOM     13  H   UNL     1      15.976 -50.636  72.581  1.00  0.00     0.345 HD
ENDBRANCH   9  10
BRANCH   9  14
ATOM     14  C   UNL     1      17.004 -47.571  71.812  1.00  0.00     0.099 C 
ATOM     15  O   UNL     1      17.800 -47.937  70.906  1.00  0.00    -0.544 OA
ATOM     16  O   UNL     1      16.965 -46.236  72.192  1.00  0.00    -0.544 OA
ENDBRANCH   9  14
ENDBRANCH   8   9
ENDBRANCH   1   8
TORSDOF 7
ENDMDL
MODEL 2
REMARK VINA RESULT:    -4.422      2.303      4.474
REMARK INTER + INTRA:          -6.039
REMARK INTER:                  -5.899
REMARK INTRA:                  -0.141
REMARK UNBOUND:                -0.067
REMARK SMILES [NH3+]CCCC[C@@H]([NH3+])C(=O)[O-]
REMARK SMILES IDX 4 1 3 2 2 3 1 4 5 8 6 9 7 10 8 14 9 15 10 16
REMARK H PARENT 1 5 1 6 1 7 7 11 7 12 7 13
REMARK Flexibility Score: inf
ROOT
ATOM      1  C   UNL     1      13.435 -49.509  73.290  1.00  0.00     0.012 C 
ENDROOT
BRANCH   1   2
ATOM      2  C   UNL     1      14.891 -49.773  73.716  1.00  0.00     0.061 C 
BRANCH   2   3
ATOM      3  C   UNL     1      15.954 -49.324  72.696  1.00  0.00     0.258 C 
BRANCH   3   4
ATOM      4  N   UNL     1      17.153 -48.787  73.341  1.00  0.00    -0.358 N 
ATOM      5  H   UNL     1      16.902 -48.318  74.241  1.00  0.00     0.344 HD
ATOM      6  H   UNL     1      17.587 -48.073  72.711  1.00  0.00     0.344 HD
ATOM      7  H   UNL     1      17.849 -49.548  73.514  1.00  0.00     0.344 HD
ENDBRANCH   3   4
ENDBRANCH   2   3
ENDBRANCH   1   2
BRANCH   1   8
ATOM      8  C   UNL     1      13.331 -48.723  71.972  1.00  0.00     0.072 C 
BRANCH   8   9
ATOM      9  C   UNL     1      12.106 -47.782  71.951  1.00  0.00     0.227 C 
BRANCH   9  10
ATOM     10  N   UNL     1      11.414 -47.811  73.245  1.00  0.00    -0.350 N 
ATOM     11  H   UNL     1      11.587 -46.927  73.778  1.00  0.00     0.345 HD
ATOM     12  H   UNL     1      10.384 -47.927  73.095  1.00  0.00     0.345 HD
ATOM     13  H   UNL     1      11.754 -48.623  73.811  1.00  0.00     0.345 HD
ENDBRANCH   9  10
BRANCH   9  14
ATOM     14  C   UNL     1      12.508 -46.369  71.612  1.00  0.00     0.099 C 
ATOM     15  O   UNL     1      13.695 -46.104  71.282  1.00  0.00    -0.544 OA
ATOM     16  O   UNL     1      11.565 -45.351  71.655  1.00  0.00    -0.544 OA
ENDBRANCH   9  14
ENDBRANCH   8   9
ENDBRANCH   1   8
TORSDOF 7
ENDMDL
MODEL 3
REMARK VINA RESULT:    -4.269      2.795      4.837
REMARK INTER + INTRA:          -5.833
REMARK INTER:                  -5.712
REMARK INTRA:                  -0.121
REMARK UNBOUND:                -0.067
REMARK SMILES [NH3+]CCCC[C@@H]([NH3+])C(=O)[O-]
REMARK SMILES IDX 4 1 3 2 2 3 1 4 5 8 6 9 7 10 8 14 9 15 10 16
REMARK H PARENT 1 5 1 6 1 7 7 11 7 12 7 13
REMARK Flexibility Score: inf
ROOT
ATOM      1  C   UNL     1      14.817 -49.184  72.992  1.00  0.00     0.012 C 
ENDROOT
BRANCH   1   2
ATOM      2  C   UNL     1      16.307 -49.448  72.709  1.00  0.00     0.061 C 
BRANCH   2   3
ATOM      3  C   UNL     1      16.989 -48.402  71.808  1.00  0.00     0.258 C 
BRANCH   3   4
ATOM      4  N   UNL     1      17.991 -47.614  72.527  1.00  0.00    -0.358 N 
ATOM      5  H   UNL     1      18.943 -47.792  72.134  1.00  0.00     0.344 HD
ATOM      6  H   UNL     1      17.993 -47.903  73.532  1.00  0.00     0.344 HD
ATOM      7  H   UNL     1      17.764 -46.595  72.471  1.00  0.00     0.344 HD
ENDBRANCH   3   4
ENDBRANCH   2   3
ENDBRANCH   1   2
BRANCH   1   8
ATOM      8  C   UNL     1      14.085 -48.547  71.798  1.00  0.00     0.072 C 
BRANCH   8   9
ATOM      9  C   UNL     1      12.551 -48.669  71.923  1.00  0.00     0.227 C 
BRANCH   9  10
ATOM     10  N   UNL     1      12.196 -49.597  73.004  1.00  0.00    -0.350 N 
ATOM     11  H   UNL     1      11.514 -50.315  72.666  1.00  0.00     0.345 HD
ATOM     12  H   UNL     1      13.057 -50.078  73.357  1.00  0.00     0.345 HD
ATOM     13  H   UNL     1      11.769 -49.069  73.800  1.00  0.00     0.345 HD
ENDBRANCH   9  10
BRANCH   9  14
ATOM     14  C   UNL     1      11.914 -47.325  72.167  1.00  0.00     0.099 C 
ATOM     15  O   UNL     1      10.744 -47.246  72.629  1.00  0.00    -0.544 OA
ATOM     16  O   UNL     1      12.621 -46.162  71.889  1.00  0.00    -0.544 OA
ENDBRANCH   9  14
ENDBRANCH   8   9
ENDBRANCH   1   8
TORSDOF 7
ENDMDL
MODEL 4
REMARK VINA RESULT:    -4.235      7.495      8.934
REMARK INTER + INTRA:          -5.787
REMARK INTER:                  -5.646
REMARK INTRA:                  -0.142
REMARK UNBOUND:                -0.067
REMARK SMILES [NH3+]CCCC[C@@H]([NH3+])C(=O)[O-]
REMARK SMILES IDX 4 1 3 2 2 3 1 4 5 8 6 9 7 10 8 14 9 15 10 16
REMARK H PARENT 1 5 1 6 1 7 7 11 7 12 7 13
REMARK Flexibility Score: inf
ROOT
ATOM      1  C   UNL     1      21.054 -44.789  69.540  1.00  0.00     0.012 C 
ENDROOT
BRANCH   1   2
ATOM      2  C   UNL     1      22.133 -45.321  70.501  1.00  0.00     0.061 C 
BRANCH   2   3
ATOM      3  C   UNL     1      23.491 -44.600  70.409  1.00  0.00     0.258 C 
BRANCH   3   4
ATOM      4  N   UNL     1      24.247 -44.673  71.661  1.00  0.00    -0.358 N 
ATOM      5  H   UNL     1      23.606 -44.557  72.479  1.00  0.00     0.344 HD
ATOM      6  H   UNL     1      24.947 -43.897  71.681  1.00  0.00     0.344 HD
ATOM      7  H   UNL     1      24.754 -45.585  71.729  1.00  0.00     0.344 HD
ENDBRANCH   3   4
ENDBRANCH   2   3
ENDBRANCH   1   2
BRANCH   1   8
ATOM      8  C   UNL     1      20.126 -45.897  69.011  1.00  0.00     0.072 C 
BRANCH   8   9
ATOM      9  C   UNL     1      20.867 -46.880  68.077  1.00  0.00     0.227 C 
BRANCH   9  10
ATOM     10  N   UNL     1      20.335 -48.239  68.236  1.00  0.00    -0.350 N 
ATOM     11  H   UNL     1      20.437 -48.563  69.226  1.00  0.00     0.345 HD
ATOM     12  H   UNL     1      19.322 -48.258  67.970  1.00  0.00     0.345 HD
ATOM     13  H   UNL     1      20.849 -48.897  67.606  1.00  0.00     0.345 HD
ENDBRANCH   9  10
BRANCH   9  14
ATOM     14  C   UNL     1      20.761 -46.449  66.637  1.00  0.00     0.099 C 
ATOM     15  O   UNL     1      19.790 -45.745  66.250  1.00  0.00    -0.544 OA
ATOM     16  O   UNL     1      21.741 -46.824  65.727  1.00  0.00    -0.544 OA
ENDBRANCH   9  14
ENDBRANCH   8   9
ENDBRANCH   1   8
TORSDOF 7
ENDMDL
MODEL 5
REMARK VINA RESULT:    -4.223      2.568      4.446
REMARK INTER + INTRA:          -5.771
REMARK INTER:                  -5.338
REMARK INTRA:                  -0.433
REMARK UNBOUND:                -0.067
REMARK SMILES [NH3+]CCCC[C@@H]([NH3+])C(=O)[O-]
REMARK SMILES IDX 4 1 3 2 2 3 1 4 5 8 6 9 7 10 8 14 9 15 10 16
REMARK H PARENT 1 5 1 6 1 7 7 11 7 12 7 13
REMARK Flexibility Score: inf
ROOT
ATOM      1  C   UNL     1      14.700 -47.173  71.118  1.00  0.00     0.012 C 
ENDROOT
BRANCH   1   2
ATOM      2  C   UNL     1      16.202 -47.349  70.833  1.00  0.00     0.061 C 
BRANCH   2   3
ATOM      3  C   UNL     1      17.137 -46.668  71.851  1.00  0.00     0.258 C 
BRANCH   3   4
ATOM      4  N   UNL     1      17.886 -47.637  72.654  1.00  0.00    -0.358 N 
ATOM      5  H   UNL     1      17.978 -48.541  72.138  1.00  0.00     0.344 HD
ATOM      6  H   UNL     1      17.365 -47.818  73.542  1.00  0.00     0.344 HD
ATOM      7  H   UNL     1      18.833 -47.260  72.891  1.00  0.00     0.344 HD
ENDBRANCH   3   4
ENDBRANCH   2   3
ENDBRANCH   1   2
BRANCH   1   8
ATOM      8  C   UNL     1      13.965 -48.512  71.303  1.00  0.00     0.072 C 
BRANCH   8   9
ATOM      9  C   UNL     1      13.444 -48.696  72.746  1.00  0.00     0.227 C 
BRANCH   9  10
ATOM     10  N   UNL     1      12.079 -49.236  72.733  1.00  0.00    -0.350 N 
ATOM     11  H   UNL     1      11.652 -49.186  73.687  1.00  0.00     0.345 HD
ATOM     12  H   UNL     1      11.487 -48.693  72.061  1.00  0.00     0.345 HD
ATOM     13  H   UNL     1      12.096 -50.234  72.418  1.00  0.00     0.345 HD
ENDBRANCH   9  10
BRANCH   9  14
ATOM     14  C   UNL     1      14.350 -49.598  73.543  1.00  0.00     0.099 C 
ATOM     15  O   UNL     1      13.943 -50.723  73.939  1.00  0.00    -0.544 OA
ATOM     16  O   UNL     1      15.645 -49.194  73.840  1.00  0.00    -0.544 OA
ENDBRANCH   9  14
ENDBRANCH   8   9
ENDBRANCH   1   8
TORSDOF 7
ENDMDL
MODEL 6
REMARK VINA RESULT:    -4.191      3.219      4.622
REMARK INTER + INTRA:          -5.728
REMARK INTER:                  -5.300
REMARK INTRA:                  -0.427
REMARK UNBOUND:                -0.067
REMARK SMILES [NH3+]CCCC[C@@H]([NH3+])C(=O)[O-]
REMARK SMILES IDX 4 1 3 2 2 3 1 4 5 8 6 9 7 10 8 14 9 15 10 16
REMARK H PARENT 1 5 1 6 1 7 7 11 7 12 7 13
REMARK Flexibility Score: inf
ROOT
ATOM      1  C   UNL     1      15.735 -48.261  71.969  1.00  0.00     0.012 C 
ENDROOT
BRANCH   1   2
ATOM      2  C   UNL     1      16.039 -49.545  72.762  1.00  0.00     0.061 C 
BRANCH   2   3
ATOM      3  C   UNL     1      15.239 -49.703  74.068  1.00  0.00     0.258 C 
BRANCH   3   4
ATOM      4  N   UNL     1      14.507 -50.969  74.125  1.00  0.00    -0.358 N 
ATOM      5  H   UNL     1      14.341 -51.248  75.118  1.00  0.00     0.344 HD
ATOM      6  H   UNL     1      15.082 -51.715  73.668  1.00  0.00     0.344 HD
ATOM      7  H   UNL     1      13.597 -50.889  73.617  1.00  0.00     0.344 HD
ENDBRANCH   3   4
ENDBRANCH   2   3
ENDBRANCH   1   2
BRANCH   1   8
ATOM      8  C   UNL     1      14.481 -48.386  71.087  1.00  0.00     0.072 C 
BRANCH   8   9
ATOM      9  C   UNL     1      13.367 -47.406  71.517  1.00  0.00     0.227 C 
BRANCH   9  10
ATOM     10  N   UNL     1      12.953 -46.570  70.383  1.00  0.00    -0.350 N 
ATOM     11  H   UNL     1      11.949 -46.742  70.144  1.00  0.00     0.345 HD
ATOM     12  H   UNL     1      13.083 -45.559  70.620  1.00  0.00     0.345 HD
ATOM     13  H   UNL     1      13.544 -46.787  69.548  1.00  0.00     0.345 HD
ENDBRANCH   9  10
BRANCH   9  14
ATOM     14  C   UNL     1      12.178 -48.143  72.077  1.00  0.00     0.099 C 
ATOM     15  O   UNL     1      11.082 -47.547  72.255  1.00  0.00    -0.544 OA
ATOM     16  O   UNL     1      12.284 -49.491  72.395  1.00  0.00    -0.544 OA
ENDBRANCH   9  14
ENDBRANCH   8   9
ENDBRANCH   1   8
TORSDOF 7
ENDMDL
MODEL 7
REMARK VINA RESULT:    -4.179      1.596      1.652
REMARK INTER + INTRA:          -5.711
REMARK INTER:                  -5.584
REMARK INTRA:                  -0.128
REMARK UNBOUND:                -0.067
REMARK SMILES [NH3+]CCCC[C@@H]([NH3+])C(=O)[O-]
REMARK SMILES IDX 4 1 3 2 2 3 1 4 5 8 6 9 7 10 8 14 9 15 10 16
REMARK H PARENT 1 5 1 6 1 7 7 11 7 12 7 13
REMARK Flexibility Score: inf
ROOT
ATOM      1  C   UNL     1      13.211 -48.726  72.514  1.00  0.00     0.012 C 
ENDROOT
BRANCH   1   2
ATOM      2  C   UNL     1      11.817 -48.121  72.271  1.00  0.00     0.061 C 
BRANCH   2   3
ATOM      3  C   UNL     1      11.414 -47.010  73.259  1.00  0.00     0.258 C 
BRANCH   3   4
ATOM      4  N   UNL     1      11.545 -45.673  72.678  1.00  0.00    -0.358 N 
ATOM      5  H   UNL     1      10.733 -45.467  72.053  1.00  0.00     0.344 HD
ATOM      6  H   UNL     1      12.418 -45.636  72.102  1.00  0.00     0.344 HD
ATOM      7  H   UNL     1      11.610 -44.951  73.431  1.00  0.00     0.344 HD
ENDBRANCH   3   4
ENDBRANCH   2   3
ENDBRANCH   1   2
BRANCH   1   8
ATOM      8  C   UNL     1      14.299 -48.098  71.625  1.00  0.00     0.072 C 
BRANCH   8   9
ATOM      9  C   UNL     1      15.577 -48.964  71.569  1.00  0.00     0.227 C 
BRANCH   9  10
ATOM     10  N   UNL     1      16.181 -48.901  70.232  1.00  0.00    -0.350 N 
ATOM     11  H   UNL     1      16.931 -48.173  70.198  1.00  0.00     0.345 HD
ATOM     12  H   UNL     1      16.592 -49.832  69.984  1.00  0.00     0.345 HD
ATOM     13  H   UNL     1      15.448 -48.670  69.522  1.00  0.00     0.345 HD
ENDBRANCH   9  10
BRANCH   9  14
ATOM     14  C   UNL     1      16.577 -48.529  72.608  1.00  0.00     0.099 C 
ATOM     15  O   UNL     1      16.646 -49.123  73.717  1.00  0.00    -0.544 OA
ATOM     16  O   UNL     1      17.437 -47.471  72.344  1.00  0.00    -0.544 OA
ENDBRANCH   9  14
ENDBRANCH   8   9
ENDBRANCH   1   8
TORSDOF 7
ENDMDL
MODEL 8
REMARK VINA RESULT:    -4.109      2.189      2.493
REMARK INTER + INTRA:          -5.617
REMARK INTER:                  -5.166
REMARK INTRA:                  -0.451
REMARK UNBOUND:                -0.067
REMARK SMILES [NH3+]CCCC[C@@H]([NH3+])C(=O)[O-]
REMARK SMILES IDX 4 1 3 2 2 3 1 4 5 8 6 9 7 10 8 14 9 15 10 16
REMARK H PARENT 1 5 1 6 1 7 7 11 7 12 7 13
REMARK Flexibility Score: inf
ROOT
ATOM      1  C   UNL     1      14.392 -47.079  70.527  1.00  0.00     0.012 C 
ENDROOT
BRANCH   1   2
ATOM      2  C   UNL     1      13.127 -46.939  71.394  1.00  0.00     0.061 C 
BRANCH   2   3
ATOM      3  C   UNL     1      12.199 -48.167  71.386  1.00  0.00     0.258 C 
BRANCH   3   4
ATOM      4  N   UNL     1      11.745 -48.532  72.729  1.00  0.00    -0.358 N 
ATOM      5  H   UNL     1      11.066 -49.324  72.680  1.00  0.00     0.344 HD
ATOM      6  H   UNL     1      11.259 -47.711  73.158  1.00  0.00     0.344 HD
ATOM      7  H   UNL     1      12.558 -48.793  73.333  1.00  0.00     0.344 HD
ENDBRANCH   3   4
ENDBRANCH   2   3
ENDBRANCH   1   2
BRANCH   1   8
ATOM      8  C   UNL     1      15.672 -47.261  71.361  1.00  0.00     0.072 C 
BRANCH   8   9
ATOM      9  C   UNL     1      16.012 -48.751  71.586  1.00  0.00     0.227 C 
BRANCH   9  10
ATOM     10  N   UNL     1      17.391 -49.031  71.168  1.00  0.00    -0.350 N 
ATOM     11  H   UNL     1      17.711 -49.954  71.542  1.00  0.00     0.345 HD
ATOM     12  H   UNL     1      17.450 -49.044  70.122  1.00  0.00     0.345 HD
ATOM     13  H   UNL     1      18.028 -48.280  71.520  1.00  0.00     0.345 HD
ENDBRANCH   9  10
BRANCH   9  14
ATOM     14  C   UNL     1      15.821 -49.143  73.029  1.00  0.00     0.099 C 
ATOM     15  O   UNL     1      16.770 -49.038  73.851  1.00  0.00    -0.544 OA
ATOM     16  O   UNL     1      14.589 -49.616  73.461  1.00  0.00    -0.544 OA
ENDBRANCH   9  14
ENDBRANCH   8   9
ENDBRANCH   1   8
TORSDOF 7
ENDMDL
MODEL 9
REMARK VINA RESULT:    -4.074      5.443      7.080
REMARK INTER + INTRA:          -5.570
REMARK INTER:                  -5.019
REMARK INTRA:                  -0.550
REMARK UNBOUND:                -0.067
REMARK SMILES [NH3+]CCCC[C@@H]([NH3+])C(=O)[O-]
REMARK SMILES IDX 4 1 3 2 2 3 1 4 5 8 6 9 7 10 8 14 9 15 10 16
REMARK H PARENT 1 5 1 6 1 7 7 11 7 12 7 13
REMARK Flexibility Score: inf
ROOT
ATOM      1  C   UNL     1      20.107 -46.864  70.379  1.00  0.00     0.012 C 
ENDROOT
BRANCH   1   2
ATOM      2  C   UNL     1      18.579 -46.939  70.206  1.00  0.00     0.061 C 
BRANCH   2   3
ATOM      3  C   UNL     1      18.004 -48.367  70.162  1.00  0.00     0.258 C 
BRANCH   3   4
ATOM      4  N   UNL     1      19.030 -49.373  69.882  1.00  0.00    -0.358 N 
ATOM      5  H   UNL     1      19.347 -49.824  70.769  1.00  0.00     0.344 HD
ATOM      6  H   UNL     1      19.854 -48.905  69.439  1.00  0.00     0.344 HD
ATOM      7  H   UNL     1      18.662 -50.097  69.223  1.00  0.00     0.344 HD
ENDBRANCH   3   4
ENDBRANCH   2   3
ENDBRANCH   1   2
BRANCH   1   8
ATOM      8  C   UNL     1      20.798 -46.068  69.258  1.00  0.00     0.072 C 
BRANCH   8   9
ATOM      9  C   UNL     1      19.954 -46.030  67.965  1.00  0.00     0.227 C 
BRANCH   9  10
ATOM     10  N   UNL     1      20.007 -44.696  67.356  1.00  0.00    -0.350 N 
ATOM     11  H   UNL     1      20.996 -44.369  67.265  1.00  0.00     0.345 HD
ATOM     12  H   UNL     1      19.564 -44.720  66.407  1.00  0.00     0.345 HD
ATOM     13  H   UNL     1      19.475 -44.015  67.945  1.00  0.00     0.345 HD
ENDBRANCH   9  10
BRANCH   9  14
ATOM     14  C   UNL     1      20.421 -47.068  66.977  1.00  0.00     0.099 C 
ATOM     15  O   UNL     1      21.084 -46.730  65.961  1.00  0.00    -0.544 OA
ATOM     16  O   UNL     1      20.127 -48.409  67.189  1.00  0.00    -0.544 OA
ENDBRANCH   9  14
ENDBRANCH   8   9
ENDBRANCH   1   8
TORSDOF 7
ENDMDL
