MODEL 1
REMARK VINA RESULT:    -5.929      0.000      0.000
REMARK INTER + INTRA:          -7.265
REMARK INTER:                  -7.316
REMARK INTRA:                   0.051
REMARK UNBOUND:                 0.051
REMARK SMILES O=C1c2c(O)cc(O)cc2O[C@H](c2cc(O)c(O)c(O)c2)[C@@H]1O
REMARK SMILES IDX 12 1 22 2 2 3 1 4 3 5 4 6 6 7 7 8 9 9 10 10 11 11 13 12
REMARK SMILES IDX 14 13 15 14 21 15 17 16 19 17 16 18 18 20 20 22 23 24 5 26
REMARK SMILES IDX 8 28
REMARK H PARENT 16 19 18 21 20 23 23 25 5 27 8 29
REMARK Flexibility Score: inf
ROOT
ATOM      1  C   UNL     1     -12.624   7.637   6.610  1.00  0.00     0.240 C 
ATOM      2  C   UNL     1     -13.570   7.975   7.779  1.00  0.00     0.231 C 
ATOM      3  C   UNL     1     -13.932   9.437   7.719  1.00  0.00     0.202 C 
ATOM      4  O   UNL     1     -14.104  10.076   8.790  1.00  0.00    -0.291 OA
ATOM      5  C   UNL     1     -14.137  10.081   6.398  1.00  0.00     0.105 A 
ATOM      6  C   UNL     1     -14.712  11.363   6.255  1.00  0.00     0.133 A 
ATOM      7  C   UNL     1     -14.922  11.890   4.972  1.00  0.00     0.093 A 
ATOM      8  C   UNL     1     -14.576  11.155   3.836  1.00  0.00     0.123 A 
ATOM      9  C   UNL     1     -14.002   9.885   3.976  1.00  0.00     0.093 A 
ATOM     10  C   UNL     1     -13.770   9.356   5.248  1.00  0.00     0.138 A 
ATOM     11  O   UNL     1     -13.171   8.096   5.370  1.00  0.00    -0.481 OA
ENDROOT
BRANCH   1  12
ATOM     12  C   UNL     1     -12.327   6.156   6.546  1.00  0.00     0.003 A 
ATOM     13  C   UNL     1     -11.779   5.604   5.377  1.00  0.00     0.058 A 
ATOM     14  C   UNL     1     -11.464   4.242   5.312  1.00  0.00     0.161 A 
ATOM     15  C   UNL     1     -12.531   5.330   7.663  1.00  0.00     0.058 A 
ATOM     16  C   UNL     1     -11.687   3.415   6.426  1.00  0.00     0.200 A 
ATOM     17  C   UNL     1     -12.218   3.964   7.605  1.00  0.00     0.161 A 
BRANCH  14  18
ATOM     18  O   UNL     1     -10.930   3.730   4.129  1.00  0.00    -0.504 OA
ATOM     19  H   UNL     1     -10.041   3.245   4.106  1.00  0.00     0.293 HD
ENDBRANCH  14  18
BRANCH  16  20
ATOM     20  O   UNL     1     -11.372   2.058   6.351  1.00  0.00    -0.502 OA
ATOM     21  H   UNL     1     -10.454   1.731   6.074  1.00  0.00     0.293 HD
ENDBRANCH  16  20
BRANCH  17  22
ATOM     22  O   UNL     1     -12.434   3.152   8.719  1.00  0.00    -0.504 OA
ATOM     23  H   UNL     1     -11.953   3.313   9.595  1.00  0.00     0.293 HD
ENDBRANCH  17  22
ENDBRANCH   1  12
BRANCH   2  24
ATOM     24  O   UNL     1     -14.742   7.207   7.691  1.00  0.00    -0.381 OA
ATOM     25  H   UNL     1     -14.674   6.674   6.854  1.00  0.00     0.211 HD
ENDBRANCH   2  24
BRANCH   6  26
ATOM     26  O   UNL     1     -15.084  12.105   7.376  1.00  0.00    -0.507 OA
ATOM     27  H   UNL     1     -15.697  12.909   7.302  1.00  0.00     0.293 HD
ENDBRANCH   6  26
BRANCH   8  28
ATOM     28  O   UNL     1     -14.802  11.695   2.572  1.00  0.00    -0.508 OA
ATOM     29  H   UNL     1     -14.703  12.688   2.395  1.00  0.00     0.293 HD
ENDBRANCH   8  28
TORSDOF 7
ENDMDL
MODEL 2
REMARK VINA RESULT:    -5.649      2.277      2.519
REMARK INTER + INTRA:          -6.919
REMARK INTER:                  -6.762
REMARK INTRA:                  -0.157
REMARK UNBOUND:                 0.051
REMARK SMILES O=C1c2c(O)cc(O)cc2O[C@H](c2cc(O)c(O)c(O)c2)[C@@H]1O
REMARK SMILES IDX 12 1 22 2 2 3 1 4 3 5 4 6 6 7 7 8 9 9 10 10 11 11 13 12
REMARK SMILES IDX 14 13 15 14 21 15 17 16 19 17 16 18 18 20 20 22 23 24 5 26
REMARK SMILES IDX 8 28
REMARK H PARENT 16 19 18 21 20 23 23 25 5 27 8 29
REMARK Flexibility Score: inf
ROOT
ATOM      1  C   UNL     1     -11.968   7.265   6.747  1.00  0.00     0.240 C 
ATOM      2  C   UNL     1     -13.369   7.724   6.299  1.00  0.00     0.231 C 
ATOM      3  C   UNL     1     -13.442   9.228   6.358  1.00  0.00     0.202 C 
ATOM      4  O   UNL     1     -14.527   9.782   6.678  1.00  0.00    -0.291 OA
ATOM      5  C   UNL     1     -12.252  10.029   5.980  1.00  0.00     0.105 A 
ATOM      6  C   UNL     1     -12.305  11.424   5.770  1.00  0.00     0.133 A 
ATOM      7  C   UNL     1     -11.151  12.110   5.366  1.00  0.00     0.093 A 
ATOM      8  C   UNL     1      -9.951  11.424   5.162  1.00  0.00     0.123 A 
ATOM      9  C   UNL     1      -9.895  10.041   5.373  1.00  0.00     0.093 A 
ATOM     10  C   UNL     1     -11.033   9.348   5.794  1.00  0.00     0.138 A 
ATOM     11  O   UNL     1     -10.953   7.970   6.026  1.00  0.00    -0.481 OA
ENDROOT
BRANCH   1  12
ATOM     12  C   UNL     1     -11.794   5.772   6.589  1.00  0.00     0.003 A 
ATOM     13  C   UNL     1     -11.321   5.247   5.376  1.00  0.00     0.058 A 
ATOM     14  C   UNL     1     -11.121   3.871   5.224  1.00  0.00     0.161 A 
ATOM     15  C   UNL     1     -12.039   4.899   7.663  1.00  0.00     0.058 A 
ATOM     16  C   UNL     1     -11.384   3.000   6.295  1.00  0.00     0.200 A 
ATOM     17  C   UNL     1     -11.840   3.519   7.518  1.00  0.00     0.161 A 
BRANCH  14  18
ATOM     18  O   UNL     1     -10.659   3.388   3.999  1.00  0.00    -0.504 OA
ATOM     19  H   UNL     1     -11.124   2.634   3.507  1.00  0.00     0.293 HD
ENDBRANCH  14  18
BRANCH  16  20
ATOM     20  O   UNL     1     -11.183   1.628   6.133  1.00  0.00    -0.502 OA
ATOM     21  H   UNL     1     -11.835   1.045   5.621  1.00  0.00     0.293 HD
ENDBRANCH  16  20
BRANCH  17  22
ATOM     22  O   UNL     1     -12.095   2.661   8.589  1.00  0.00    -0.504 OA
ATOM     23  H   UNL     1     -12.530   1.757   8.453  1.00  0.00     0.293 HD
ENDBRANCH  17  22
ENDBRANCH   1  12
BRANCH   2  24
ATOM     24  O   UNL     1     -13.619   7.302   4.983  1.00  0.00    -0.381 OA
ATOM     25  H   UNL     1     -14.378   7.847   4.646  1.00  0.00     0.211 HD
ENDBRANCH   2  24
BRANCH   6  26
ATOM     26  O   UNL     1     -13.498  12.125   5.949  1.00  0.00    -0.507 OA
ATOM     27  H   UNL     1     -14.368  11.808   5.537  1.00  0.00     0.293 HD
ENDBRANCH   6  26
BRANCH   8  28
ATOM     28  O   UNL     1      -8.819  12.125   4.751  1.00  0.00    -0.508 OA
ATOM     29  H   UNL     1      -7.942  11.652   4.565  1.00  0.00     0.293 HD
ENDBRANCH   8  28
TORSDOF 7
ENDMDL
MODEL 3
REMARK VINA RESULT:    -5.024      4.764      7.307
REMARK INTER + INTRA:          -6.148
REMARK INTER:                  -6.254
REMARK INTRA:                   0.106
REMARK UNBOUND:                 0.051
REMARK SMILES O=C1c2c(O)cc(O)cc2O[C@H](c2cc(O)c(O)c(O)c2)[C@@H]1O
REMARK SMILES IDX 12 1 22 2 2 3 1 4 3 5 4 6 6 7 7 8 9 9 10 10 11 11 13 12
REMARK SMILES IDX 14 13 15 14 21 15 17 16 19 17 16 18 18 20 20 22 23 24 5 26
REMARK SMILES IDX 8 28
REMARK H PARENT 16 19 18 21 20 23 23 25 5 27 8 29
REMARK Flexibility Score: inf
ROOT
ATOM      1  C   UNL     1      -9.320   8.524   5.789  1.00  0.00     0.240 C 
ATOM      2  C   UNL     1     -10.673   9.257   5.881  1.00  0.00     0.231 C 
ATOM      3  C   UNL     1     -11.789   8.269   5.669  1.00  0.00     0.202 C 
ATOM      4  O   UNL     1     -12.836   8.637   5.073  1.00  0.00    -0.291 OA
ATOM      5  C   UNL     1     -11.659   6.896   6.217  1.00  0.00     0.105 A 
ATOM      6  C   UNL     1     -12.743   5.993   6.280  1.00  0.00     0.133 A 
ATOM      7  C   UNL     1     -12.560   4.727   6.857  1.00  0.00     0.093 A 
ATOM      8  C   UNL     1     -11.317   4.357   7.377  1.00  0.00     0.123 A 
ATOM      9  C   UNL     1     -10.241   5.250   7.312  1.00  0.00     0.093 A 
ATOM     10  C   UNL     1     -10.404   6.506   6.723  1.00  0.00     0.138 A 
ATOM     11  O   UNL     1      -9.310   7.376   6.643  1.00  0.00    -0.481 OA
ENDROOT
BRANCH   1  12
ATOM     12  C   UNL     1      -8.165   9.443   6.119  1.00  0.00     0.003 A 
ATOM     13  C   UNL     1      -7.961   9.860   7.444  1.00  0.00     0.058 A 
ATOM     14  C   UNL     1      -6.877  10.682   7.773  1.00  0.00     0.161 A 
ATOM     15  C   UNL     1      -7.251   9.837   5.129  1.00  0.00     0.058 A 
ATOM     16  C   UNL     1      -5.974  11.088   6.776  1.00  0.00     0.200 A 
ATOM     17  C   UNL     1      -6.162  10.660   5.451  1.00  0.00     0.161 A 
BRANCH  14  18
ATOM     18  O   UNL     1      -6.714  11.083   9.100  1.00  0.00    -0.504 OA
ATOM     19  H   UNL     1      -6.219  10.515   9.777  1.00  0.00     0.293 HD
ENDBRANCH  14  18
BRANCH  16  20
ATOM     20  O   UNL     1      -4.898  11.910   7.113  1.00  0.00    -0.502 OA
ATOM     21  H   UNL     1      -4.059  11.547   7.550  1.00  0.00     0.293 HD
ENDBRANCH  16  20
BRANCH  17  22
ATOM     22  O   UNL     1      -5.266  11.052   4.456  1.00  0.00    -0.504 OA
ATOM     23  H   UNL     1      -4.362  10.609   4.351  1.00  0.00     0.293 HD
ENDBRANCH  17  22
ENDBRANCH   1  12
BRANCH   2  24
ATOM     24  O   UNL     1     -10.817   9.850   7.147  1.00  0.00    -0.381 OA
ATOM     25  H   UNL     1      -9.963  10.320   7.342  1.00  0.00     0.211 HD
ENDBRANCH   2  24
BRANCH   6  26
ATOM     26  O   UNL     1     -13.997   6.351   5.785  1.00  0.00    -0.507 OA
ATOM     27  H   UNL     1     -14.443   5.828   5.039  1.00  0.00     0.293 HD
ENDBRANCH   6  26
BRANCH   8  28
ATOM     28  O   UNL     1     -11.161   3.098   7.954  1.00  0.00    -0.508 OA
ATOM     29  H   UNL     1     -11.554   2.880   8.862  1.00  0.00     0.293 HD
ENDBRANCH   8  28
TORSDOF 7
ENDMDL
MODEL 4
REMARK VINA RESULT:    -4.829      4.124      7.346
REMARK INTER + INTRA:          -5.907
REMARK INTER:                  -6.261
REMARK INTRA:                   0.354
REMARK UNBOUND:                 0.051
REMARK SMILES O=C1c2c(O)cc(O)cc2O[C@H](c2cc(O)c(O)c(O)c2)[C@@H]1O
REMARK SMILES IDX 12 1 22 2 2 3 1 4 3 5 4 6 6 7 7 8 9 9 10 10 11 11 13 12
REMARK SMILES IDX 14 13 15 14 21 15 17 16 19 17 16 18 18 20 20 22 23 24 5 26
REMARK SMILES IDX 8 28
REMARK H PARENT 16 19 18 21 20 23 23 25 5 27 8 29
REMARK Flexibility Score: inf
ROOT
ATOM      1  C   UNL     1     -10.028   7.473   5.995  1.00  0.00     0.240 C 
ATOM      2  C   UNL     1     -10.252   6.980   7.438  1.00  0.00     0.231 C 
ATOM      3  C   UNL     1     -11.127   5.754   7.414  1.00  0.00     0.202 C 
ATOM      4  O   UNL     1     -11.946   5.560   8.352  1.00  0.00    -0.291 OA
ATOM      5  C   UNL     1     -10.967   4.767   6.318  1.00  0.00     0.105 A 
ATOM      6  C   UNL     1     -11.562   3.487   6.349  1.00  0.00     0.133 A 
ATOM      7  C   UNL     1     -11.328   2.586   5.300  1.00  0.00     0.093 A 
ATOM      8  C   UNL     1     -10.504   2.942   4.229  1.00  0.00     0.123 A 
ATOM      9  C   UNL     1      -9.915   4.212   4.195  1.00  0.00     0.093 A 
ATOM     10  C   UNL     1     -10.156   5.126   5.224  1.00  0.00     0.138 A 
ATOM     11  O   UNL     1      -9.581   6.401   5.160  1.00  0.00    -0.481 OA
ENDROOT
BRANCH   1  12
ATOM     12  C   UNL     1      -9.054   8.628   5.946  1.00  0.00     0.003 A 
ATOM     13  C   UNL     1      -9.440   9.845   5.363  1.00  0.00     0.058 A 
ATOM     14  C   UNL     1      -8.564  10.935   5.340  1.00  0.00     0.161 A 
ATOM     15  C   UNL     1      -7.782   8.525   6.534  1.00  0.00     0.058 A 
ATOM     16  C   UNL     1      -7.286  10.822   5.914  1.00  0.00     0.200 A 
ATOM     17  C   UNL     1      -6.898   9.613   6.516  1.00  0.00     0.161 A 
BRANCH  14  18
ATOM     18  O   UNL     1      -8.983  12.124   4.742  1.00  0.00    -0.504 OA
ATOM     19  H   UNL     1      -8.416  12.612   4.060  1.00  0.00     0.293 HD
ENDBRANCH  14  18
BRANCH  16  20
ATOM     20  O   UNL     1      -6.418  11.914   5.885  1.00  0.00    -0.502 OA
ATOM     21  H   UNL     1      -6.754  12.870   5.893  1.00  0.00     0.293 HD
ENDBRANCH  16  20
BRANCH  17  22
ATOM     22  O   UNL     1      -5.635   9.495   7.096  1.00  0.00    -0.504 OA
ATOM     23  H   UNL     1      -5.275  10.196   7.733  1.00  0.00     0.293 HD
ENDBRANCH  17  22
ENDBRANCH   1  12
BRANCH   2  24
ATOM     24  O   UNL     1      -9.022   6.656   8.035  1.00  0.00    -0.381 OA
ATOM     25  H   UNL     1      -8.417   7.430   7.883  1.00  0.00     0.211 HD
ENDBRANCH   2  24
BRANCH   6  26
ATOM     26  O   UNL     1     -12.372   3.105   7.418  1.00  0.00    -0.507 OA
ATOM     27  H   UNL     1     -12.151   3.367   8.373  1.00  0.00     0.293 HD
ENDBRANCH   6  26
BRANCH   8  28
ATOM     28  O   UNL     1     -10.277   2.027   3.203  1.00  0.00    -0.508 OA
ATOM     29  H   UNL     1     -10.228   2.320   2.234  1.00  0.00     0.293 HD
ENDBRANCH   8  28
TORSDOF 7
ENDMDL
MODEL 5
REMARK VINA RESULT:    -4.446      2.892      4.116
REMARK INTER + INTRA:          -5.435
REMARK INTER:                  -5.173
REMARK INTRA:                  -0.261
REMARK UNBOUND:                 0.051
REMARK SMILES O=C1c2c(O)cc(O)cc2O[C@H](c2cc(O)c(O)c(O)c2)[C@@H]1O
REMARK SMILES IDX 12 1 22 2 2 3 1 4 3 5 4 6 6 7 7 8 9 9 10 10 11 11 13 12
REMARK SMILES IDX 14 13 15 14 21 15 17 16 19 17 16 18 18 20 20 22 23 24 5 26
REMARK SMILES IDX 8 28
REMARK H PARENT 16 19 18 21 20 23 23 25 5 27 8 29
REMARK Flexibility Score: inf
ROOT
ATOM      1  C   UNL     1     -10.570   7.259   5.459  1.00  0.00     0.240 C 
ATOM      2  C   UNL     1      -9.129   7.681   5.808  1.00  0.00     0.231 C 
ATOM      3  C   UNL     1      -9.031   9.184   5.778  1.00  0.00     0.202 C 
ATOM      4  O   UNL     1      -7.963   9.727   5.388  1.00  0.00    -0.291 OA
ATOM      5  C   UNL     1     -10.172   9.997   6.265  1.00  0.00     0.105 A 
ATOM      6  C   UNL     1     -10.075  11.386   6.503  1.00  0.00     0.133 A 
ATOM      7  C   UNL     1     -11.181  12.083   7.011  1.00  0.00     0.093 A 
ATOM      8  C   UNL     1     -12.375  11.414   7.292  1.00  0.00     0.123 A 
ATOM      9  C   UNL     1     -12.474  10.037   7.053  1.00  0.00     0.093 A 
ATOM     10  C   UNL     1     -11.387   9.334   6.529  1.00  0.00     0.138 A 
ATOM     11  O   UNL     1     -11.512   7.964   6.273  1.00  0.00    -0.481 OA
ENDROOT
BRANCH   1  12
ATOM     12  C   UNL     1     -10.761   5.765   5.596  1.00  0.00     0.003 A 
ATOM     13  C   UNL     1     -11.317   5.236   6.771  1.00  0.00     0.058 A 
ATOM     14  C   UNL     1     -11.534   3.860   6.901  1.00  0.00     0.161 A 
ATOM     15  C   UNL     1     -10.449   4.898   4.536  1.00  0.00     0.058 A 
ATOM     16  C   UNL     1     -11.203   2.994   5.844  1.00  0.00     0.200 A 
ATOM     17  C   UNL     1     -10.663   3.518   4.658  1.00  0.00     0.161 A 
BRANCH  14  18
ATOM     18  O   UNL     1     -12.079   3.372   8.088  1.00  0.00    -0.504 OA
ATOM     19  H   UNL     1     -12.093   3.922   8.940  1.00  0.00     0.293 HD
ENDBRANCH  14  18
BRANCH  16  20
ATOM     20  O   UNL     1     -11.420   1.623   5.984  1.00  0.00    -0.502 OA
ATOM     21  H   UNL     1     -12.349   1.232   6.094  1.00  0.00     0.293 HD
ENDBRANCH  16  20
BRANCH  17  22
ATOM     22  O   UNL     1     -10.340   2.666   3.601  1.00  0.00    -0.504 OA
ATOM     23  H   UNL     1     -10.299   1.661   3.722  1.00  0.00     0.293 HD
ENDBRANCH  17  22
ENDBRANCH   1  12
BRANCH   2  24
ATOM     24  O   UNL     1      -8.788   7.222   7.091  1.00  0.00    -0.381 OA
ATOM     25  H   UNL     1      -8.540   8.023   7.625  1.00  0.00     0.211 HD
ENDBRANCH   2  24
BRANCH   6  26
ATOM     26  O   UNL     1      -8.886  12.069   6.249  1.00  0.00    -0.507 OA
ATOM     27  H   UNL     1      -8.882  13.044   5.970  1.00  0.00     0.293 HD
ENDBRANCH   6  26
BRANCH   8  28
ATOM     28  O   UNL     1     -13.458  12.125   7.805  1.00  0.00    -0.508 OA
ATOM     29  H   UNL     1     -13.820  11.941   8.733  1.00  0.00     0.293 HD
ENDBRANCH   8  28
TORSDOF 7
ENDMDL
MODEL 6
REMARK VINA RESULT:    -4.154      5.100      7.023
REMARK INTER + INTRA:          -5.075
REMARK INTER:                  -5.511
REMARK INTRA:                   0.436
REMARK UNBOUND:                 0.051
REMARK SMILES O=C1c2c(O)cc(O)cc2O[C@H](c2cc(O)c(O)c(O)c2)[C@@H]1O
REMARK SMILES IDX 12 1 22 2 2 3 1 4 3 5 4 6 6 7 7 8 9 9 10 10 11 11 13 12
REMARK SMILES IDX 14 13 15 14 21 15 17 16 19 17 16 18 18 20 20 22 23 24 5 26
REMARK SMILES IDX 8 28
REMARK H PARENT 16 19 18 21 20 23 23 25 5 27 8 29
REMARK Flexibility Score: inf
ROOT
ATOM      1  C   UNL     1      -9.000   8.665   6.763  1.00  0.00     0.240 C 
ATOM      2  C   UNL     1      -8.779   7.344   6.001  1.00  0.00     0.231 C 
ATOM      3  C   UNL     1     -10.029   6.507   6.083  1.00  0.00     0.202 C 
ATOM      4  O   UNL     1      -9.931   5.253   6.146  1.00  0.00    -0.291 OA
ATOM      5  C   UNL     1     -11.354   7.172   6.030  1.00  0.00     0.105 A 
ATOM      6  C   UNL     1     -12.560   6.460   5.853  1.00  0.00     0.133 A 
ATOM      7  C   UNL     1     -13.773   7.159   5.761  1.00  0.00     0.093 A 
ATOM      8  C   UNL     1     -13.796   8.554   5.835  1.00  0.00     0.123 A 
ATOM      9  C   UNL     1     -12.602   9.262   6.014  1.00  0.00     0.093 A 
ATOM     10  C   UNL     1     -11.389   8.577   6.126  1.00  0.00     0.138 A 
ATOM     11  O   UNL     1     -10.207   9.300   6.331  1.00  0.00    -0.481 OA
ENDROOT
BRANCH   1  12
ATOM     12  C   UNL     1      -7.822   9.600   6.609  1.00  0.00     0.003 A 
ATOM     13  C   UNL     1      -7.250  10.196   7.744  1.00  0.00     0.058 A 
ATOM     14  C   UNL     1      -6.137  11.037   7.623  1.00  0.00     0.161 A 
ATOM     15  C   UNL     1      -7.247   9.836   5.349  1.00  0.00     0.058 A 
ATOM     16  C   UNL     1      -5.576  11.283   6.359  1.00  0.00     0.200 A 
ATOM     17  C   UNL     1      -6.133  10.676   5.220  1.00  0.00     0.161 A 
BRANCH  14  18
ATOM     18  O   UNL     1      -5.604  11.617   8.774  1.00  0.00    -0.504 OA
ATOM     19  H   UNL     1      -4.663  11.417   9.092  1.00  0.00     0.293 HD
ENDBRANCH  14  18
BRANCH  16  20
ATOM     20  O   UNL     1      -4.469  12.125   6.248  1.00  0.00    -0.502 OA
ATOM     21  H   UNL     1      -3.966  12.464   7.060  1.00  0.00     0.293 HD
ENDBRANCH  16  20
BRANCH  17  22
ATOM     22  O   UNL     1      -5.576  10.909   3.962  1.00  0.00    -0.504 OA
ATOM     23  H   UNL     1      -4.640  10.599   3.729  1.00  0.00     0.293 HD
ENDBRANCH  17  22
ENDBRANCH   1  12
BRANCH   2  24
ATOM     24  O   UNL     1      -8.488   7.606   4.652  1.00  0.00    -0.381 OA
ATOM     25  H   UNL     1      -8.557   6.740   4.170  1.00  0.00     0.211 HD
ENDBRANCH   2  24
BRANCH   6  26
ATOM     26  O   UNL     1     -12.556   5.068   5.757  1.00  0.00    -0.507 OA
ATOM     27  H   UNL     1     -11.693   4.543   5.677  1.00  0.00     0.293 HD
ENDBRANCH   6  26
BRANCH   8  28
ATOM     28  O   UNL     1     -15.012   9.227   5.733  1.00  0.00    -0.508 OA
ATOM     29  H   UNL     1     -15.589   9.405   6.547  1.00  0.00     0.293 HD
ENDBRANCH   8  28
TORSDOF 7
ENDMDL
