MODEL 1
REMARK VINA RESULT:    -6.469      0.000      0.000
REMARK INTER + INTRA:          -9.143
REMARK INTER:                  -7.982
REMARK INTRA:                  -1.161
REMARK UNBOUND:                -1.161
REMARK SMILES CC(C)=CCC[C@@H](C)c1ccc(C)cc1
REMARK SMILES IDX 6 1 7 2 8 3 9 4 13 5 12 6 11 7 14 8 10 9 15 10 5 11 4 12
REMARK SMILES IDX 2 13 1 14 3 15
REMARK H PARENT
REMARK Flexibility Score: inf
ROOT
ATOM      1  C   UNL     1      -4.269 -32.413 -50.795  1.00  0.00     0.012 C 
ENDROOT
BRANCH   1   2
ATOM      2  C   UNL     1      -5.637 -31.890 -51.300  1.00  0.00     0.016 C 
ATOM      3  C   UNL     1      -6.611 -31.590 -50.150  1.00  0.00     0.013 C 
BRANCH   2   4
ATOM      4  C   UNL     1      -5.439 -30.656 -52.163  1.00  0.00    -0.045 A 
ATOM      5  C   UNL     1      -4.936 -27.118 -54.590  1.00  0.00     0.044 C 
ATOM      6  C   UNL     1      -5.081 -28.351 -53.747  1.00  0.00    -0.051 A 
ATOM      7  C   UNL     1      -5.077 -28.255 -52.349  1.00  0.00     0.004 A 
ATOM      8  C   UNL     1      -5.292 -29.599 -54.352  1.00  0.00     0.004 A 
ATOM      9  C   UNL     1      -5.250 -29.399 -51.563  1.00  0.00     0.004 A 
ATOM     10  C   UNL     1      -5.465 -30.742 -53.568  1.00  0.00     0.004 A 
ENDBRANCH   2   4
ENDBRANCH   1   2
BRANCH   1  11
ATOM     11  C   UNL     1      -3.190 -32.518 -51.887  1.00  0.00     0.028 C 
BRANCH  11  12
ATOM     12  C   UNL     1      -1.834 -32.067 -51.401  1.00  0.00    -0.028 C 
ATOM     13  C   UNL     1      -1.212 -30.934 -51.799  1.00  0.00    -0.080 C 
ATOM     14  C   UNL     1       0.160 -30.639 -51.250  1.00  0.00     0.039 C 
ATOM     15  C   UNL     1      -1.858 -29.956 -52.750  1.00  0.00     0.039 C 
ENDBRANCH  11  12
ENDBRANCH   1  11
TORSDOF 4
ENDMDL
MODEL 2
REMARK VINA RESULT:    -6.444      1.808      5.177
REMARK INTER + INTRA:          -9.111
REMARK INTER:                  -8.615
REMARK INTRA:                  -0.496
REMARK UNBOUND:                -1.161
REMARK SMILES CC(C)=CCC[C@@H](C)c1ccc(C)cc1
REMARK SMILES IDX 6 1 7 2 8 3 9 4 13 5 12 6 11 7 14 8 10 9 15 10 5 11 4 12
REMARK SMILES IDX 2 13 1 14 3 15
REMARK H PARENT
REMARK Flexibility Score: inf
ROOT
ATOM      1  C   UNL     1      -5.137 -32.242 -51.673  1.00  0.00     0.012 C 
ENDROOT
BRANCH   1   2
ATOM      2  C   UNL     1      -4.600 -32.012 -53.107  1.00  0.00     0.016 C 
ATOM      3  C   UNL     1      -5.245 -30.793 -53.785  1.00  0.00     0.013 C 
BRANCH   2   4
ATOM      4  C   UNL     1      -3.089 -31.869 -53.083  1.00  0.00    -0.045 A 
ATOM      5  C   UNL     1       1.206 -31.408 -53.065  1.00  0.00     0.044 C 
ATOM      6  C   UNL     1      -0.284 -31.577 -53.043  1.00  0.00    -0.051 A 
ATOM      7  C   UNL     1      -1.112 -30.501 -52.693  1.00  0.00     0.004 A 
ATOM      8  C   UNL     1      -0.863 -32.791 -53.440  1.00  0.00     0.004 A 
ATOM      9  C   UNL     1      -2.503 -30.647 -52.708  1.00  0.00     0.004 A 
ATOM     10  C   UNL     1      -2.253 -32.938 -53.456  1.00  0.00     0.004 A 
ENDBRANCH   2   4
ENDBRANCH   1   2
BRANCH   1  11
ATOM     11  C   UNL     1      -5.624 -30.965 -50.967  1.00  0.00     0.028 C 
BRANCH  11  12
ATOM     12  C   UNL     1      -6.855 -31.207 -50.125  1.00  0.00    -0.028 C 
ATOM     13  C   UNL     1      -7.281 -30.393 -49.134  1.00  0.00    -0.080 C 
ATOM     14  C   UNL     1      -8.509 -30.791 -48.356  1.00  0.00     0.039 C 
ATOM     15  C   UNL     1      -6.580 -29.096 -48.803  1.00  0.00     0.039 C 
ENDBRANCH  11  12
ENDBRANCH   1  11
TORSDOF 4
ENDMDL
MODEL 3
REMARK VINA RESULT:    -6.441      1.401      3.948
REMARK INTER + INTRA:          -9.107
REMARK INTER:                  -8.136
REMARK INTRA:                  -0.971
REMARK UNBOUND:                -1.161
REMARK SMILES CC(C)=CCC[C@@H](C)c1ccc(C)cc1
REMARK SMILES IDX 6 1 7 2 8 3 9 4 13 5 12 6 11 7 14 8 10 9 15 10 5 11 4 12
REMARK SMILES IDX 2 13 1 14 3 15
REMARK H PARENT
REMARK Flexibility Score: inf
ROOT
ATOM      1  C   UNL     1      -2.844 -29.023 -52.036  1.00  0.00     0.012 C 
ENDROOT
BRANCH   1   2
ATOM      2  C   UNL     1      -4.308 -28.899 -52.523  1.00  0.00     0.016 C 
ATOM      3  C   UNL     1      -4.546 -29.621 -53.859  1.00  0.00     0.013 C 
BRANCH   2   4
ATOM      4  C   UNL     1      -5.259 -29.422 -51.461  1.00  0.00    -0.045 A 
ATOM      5  C   UNL     1      -8.009 -30.932 -48.491  1.00  0.00     0.044 C 
ATOM      6  C   UNL     1      -7.031 -30.413 -49.504  1.00  0.00    -0.051 A 
ATOM      7  C   UNL     1      -6.483 -31.276 -50.462  1.00  0.00     0.004 A 
ATOM      8  C   UNL     1      -6.714 -29.047 -49.543  1.00  0.00     0.004 A 
ATOM      9  C   UNL     1      -5.600 -30.785 -51.430  1.00  0.00     0.004 A 
ATOM     10  C   UNL     1      -5.832 -28.556 -50.510  1.00  0.00     0.004 A 
ENDBRANCH   2   4
ENDBRANCH   1   2
BRANCH   1  11
ATOM     11  C   UNL     1      -2.093 -30.244 -52.596  1.00  0.00     0.028 C 
BRANCH  11  12
ATOM     12  C   UNL     1      -2.166 -31.437 -51.673  1.00  0.00    -0.028 C 
ATOM     13  C   UNL     1      -2.251 -32.722 -52.084  1.00  0.00    -0.080 C 
ATOM     14  C   UNL     1      -2.356 -33.803 -51.039  1.00  0.00     0.039 C 
ATOM     15  C   UNL     1      -2.219 -33.102 -53.546  1.00  0.00     0.039 C 
ENDBRANCH  11  12
ENDBRANCH   1  11
TORSDOF 4
ENDMDL
MODEL 4
REMARK VINA RESULT:    -6.398      1.545      5.018
REMARK INTER + INTRA:          -9.054
REMARK INTER:                  -8.368
REMARK INTRA:                  -0.686
REMARK UNBOUND:                -1.161
REMARK SMILES CC(C)=CCC[C@@H](C)c1ccc(C)cc1
REMARK SMILES IDX 6 1 7 2 8 3 9 4 13 5 12 6 11 7 14 8 10 9 15 10 5 11 4 12
REMARK SMILES IDX 2 13 1 14 3 15
REMARK H PARENT
REMARK Flexibility Score: inf
ROOT
ATOM      1  C   UNL     1      -5.710 -32.286 -52.251  1.00  0.00     0.012 C 
ENDROOT
BRANCH   1   2
ATOM      2  C   UNL     1      -4.880 -31.613 -53.371  1.00  0.00     0.016 C 
ATOM      3  C   UNL     1      -5.457 -30.251 -53.790  1.00  0.00     0.013 C 
BRANCH   2   4
ATOM      4  C   UNL     1      -3.433 -31.465 -52.933  1.00  0.00    -0.045 A 
ATOM      5  C   UNL     1       0.669 -31.089 -51.633  1.00  0.00     0.044 C 
ATOM      6  C   UNL     1      -0.747 -31.215 -52.113  1.00  0.00    -0.051 A 
ATOM      7  C   UNL     1      -1.265 -32.469 -52.466  1.00  0.00     0.004 A 
ATOM      8  C   UNL     1      -1.585 -30.090 -52.144  1.00  0.00     0.004 A 
ATOM      9  C   UNL     1      -2.596 -32.592 -52.878  1.00  0.00     0.004 A 
ATOM     10  C   UNL     1      -2.915 -30.213 -52.555  1.00  0.00     0.004 A 
ENDBRANCH   2   4
ENDBRANCH   1   2
BRANCH   1  11
ATOM     11  C   UNL     1      -5.425 -31.744 -50.839  1.00  0.00     0.028 C 
BRANCH  11  12
ATOM     12  C   UNL     1      -6.681 -31.606 -50.011  1.00  0.00    -0.028 C 
ATOM     13  C   UNL     1      -7.128 -30.446 -49.480  1.00  0.00    -0.080 C 
ATOM     14  C   UNL     1      -8.381 -30.477 -48.643  1.00  0.00     0.039 C 
ATOM     15  C   UNL     1      -6.427 -29.130 -49.720  1.00  0.00     0.039 C 
ENDBRANCH  11  12
ENDBRANCH   1  11
TORSDOF 4
ENDMDL
MODEL 5
REMARK VINA RESULT:    -6.304      1.853      3.351
REMARK INTER + INTRA:          -8.939
REMARK INTER:                  -8.040
REMARK INTRA:                  -0.899
REMARK UNBOUND:                -1.161
REMARK SMILES CC(C)=CCC[C@@H](C)c1ccc(C)cc1
REMARK SMILES IDX 6 1 7 2 8 3 9 4 13 5 12 6 11 7 14 8 10 9 15 10 5 11 4 12
REMARK SMILES IDX 2 13 1 14 3 15
REMARK H PARENT
REMARK Flexibility Score: inf
ROOT
ATOM      1  C   UNL     1      -4.733 -30.790 -53.054  1.00  0.00     0.012 C 
ENDROOT
BRANCH   1   2
ATOM      2  C   UNL     1      -5.548 -31.463 -51.923  1.00  0.00     0.016 C 
ATOM      3  C   UNL     1      -4.840 -32.699 -51.345  1.00  0.00     0.013 C 
BRANCH   2   4
ATOM      4  C   UNL     1      -5.846 -30.459 -50.823  1.00  0.00    -0.045 A 
ATOM      5  C   UNL     1      -6.622 -27.583 -47.695  1.00  0.00     0.044 C 
ATOM      6  C   UNL     1      -6.381 -28.579 -48.791  1.00  0.00    -0.051 A 
ATOM      7  C   UNL     1      -5.894 -28.156 -50.035  1.00  0.00     0.004 A 
ATOM      8  C   UNL     1      -6.572 -29.948 -48.556  1.00  0.00     0.004 A 
ATOM      9  C   UNL     1      -5.633 -29.088 -51.045  1.00  0.00     0.004 A 
ATOM     10  C   UNL     1      -6.312 -30.880 -49.564  1.00  0.00     0.004 A 
ENDBRANCH   2   4
ENDBRANCH   1   2
BRANCH   1  11
ATOM     11  C   UNL     1      -3.262 -31.235 -53.124  1.00  0.00     0.028 C 
BRANCH  11  12
ATOM     12  C   UNL     1      -2.326 -30.231 -52.494  1.00  0.00    -0.028 C 
ATOM     13  C   UNL     1      -1.216 -30.550 -51.790  1.00  0.00    -0.080 C 
ATOM     14  C   UNL     1      -0.403 -29.433 -51.189  1.00  0.00     0.039 C 
ATOM     15  C   UNL     1      -0.762 -31.980 -51.612  1.00  0.00     0.039 C 
ENDBRANCH  11  12
ENDBRANCH   1  11
TORSDOF 4
ENDMDL
MODEL 6
REMARK VINA RESULT:    -6.291      1.670      3.960
REMARK INTER + INTRA:          -8.922
REMARK INTER:                  -8.277
REMARK INTRA:                  -0.646
REMARK UNBOUND:                -1.161
REMARK SMILES CC(C)=CCC[C@@H](C)c1ccc(C)cc1
REMARK SMILES IDX 6 1 7 2 8 3 9 4 13 5 12 6 11 7 14 8 10 9 15 10 5 11 4 12
REMARK SMILES IDX 2 13 1 14 3 15
REMARK H PARENT
REMARK Flexibility Score: inf
ROOT
ATOM      1  C   UNL     1      -5.488 -32.341 -51.944  1.00  0.00     0.012 C 
ENDROOT
BRANCH   1   2
ATOM      2  C   UNL     1      -4.193 -31.498 -52.055  1.00  0.00     0.016 C 
ATOM      3  C   UNL     1      -3.043 -32.275 -52.715  1.00  0.00     0.013 C 
BRANCH   2   4
ATOM      4  C   UNL     1      -4.470 -30.211 -52.812  1.00  0.00    -0.045 A 
ATOM      5  C   UNL     1      -5.229 -26.582 -55.028  1.00  0.00     0.044 C 
ATOM      6  C   UNL     1      -4.988 -27.836 -54.240  1.00  0.00    -0.051 A 
ATOM      7  C   UNL     1      -5.609 -29.035 -54.614  1.00  0.00     0.004 A 
ATOM      8  C   UNL     1      -4.085 -27.833 -53.167  1.00  0.00     0.004 A 
ATOM      9  C   UNL     1      -5.356 -30.213 -53.903  1.00  0.00     0.004 A 
ATOM     10  C   UNL     1      -3.831 -29.009 -52.456  1.00  0.00     0.004 A 
ENDBRANCH   2   4
ENDBRANCH   1   2
BRANCH   1  11
ATOM     11  C   UNL     1      -6.278 -32.118 -50.643  1.00  0.00     0.028 C 
BRANCH  11  12
ATOM     12  C   UNL     1      -6.018 -30.759 -50.037  1.00  0.00    -0.028 C 
ATOM     13  C   UNL     1      -6.855 -30.122 -49.188  1.00  0.00    -0.080 C 
ATOM     14  C   UNL     1      -6.472 -28.750 -48.697  1.00  0.00     0.039 C 
ATOM     15  C   UNL     1      -8.141 -30.752 -48.706  1.00  0.00     0.039 C 
ENDBRANCH  11  12
ENDBRANCH   1  11
TORSDOF 4
ENDMDL
MODEL 7
REMARK VINA RESULT:    -6.263      1.666      2.656
REMARK INTER + INTRA:          -8.888
REMARK INTER:                  -7.756
REMARK INTRA:                  -1.132
REMARK UNBOUND:                -1.161
REMARK SMILES CC(C)=CCC[C@@H](C)c1ccc(C)cc1
REMARK SMILES IDX 6 1 7 2 8 3 9 4 13 5 12 6 11 7 14 8 10 9 15 10 5 11 4 12
REMARK SMILES IDX 2 13 1 14 3 15
REMARK H PARENT
REMARK Flexibility Score: inf
ROOT
ATOM      1  C   UNL     1      -2.869 -32.644 -53.244  1.00  0.00     0.012 C 
ENDROOT
BRANCH   1   2
ATOM      2  C   UNL     1      -3.779 -32.765 -51.998  1.00  0.00     0.016 C 
ATOM      3  C   UNL     1      -3.022 -33.290 -50.767  1.00  0.00     0.013 C 
BRANCH   2   4
ATOM      4  C   UNL     1      -4.428 -31.427 -51.691  1.00  0.00    -0.045 A 
ATOM      5  C   UNL     1      -6.212 -27.598 -50.789  1.00  0.00     0.044 C 
ATOM      6  C   UNL     1      -5.610 -28.930 -51.126  1.00  0.00    -0.051 A 
ATOM      7  C   UNL     1      -4.484 -29.007 -51.956  1.00  0.00     0.004 A 
ATOM      8  C   UNL     1      -6.127 -30.103 -50.555  1.00  0.00     0.004 A 
ATOM      9  C   UNL     1      -3.901 -30.246 -52.241  1.00  0.00     0.004 A 
ATOM     10  C   UNL     1      -5.545 -31.341 -50.839  1.00  0.00     0.004 A 
ENDBRANCH   2   4
ENDBRANCH   1   2
BRANCH   1  11
ATOM     11  C   UNL     1      -1.366 -32.785 -52.946  1.00  0.00     0.028 C 
BRANCH  11  12
ATOM     12  C   UNL     1      -0.556 -31.645 -53.519  1.00  0.00    -0.028 C 
ATOM     13  C   UNL     1      -0.161 -30.556 -52.821  1.00  0.00    -0.080 C 
ATOM     14  C   UNL     1       0.611 -29.483 -53.545  1.00  0.00     0.039 C 
ATOM     15  C   UNL     1      -0.449 -30.399 -51.347  1.00  0.00     0.039 C 
ENDBRANCH  11  12
ENDBRANCH   1  11
TORSDOF 4
ENDMDL
MODEL 8
REMARK VINA RESULT:    -6.219      1.678      4.430
REMARK INTER + INTRA:          -8.834
REMARK INTER:                  -8.067
REMARK INTRA:                  -0.767
REMARK UNBOUND:                -1.161
REMARK SMILES CC(C)=CCC[C@@H](C)c1ccc(C)cc1
REMARK SMILES IDX 6 1 7 2 8 3 9 4 13 5 12 6 11 7 14 8 10 9 15 10 5 11 4 12
REMARK SMILES IDX 2 13 1 14 3 15
REMARK H PARENT
REMARK Flexibility Score: inf
ROOT
ATOM      1  C   UNL     1      -4.553 -32.358 -51.385  1.00  0.00     0.012 C 
ENDROOT
BRANCH   1   2
ATOM      2  C   UNL     1      -4.045 -31.940 -52.787  1.00  0.00     0.016 C 
ATOM      3  C   UNL     1      -5.195 -31.617 -53.755  1.00  0.00     0.013 C 
BRANCH   2   4
ATOM      4  C   UNL     1      -3.102 -30.755 -52.669  1.00  0.00    -0.045 A 
ATOM      5  C   UNL     1      -0.430 -27.371 -52.404  1.00  0.00     0.044 C 
ATOM      6  C   UNL     1      -1.365 -28.543 -52.467  1.00  0.00    -0.051 A 
ATOM      7  C   UNL     1      -2.706 -28.358 -52.830  1.00  0.00     0.004 A 
ATOM      8  C   UNL     1      -0.887 -29.841 -52.233  1.00  0.00     0.004 A 
ATOM      9  C   UNL     1      -3.569 -29.454 -52.925  1.00  0.00     0.004 A 
ATOM     10  C   UNL     1      -1.749 -30.937 -52.328  1.00  0.00     0.004 A 
ENDBRANCH   2   4
ENDBRANCH   1   2
BRANCH   1  11
ATOM     11  C   UNL     1      -5.967 -31.852 -51.048  1.00  0.00     0.028 C 
BRANCH  11  12
ATOM     12  C   UNL     1      -5.943 -30.567 -50.254  1.00  0.00    -0.028 C 
ATOM     13  C   UNL     1      -6.814 -30.255 -49.268  1.00  0.00    -0.080 C 
ATOM     14  C   UNL     1      -6.684 -28.914 -48.593  1.00  0.00     0.039 C 
ATOM     15  C   UNL     1      -7.889 -31.215 -48.815  1.00  0.00     0.039 C 
ENDBRANCH  11  12
ENDBRANCH   1  11
TORSDOF 4
ENDMDL
MODEL 9
REMARK VINA RESULT:    -6.110      1.528      5.077
REMARK INTER + INTRA:          -8.699
REMARK INTER:                  -7.989
REMARK INTRA:                  -0.709
REMARK UNBOUND:                -1.161
REMARK SMILES CC(C)=CCC[C@@H](C)c1ccc(C)cc1
REMARK SMILES IDX 6 1 7 2 8 3 9 4 13 5 12 6 11 7 14 8 10 9 15 10 5 11 4 12
REMARK SMILES IDX 2 13 1 14 3 15
REMARK H PARENT
REMARK Flexibility Score: inf
ROOT
ATOM      1  C   UNL     1      -6.112 -27.499 -51.736  1.00  0.00     0.012 C 
ENDROOT
BRANCH   1   2
ATOM      2  C   UNL     1      -5.519 -27.818 -53.130  1.00  0.00     0.016 C 
ATOM      3  C   UNL     1      -4.630 -26.683 -53.663  1.00  0.00     0.013 C 
BRANCH   2   4
ATOM      4  C   UNL     1      -4.743 -29.122 -53.082  1.00  0.00    -0.045 A 
ATOM      5  C   UNL     1      -2.586 -32.860 -52.903  1.00  0.00     0.044 C 
ATOM      6  C   UNL     1      -3.324 -31.558 -52.993  1.00  0.00    -0.051 A 
ATOM      7  C   UNL     1      -4.632 -31.519 -53.497  1.00  0.00     0.004 A 
ATOM      8  C   UNL     1      -2.738 -30.379 -52.507  1.00  0.00     0.004 A 
ATOM      9  C   UNL     1      -5.334 -30.311 -53.546  1.00  0.00     0.004 A 
ATOM     10  C   UNL     1      -3.439 -29.171 -52.556  1.00  0.00     0.004 A 
ENDBRANCH   2   4
ENDBRANCH   1   2
BRANCH   1  11
ATOM     11  C   UNL     1      -5.601 -28.411 -50.607  1.00  0.00     0.028 C 
BRANCH  11  12
ATOM     12  C   UNL     1      -6.720 -28.921 -49.729  1.00  0.00    -0.028 C 
ATOM     13  C   UNL     1      -7.014 -30.227 -49.540  1.00  0.00    -0.080 C 
ATOM     14  C   UNL     1      -8.188 -30.577 -48.661  1.00  0.00     0.039 C 
ATOM     15  C   UNL     1      -6.193 -31.333 -50.160  1.00  0.00     0.039 C 
ENDBRANCH  11  12
ENDBRANCH   1  11
TORSDOF 4
ENDMDL
