MODEL 1
REMARK VINA RESULT:    -5.488      0.000      0.000
REMARK INTER + INTRA:          -8.714
REMARK INTER:                  -7.413
REMARK INTRA:                  -1.302
REMARK UNBOUND:                -1.302
REMARK SMILES C=CC(C)=CCC=C(C)CCC=C(C)C
REMARK SMILES IDX 8 1 7 2 9 3 10 4 11 5 12 6 14 7 13 8 15 9 6 10 5 11 3 12
REMARK SMILES IDX 4 13 2 14 1 15
REMARK H PARENT
REMARK Flexibility Score: inf
ROOT
ATOM      1  C   UNL     1     143.980 141.129 164.477  1.00  0.00    -0.077 C 
ATOM      2  C   UNL     1     144.158 142.467 164.404  1.00  0.00    -0.024 C 
ATOM      3  C   UNL     1     142.699 140.521 164.998  1.00  0.00     0.039 C 
ENDROOT
BRANCH   1   4
ATOM      4  C   UNL     1     145.096 140.215 164.020  1.00  0.00     0.034 C 
BRANCH   4   5
ATOM      5  C   UNL     1     145.558 140.583 162.605  1.00  0.00     0.032 C 
BRANCH   5   6
ATOM      6  C   UNL     1     144.453 140.353 161.605  1.00  0.00    -0.028 C 
ATOM      7  C   UNL     1     144.520 142.708 160.752  1.00  0.00     0.039 C 
ATOM      8  C   UNL     1     143.992 141.291 160.748  1.00  0.00    -0.080 C 
ATOM      9  C   UNL     1     142.908 140.905 159.776  1.00  0.00     0.039 C 
ENDBRANCH   5   6
ENDBRANCH   4   5
ENDBRANCH   1   4
BRANCH   2  10
ATOM     10  C   UNL     1     143.127 143.491 164.813  1.00  0.00     0.055 C 
BRANCH  10  11
ATOM     11  C   UNL     1     142.383 144.041 163.624  1.00  0.00    -0.020 C 
ATOM     12  C   UNL     1     141.426 144.989 163.681  1.00  0.00    -0.055 C 
ATOM     13  C   UNL     1     141.013 145.638 164.983  1.00  0.00     0.044 C 
BRANCH  12  14
ATOM     14  C   UNL     1     140.830 145.449 162.398  1.00  0.00    -0.005 C 
ATOM     15  C   UNL     1     141.093 144.888 161.217  1.00  0.00     0.009 C 
ENDBRANCH  12  14
ENDBRANCH  10  11
ENDBRANCH   2  10
TORSDOF 6
ENDMDL
MODEL 2
REMARK VINA RESULT:    -5.468      4.506      6.149
REMARK INTER + INTRA:          -8.687
REMARK INTER:                  -7.401
REMARK INTRA:                  -1.286
REMARK UNBOUND:                -1.302
REMARK SMILES C=CC(C)=CCC=C(C)CCC=C(C)C
REMARK SMILES IDX 8 1 7 2 9 3 10 4 11 5 12 6 14 7 13 8 15 9 6 10 5 11 3 12
REMARK SMILES IDX 4 13 2 14 1 15
REMARK H PARENT
REMARK Flexibility Score: inf
ROOT
ATOM      1  C   UNL     1     141.062 146.829 164.437  1.00  0.00    -0.077 C 
ATOM      2  C   UNL     1     142.399 146.639 164.375  1.00  0.00    -0.024 C 
ATOM      3  C   UNL     1     140.461 148.117 164.948  1.00  0.00     0.039 C 
ENDROOT
BRANCH   1   4
ATOM      4  C   UNL     1     140.142 145.718 163.980  1.00  0.00     0.034 C 
BRANCH   4   5
ATOM      5  C   UNL     1     140.543 145.215 162.588  1.00  0.00     0.032 C 
BRANCH   5   6
ATOM      6  C   UNL     1     140.364 146.300 161.556  1.00  0.00    -0.028 C 
ATOM      7  C   UNL     1     142.739 146.166 160.772  1.00  0.00     0.039 C 
ATOM      8  C   UNL     1     141.335 146.721 160.716  1.00  0.00    -0.080 C 
ATOM      9  C   UNL     1     140.999 147.790 159.708  1.00  0.00     0.039 C 
ENDBRANCH   5   6
ENDBRANCH   4   5
ENDBRANCH   1   4
BRANCH   2  10
ATOM     10  C   UNL     1     143.429 147.663 164.785  1.00  0.00     0.055 C 
BRANCH  10  11
ATOM     11  C   UNL     1     144.008 148.382 163.595  1.00  0.00    -0.020 C 
ATOM     12  C   UNL     1     144.964 149.331 163.654  1.00  0.00    -0.055 C 
ATOM     13  C   UNL     1     145.593 149.759 164.961  1.00  0.00     0.044 C 
BRANCH  12  14
ATOM     14  C   UNL     1     145.454 149.901 162.370  1.00  0.00    -0.005 C 
ATOM     15  C   UNL     1     144.901 149.637 161.186  1.00  0.00     0.009 C 
ENDBRANCH  12  14
ENDBRANCH  10  11
ENDBRANCH   2  10
TORSDOF 6
ENDMDL
MODEL 3
REMARK VINA RESULT:    -5.466      6.678      8.687
REMARK INTER + INTRA:          -8.684
REMARK INTER:                  -7.384
REMARK INTRA:                  -1.301
REMARK UNBOUND:                -1.302
REMARK SMILES C=CC(C)=CCC=C(C)CCC=C(C)C
REMARK SMILES IDX 8 1 7 2 9 3 10 4 11 5 12 6 14 7 13 8 15 9 6 10 5 11 3 12
REMARK SMILES IDX 4 13 2 14 1 15
REMARK H PARENT
REMARK Flexibility Score: inf
ROOT
ATOM      1  C   UNL     1     146.873 149.624 164.451  1.00  0.00    -0.077 C 
ATOM      2  C   UNL     1     146.642 148.294 164.373  1.00  0.00    -0.024 C 
ATOM      3  C   UNL     1     148.183 150.178 164.960  1.00  0.00     0.039 C 
ENDROOT
BRANCH   1   4
ATOM      4  C   UNL     1     145.788 150.583 164.014  1.00  0.00     0.034 C 
BRANCH   4   5
ATOM      5  C   UNL     1     145.279 150.229 162.612  1.00  0.00     0.032 C 
BRANCH   5   6
ATOM      6  C   UNL     1     146.376 150.385 161.589  1.00  0.00    -0.028 C 
ATOM      7  C   UNL     1     146.186 148.018 160.790  1.00  0.00     0.039 C 
ATOM      8  C   UNL     1     146.778 149.408 160.747  1.00  0.00    -0.080 C 
ATOM      9  C   UNL     1     147.864 149.721 159.749  1.00  0.00     0.039 C 
ENDBRANCH   5   6
ENDBRANCH   4   5
ENDBRANCH   1   4
BRANCH   2  10
ATOM     10  C   UNL     1     147.636 147.228 164.763  1.00  0.00     0.055 C 
BRANCH  10  11
ATOM     11  C   UNL     1     148.377 146.690 163.567  1.00  0.00    -0.020 C 
ATOM     12  C   UNL     1     149.351 145.758 163.614  1.00  0.00    -0.055 C 
ATOM     13  C   UNL     1     149.788 145.117 164.913  1.00  0.00     0.044 C 
BRANCH  12  14
ATOM     14  C   UNL     1     149.941 145.308 162.326  1.00  0.00    -0.005 C 
ATOM     15  C   UNL     1     149.680 145.883 161.152  1.00  0.00     0.009 C 
ENDBRANCH  12  14
ENDBRANCH  10  11
ENDBRANCH   2  10
TORSDOF 6
ENDMDL
MODEL 4
REMARK VINA RESULT:    -5.403      4.562      6.014
REMARK INTER + INTRA:          -8.600
REMARK INTER:                  -7.360
REMARK INTRA:                  -1.240
REMARK UNBOUND:                -1.302
REMARK SMILES C=CC(C)=CCC=C(C)CCC=C(C)C
REMARK SMILES IDX 8 1 7 2 9 3 10 4 11 5 12 6 14 7 13 8 15 9 6 10 5 11 3 12
REMARK SMILES IDX 4 13 2 14 1 15
REMARK H PARENT
REMARK Flexibility Score: inf
ROOT
ATOM      1  C   UNL     1     149.837 143.990 164.542  1.00  0.00    -0.077 C 
ATOM      2  C   UNL     1     148.519 144.281 164.628  1.00  0.00    -0.024 C 
ATOM      3  C   UNL     1     150.403 142.689 165.061  1.00  0.00     0.039 C 
ENDROOT
BRANCH   1   4
ATOM      4  C   UNL     1     150.770 144.997 163.905  1.00  0.00     0.034 C 
BRANCH   4   5
ATOM      5  C   UNL     1     150.203 145.498 162.572  1.00  0.00     0.032 C 
BRANCH   5   6
ATOM      6  C   UNL     1     150.406 144.473 161.484  1.00  0.00    -0.028 C 
ATOM      7  C   UNL     1     147.951 144.155 161.105  1.00  0.00     0.039 C 
ATOM      8  C   UNL     1     149.405 143.879 160.799  1.00  0.00    -0.080 C 
ATOM      9  C   UNL     1     149.762 142.900 159.711  1.00  0.00     0.039 C 
ENDBRANCH   5   6
ENDBRANCH   4   5
ENDBRANCH   1   4
BRANCH   2  10
ATOM     10  C   UNL     1     147.478 143.367 165.227  1.00  0.00     0.055 C 
BRANCH  10  11
ATOM     11  C   UNL     1     146.853 142.475 164.187  1.00  0.00    -0.020 C 
ATOM     12  C   UNL     1     145.529 142.364 163.956  1.00  0.00    -0.055 C 
ATOM     13  C   UNL     1     144.509 143.176 164.724  1.00  0.00     0.044 C 
BRANCH  12  14
ATOM     14  C   UNL     1     145.090 141.469 162.853  1.00  0.00    -0.005 C 
ATOM     15  C   UNL     1     145.047 140.140 162.952  1.00  0.00     0.009 C 
ENDBRANCH  12  14
ENDBRANCH  10  11
ENDBRANCH   2  10
TORSDOF 6
ENDMDL
MODEL 5
REMARK VINA RESULT:    -5.364      1.029      3.353
REMARK INTER + INTRA:          -8.547
REMARK INTER:                  -7.304
REMARK INTRA:                  -1.243
REMARK UNBOUND:                -1.302
REMARK SMILES C=CC(C)=CCC=C(C)CCC=C(C)C
REMARK SMILES IDX 8 1 7 2 9 3 10 4 11 5 12 6 14 7 13 8 15 9 6 10 5 11 3 12
REMARK SMILES IDX 4 13 2 14 1 15
REMARK H PARENT
REMARK Flexibility Score: inf
ROOT
ATOM      1  C   UNL     1     143.899 141.914 161.279  1.00  0.00    -0.077 C 
ATOM      2  C   UNL     1     143.779 143.215 161.625  1.00  0.00    -0.024 C 
ATOM      3  C   UNL     1     142.814 141.186 160.521  1.00  0.00     0.039 C 
ENDROOT
BRANCH   1   4
ATOM      4  C   UNL     1     145.158 141.166 161.660  1.00  0.00     0.034 C 
BRANCH   4   5
ATOM      5  C   UNL     1     145.340 141.144 163.182  1.00  0.00     0.032 C 
BRANCH   5   6
ATOM      6  C   UNL     1     144.211 140.395 163.845  1.00  0.00    -0.028 C 
ATOM      7  C   UNL     1     143.437 142.392 165.145  1.00  0.00     0.039 C 
ATOM      8  C   UNL     1     143.333 140.948 164.711  1.00  0.00    -0.080 C 
ATOM      9  C   UNL     1     142.230 140.084 165.265  1.00  0.00     0.039 C 
ENDBRANCH   5   6
ENDBRANCH   4   5
ENDBRANCH   1   4
BRANCH   2  10
ATOM     10  C   UNL     1     142.587 144.082 161.299  1.00  0.00     0.055 C 
BRANCH  10  11
ATOM     11  C   UNL     1     141.878 144.547 162.543  1.00  0.00    -0.020 C 
ATOM     12  C   UNL     1     140.883 145.458 162.573  1.00  0.00    -0.055 C 
ATOM     13  C   UNL     1     140.342 146.098 161.314  1.00  0.00     0.044 C 
BRANCH  12  14
ATOM     14  C   UNL     1     140.263 145.763 163.889  1.00  0.00    -0.005 C 
ATOM     15  C   UNL     1     140.907 145.661 165.052  1.00  0.00     0.009 C 
ENDBRANCH  12  14
ENDBRANCH  10  11
ENDBRANCH   2  10
TORSDOF 6
ENDMDL
MODEL 6
REMARK VINA RESULT:    -5.322      6.771      9.397
REMARK INTER + INTRA:          -8.491
REMARK INTER:                  -7.248
REMARK INTRA:                  -1.243
REMARK UNBOUND:                -1.302
REMARK SMILES C=CC(C)=CCC=C(C)CCC=C(C)C
REMARK SMILES IDX 8 1 7 2 9 3 10 4 11 5 12 6 14 7 13 8 15 9 6 10 5 11 3 12
REMARK SMILES IDX 4 13 2 14 1 15
REMARK H PARENT
REMARK Flexibility Score: inf
ROOT
ATOM      1  C   UNL     1     147.113 148.792 161.048  1.00  0.00    -0.077 C 
ATOM      2  C   UNL     1     147.327 147.496 161.371  1.00  0.00    -0.024 C 
ATOM      3  C   UNL     1     148.151 149.614 160.319  1.00  0.00     0.039 C 
ENDROOT
BRANCH   1   4
ATOM      4  C   UNL     1     145.798 149.435 161.427  1.00  0.00     0.034 C 
BRANCH   4   5
ATOM      5  C   UNL     1     145.560 149.341 162.939  1.00  0.00     0.032 C 
BRANCH   5   6
ATOM      6  C   UNL     1     146.565 150.177 163.691  1.00  0.00    -0.028 C 
ATOM      7  C   UNL     1     147.434 148.231 165.008  1.00  0.00     0.039 C 
ATOM      8  C   UNL     1     147.431 149.688 164.606  1.00  0.00    -0.080 C 
ATOM      9  C   UNL     1     148.407 150.638 165.251  1.00  0.00     0.039 C 
ENDBRANCH   5   6
ENDBRANCH   4   5
ENDBRANCH   1   4
BRANCH   2  10
ATOM     10  C   UNL     1     148.584 146.727 161.045  1.00  0.00     0.055 C 
BRANCH  10  11
ATOM     11  C   UNL     1     149.296 146.265 162.288  1.00  0.00    -0.020 C 
ATOM     12  C   UNL     1     150.043 145.147 162.383  1.00  0.00    -0.055 C 
ATOM     13  C   UNL     1     150.274 144.232 161.200  1.00  0.00     0.044 C 
BRANCH  12  14
ATOM     14  C   UNL     1     150.715 144.870 163.680  1.00  0.00    -0.005 C 
ATOM     15  C   UNL     1     150.130 145.037 164.867  1.00  0.00     0.009 C 
ENDBRANCH  12  14
ENDBRANCH  10  11
ENDBRANCH   2  10
TORSDOF 6
ENDMDL
MODEL 7
REMARK VINA RESULT:    -5.309      4.573      7.216
REMARK INTER + INTRA:          -8.473
REMARK INTER:                  -7.205
REMARK INTRA:                  -1.267
REMARK UNBOUND:                -1.302
REMARK SMILES C=CC(C)=CCC=C(C)CCC=C(C)C
REMARK SMILES IDX 8 1 7 2 9 3 10 4 11 5 12 6 14 7 13 8 15 9 6 10 5 11 3 12
REMARK SMILES IDX 4 13 2 14 1 15
REMARK H PARENT
REMARK Flexibility Score: inf
ROOT
ATOM      1  C   UNL     1     141.573 146.839 161.029  1.00  0.00    -0.077 C 
ATOM      2  C   UNL     1     142.898 146.859 161.300  1.00  0.00    -0.024 C 
ATOM      3  C   UNL     1     140.881 147.995 160.345  1.00  0.00     0.039 C 
ENDROOT
BRANCH   1   4
ATOM      4  C   UNL     1     140.762 145.624 161.423  1.00  0.00     0.034 C 
BRANCH   4   5
ATOM      5  C   UNL     1     140.867 145.362 162.930  1.00  0.00     0.032 C 
BRANCH   5   6
ATOM      6  C   UNL     1     140.216 146.475 163.713  1.00  0.00    -0.028 C 
ATOM      7  C   UNL     1     142.341 147.119 164.872  1.00  0.00     0.039 C 
ATOM      8  C   UNL     1     140.870 147.288 164.571  1.00  0.00    -0.080 C 
ATOM      9  C   UNL     1     140.094 148.383 165.256  1.00  0.00     0.039 C 
ENDBRANCH   5   6
ENDBRANCH   4   5
ENDBRANCH   1   4
BRANCH   2  10
ATOM     10  C   UNL     1     143.826 147.997 160.953  1.00  0.00     0.055 C 
BRANCH  10  11
ATOM     11  C   UNL     1     144.270 148.750 162.179  1.00  0.00    -0.020 C 
ATOM     12  C   UNL     1     145.324 149.589 162.233  1.00  0.00    -0.055 C 
ATOM     13  C   UNL     1     146.174 149.891 161.019  1.00  0.00     0.044 C 
BRANCH  12  14
ATOM     14  C   UNL     1     145.589 150.287 163.520  1.00  0.00    -0.005 C 
ATOM     15  C   UNL     1     145.501 149.697 164.712  1.00  0.00     0.009 C 
ENDBRANCH  12  14
ENDBRANCH  10  11
ENDBRANCH   2  10
TORSDOF 6
ENDMDL
MODEL 8
REMARK VINA RESULT:    -5.245      1.190      2.029
REMARK INTER + INTRA:          -8.386
REMARK INTER:                  -6.664
REMARK INTRA:                  -1.722
REMARK UNBOUND:                -1.302
REMARK SMILES C=CC(C)=CCC=C(C)CCC=C(C)C
REMARK SMILES IDX 8 1 7 2 9 3 10 4 11 5 12 6 14 7 13 8 15 9 6 10 5 11 3 12
REMARK SMILES IDX 4 13 2 14 1 15
REMARK H PARENT
REMARK Flexibility Score: inf
ROOT
ATOM      1  C   UNL     1     144.815 141.984 164.871  1.00  0.00    -0.077 C 
ATOM      2  C   UNL     1     143.542 142.439 164.889  1.00  0.00    -0.024 C 
ATOM      3  C   UNL     1     145.998 142.922 164.811  1.00  0.00     0.039 C 
ENDROOT
BRANCH   1   4
ATOM      4  C   UNL     1     145.060 140.491 164.913  1.00  0.00     0.034 C 
BRANCH   4   5
ATOM      5  C   UNL     1     144.649 139.833 163.590  1.00  0.00     0.032 C 
BRANCH   5   6
ATOM      6  C   UNL     1     145.352 140.486 162.426  1.00  0.00    -0.028 C 
ATOM      7  C   UNL     1     143.215 141.181 161.319  1.00  0.00     0.039 C 
ATOM      8  C   UNL     1     144.722 141.116 161.411  1.00  0.00    -0.080 C 
ATOM      9  C   UNL     1     145.560 141.756 160.334  1.00  0.00     0.039 C 
ENDBRANCH   5   6
ENDBRANCH   4   5
ENDBRANCH   1   4
BRANCH   2  10
ATOM     10  C   UNL     1     143.154 143.898 164.864  1.00  0.00     0.055 C 
BRANCH  10  11
ATOM     11  C   UNL     1     142.245 144.215 163.706  1.00  0.00    -0.020 C 
ATOM     12  C   UNL     1     142.655 144.611 162.485  1.00  0.00    -0.055 C 
ATOM     13  C   UNL     1     144.120 144.751 162.135  1.00  0.00     0.044 C 
BRANCH  12  14
ATOM     14  C   UNL     1     141.617 144.835 161.444  1.00  0.00    -0.005 C 
ATOM     15  C   UNL     1     140.469 145.476 161.669  1.00  0.00     0.009 C 
ENDBRANCH  12  14
ENDBRANCH  10  11
ENDBRANCH   2  10
TORSDOF 6
ENDMDL
MODEL 9
REMARK VINA RESULT:    -5.211      4.084      6.768
REMARK INTER + INTRA:          -8.341
REMARK INTER:                  -7.240
REMARK INTRA:                  -1.101
REMARK UNBOUND:                -1.302
REMARK SMILES C=CC(C)=CCC=C(C)CCC=C(C)C
REMARK SMILES IDX 8 1 7 2 9 3 10 4 11 5 12 6 14 7 13 8 15 9 6 10 5 11 3 12
REMARK SMILES IDX 4 13 2 14 1 15
REMARK H PARENT
REMARK Flexibility Score: inf
ROOT
ATOM      1  C   UNL     1     148.840 143.700 160.821  1.00  0.00    -0.077 C 
ATOM      2  C   UNL     1     147.622 143.532 161.385  1.00  0.00    -0.024 C 
ATOM      3  C   UNL     1     149.381 142.738 159.789  1.00  0.00     0.039 C 
ENDROOT
BRANCH   1   4
ATOM      4  C   UNL     1     149.682 144.886 161.235  1.00  0.00     0.034 C 
BRANCH   4   5
ATOM      5  C   UNL     1     149.524 145.172 162.733  1.00  0.00     0.032 C 
BRANCH   5   6
ATOM      6  C   UNL     1     150.306 144.176 163.553  1.00  0.00    -0.028 C 
ATOM      7  C   UNL     1     148.312 143.475 164.896  1.00  0.00     0.039 C 
ATOM      8  C   UNL     1     149.771 143.389 164.512  1.00  0.00    -0.080 C 
ATOM      9  C   UNL     1     150.670 142.412 165.223  1.00  0.00     0.039 C 
ENDBRANCH   5   6
ENDBRANCH   4   5
ENDBRANCH   1   4
BRANCH   2  10
ATOM     10  C   UNL     1     146.675 142.404 161.058  1.00  0.00     0.055 C 
BRANCH  10  11
ATOM     11  C   UNL     1     146.241 141.661 162.293  1.00  0.00    -0.020 C 
ATOM     12  C   UNL     1     145.186 140.824 162.364  1.00  0.00    -0.055 C 
ATOM     13  C   UNL     1     144.325 140.513 161.159  1.00  0.00     0.044 C 
BRANCH  12  14
ATOM     14  C   UNL     1     144.932 140.136 163.658  1.00  0.00    -0.005 C 
ATOM     15  C   UNL     1     145.067 140.725 164.847  1.00  0.00     0.009 C 
ENDBRANCH  12  14
ENDBRANCH  10  11
ENDBRANCH   2  10
TORSDOF 6
ENDMDL
