MODEL 1
REMARK VINA RESULT:    -3.404      0.000      0.000
REMARK INTER + INTRA:          -3.703
REMARK INTER:                  -3.703
REMARK INTRA:                   0.000
REMARK UNBOUND:                 0.000
REMARK SMILES [NH3+]CC(=O)[O-]
REMARK SMILES IDX 2 1 1 2 3 6 4 7 5 8
REMARK H PARENT 1 3 1 4 1 5
REMARK Flexibility Score: inf
ROOT
ATOM      1  C   UNL     1     168.066 169.221 171.273  1.00  0.00     0.312 C 
ENDROOT
BRANCH   1   2
ATOM      2  N   UNL     1     168.551 168.024 170.587  1.00  0.00    -0.353 N 
ATOM      3  H   UNL     1     168.123 167.960 169.635  1.00  0.00     0.344 HD
ATOM      4  H   UNL     1     169.593 168.055 170.506  1.00  0.00     0.344 HD
ATOM      5  H   UNL     1     168.277 167.180 171.140  1.00  0.00     0.344 HD
ENDBRANCH   1   2
BRANCH   1   6
ATOM      6  C   UNL     1     167.833 170.333 170.297  1.00  0.00     0.096 C 
ATOM      7  O   UNL     1     167.233 171.378 170.660  1.00  0.00    -0.544 OA
ATOM      8  O   UNL     1     168.233 170.192 168.974  1.00  0.00    -0.544 OA
ENDBRANCH   1   6
TORSDOF 2
ENDMDL
MODEL 2
REMARK VINA RESULT:    -3.354      2.033      2.291
REMARK INTER + INTRA:          -3.648
REMARK INTER:                  -3.648
REMARK INTRA:                   0.000
REMARK UNBOUND:                 0.000
REMARK SMILES [NH3+]CC(=O)[O-]
REMARK SMILES IDX 2 1 1 2 3 6 4 7 5 8
REMARK H PARENT 1 3 1 4 1 5
REMARK Flexibility Score: inf
ROOT
ATOM      1  C   UNL     1     169.236 169.762 171.191  1.00  0.00     0.312 C 
ENDROOT
BRANCH   1   2
ATOM      2  N   UNL     1     169.838 171.043 171.555  1.00  0.00    -0.353 N 
ATOM      3  H   UNL     1     169.341 171.823 171.067  1.00  0.00     0.344 HD
ATOM      4  H   UNL     1     169.786 171.182 172.590  1.00  0.00     0.344 HD
ATOM      5  H   UNL     1     170.842 171.044 171.263  1.00  0.00     0.344 HD
ENDBRANCH   1   2
BRANCH   1   6
ATOM      6  C   UNL     1     167.748 169.888 171.081  1.00  0.00     0.096 C 
ATOM      7  O   UNL     1     167.017 168.867 171.170  1.00  0.00    -0.544 OA
ATOM      8  O   UNL     1     167.172 171.127 170.830  1.00  0.00    -0.544 OA
ENDBRANCH   1   6
TORSDOF 2
ENDMDL
MODEL 3
REMARK VINA RESULT:    -3.288      1.425      1.549
REMARK INTER + INTRA:          -3.576
REMARK INTER:                  -3.576
REMARK INTRA:                   0.000
REMARK UNBOUND:                 0.000
REMARK SMILES [NH3+]CC(=O)[O-]
REMARK SMILES IDX 2 1 1 2 3 6 4 7 5 8
REMARK H PARENT 1 3 1 4 1 5
REMARK Flexibility Score: inf
ROOT
ATOM      1  C   UNL     1     168.093 169.605 169.808  1.00  0.00     0.312 C 
ENDROOT
BRANCH   1   2
ATOM      2  N   UNL     1     168.401 168.271 170.319  1.00  0.00    -0.353 N 
ATOM      3  H   UNL     1     167.524 167.705 170.393  1.00  0.00     0.344 HD
ATOM      4  H   UNL     1     169.079 167.791 169.684  1.00  0.00     0.344 HD
ATOM      5  H   UNL     1     168.829 168.360 171.268  1.00  0.00     0.344 HD
ENDBRANCH   1   2
BRANCH   1   6
ATOM      6  C   UNL     1     168.100 170.612 170.917  1.00  0.00     0.096 C 
ATOM      7  O   UNL     1     167.097 171.348 171.110  1.00  0.00    -0.544 OA
ATOM      8  O   UNL     1     169.234 170.772 171.704  1.00  0.00    -0.544 OA
ENDBRANCH   1   6
TORSDOF 2
ENDMDL
MODEL 4
REMARK VINA RESULT:    -3.210      2.483      2.781
REMARK INTER + INTRA:          -3.492
REMARK INTER:                  -3.492
REMARK INTRA:                   0.000
REMARK UNBOUND:                 0.000
REMARK SMILES [NH3+]CC(=O)[O-]
REMARK SMILES IDX 2 1 1 2 3 6 4 7 5 8
REMARK H PARENT 1 3 1 4 1 5
REMARK Flexibility Score: inf
ROOT
ATOM      1  C   UNL     1     167.389 170.063 170.562  1.00  0.00     0.312 C 
ENDROOT
BRANCH   1   2
ATOM      2  N   UNL     1     166.931 171.377 171.010  1.00  0.00    -0.353 N 
ATOM      3  H   UNL     1     167.308 172.121 170.378  1.00  0.00     0.344 HD
ATOM      4  H   UNL     1     165.886 171.411 171.013  1.00  0.00     0.344 HD
ATOM      5  H   UNL     1     167.280 171.547 171.980  1.00  0.00     0.344 HD
ENDBRANCH   1   2
BRANCH   1   6
ATOM      6  C   UNL     1     168.709 169.723 171.183  1.00  0.00     0.096 C 
ATOM      7  O   UNL     1     169.045 168.519 171.337  1.00  0.00    -0.544 OA
ATOM      8  O   UNL     1     169.545 170.734 171.639  1.00  0.00    -0.544 OA
ENDBRANCH   1   6
TORSDOF 2
ENDMDL
MODEL 5
REMARK VINA RESULT:    -3.185      2.518      2.652
REMARK INTER + INTRA:          -3.464
REMARK INTER:                  -3.464
REMARK INTRA:                   0.000
REMARK UNBOUND:                 0.000
REMARK SMILES [NH3+]CC(=O)[O-]
REMARK SMILES IDX 2 1 1 2 3 6 4 7 5 8
REMARK H PARENT 1 3 1 4 1 5
REMARK Flexibility Score: inf
ROOT
ATOM      1  C   UNL     1     167.801 170.556 170.258  1.00  0.00     0.312 C 
ENDROOT
BRANCH   1   2
ATOM      2  N   UNL     1     166.889 171.407 171.020  1.00  0.00    -0.353 N 
ATOM      3  H   UNL     1     167.244 172.391 171.030  1.00  0.00     0.344 HD
ATOM      4  H   UNL     1     165.934 171.380 170.595  1.00  0.00     0.344 HD
ATOM      5  H   UNL     1     166.835 171.056 172.002  1.00  0.00     0.344 HD
ENDBRANCH   1   2
BRANCH   1   6
ATOM      6  C   UNL     1     168.877 170.007 171.144  1.00  0.00     0.096 C 
ATOM      7  O   UNL     1     169.692 170.785 171.706  1.00  0.00    -0.544 OA
ATOM      8  O   UNL     1     169.011 168.634 171.307  1.00  0.00    -0.544 OA
ENDBRANCH   1   6
TORSDOF 2
ENDMDL
MODEL 6
REMARK VINA RESULT:    -2.618      9.473      9.604
REMARK INTER + INTRA:          -2.848
REMARK INTER:                  -2.848
REMARK INTRA:                   0.000
REMARK UNBOUND:                 0.000
REMARK SMILES [NH3+]CC(=O)[O-]
REMARK SMILES IDX 2 1 1 2 3 6 4 7 5 8
REMARK H PARENT 1 3 1 4 1 5
REMARK Flexibility Score: inf
ROOT
ATOM      1  C   UNL     1     175.966 173.796 168.328  1.00  0.00     0.312 C 
ENDROOT
BRANCH   1   2
ATOM      2  N   UNL     1     174.861 174.576 167.776  1.00  0.00    -0.353 N 
ATOM      3  H   UNL     1     175.054 175.598 167.886  1.00  0.00     0.344 HD
ATOM      4  H   UNL     1     174.731 174.347 166.764  1.00  0.00     0.344 HD
ATOM      5  H   UNL     1     173.984 174.339 168.293  1.00  0.00     0.344 HD
ENDBRANCH   1   2
BRANCH   1   6
ATOM      6  C   UNL     1     176.382 174.338 169.662  1.00  0.00     0.096 C 
ATOM      7  O   UNL     1     176.013 175.487 170.021  1.00  0.00    -0.544 OA
ATOM      8  O   UNL     1     177.220 173.595 170.484  1.00  0.00    -0.544 OA
ENDBRANCH   1   6
TORSDOF 2
ENDMDL
MODEL 7
REMARK VINA RESULT:    -2.588      9.073      9.088
REMARK INTER + INTRA:          -2.815
REMARK INTER:                  -2.815
REMARK INTRA:                   0.000
REMARK UNBOUND:                 0.000
REMARK SMILES [NH3+]CC(=O)[O-]
REMARK SMILES IDX 2 1 1 2 3 6 4 7 5 8
REMARK H PARENT 1 3 1 4 1 5
REMARK Flexibility Score: inf
ROOT
ATOM      1  C   UNL     1     159.934 165.407 168.592  1.00  0.00     0.312 C 
ENDROOT
BRANCH   1   2
ATOM      2  N   UNL     1     159.503 166.193 169.747  1.00  0.00    -0.353 N 
ATOM      3  H   UNL     1     158.727 165.700 170.246  1.00  0.00     0.344 HD
ATOM      4  H   UNL     1     160.307 166.340 170.400  1.00  0.00     0.344 HD
ATOM      5  H   UNL     1     159.159 167.123 169.417  1.00  0.00     0.344 HD
ENDBRANCH   1   2
BRANCH   1   6
ATOM      6  C   UNL     1     160.283 166.303 167.443  1.00  0.00     0.096 C 
ATOM      7  O   UNL     1     159.473 167.188 167.062  1.00  0.00    -0.544 OA
ATOM      8  O   UNL     1     161.479 166.125 166.761  1.00  0.00    -0.544 OA
ENDBRANCH   1   6
TORSDOF 2
ENDMDL
MODEL 8
REMARK VINA RESULT:    -2.575      9.111      9.201
REMARK INTER + INTRA:          -2.801
REMARK INTER:                  -2.801
REMARK INTRA:                   0.000
REMARK UNBOUND:                 0.000
REMARK SMILES [NH3+]CC(=O)[O-]
REMARK SMILES IDX 2 1 1 2 3 6 4 7 5 8
REMARK H PARENT 1 3 1 4 1 5
REMARK Flexibility Score: inf
ROOT
ATOM      1  C   UNL     1     159.931 165.403 168.586  1.00  0.00     0.312 C 
ENDROOT
BRANCH   1   2
ATOM      2  N   UNL     1     159.512 166.192 169.742  1.00  0.00    -0.353 N 
ATOM      3  H   UNL     1     158.907 165.614 170.370  1.00  0.00     0.344 HD
ATOM      4  H   UNL     1     160.350 166.529 170.269  1.00  0.00     0.344 HD
ATOM      5  H   UNL     1     158.965 167.019 169.411  1.00  0.00     0.344 HD
ENDBRANCH   1   2
BRANCH   1   6
ATOM      6  C   UNL     1     160.249 166.293 167.424  1.00  0.00     0.096 C 
ATOM      7  O   UNL     1     161.345 166.173 166.816  1.00  0.00    -0.544 OA
ATOM      8  O   UNL     1     159.357 167.289 167.046  1.00  0.00    -0.544 OA
ENDBRANCH   1   6
TORSDOF 2
ENDMDL
MODEL 9
REMARK VINA RESULT:    -2.532      8.326      8.485
REMARK INTER + INTRA:          -2.754
REMARK INTER:                  -2.754
REMARK INTRA:                   0.000
REMARK UNBOUND:                 0.000
REMARK SMILES [NH3+]CC(=O)[O-]
REMARK SMILES IDX 2 1 1 2 3 6 4 7 5 8
REMARK H PARENT 1 3 1 4 1 5
REMARK Flexibility Score: inf
ROOT
ATOM      1  C   UNL     1     164.889 176.357 166.599  1.00  0.00     0.312 C 
ENDROOT
BRANCH   1   2
ATOM      2  N   UNL     1     166.075 175.503 166.610  1.00  0.00    -0.353 N 
ATOM      3  H   UNL     1     166.760 175.832 165.891  1.00  0.00     0.344 HD
ATOM      4  H   UNL     1     166.520 175.520 167.556  1.00  0.00     0.344 HD
ATOM      5  H   UNL     1     165.792 174.522 166.385  1.00  0.00     0.344 HD
ENDBRANCH   1   2
BRANCH   1   6
ATOM      6  C   UNL     1     165.106 177.574 167.445  1.00  0.00     0.096 C 
ATOM      7  O   UNL     1     164.367 177.792 168.441  1.00  0.00    -0.544 OA
ATOM      8  O   UNL     1     166.089 178.493 167.103  1.00  0.00    -0.544 OA
ENDBRANCH   1   6
TORSDOF 2
ENDMDL
