MODEL 1
REMARK VINA RESULT:    -4.040      0.000      0.000
REMARK INTER + INTRA:          -4.411
REMARK INTER:                  -4.277
REMARK INTRA:                  -0.135
REMARK UNBOUND:                -0.135
REMARK SMILES CC1=CCC(C(C)C)=CC1
REMARK SMILES IDX 1 1 2 2 3 3 4 4 5 5 9 6 10 7 6 8 7 9 8 10
REMARK H PARENT
REMARK Flexibility Score: inf
ROOT
ATOM      1  C   UNL     1     140.875 137.877 136.281  1.00  0.00     0.039 C 
ATOM      2  C   UNL     1     139.555 138.596 136.329  1.00  0.00    -0.073 C 
ATOM      3  C   UNL     1     138.557 138.114 137.093  1.00  0.00    -0.023 C 
ATOM      4  C   UNL     1     137.241 138.843 137.197  1.00  0.00     0.058 C 
ATOM      5  C   UNL     1     136.910 139.585 135.916  1.00  0.00    -0.068 C 
ATOM      6  C   UNL     1     137.917 140.067 135.152  1.00  0.00    -0.023 C 
ATOM      7  C   UNL     1     139.358 139.884 135.559  1.00  0.00     0.057 C 
ENDROOT
BRANCH   5   8
ATOM      8  C   UNL     1     135.455 139.806 135.537  1.00  0.00     0.009 C 
ATOM      9  C   UNL     1     135.311 140.106 134.040  1.00  0.00     0.012 C 
ATOM     10  C   UNL     1     134.818 140.913 136.387  1.00  0.00     0.012 C 
ENDBRANCH   5   8
TORSDOF 1
ENDMDL
MODEL 2
REMARK VINA RESULT:    -4.027      6.273      7.863
REMARK INTER + INTRA:          -4.397
REMARK INTER:                  -4.261
REMARK INTRA:                  -0.135
REMARK UNBOUND:                -0.135
REMARK SMILES CC1=CCC(C(C)C)=CC1
REMARK SMILES IDX 1 1 2 2 3 3 4 4 5 5 9 6 10 7 6 8 7 9 8 10
REMARK H PARENT
REMARK Flexibility Score: inf
ROOT
ATOM      1  C   UNL     1     131.819 134.778 136.486  1.00  0.00     0.039 C 
ATOM      2  C   UNL     1     133.133 134.048 136.469  1.00  0.00    -0.073 C 
ATOM      3  C   UNL     1     134.153 134.486 137.229  1.00  0.00    -0.023 C 
ATOM      4  C   UNL     1     135.465 133.744 137.268  1.00  0.00     0.058 C 
ATOM      5  C   UNL     1     135.758 133.057 135.948  1.00  0.00    -0.068 C 
ATOM      6  C   UNL     1     134.729 132.618 135.188  1.00  0.00    -0.023 C 
ATOM      7  C   UNL     1     133.300 132.794 135.637  1.00  0.00     0.057 C 
ENDROOT
BRANCH   5   8
ATOM      8  C   UNL     1     137.202 132.841 135.523  1.00  0.00     0.009 C 
ATOM      9  C   UNL     1     137.298 132.513 134.028  1.00  0.00     0.012 C 
ATOM     10  C   UNL     1     137.878 131.757 136.372  1.00  0.00     0.012 C 
ENDBRANCH   5   8
TORSDOF 1
ENDMDL
MODEL 3
REMARK VINA RESULT:    -4.017      3.849      5.537
REMARK INTER + INTRA:          -4.387
REMARK INTER:                  -4.252
REMARK INTRA:                  -0.135
REMARK UNBOUND:                -0.135
REMARK SMILES CC1=CCC(C(C)C)=CC1
REMARK SMILES IDX 1 1 2 2 3 3 4 4 5 5 9 6 10 7 6 8 7 9 8 10
REMARK H PARENT
REMARK Flexibility Score: inf
ROOT
ATOM      1  C   UNL     1     137.885 131.842 136.462  1.00  0.00     0.039 C 
ATOM      2  C   UNL     1     138.631 133.147 136.418  1.00  0.00    -0.073 C 
ATOM      3  C   UNL     1     138.272 134.152 137.238  1.00  0.00    -0.023 C 
ATOM      4  C   UNL     1     139.035 135.453 137.248  1.00  0.00     0.058 C 
ATOM      5  C   UNL     1     139.613 135.772 135.882  1.00  0.00    -0.068 C 
ATOM      6  C   UNL     1     139.972 134.758 135.062  1.00  0.00    -0.023 C 
ATOM      7  C   UNL     1     139.813 133.320 135.488  1.00  0.00     0.057 C 
ENDROOT
BRANCH   5   8
ATOM      8  C   UNL     1     139.814 137.224 135.478  1.00  0.00     0.009 C 
ATOM      9  C   UNL     1     140.099 137.348 133.976  1.00  0.00     0.012 C 
ATOM     10  C   UNL     1     140.919 137.888 136.308  1.00  0.00     0.012 C 
ENDBRANCH   5   8
TORSDOF 1
ENDMDL
MODEL 4
REMARK VINA RESULT:    -4.011      3.844      5.542
REMARK INTER + INTRA:          -4.380
REMARK INTER:                  -4.245
REMARK INTRA:                  -0.135
REMARK UNBOUND:                -0.135
REMARK SMILES CC1=CCC(C(C)C)=CC1
REMARK SMILES IDX 1 1 2 2 3 3 4 4 5 5 9 6 10 7 6 8 7 9 8 10
REMARK H PARENT
REMARK Flexibility Score: inf
ROOT
ATOM      1  C   UNL     1     134.824 140.848 136.427  1.00  0.00     0.039 C 
ATOM      2  C   UNL     1     134.079 139.542 136.409  1.00  0.00    -0.073 C 
ATOM      3  C   UNL     1     134.493 138.523 137.184  1.00  0.00    -0.023 C 
ATOM      4  C   UNL     1     133.735 137.220 137.221  1.00  0.00     0.058 C 
ATOM      5  C   UNL     1     133.068 136.924 135.891  1.00  0.00    -0.068 C 
ATOM      6  C   UNL     1     132.652 137.952 135.116  1.00  0.00    -0.023 C 
ATOM      7  C   UNL     1     132.837 139.382 135.558  1.00  0.00     0.057 C 
ENDROOT
BRANCH   5   8
ATOM      8  C   UNL     1     132.843 135.479 135.475  1.00  0.00     0.009 C 
ATOM      9  C   UNL     1     132.505 135.378 133.982  1.00  0.00     0.012 C 
ATOM     10  C   UNL     1     131.761 134.811 136.334  1.00  0.00     0.012 C 
ENDBRANCH   5   8
TORSDOF 1
ENDMDL
MODEL 5
REMARK VINA RESULT:    -3.994      1.906      2.875
REMARK INTER + INTRA:          -4.362
REMARK INTER:                  -4.204
REMARK INTRA:                  -0.158
REMARK UNBOUND:                -0.135
REMARK SMILES CC1=CCC(C(C)C)=CC1
REMARK SMILES IDX 1 1 2 2 3 3 4 4 5 5 9 6 10 7 6 8 7 9 8 10
REMARK H PARENT
REMARK Flexibility Score: inf
ROOT
ATOM      1  C   UNL     1     140.935 135.249 134.328  1.00  0.00     0.039 C 
ATOM      2  C   UNL     1     140.445 136.662 134.485  1.00  0.00    -0.073 C 
ATOM      3  C   UNL     1     140.470 137.250 135.695  1.00  0.00    -0.023 C 
ATOM      4  C   UNL     1     140.030 138.681 135.869  1.00  0.00     0.058 C 
ATOM      5  C   UNL     1     138.947 139.059 134.877  1.00  0.00    -0.068 C 
ATOM      6  C   UNL     1     138.928 138.465 133.662  1.00  0.00    -0.023 C 
ATOM      7  C   UNL     1     139.969 137.443 133.279  1.00  0.00     0.057 C 
ENDROOT
BRANCH   5   8
ATOM      8  C   UNL     1     137.929 140.124 135.252  1.00  0.00     0.009 C 
ATOM      9  C   UNL     1     136.774 139.525 136.066  1.00  0.00     0.012 C 
ATOM     10  C   UNL     1     137.408 140.862 134.013  1.00  0.00     0.012 C 
ENDBRANCH   5   8
TORSDOF 1
ENDMDL
MODEL 6
REMARK VINA RESULT:    -3.976      5.517      7.179
REMARK INTER + INTRA:          -4.343
REMARK INTER:                  -4.185
REMARK INTRA:                  -0.158
REMARK UNBOUND:                -0.135
REMARK SMILES CC1=CCC(C(C)C)=CC1
REMARK SMILES IDX 1 1 2 2 3 3 4 4 5 5 9 6 10 7 6 8 7 9 8 10
REMARK H PARENT
REMARK Flexibility Score: inf
ROOT
ATOM      1  C   UNL     1     135.253 131.744 134.294  1.00  0.00     0.039 C 
ATOM      2  C   UNL     1     136.672 132.222 134.432  1.00  0.00    -0.073 C 
ATOM      3  C   UNL     1     137.280 132.178 135.632  1.00  0.00    -0.023 C 
ATOM      4  C   UNL     1     138.718 132.605 135.787  1.00  0.00     0.058 C 
ATOM      5  C   UNL     1     139.085 133.700 134.802  1.00  0.00    -0.068 C 
ATOM      6  C   UNL     1     138.471 133.739 133.598  1.00  0.00    -0.023 C 
ATOM      7  C   UNL     1     137.435 132.710 133.219  1.00  0.00     0.057 C 
ENDROOT
BRANCH   5   8
ATOM      8  C   UNL     1     140.163 134.705 135.173  1.00  0.00     0.009 C 
ATOM      9  C   UNL     1     139.587 135.852 136.013  1.00  0.00     0.012 C 
ATOM     10  C   UNL     1     140.883 135.238 133.928  1.00  0.00     0.012 C 
ENDBRANCH   5   8
TORSDOF 1
ENDMDL
MODEL 7
REMARK VINA RESULT:    -3.951      4.091      5.762
REMARK INTER + INTRA:          -4.317
REMARK INTER:                  -4.172
REMARK INTRA:                  -0.145
REMARK UNBOUND:                -0.135
REMARK SMILES CC1=CCC(C(C)C)=CC1
REMARK SMILES IDX 1 1 2 2 3 3 4 4 5 5 9 6 10 7 6 8 7 9 8 10
REMARK H PARENT
REMARK Flexibility Score: inf
ROOT
ATOM      1  C   UNL     1     140.935 137.902 136.396  1.00  0.00     0.039 C 
ATOM      2  C   UNL     1     140.195 136.708 135.861  1.00  0.00    -0.073 C 
ATOM      3  C   UNL     1     139.109 136.246 136.509  1.00  0.00    -0.023 C 
ATOM      4  C   UNL     1     138.320 135.081 135.967  1.00  0.00     0.058 C 
ATOM      5  C   UNL     1     139.206 134.112 135.208  1.00  0.00    -0.068 C 
ATOM      6  C   UNL     1     140.296 134.581 134.557  1.00  0.00    -0.023 C 
ATOM      7  C   UNL     1     140.636 136.050 134.571  1.00  0.00     0.057 C 
ENDROOT
BRANCH   5   8
ATOM      8  C   UNL     1     138.831 132.639 135.160  1.00  0.00     0.009 C 
ATOM      9  C   UNL     1     137.902 132.342 133.975  1.00  0.00     0.012 C 
ATOM     10  C   UNL     1     138.206 132.178 136.482  1.00  0.00     0.012 C 
ENDBRANCH   5   8
TORSDOF 1
ENDMDL
MODEL 8
REMARK VINA RESULT:    -3.934      6.120      7.860
REMARK INTER + INTRA:          -4.299
REMARK INTER:                  -4.137
REMARK INTRA:                  -0.162
REMARK UNBOUND:                -0.135
REMARK SMILES CC1=CCC(C(C)C)=CC1
REMARK SMILES IDX 1 1 2 2 3 3 4 4 5 5 9 6 10 7 6 8 7 9 8 10
REMARK H PARENT
REMARK Flexibility Score: inf
ROOT
ATOM      1  C   UNL     1     131.802 137.484 134.372  1.00  0.00     0.039 C 
ATOM      2  C   UNL     1     132.240 136.050 134.498  1.00  0.00    -0.073 C 
ATOM      3  C   UNL     1     132.238 135.452 135.703  1.00  0.00    -0.023 C 
ATOM      4  C   UNL     1     132.625 134.002 135.849  1.00  0.00     0.058 C 
ATOM      5  C   UNL     1     133.653 133.591 134.812  1.00  0.00    -0.068 C 
ATOM      6  C   UNL     1     133.650 134.195 133.602  1.00  0.00    -0.023 C 
ATOM      7  C   UNL     1     132.637 135.262 133.268  1.00  0.00     0.057 C 
ENDROOT
BRANCH   5   8
ATOM      8  C   UNL     1     134.640 132.482 135.140  1.00  0.00     0.009 C 
ATOM      9  C   UNL     1     135.770 132.994 136.043  1.00  0.00     0.012 C 
ATOM     10  C   UNL     1     135.199 131.836 133.866  1.00  0.00     0.012 C 
ENDBRANCH   5   8
TORSDOF 1
ENDMDL
MODEL 9
REMARK VINA RESULT:    -3.933      2.739      4.302
REMARK INTER + INTRA:          -4.298
REMARK INTER:                  -4.137
REMARK INTRA:                  -0.161
REMARK UNBOUND:                -0.135
REMARK SMILES CC1=CCC(C(C)C)=CC1
REMARK SMILES IDX 1 1 2 2 3 3 4 4 5 5 9 6 10 7 6 8 7 9 8 10
REMARK H PARENT
REMARK Flexibility Score: inf
ROOT
ATOM      1  C   UNL     1     137.475 140.901 134.355  1.00  0.00     0.039 C 
ATOM      2  C   UNL     1     136.044 140.458 134.487  1.00  0.00    -0.073 C 
ATOM      3  C   UNL     1     135.455 140.447 135.697  1.00  0.00    -0.023 C 
ATOM      4  C   UNL     1     134.007 140.054 135.849  1.00  0.00     0.058 C 
ATOM      5  C   UNL     1     133.592 139.033 134.806  1.00  0.00    -0.068 C 
ATOM      6  C   UNL     1     134.187 139.049 133.592  1.00  0.00    -0.023 C 
ATOM      7  C   UNL     1     135.249 140.068 133.260  1.00  0.00     0.057 C 
ENDROOT
BRANCH   5   8
ATOM      8  C   UNL     1     132.489 138.040 135.133  1.00  0.00     0.009 C 
ATOM      9  C   UNL     1     133.010 136.905 136.024  1.00  0.00     0.012 C 
ATOM     10  C   UNL     1     131.837 137.488 133.858  1.00  0.00     0.012 C 
ENDBRANCH   5   8
TORSDOF 1
ENDMDL
