MODEL 1
REMARK VINA RESULT:    -6.729      0.000      0.000
REMARK INTER + INTRA:         -11.694
REMARK INTER:                 -10.269
REMARK INTRA:                  -1.425
REMARK UNBOUND:                -1.425
REMARK SMILES CC(=O)CCC=C(C)CCC=C(C)CCC=C(C)C
REMARK SMILES IDX 10 1 11 2 12 3 13 4 14 5 15 6 16 7 18 8 17 9 19 10 9 11 7 12
REMARK SMILES IDX 6 13 8 14 5 15 4 16 2 17 3 18 1 19
REMARK H PARENT
REMARK Flexibility Score: inf
ROOT
ATOM      1  C   UNL     1       2.417  14.297  47.155  1.00  0.00     0.032 C 
ENDROOT
BRANCH   1   2
ATOM      2  C   UNL     1       3.875  14.365  46.778  1.00  0.00    -0.028 C 
ATOM      3  C   UNL     1       4.842  13.559  47.277  1.00  0.00    -0.077 C 
ATOM      4  C   UNL     1       6.263  13.790  46.826  1.00  0.00     0.039 C 
BRANCH   3   5
ATOM      5  C   UNL     1       4.555  12.420  48.240  1.00  0.00     0.034 C 
BRANCH   5   6
ATOM      6  C   UNL     1       4.056  11.162  47.515  1.00  0.00     0.032 C 
BRANCH   6   7
ATOM      7  C   UNL     1       2.547  11.096  47.500  1.00  0.00    -0.028 C 
ATOM      8  C   UNL     1       0.311  10.543  46.643  1.00  0.00     0.039 C 
ATOM      9  C   UNL     1       1.807  10.616  46.476  1.00  0.00    -0.080 C 
ATOM     10  C   UNL     1       2.432  10.151  45.182  1.00  0.00     0.039 C 
ENDBRANCH   6   7
ENDBRANCH   5   6
ENDBRANCH   3   5
ENDBRANCH   1   2
BRANCH   1  11
ATOM     11  C   UNL     1       1.534  14.248  45.903  1.00  0.00     0.034 C 
BRANCH  11  12
ATOM     12  C   UNL     1       0.157  14.799  46.198  1.00  0.00    -0.077 C 
ATOM     13  C   UNL     1      -0.885  14.411  45.429  1.00  0.00    -0.028 C 
ATOM     14  C   UNL     1      -0.015  15.779  47.336  1.00  0.00     0.039 C 
BRANCH  13  15
ATOM     15  C   UNL     1      -2.315  14.835  45.651  1.00  0.00     0.035 C 
BRANCH  15  16
ATOM     16  C   UNL     1      -2.718  15.920  44.646  1.00  0.00     0.079 C 
BRANCH  16  17
ATOM     17  C   UNL     1      -2.499  17.290  45.225  1.00  0.00     0.130 C 
ATOM     18  O   UNL     1      -3.109  17.630  46.229  1.00  0.00    -0.300 OA
ATOM     19  C   UNL     1      -1.511  18.229  44.602  1.00  0.00     0.087 C 
ENDBRANCH  16  17
ENDBRANCH  15  16
ENDBRANCH  13  15
ENDBRANCH  11  12
ENDBRANCH   1  11
TORSDOF 9
ENDMDL
MODEL 2
REMARK VINA RESULT:    -6.684      2.607      7.167
REMARK INTER + INTRA:         -11.625
REMARK INTER:                 -10.285
REMARK INTRA:                  -1.340
REMARK UNBOUND:                -1.425
REMARK SMILES CC(=O)CCC=C(C)CCC=C(C)CCC=C(C)C
REMARK SMILES IDX 10 1 11 2 12 3 13 4 14 5 15 6 16 7 18 8 17 9 19 10 9 11 7 12
REMARK SMILES IDX 6 13 8 14 5 15 4 16 2 17 3 18 1 19
REMARK H PARENT
REMARK Flexibility Score: inf
ROOT
ATOM      1  C   UNL     1      -0.263  10.977  46.872  1.00  0.00     0.032 C 
ENDROOT
BRANCH   1   2
ATOM      2  C   UNL     1      -1.428  11.657  46.199  1.00  0.00    -0.028 C 
ATOM      3  C   UNL     1      -1.428  12.936  45.758  1.00  0.00    -0.077 C 
ATOM      4  C   UNL     1      -2.695  13.477  45.146  1.00  0.00     0.039 C 
BRANCH   3   5
ATOM      5  C   UNL     1      -0.205  13.834  45.823  1.00  0.00     0.034 C 
BRANCH   5   6
ATOM      6  C   UNL     1      -0.476  15.124  46.610  1.00  0.00     0.032 C 
BRANCH   6   7
ATOM      7  C   UNL     1      -0.417  16.339  45.713  1.00  0.00    -0.028 C 
ATOM      8  C   UNL     1      -1.196  18.415  44.655  1.00  0.00     0.039 C 
ATOM      9  C   UNL     1      -1.437  17.204  45.520  1.00  0.00    -0.080 C 
ATOM     10  C   UNL     1      -2.795  16.996  46.143  1.00  0.00     0.039 C 
ENDBRANCH   6   7
ENDBRANCH   5   6
ENDBRANCH   3   5
ENDBRANCH   1   2
BRANCH   1  11
ATOM     11  C   UNL     1       0.740  10.461  45.833  1.00  0.00     0.034 C 
BRANCH  11  12
ATOM     12  C   UNL     1       2.157  10.786  46.251  1.00  0.00    -0.077 C 
ATOM     13  C   UNL     1       2.360  11.664  47.259  1.00  0.00    -0.028 C 
ATOM     14  C   UNL     1       3.307  10.133  45.520  1.00  0.00     0.039 C 
BRANCH  13  15
ATOM     15  C   UNL     1       3.714  12.030  47.812  1.00  0.00     0.035 C 
BRANCH  15  16
ATOM     16  C   UNL     1       4.175  13.383  47.260  1.00  0.00     0.079 C 
BRANCH  16  17
ATOM     17  C   UNL     1       5.627  13.620  47.571  1.00  0.00     0.130 C 
ATOM     18  O   UNL     1       6.021  13.540  48.727  1.00  0.00    -0.300 OA
ATOM     19  C   UNL     1       6.601  13.915  46.472  1.00  0.00     0.087 C 
ENDBRANCH  16  17
ENDBRANCH  15  16
ENDBRANCH  13  15
ENDBRANCH  11  12
ENDBRANCH   1  11
TORSDOF 9
ENDMDL
MODEL 3
REMARK VINA RESULT:    -6.642      2.846      7.378
REMARK INTER + INTRA:         -11.562
REMARK INTER:                 -10.632
REMARK INTRA:                  -0.930
REMARK UNBOUND:                -1.425
REMARK SMILES CC(=O)CCC=C(C)CCC=C(C)CCC=C(C)C
REMARK SMILES IDX 10 1 11 2 12 3 13 4 14 5 15 6 16 7 18 8 17 9 19 10 9 11 7 12
REMARK SMILES IDX 6 13 8 14 5 15 4 16 2 17 3 18 1 19
REMARK H PARENT
REMARK Flexibility Score: inf
ROOT
ATOM      1  C   UNL     1       0.914  11.655  45.872  1.00  0.00     0.032 C 
ENDROOT
BRANCH   1   2
ATOM      2  C   UNL     1      -0.471  11.192  46.248  1.00  0.00    -0.028 C 
ATOM      3  C   UNL     1      -1.614  11.857  45.961  1.00  0.00    -0.077 C 
ATOM      4  C   UNL     1      -2.917  11.276  46.451  1.00  0.00     0.039 C 
BRANCH   3   5
ATOM      5  C   UNL     1      -1.644  13.137  45.145  1.00  0.00     0.034 C 
BRANCH   5   6
ATOM      6  C   UNL     1      -2.525  14.215  45.792  1.00  0.00     0.032 C 
BRANCH   6   7
ATOM      7  C   UNL     1      -2.108  15.601  45.359  1.00  0.00    -0.028 C 
ATOM      8  C   UNL     1      -0.749  17.648  45.311  1.00  0.00     0.039 C 
ATOM      9  C   UNL     1      -1.094  16.307  45.908  1.00  0.00    -0.080 C 
ATOM     10  C   UNL     1      -0.304  15.794  47.086  1.00  0.00     0.039 C 
ENDBRANCH   6   7
ENDBRANCH   5   6
ENDBRANCH   3   5
ENDBRANCH   1   2
BRANCH   1  11
ATOM     11  C   UNL     1       1.969  10.641  46.329  1.00  0.00     0.034 C 
BRANCH  11  12
ATOM     12  C   UNL     1       2.888  11.255  47.361  1.00  0.00    -0.077 C 
ATOM     13  C   UNL     1       4.024  11.863  46.951  1.00  0.00    -0.028 C 
ATOM     14  C   UNL     1       2.520  11.160  48.824  1.00  0.00     0.039 C 
BRANCH  13  15
ATOM     15  C   UNL     1       4.996  12.565  47.867  1.00  0.00     0.035 C 
BRANCH  15  16
ATOM     16  C   UNL     1       5.373  13.938  47.301  1.00  0.00     0.079 C 
BRANCH  16  17
ATOM     17  C   UNL     1       6.774  13.921  46.753  1.00  0.00     0.130 C 
ATOM     18  O   UNL     1       6.963  13.654  45.574  1.00  0.00    -0.300 OA
ATOM     19  C   UNL     1       7.937  14.267  47.633  1.00  0.00     0.087 C 
ENDBRANCH  16  17
ENDBRANCH  15  16
ENDBRANCH  13  15
ENDBRANCH  11  12
ENDBRANCH   1  11
TORSDOF 9
ENDMDL
MODEL 4
REMARK VINA RESULT:    -6.577      1.450      3.794
REMARK INTER + INTRA:         -11.463
REMARK INTER:                 -10.211
REMARK INTRA:                  -1.251
REMARK UNBOUND:                -1.425
REMARK SMILES CC(=O)CCC=C(C)CCC=C(C)CCC=C(C)C
REMARK SMILES IDX 10 1 11 2 12 3 13 4 14 5 15 6 16 7 18 8 17 9 19 10 9 11 7 12
REMARK SMILES IDX 6 13 8 14 5 15 4 16 2 17 3 18 1 19
REMARK H PARENT
REMARK Flexibility Score: inf
ROOT
ATOM      1  C   UNL     1       1.301  10.902  46.087  1.00  0.00     0.032 C 
ENDROOT
BRANCH   1   2
ATOM      2  C   UNL     1       1.813  10.897  47.505  1.00  0.00    -0.028 C 
ATOM      3  C   UNL     1       3.045  11.308  47.884  1.00  0.00    -0.077 C 
ATOM      4  C   UNL     1       3.416  11.195  49.341  1.00  0.00     0.039 C 
BRANCH   3   5
ATOM      5  C   UNL     1       4.053  11.903  46.916  1.00  0.00     0.034 C 
BRANCH   5   6
ATOM      6  C   UNL     1       4.263  13.406  47.149  1.00  0.00     0.032 C 
BRANCH   6   7
ATOM      7  C   UNL     1       5.619  13.685  47.756  1.00  0.00    -0.028 C 
ATOM      8  C   UNL     1       8.013  14.236  47.798  1.00  0.00     0.039 C 
ATOM      9  C   UNL     1       6.752  13.889  47.048  1.00  0.00    -0.080 C 
ATOM     10  C   UNL     1       6.789  13.783  45.543  1.00  0.00     0.039 C 
ENDBRANCH   6   7
ENDBRANCH   5   6
ENDBRANCH   3   5
ENDBRANCH   1   2
BRANCH   1  11
ATOM     11  C   UNL     1      -0.176  11.313  46.044  1.00  0.00     0.034 C 
BRANCH  11  12
ATOM     12  C   UNL     1      -0.324  12.721  45.514  1.00  0.00    -0.077 C 
ATOM     13  C   UNL     1      -1.559  13.188  45.224  1.00  0.00    -0.028 C 
ATOM     14  C   UNL     1       0.914  13.562  45.308  1.00  0.00     0.039 C 
BRANCH  13  15
ATOM     15  C   UNL     1      -1.852  14.588  44.746  1.00  0.00     0.035 C 
BRANCH  15  16
ATOM     16  C   UNL     1      -2.163  15.508  45.931  1.00  0.00     0.079 C 
BRANCH  16  17
ATOM     17  C   UNL     1      -1.031  16.469  46.170  1.00  0.00     0.130 C 
ATOM     18  O   UNL     1      -0.289  16.308  47.129  1.00  0.00    -0.300 OA
ATOM     19  C   UNL     1      -0.782  17.601  45.220  1.00  0.00     0.087 C 
ENDBRANCH  16  17
ENDBRANCH  15  16
ENDBRANCH  13  15
ENDBRANCH  11  12
ENDBRANCH   1  11
TORSDOF 9
ENDMDL
MODEL 5
REMARK VINA RESULT:    -6.333      2.433      4.866
REMARK INTER + INTRA:         -11.091
REMARK INTER:                  -9.692
REMARK INTRA:                  -1.399
REMARK UNBOUND:                -1.425
REMARK SMILES CC(=O)CCC=C(C)CCC=C(C)CCC=C(C)C
REMARK SMILES IDX 10 1 11 2 12 3 13 4 14 5 15 6 16 7 18 8 17 9 19 10 9 11 7 12
REMARK SMILES IDX 6 13 8 14 5 15 4 16 2 17 3 18 1 19
REMARK H PARENT
REMARK Flexibility Score: inf
ROOT
ATOM      1  C   UNL     1       3.708  11.413  48.300  1.00  0.00     0.032 C 
ENDROOT
BRANCH   1   2
ATOM      2  C   UNL     1       4.938  12.208  48.659  1.00  0.00    -0.028 C 
ATOM      3  C   UNL     1       5.339  13.338  48.033  1.00  0.00    -0.077 C 
ATOM      4  C   UNL     1       6.622  13.987  48.489  1.00  0.00     0.039 C 
BRANCH   3   5
ATOM      5  C   UNL     1       4.543  13.994  46.918  1.00  0.00     0.034 C 
BRANCH   5   6
ATOM      6  C   UNL     1       3.165  14.473  47.396  1.00  0.00     0.032 C 
BRANCH   6   7
ATOM      7  C   UNL     1       2.107  14.249  46.340  1.00  0.00    -0.028 C 
ATOM      8  C   UNL     1      -0.050  14.531  45.196  1.00  0.00     0.039 C 
ATOM      9  C   UNL     1       0.867  14.786  46.366  1.00  0.00    -0.080 C 
ATOM     10  C   UNL     1       0.380  15.629  47.519  1.00  0.00     0.039 C 
ENDBRANCH   6   7
ENDBRANCH   5   6
ENDBRANCH   3   5
ENDBRANCH   1   2
BRANCH   1  11
ATOM     11  C   UNL     1       3.894  10.702  46.954  1.00  0.00     0.034 C 
BRANCH  11  12
ATOM     12  C   UNL     1       2.567  10.538  46.248  1.00  0.00    -0.077 C 
ATOM     13  C   UNL     1       1.459  11.085  46.797  1.00  0.00    -0.028 C 
ATOM     14  C   UNL     1       2.513   9.756  44.956  1.00  0.00     0.039 C 
BRANCH  13  15
ATOM     15  C   UNL     1       0.088  11.048  46.169  1.00  0.00     0.035 C 
BRANCH  15  16
ATOM     16  C   UNL     1      -0.849  10.141  46.974  1.00  0.00     0.079 C 
BRANCH  16  17
ATOM     17  C   UNL     1      -2.259  10.662  46.935  1.00  0.00     0.130 C 
ATOM     18  O   UNL     1      -3.116  10.151  47.642  1.00  0.00    -0.300 OA
ATOM     19  C   UNL     1      -2.613  11.829  46.064  1.00  0.00     0.087 C 
ENDBRANCH  16  17
ENDBRANCH  15  16
ENDBRANCH  13  15
ENDBRANCH  11  12
ENDBRANCH   1  11
TORSDOF 9
ENDMDL
MODEL 6
REMARK VINA RESULT:    -6.330      2.510      7.267
REMARK INTER + INTRA:         -11.086
REMARK INTER:                 -10.016
REMARK INTRA:                  -1.070
REMARK UNBOUND:                -1.425
REMARK SMILES CC(=O)CCC=C(C)CCC=C(C)CCC=C(C)C
REMARK SMILES IDX 10 1 11 2 12 3 13 4 14 5 15 6 16 7 18 8 17 9 19 10 9 11 7 12
REMARK SMILES IDX 6 13 8 14 5 15 4 16 2 17 3 18 1 19
REMARK H PARENT
REMARK Flexibility Score: inf
ROOT
ATOM      1  C   UNL     1       0.511  12.754  45.882  1.00  0.00     0.032 C 
ENDROOT
BRANCH   1   2
ATOM      2  C   UNL     1      -0.927  13.046  45.535  1.00  0.00    -0.028 C 
ATOM      3  C   UNL     1      -1.579  14.192  45.842  1.00  0.00    -0.077 C 
ATOM      4  C   UNL     1      -3.034  14.306  45.460  1.00  0.00     0.039 C 
BRANCH   3   5
ATOM      5  C   UNL     1      -0.906  15.371  46.521  1.00  0.00     0.034 C 
BRANCH   5   6
ATOM      6  C   UNL     1      -0.118  16.239  45.528  1.00  0.00     0.032 C 
BRANCH   6   7
ATOM      7  C   UNL     1      -0.773  17.586  45.333  1.00  0.00    -0.028 C 
ATOM      8  C   UNL     1      -2.158  19.297  44.239  1.00  0.00     0.039 C 
ATOM      9  C   UNL     1      -1.501  17.940  44.250  1.00  0.00    -0.080 C 
ATOM     10  C   UNL     1      -1.676  17.021  43.065  1.00  0.00     0.039 C 
ENDBRANCH   6   7
ENDBRANCH   5   6
ENDBRANCH   3   5
ENDBRANCH   1   2
BRANCH   1  11
ATOM     11  C   UNL     1       0.726  11.249  46.086  1.00  0.00     0.034 C 
BRANCH  11  12
ATOM     12  C   UNL     1       2.176  10.954  46.400  1.00  0.00    -0.077 C 
ATOM     13  C   UNL     1       2.731  11.493  47.508  1.00  0.00    -0.028 C 
ATOM     14  C   UNL     1       2.968  10.077  45.457  1.00  0.00     0.039 C 
BRANCH  13  15
ATOM     15  C   UNL     1       4.144  11.233  47.968  1.00  0.00     0.035 C 
BRANCH  15  16
ATOM     16  C   UNL     1       4.798  12.529  48.459  1.00  0.00     0.079 C 
BRANCH  16  17
ATOM     17  C   UNL     1       4.945  13.512  47.330  1.00  0.00     0.130 C 
ATOM     18  O   UNL     1       5.957  13.502  46.643  1.00  0.00    -0.300 OA
ATOM     19  C   UNL     1       3.844  14.479  47.017  1.00  0.00     0.087 C 
ENDBRANCH  16  17
ENDBRANCH  15  16
ENDBRANCH  13  15
ENDBRANCH  11  12
ENDBRANCH   1  11
TORSDOF 9
ENDMDL
MODEL 7
REMARK VINA RESULT:    -5.965      1.561      2.604
REMARK INTER + INTRA:         -10.528
REMARK INTER:                  -9.412
REMARK INTRA:                  -1.116
REMARK UNBOUND:                -1.425
REMARK SMILES CC(=O)CCC=C(C)CCC=C(C)CCC=C(C)C
REMARK SMILES IDX 10 1 11 2 12 3 13 4 14 5 15 6 16 7 18 8 17 9 19 10 9 11 7 12
REMARK SMILES IDX 6 13 8 14 5 15 4 16 2 17 3 18 1 19
REMARK H PARENT
REMARK Flexibility Score: inf
ROOT
ATOM      1  C   UNL     1       2.016  14.229  46.870  1.00  0.00     0.032 C 
ENDROOT
BRANCH   1   2
ATOM      2  C   UNL     1       3.000  13.132  46.554  1.00  0.00    -0.028 C 
ATOM      3  C   UNL     1       2.805  11.819  46.813  1.00  0.00    -0.077 C 
ATOM      4  C   UNL     1       3.913  10.854  46.473  1.00  0.00     0.039 C 
BRANCH   3   5
ATOM      5  C   UNL     1       1.514  11.274  47.398  1.00  0.00     0.034 C 
BRANCH   5   6
ATOM      6  C   UNL     1       0.686  10.505  46.359  1.00  0.00     0.032 C 
BRANCH   6   7
ATOM      7  C   UNL     1      -0.686  10.163  46.891  1.00  0.00    -0.028 C 
ATOM      8  C   UNL     1      -3.121  10.347  47.167  1.00  0.00     0.039 C 
ATOM      9  C   UNL     1      -1.812  10.862  46.625  1.00  0.00    -0.080 C 
ATOM     10  C   UNL     1      -1.796  12.129  45.806  1.00  0.00     0.039 C 
ENDBRANCH   6   7
ENDBRANCH   5   6
ENDBRANCH   3   5
ENDBRANCH   1   2
BRANCH   1  11
ATOM     11  C   UNL     1       1.031  14.426  45.711  1.00  0.00     0.034 C 
BRANCH  11  12
ATOM     12  C   UNL     1      -0.091  15.357  46.115  1.00  0.00    -0.077 C 
ATOM     13  C   UNL     1      -1.153  15.502  45.293  1.00  0.00    -0.028 C 
ATOM     14  C   UNL     1       0.014  16.111  47.421  1.00  0.00     0.039 C 
BRANCH  13  15
ATOM     15  C   UNL     1      -2.363  16.349  45.600  1.00  0.00     0.035 C 
BRANCH  15  16
ATOM     16  C   UNL     1      -2.667  17.297  44.436  1.00  0.00     0.079 C 
BRANCH  16  17
ATOM     17  C   UNL     1      -1.924  18.595  44.598  1.00  0.00     0.130 C 
ATOM     18  O   UNL     1      -0.747  18.583  44.931  1.00  0.00    -0.300 OA
ATOM     19  C   UNL     1      -2.604  19.900  44.317  1.00  0.00     0.087 C 
ENDBRANCH  16  17
ENDBRANCH  15  16
ENDBRANCH  13  15
ENDBRANCH  11  12
ENDBRANCH   1  11
TORSDOF 9
ENDMDL
MODEL 8
REMARK VINA RESULT:    -5.878      2.849      6.641
REMARK INTER + INTRA:         -10.396
REMARK INTER:                  -9.534
REMARK INTRA:                  -0.862
REMARK UNBOUND:                -1.425
REMARK SMILES CC(=O)CCC=C(C)CCC=C(C)CCC=C(C)C
REMARK SMILES IDX 10 1 11 2 12 3 13 4 14 5 15 6 16 7 18 8 17 9 19 10 9 11 7 12
REMARK SMILES IDX 6 13 8 14 5 15 4 16 2 17 3 18 1 19
REMARK H PARENT
REMARK Flexibility Score: inf
ROOT
ATOM      1  C   UNL     1       1.280  14.137  46.610  1.00  0.00     0.032 C 
ENDROOT
BRANCH   1   2
ATOM      2  C   UNL     1       0.705  15.147  45.650  1.00  0.00    -0.028 C 
ATOM      3  C   UNL     1      -0.604  15.247  45.324  1.00  0.00    -0.077 C 
ATOM      4  C   UNL     1      -1.008  16.287  44.309  1.00  0.00     0.039 C 
BRANCH   3   5
ATOM      5  C   UNL     1      -1.682  14.382  45.954  1.00  0.00     0.034 C 
BRANCH   5   6
ATOM      6  C   UNL     1      -1.961  13.115  45.133  1.00  0.00     0.032 C 
BRANCH   6   7
ATOM      7  C   UNL     1      -2.750  12.103  45.932  1.00  0.00    -0.028 C 
ATOM      8  C   UNL     1      -3.124  10.163  47.393  1.00  0.00     0.039 C 
ATOM      9  C   UNL     1      -2.214  11.039  46.569  1.00  0.00    -0.080 C 
ATOM     10  C   UNL     1      -0.744  10.708  46.484  1.00  0.00     0.039 C 
ENDBRANCH   6   7
ENDBRANCH   5   6
ENDBRANCH   3   5
ENDBRANCH   1   2
BRANCH   1  11
ATOM     11  C   UNL     1       1.670  12.849  45.875  1.00  0.00     0.034 C 
BRANCH  11  12
ATOM     12  C   UNL     1       2.850  12.185  46.550  1.00  0.00    -0.077 C 
ATOM     13  C   UNL     1       3.642  12.921  47.361  1.00  0.00    -0.028 C 
ATOM     14  C   UNL     1       3.119  10.722  46.286  1.00  0.00     0.039 C 
BRANCH  13  15
ATOM     15  C   UNL     1       4.812  12.372  48.140  1.00  0.00     0.035 C 
BRANCH  15  16
ATOM     16  C   UNL     1       5.767  13.499  48.544  1.00  0.00     0.079 C 
BRANCH  16  17
ATOM     17  C   UNL     1       6.689  13.849  47.409  1.00  0.00     0.130 C 
ATOM     18  O   UNL     1       6.266  13.855  46.261  1.00  0.00    -0.300 OA
ATOM     19  C   UNL     1       8.114  14.227  47.677  1.00  0.00     0.087 C 
ENDBRANCH  16  17
ENDBRANCH  15  16
ENDBRANCH  13  15
ENDBRANCH  11  12
ENDBRANCH   1  11
TORSDOF 9
ENDMDL
MODEL 9
REMARK VINA RESULT:    -5.804      1.242      3.447
REMARK INTER + INTRA:         -10.282
REMARK INTER:                  -9.260
REMARK INTRA:                  -1.022
REMARK UNBOUND:                -1.425
REMARK SMILES CC(=O)CCC=C(C)CCC=C(C)CCC=C(C)C
REMARK SMILES IDX 10 1 11 2 12 3 13 4 14 5 15 6 16 7 18 8 17 9 19 10 9 11 7 12
REMARK SMILES IDX 6 13 8 14 5 15 4 16 2 17 3 18 1 19
REMARK H PARENT
REMARK Flexibility Score: inf
ROOT
ATOM      1  C   UNL     1       1.479  14.365  46.287  1.00  0.00     0.032 C 
ENDROOT
BRANCH   1   2
ATOM      2  C   UNL     1       1.311  12.935  45.843  1.00  0.00    -0.028 C 
ATOM      3  C   UNL     1       1.822  11.859  46.485  1.00  0.00    -0.077 C 
ATOM      4  C   UNL     1       1.598  10.496  45.880  1.00  0.00     0.039 C 
BRANCH   3   5
ATOM      5  C   UNL     1       2.581  11.963  47.797  1.00  0.00     0.034 C 
BRANCH   5   6
ATOM      6  C   UNL     1       4.019  11.439  47.677  1.00  0.00     0.032 C 
BRANCH   6   7
ATOM      7  C   UNL     1       4.867  12.348  46.818  1.00  0.00    -0.028 C 
ATOM      8  C   UNL     1       6.577  14.037  46.307  1.00  0.00     0.039 C 
ATOM      9  C   UNL     1       5.745  13.258  47.294  1.00  0.00    -0.080 C 
ATOM     10  C   UNL     1       5.917  13.513  48.772  1.00  0.00     0.039 C 
ENDBRANCH   6   7
ENDBRANCH   5   6
ENDBRANCH   3   5
ENDBRANCH   1   2
BRANCH   1  11
ATOM     11  C   UNL     1       0.155  14.929  46.818  1.00  0.00     0.034 C 
BRANCH  11  12
ATOM     12  C   UNL     1      -0.776  15.271  45.676  1.00  0.00    -0.077 C 
ATOM     13  C   UNL     1      -0.526  16.371  44.932  1.00  0.00    -0.028 C 
ATOM     14  C   UNL     1      -1.968  14.382  45.407  1.00  0.00     0.039 C 
BRANCH  13  15
ATOM     15  C   UNL     1      -1.337  16.794  43.732  1.00  0.00     0.035 C 
BRANCH  15  16
ATOM     16  C   UNL     1      -1.393  18.321  43.630  1.00  0.00     0.079 C 
BRANCH  16  17
ATOM     17  C   UNL     1      -2.476  18.875  44.515  1.00  0.00     0.130 C 
ATOM     18  O   UNL     1      -3.125  18.120  45.226  1.00  0.00    -0.300 OA
ATOM     19  C   UNL     1      -2.739  20.349  44.561  1.00  0.00     0.087 C 
ENDBRANCH  16  17
ENDBRANCH  15  16
ENDBRANCH  13  15
ENDBRANCH  11  12
ENDBRANCH   1  11
TORSDOF 9
ENDMDL
