MODEL 1
REMARK VINA RESULT:    -4.801      0.000      0.000
REMARK INTER + INTRA:          -5.314
REMARK INTER:                  -5.222
REMARK INTRA:                  -0.092
REMARK UNBOUND:                -0.092
REMARK SMILES C=C(C)[C@@H]1CC=C(C)[C@H](O)C1
REMARK SMILES IDX 8 1 7 2 6 3 5 4 4 5 11 6 9 7 10 8 2 10 1 11 3 12
REMARK H PARENT 10 9
REMARK Flexibility Score: inf
ROOT
ATOM      1  C   UNL     1     122.866 118.277 120.473  1.00  0.00     0.042 C 
ATOM      2  C   UNL     1     124.120 119.067 120.209  1.00  0.00    -0.049 C 
ATOM      3  C   UNL     1     124.335 119.540 118.962  1.00  0.00    -0.025 C 
ATOM      4  C   UNL     1     125.552 120.346 118.585  1.00  0.00     0.035 C 
ATOM      5  C   UNL     1     126.738 120.067 119.524  1.00  0.00     0.021 C 
ATOM      6  C   UNL     1     126.282 120.205 120.984  1.00  0.00     0.044 C 
ATOM      7  C   UNL     1     125.179 119.177 121.303  1.00  0.00     0.140 C 
ENDROOT
BRANCH   7   8
ATOM      8  O   UNL     1     124.591 119.476 122.544  1.00  0.00    -0.389 OA
ATOM      9  H   UNL     1     123.698 119.042 122.564  1.00  0.00     0.211 HD
ENDBRANCH   7   8
BRANCH   5  10
ATOM     10  C   UNL     1     127.924 120.971 119.214  1.00  0.00    -0.077 C 
ATOM     11  C   UNL     1     127.804 122.311 119.221  1.00  0.00     0.008 C 
ATOM     12  C   UNL     1     129.269 120.370 118.893  1.00  0.00     0.039 C 
ENDBRANCH   5  10
TORSDOF 2
ENDMDL
MODEL 2
REMARK VINA RESULT:    -4.712      1.502      4.391
REMARK INTER + INTRA:          -5.217
REMARK INTER:                  -5.123
REMARK INTRA:                  -0.094
REMARK UNBOUND:                -0.092
REMARK SMILES C=C(C)[C@@H]1CC=C(C)[C@H](O)C1
REMARK SMILES IDX 8 1 7 2 6 3 5 4 4 5 11 6 9 7 10 8 2 10 1 11 3 12
REMARK H PARENT 10 9
REMARK Flexibility Score: inf
ROOT
ATOM      1  C   UNL     1     128.246 121.875 119.002  1.00  0.00     0.042 C 
ATOM      2  C   UNL     1     127.103 120.964 119.365  1.00  0.00    -0.049 C 
ATOM      3  C   UNL     1     126.094 120.809 118.481  1.00  0.00    -0.025 C 
ATOM      4  C   UNL     1     124.903 119.920 118.738  1.00  0.00     0.035 C 
ATOM      5  C   UNL     1     124.656 119.712 120.242  1.00  0.00     0.021 C 
ATOM      6  C   UNL     1     125.962 119.276 120.922  1.00  0.00     0.044 C 
ATOM      7  C   UNL     1     127.039 120.370 120.770  1.00  0.00     0.140 C 
ENDROOT
BRANCH   7   8
ATOM      8  O   UNL     1     128.291 119.865 121.161  1.00  0.00    -0.389 OA
ATOM      9  H   UNL     1     128.987 120.450 120.762  1.00  0.00     0.211 HD
ENDBRANCH   7   8
BRANCH   5  10
ATOM     10  C   UNL     1     123.529 118.718 120.492  1.00  0.00    -0.077 C 
ATOM     11  C   UNL     1     123.389 117.613 119.738  1.00  0.00     0.008 C 
ATOM     12  C   UNL     1     122.543 118.959 121.606  1.00  0.00     0.039 C 
ENDBRANCH   5  10
TORSDOF 2
ENDMDL
MODEL 3
REMARK VINA RESULT:    -4.661     16.167     17.075
REMARK INTER + INTRA:          -5.162
REMARK INTER:                  -5.069
REMARK INTRA:                  -0.093
REMARK UNBOUND:                -0.092
REMARK SMILES C=C(C)[C@@H]1CC=C(C)[C@H](O)C1
REMARK SMILES IDX 8 1 7 2 6 3 5 4 4 5 11 6 9 7 10 8 2 10 1 11 3 12
REMARK H PARENT 10 9
REMARK Flexibility Score: inf
ROOT
ATOM      1  C   UNL     1     123.185 131.749 128.447  1.00  0.00     0.042 C 
ATOM      2  C   UNL     1     121.782 132.291 128.370  1.00  0.00    -0.049 C 
ATOM      3  C   UNL     1     120.750 131.419 128.404  1.00  0.00    -0.025 C 
ATOM      4  C   UNL     1     119.306 131.849 128.338  1.00  0.00     0.035 C 
ATOM      5  C   UNL     1     119.146 133.216 127.650  1.00  0.00     0.021 C 
ATOM      6  C   UNL     1     120.107 134.229 128.289  1.00  0.00     0.044 C 
ATOM      7  C   UNL     1     121.569 133.777 128.100  1.00  0.00     0.140 C 
ENDROOT
BRANCH   7   8
ATOM      8  O   UNL     1     122.418 134.561 128.901  1.00  0.00    -0.389 OA
ATOM      9  H   UNL     1     122.284 135.510 128.638  1.00  0.00     0.211 HD
ENDBRANCH   7   8
BRANCH   5  10
ATOM     10  C   UNL     1     117.702 133.700 127.695  1.00  0.00    -0.077 C 
ATOM     11  C   UNL     1     116.989 133.672 128.835  1.00  0.00     0.008 C 
ATOM     12  C   UNL     1     117.043 134.227 126.446  1.00  0.00     0.039 C 
ENDBRANCH   5  10
TORSDOF 2
ENDMDL
MODEL 4
REMARK VINA RESULT:    -4.628     14.966     16.051
REMARK INTER + INTRA:          -5.126
REMARK INTER:                  -5.032
REMARK INTRA:                  -0.094
REMARK UNBOUND:                -0.092
REMARK SMILES C=C(C)[C@@H]1CC=C(C)[C@H](O)C1
REMARK SMILES IDX 8 1 7 2 6 3 5 4 4 5 11 6 9 7 10 8 2 10 1 11 3 12
REMARK H PARENT 10 9
REMARK Flexibility Score: inf
ROOT
ATOM      1  C   UNL     1     121.578 134.348 128.378  1.00  0.00     0.042 C 
ATOM      2  C   UNL     1     120.938 133.003 128.598  1.00  0.00    -0.049 C 
ATOM      3  C   UNL     1     119.616 132.954 128.872  1.00  0.00    -0.025 C 
ATOM      4  C   UNL     1     118.871 131.664 129.107  1.00  0.00     0.035 C 
ATOM      5  C   UNL     1     119.805 130.541 129.589  1.00  0.00     0.021 C 
ATOM      6  C   UNL     1     121.016 130.441 128.649  1.00  0.00     0.044 C 
ATOM      7  C   UNL     1     121.818 131.758 128.663  1.00  0.00     0.140 C 
ENDROOT
BRANCH   7   8
ATOM      8  O   UNL     1     122.762 131.754 127.621  1.00  0.00    -0.389 OA
ATOM      9  H   UNL     1     122.414 132.342 126.901  1.00  0.00     0.211 HD
ENDBRANCH   7   8
BRANCH   5  10
ATOM     10  C   UNL     1     119.071 129.212 129.707  1.00  0.00    -0.077 C 
ATOM     11  C   UNL     1     119.500 128.114 129.059  1.00  0.00     0.008 C 
ATOM     12  C   UNL     1     117.837 129.105 130.566  1.00  0.00     0.039 C 
ENDBRANCH   5  10
TORSDOF 2
ENDMDL
MODEL 5
REMARK VINA RESULT:    -4.569     13.976     15.237
REMARK INTER + INTRA:          -5.061
REMARK INTER:                  -4.970
REMARK INTRA:                  -0.091
REMARK UNBOUND:                -0.092
REMARK SMILES C=C(C)[C@@H]1CC=C(C)[C@H](O)C1
REMARK SMILES IDX 8 1 7 2 6 3 5 4 4 5 11 6 9 7 10 8 2 10 1 11 3 12
REMARK H PARENT 10 9
REMARK Flexibility Score: inf
ROOT
ATOM      1  C   UNL     1     114.043 121.001 126.856  1.00  0.00     0.042 C 
ATOM      2  C   UNL     1     114.594 121.018 128.257  1.00  0.00    -0.049 C 
ATOM      3  C   UNL     1     115.119 119.879 128.759  1.00  0.00    -0.025 C 
ATOM      4  C   UNL     1     115.702 119.781 130.146  1.00  0.00     0.035 C 
ATOM      5  C   UNL     1     115.119 120.847 131.089  1.00  0.00     0.021 C 
ATOM      6  C   UNL     1     115.221 122.230 130.428  1.00  0.00     0.044 C 
ATOM      7  C   UNL     1     114.403 122.262 129.121  1.00  0.00     0.140 C 
ENDROOT
BRANCH   7   8
ATOM      8  O   UNL     1     114.707 123.428 128.397  1.00  0.00    -0.389 OA
ATOM      9  H   UNL     1     114.441 123.271 127.453  1.00  0.00     0.211 HD
ENDBRANCH   7   8
BRANCH   5  10
ATOM     10  C   UNL     1     115.798 120.821 132.452  1.00  0.00    -0.077 C 
ATOM     11  C   UNL     1     117.003 121.387 132.645  1.00  0.00     0.008 C 
ATOM     12  C   UNL     1     115.119 120.156 133.622  1.00  0.00     0.039 C 
ENDBRANCH   5  10
TORSDOF 2
ENDMDL
MODEL 6
REMARK VINA RESULT:    -4.527     14.746     15.866
REMARK INTER + INTRA:          -5.016
REMARK INTER:                  -4.928
REMARK INTRA:                  -0.088
REMARK UNBOUND:                -0.092
REMARK SMILES C=C(C)[C@@H]1CC=C(C)[C@H](O)C1
REMARK SMILES IDX 8 1 7 2 6 3 5 4 4 5 11 6 9 7 10 8 2 10 1 11 3 12
REMARK H PARENT 10 9
REMARK Flexibility Score: inf
ROOT
ATOM      1  C   UNL     1     122.253 133.634 128.003  1.00  0.00     0.042 C 
ATOM      2  C   UNL     1     121.458 132.440 128.461  1.00  0.00    -0.049 C 
ATOM      3  C   UNL     1     122.107 131.274 128.672  1.00  0.00    -0.025 C 
ATOM      4  C   UNL     1     121.414 130.017 129.134  1.00  0.00     0.035 C 
ATOM      5  C   UNL     1     119.920 130.019 128.768  1.00  0.00     0.021 C 
ATOM      6  C   UNL     1     119.278 131.334 129.233  1.00  0.00     0.044 C 
ATOM      7  C   UNL     1     119.936 132.534 128.522  1.00  0.00     0.140 C 
ENDROOT
BRANCH   7   8
ATOM      8  O   UNL     1     119.530 133.733 129.134  1.00  0.00    -0.389 OA
ATOM      9  H   UNL     1     119.843 134.481 128.562  1.00  0.00     0.211 HD
ENDBRANCH   7   8
BRANCH   5  10
ATOM     10  C   UNL     1     119.201 128.805 129.343  1.00  0.00    -0.077 C 
ATOM     11  C   UNL     1     119.365 127.578 128.816  1.00  0.00     0.008 C 
ATOM     12  C   UNL     1     118.285 128.961 130.530  1.00  0.00     0.039 C 
ENDBRANCH   5  10
TORSDOF 2
ENDMDL
MODEL 7
REMARK VINA RESULT:    -4.487     14.403     15.835
REMARK INTER + INTRA:          -4.972
REMARK INTER:                  -4.885
REMARK INTRA:                  -0.088
REMARK UNBOUND:                -0.092
REMARK SMILES C=C(C)[C@@H]1CC=C(C)[C@H](O)C1
REMARK SMILES IDX 8 1 7 2 6 3 5 4 4 5 11 6 9 7 10 8 2 10 1 11 3 12
REMARK H PARENT 10 9
REMARK Flexibility Score: inf
ROOT
ATOM      1  C   UNL     1     116.653 119.750 135.125  1.00  0.00     0.042 C 
ATOM      2  C   UNL     1     116.582 120.536 133.843  1.00  0.00    -0.049 C 
ATOM      3  C   UNL     1     117.726 121.040 133.330  1.00  0.00    -0.025 C 
ATOM      4  C   UNL     1     117.774 121.838 132.052  1.00  0.00     0.035 C 
ATOM      5  C   UNL     1     116.425 122.508 131.742  1.00  0.00     0.021 C 
ATOM      6  C   UNL     1     115.301 121.463 131.825  1.00  0.00     0.044 C 
ATOM      7  C   UNL     1     115.218 120.875 133.247  1.00  0.00     0.140 C 
ENDROOT
BRANCH   7   8
ATOM      8  O   UNL     1     114.375 119.750 133.250  1.00  0.00    -0.389 OA
ATOM      9  H   UNL     1     113.940 119.705 134.141  1.00  0.00     0.211 HD
ENDBRANCH   7   8
BRANCH   5  10
ATOM     10  C   UNL     1     116.444 123.211 130.391  1.00  0.00    -0.077 C 
ATOM     11  C   UNL     1     117.074 124.388 130.223  1.00  0.00     0.008 C 
ATOM     12  C   UNL     1     115.753 122.590 129.206  1.00  0.00     0.039 C 
ENDBRANCH   5  10
TORSDOF 2
ENDMDL
MODEL 8
REMARK VINA RESULT:    -4.401     16.090     17.028
REMARK INTER + INTRA:          -4.879
REMARK INTER:                  -4.793
REMARK INTRA:                  -0.087
REMARK UNBOUND:                -0.092
REMARK SMILES C=C(C)[C@@H]1CC=C(C)[C@H](O)C1
REMARK SMILES IDX 8 1 7 2 6 3 5 4 4 5 11 6 9 7 10 8 2 10 1 11 3 12
REMARK H PARENT 10 9
REMARK Flexibility Score: inf
ROOT
ATOM      1  C   UNL     1     123.383 131.739 128.429  1.00  0.00     0.042 C 
ATOM      2  C   UNL     1     121.991 132.315 128.415  1.00  0.00    -0.049 C 
ATOM      3  C   UNL     1     121.847 133.652 128.295  1.00  0.00    -0.025 C 
ATOM      4  C   UNL     1     120.503 134.337 128.266  1.00  0.00     0.035 C 
ATOM      5  C   UNL     1     119.417 133.498 128.961  1.00  0.00     0.021 C 
ATOM      6  C   UNL     1     119.440 132.066 128.406  1.00  0.00     0.044 C 
ATOM      7  C   UNL     1     120.801 131.400 128.691  1.00  0.00     0.140 C 
ENDROOT
BRANCH   7   8
ATOM      8  O   UNL     1     120.908 130.202 127.964  1.00  0.00    -0.389 OA
ATOM      9  H   UNL     1     121.848 129.890 128.039  1.00  0.00     0.211 HD
ENDBRANCH   7   8
BRANCH   5  10
ATOM     10  C   UNL     1     118.041 134.136 128.821  1.00  0.00    -0.077 C 
ATOM     11  C   UNL     1     117.521 134.900 129.799  1.00  0.00     0.008 C 
ATOM     12  C   UNL     1     117.232 133.921 127.569  1.00  0.00     0.039 C 
ENDBRANCH   5  10
TORSDOF 2
ENDMDL
MODEL 9
REMARK VINA RESULT:    -4.379     13.890     15.582
REMARK INTER + INTRA:          -4.855
REMARK INTER:                  -4.765
REMARK INTRA:                  -0.090
REMARK UNBOUND:                -0.092
REMARK SMILES C=C(C)[C@@H]1CC=C(C)[C@H](O)C1
REMARK SMILES IDX 8 1 7 2 6 3 5 4 4 5 11 6 9 7 10 8 2 10 1 11 3 12
REMARK H PARENT 10 9
REMARK Flexibility Score: inf
ROOT
ATOM      1  C   UNL     1     116.707 120.784 134.765  1.00  0.00     0.042 C 
ATOM      2  C   UNL     1     116.417 121.039 133.309  1.00  0.00    -0.049 C 
ATOM      3  C   UNL     1     117.402 121.538 132.531  1.00  0.00    -0.025 C 
ATOM      4  C   UNL     1     117.225 121.828 131.062  1.00  0.00     0.035 C 
ATOM      5  C   UNL     1     115.751 122.075 130.700  1.00  0.00     0.021 C 
ATOM      6  C   UNL     1     114.887 120.933 131.255  1.00  0.00     0.044 C 
ATOM      7  C   UNL     1     114.990 120.879 132.792  1.00  0.00     0.140 C 
ENDROOT
BRANCH   7   8
ATOM      8  O   UNL     1     114.413 119.688 133.268  1.00  0.00    -0.389 OA
ATOM      9  H   UNL     1     114.976 118.935 132.948  1.00  0.00     0.211 HD
ENDBRANCH   7   8
BRANCH   5  10
ATOM     10  C   UNL     1     115.564 122.247 129.198  1.00  0.00    -0.077 C 
ATOM     11  C   UNL     1     116.149 123.258 128.531  1.00  0.00     0.008 C 
ATOM     12  C   UNL     1     114.713 121.272 128.426  1.00  0.00     0.039 C 
ENDBRANCH   5  10
TORSDOF 2
ENDMDL
