MODEL 1
REMARK VINA RESULT:    -3.093      0.000      0.000
REMARK INTER + INTRA:          -4.463
REMARK INTER:                  -4.088
REMARK INTRA:                  -0.375
REMARK UNBOUND:                -0.375
REMARK SMILES C=C[C@@H](O)CCCCC
REMARK SMILES IDX 6 1 7 2 8 3 9 4 5 5 3 6 2 7 1 8 4 9
REMARK H PARENT 4 10
REMARK Flexibility Score: inf
ROOT
ATOM      1  C   UNL     1     -16.809 -13.755   9.908  1.00  0.00     0.003 C 
ENDROOT
BRANCH   1   2
ATOM      2  C   UNL     1     -16.623 -13.977   8.399  1.00  0.00    -0.000 C 
BRANCH   2   3
ATOM      3  C   UNL     1     -16.235 -15.425   8.058  1.00  0.00    -0.003 C 
ATOM      4  C   UNL     1     -15.726 -16.202   9.272  1.00  0.00     0.004 C 
ENDBRANCH   2   3
ENDBRANCH   1   2
BRANCH   1   5
ATOM      5  C   UNL     1     -18.172 -13.109  10.203  1.00  0.00     0.036 C 
BRANCH   5   6
ATOM      6  C   UNL     1     -18.927 -13.830  11.333  1.00  0.00     0.136 C 
BRANCH   6   7
ATOM      7  C   UNL     1     -18.297 -15.161  11.675  1.00  0.00    -0.004 C 
ATOM      8  C   UNL     1     -18.690 -15.889  12.726  1.00  0.00     0.007 C 
ENDBRANCH   6   7
BRANCH   6   9
ATOM      9  O   UNL     1     -18.954 -13.005  12.470  1.00  0.00    -0.389 OA
ATOM     10  H   UNL     1     -19.907 -12.781  12.640  1.00  0.00     0.211 HD
ENDBRANCH   6   9
ENDBRANCH   5   6
ENDBRANCH   1   5
TORSDOF 6
ENDMDL
MODEL 2
REMARK VINA RESULT:    -3.055      2.181      4.115
REMARK INTER + INTRA:          -4.413
REMARK INTER:                  -3.796
REMARK INTRA:                  -0.616
REMARK UNBOUND:                -0.375
REMARK SMILES C=C[C@@H](O)CCCCC
REMARK SMILES IDX 6 1 7 2 8 3 9 4 5 5 3 6 2 7 1 8 4 9
REMARK H PARENT 4 10
REMARK Flexibility Score: inf
ROOT
ATOM      1  C   UNL     1     -16.121 -14.864  10.488  1.00  0.00     0.003 C 
ENDROOT
BRANCH   1   2
ATOM      2  C   UNL     1     -17.291 -15.288  11.388  1.00  0.00    -0.000 C 
BRANCH   2   3
ATOM      3  C   UNL     1     -18.476 -14.313  11.316  1.00  0.00    -0.003 C 
ATOM      4  C   UNL     1     -18.100 -12.970  10.691  1.00  0.00     0.004 C 
ENDBRANCH   2   3
ENDBRANCH   1   2
BRANCH   1   5
ATOM      5  C   UNL     1     -15.724 -15.999   9.531  1.00  0.00     0.036 C 
BRANCH   5   6
ATOM      6  C   UNL     1     -16.281 -15.788   8.112  1.00  0.00     0.136 C 
BRANCH   6   7
ATOM      7  C   UNL     1     -17.566 -16.551   7.889  1.00  0.00    -0.004 C 
ATOM      8  C   UNL     1     -18.768 -15.970   7.977  1.00  0.00     0.007 C 
ENDBRANCH   6   7
BRANCH   6   9
ATOM      9  O   UNL     1     -16.494 -14.415   7.900  1.00  0.00    -0.389 OA
ATOM     10  H   UNL     1     -16.432 -13.974   8.788  1.00  0.00     0.211 HD
ENDBRANCH   6   9
ENDBRANCH   5   6
ENDBRANCH   1   5
TORSDOF 6
ENDMDL
MODEL 3
REMARK VINA RESULT:    -3.014      1.257      2.651
REMARK INTER + INTRA:          -4.358
REMARK INTER:                  -3.784
REMARK INTRA:                  -0.574
REMARK UNBOUND:                -0.375
REMARK SMILES C=C[C@@H](O)CCCCC
REMARK SMILES IDX 6 1 7 2 8 3 9 4 5 5 3 6 2 7 1 8 4 9
REMARK H PARENT 4 10
REMARK Flexibility Score: inf
ROOT
ATOM      1  C   UNL     1     -18.077 -15.818  11.562  1.00  0.00     0.003 C 
ENDROOT
BRANCH   1   2
ATOM      2  C   UNL     1     -18.244 -16.388  10.145  1.00  0.00    -0.000 C 
BRANCH   2   3
ATOM      3  C   UNL     1     -16.949 -16.312   9.321  1.00  0.00    -0.003 C 
ATOM      4  C   UNL     1     -15.810 -15.624  10.072  1.00  0.00     0.004 C 
ENDBRANCH   2   3
ENDBRANCH   1   2
BRANCH   1   5
ATOM      5  C   UNL     1     -19.042 -14.646  11.800  1.00  0.00     0.036 C 
BRANCH   5   6
ATOM      6  C   UNL     1     -18.407 -13.287  11.458  1.00  0.00     0.136 C 
BRANCH   6   7
ATOM      7  C   UNL     1     -18.753 -12.839  10.056  1.00  0.00    -0.004 C 
ATOM      8  C   UNL     1     -17.820 -12.639   9.118  1.00  0.00     0.007 C 
ENDBRANCH   6   7
BRANCH   6   9
ATOM      9  O   UNL     1     -18.840 -12.328  12.388  1.00  0.00    -0.389 OA
ATOM     10  H   UNL     1     -18.530 -11.445  12.056  1.00  0.00     0.211 HD
ENDBRANCH   6   9
ENDBRANCH   5   6
ENDBRANCH   1   5
TORSDOF 6
ENDMDL
MODEL 4
REMARK VINA RESULT:    -3.001      2.306      4.420
REMARK INTER + INTRA:          -4.341
REMARK INTER:                  -3.850
REMARK INTRA:                  -0.492
REMARK UNBOUND:                -0.375
REMARK SMILES C=C[C@@H](O)CCCCC
REMARK SMILES IDX 6 1 7 2 8 3 9 4 5 5 3 6 2 7 1 8 4 9
REMARK H PARENT 4 10
REMARK Flexibility Score: inf
ROOT
ATOM      1  C   UNL     1     -17.092 -15.624  11.625  1.00  0.00     0.003 C 
ENDROOT
BRANCH   1   2
ATOM      2  C   UNL     1     -18.547 -15.210  11.360  1.00  0.00    -0.000 C 
BRANCH   2   3
ATOM      3  C   UNL     1     -18.779 -13.703  11.557  1.00  0.00    -0.003 C 
ATOM      4  C   UNL     1     -19.125 -12.983  10.255  1.00  0.00     0.004 C 
ENDBRANCH   2   3
ENDBRANCH   1   2
BRANCH   1   5
ATOM      5  C   UNL     1     -16.180 -15.199  10.465  1.00  0.00     0.036 C 
BRANCH   5   6
ATOM      6  C   UNL     1     -16.482 -15.974   9.170  1.00  0.00     0.136 C 
BRANCH   6   7
ATOM      7  C   UNL     1     -16.840 -15.050   8.029  1.00  0.00    -0.004 C 
ATOM      8  C   UNL     1     -16.500 -13.756   8.022  1.00  0.00     0.007 C 
ENDBRANCH   6   7
BRANCH   6   9
ATOM      9  O   UNL     1     -15.363 -16.751   8.826  1.00  0.00    -0.389 OA
ATOM     10  H   UNL     1     -14.695 -16.132   8.428  1.00  0.00     0.211 HD
ENDBRANCH   6   9
ENDBRANCH   5   6
ENDBRANCH   1   5
TORSDOF 6
ENDMDL
MODEL 5
REMARK VINA RESULT:    -2.985      1.444      2.497
REMARK INTER + INTRA:          -4.320
REMARK INTER:                  -3.796
REMARK INTRA:                  -0.524
REMARK UNBOUND:                -0.375
REMARK SMILES C=C[C@@H](O)CCCCC
REMARK SMILES IDX 6 1 7 2 8 3 9 4 5 5 3 6 2 7 1 8 4 9
REMARK H PARENT 4 10
REMARK Flexibility Score: inf
ROOT
ATOM      1  C   UNL     1     -16.177 -14.989  10.569  1.00  0.00     0.003 C 
ENDROOT
BRANCH   1   2
ATOM      2  C   UNL     1     -15.735 -16.048   9.547  1.00  0.00    -0.000 C 
BRANCH   2   3
ATOM      3  C   UNL     1     -16.140 -15.687   8.109  1.00  0.00    -0.003 C 
ATOM      4  C   UNL     1     -16.562 -14.226   7.964  1.00  0.00     0.004 C 
ENDBRANCH   2   3
ENDBRANCH   1   2
BRANCH   1   5
ATOM      5  C   UNL     1     -17.183 -15.579  11.570  1.00  0.00     0.036 C 
BRANCH   5   6
ATOM      6  C   UNL     1     -18.608 -15.041  11.350  1.00  0.00     0.136 C 
BRANCH   6   7
ATOM      7  C   UNL     1     -18.640 -13.531  11.292  1.00  0.00    -0.004 C 
ATOM      8  C   UNL     1     -19.125 -12.866  10.237  1.00  0.00     0.007 C 
ENDBRANCH   6   7
BRANCH   6   9
ATOM      9  O   UNL     1     -19.125 -15.579  10.159  1.00  0.00    -0.389 OA
ATOM     10  H   UNL     1     -19.737 -16.317  10.419  1.00  0.00     0.211 HD
ENDBRANCH   6   9
ENDBRANCH   5   6
ENDBRANCH   1   5
TORSDOF 6
ENDMDL
MODEL 6
REMARK VINA RESULT:    -2.924      2.115      3.566
REMARK INTER + INTRA:          -4.240
REMARK INTER:                  -3.697
REMARK INTRA:                  -0.543
REMARK UNBOUND:                -0.375
REMARK SMILES C=C[C@@H](O)CCCCC
REMARK SMILES IDX 6 1 7 2 8 3 9 4 5 5 3 6 2 7 1 8 4 9
REMARK H PARENT 4 10
REMARK Flexibility Score: inf
ROOT
ATOM      1  C   UNL     1     -16.472 -15.628  10.731  1.00  0.00     0.003 C 
ENDROOT
BRANCH   1   2
ATOM      2  C   UNL     1     -17.711 -16.229  10.052  1.00  0.00    -0.000 C 
BRANCH   2   3
ATOM      3  C   UNL     1     -18.883 -16.427  11.027  1.00  0.00    -0.003 C 
ATOM      4  C   UNL     1     -18.550 -15.977  12.449  1.00  0.00     0.004 C 
ENDBRANCH   2   3
ENDBRANCH   1   2
BRANCH   1   5
ATOM      5  C   UNL     1     -16.114 -14.266  10.115  1.00  0.00     0.036 C 
BRANCH   5   6
ATOM      6  C   UNL     1     -17.151 -13.805   9.076  1.00  0.00     0.136 C 
BRANCH   6   7
ATOM      7  C   UNL     1     -17.979 -12.646   9.580  1.00  0.00    -0.004 C 
ATOM      8  C   UNL     1     -18.530 -12.637  10.799  1.00  0.00     0.007 C 
ENDBRANCH   6   7
BRANCH   6   9
ATOM      9  O   UNL     1     -16.487 -13.442   7.892  1.00  0.00    -0.389 OA
ATOM     10  H   UNL     1     -15.569 -13.815   7.952  1.00  0.00     0.211 HD
ENDBRANCH   6   9
ENDBRANCH   5   6
ENDBRANCH   1   5
TORSDOF 6
ENDMDL
MODEL 7
REMARK VINA RESULT:    -2.640      1.814      2.189
REMARK INTER + INTRA:          -3.865
REMARK INTER:                  -3.347
REMARK INTRA:                  -0.518
REMARK UNBOUND:                -0.375
REMARK SMILES C=C[C@@H](O)CCCCC
REMARK SMILES IDX 6 1 7 2 8 3 9 4 5 5 3 6 2 7 1 8 4 9
REMARK H PARENT 4 10
REMARK Flexibility Score: inf
ROOT
ATOM      1  C   UNL     1     -18.230 -15.591   7.942  1.00  0.00     0.003 C 
ENDROOT
BRANCH   1   2
ATOM      2  C   UNL     1     -17.336 -16.819   8.169  1.00  0.00    -0.000 C 
BRANCH   2   3
ATOM      3  C   UNL     1     -15.848 -16.454   8.289  1.00  0.00    -0.003 C 
ATOM      4  C   UNL     1     -15.456 -16.028   9.702  1.00  0.00     0.004 C 
ENDBRANCH   2   3
ENDBRANCH   1   2
BRANCH   1   5
ATOM      5  C   UNL     1     -19.124 -15.330   9.164  1.00  0.00     0.036 C 
BRANCH   5   6
ATOM      6  C   UNL     1     -18.762 -14.020   9.885  1.00  0.00     0.136 C 
BRANCH   6   7
ATOM      7  C   UNL     1     -18.415 -14.252  11.337  1.00  0.00    -0.004 C 
ATOM      8  C   UNL     1     -18.127 -15.466  11.819  1.00  0.00     0.007 C 
ENDBRANCH   6   7
BRANCH   6   9
ATOM      9  O   UNL     1     -17.680 -13.414   9.224  1.00  0.00    -0.389 OA
ATOM     10  H   UNL     1     -18.056 -12.930   8.442  1.00  0.00     0.211 HD
ENDBRANCH   6   9
ENDBRANCH   5   6
ENDBRANCH   1   5
TORSDOF 6
ENDMDL
MODEL 8
REMARK VINA RESULT:    -2.230      2.181      4.083
REMARK INTER + INTRA:          -3.322
REMARK INTER:                  -2.972
REMARK INTRA:                  -0.350
REMARK UNBOUND:                -0.375
REMARK SMILES C=C[C@@H](O)CCCCC
REMARK SMILES IDX 6 1 7 2 8 3 9 4 5 5 3 6 2 7 1 8 4 9
REMARK H PARENT 4 10
REMARK Flexibility Score: inf
ROOT
ATOM      1  C   UNL     1     -17.939 -13.599  10.010  1.00  0.00     0.003 C 
ENDROOT
BRANCH   1   2
ATOM      2  C   UNL     1     -18.408 -13.901  11.441  1.00  0.00    -0.000 C 
BRANCH   2   3
ATOM      3  C   UNL     1     -18.822 -15.369  11.630  1.00  0.00    -0.003 C 
ATOM      4  C   UNL     1     -18.867 -15.786  13.099  1.00  0.00     0.004 C 
ENDBRANCH   2   3
ENDBRANCH   1   2
BRANCH   1   5
ATOM      5  C   UNL     1     -18.581 -14.568   9.005  1.00  0.00     0.036 C 
BRANCH   5   6
ATOM      6  C   UNL     1     -17.532 -15.343   8.188  1.00  0.00     0.136 C 
BRANCH   6   7
ATOM      7  C   UNL     1     -16.222 -15.475   8.931  1.00  0.00    -0.004 C 
ATOM      8  C   UNL     1     -15.378 -16.490   8.717  1.00  0.00     0.007 C 
ENDBRANCH   6   7
BRANCH   6   9
ATOM      9  O   UNL     1     -18.038 -16.616   7.877  1.00  0.00    -0.389 OA
ATOM     10  H   UNL     1     -18.588 -16.904   8.652  1.00  0.00     0.211 HD
ENDBRANCH   6   9
ENDBRANCH   5   6
ENDBRANCH   1   5
TORSDOF 6
ENDMDL
MODEL 9
REMARK VINA RESULT:    -2.076      2.344      3.540
REMARK INTER + INTRA:          -3.119
REMARK INTER:                  -2.776
REMARK INTRA:                  -0.343
REMARK UNBOUND:                -0.375
REMARK SMILES C=C[C@@H](O)CCCCC
REMARK SMILES IDX 6 1 7 2 8 3 9 4 5 5 3 6 2 7 1 8 4 9
REMARK H PARENT 4 10
REMARK Flexibility Score: inf
ROOT
ATOM      1  C   UNL     1     -17.113 -14.468  10.449  1.00  0.00     0.003 C 
ENDROOT
BRANCH   1   2
ATOM      2  C   UNL     1     -17.664 -13.348   9.553  1.00  0.00    -0.000 C 
BRANCH   2   3
ATOM      3  C   UNL     1     -18.985 -12.765  10.079  1.00  0.00    -0.003 C 
ATOM      4  C   UNL     1     -19.076 -12.788  11.604  1.00  0.00     0.004 C 
ENDBRANCH   2   3
ENDBRANCH   1   2
BRANCH   1   5
ATOM      5  C   UNL     1     -16.696 -15.686   9.611  1.00  0.00     0.036 C 
BRANCH   5   6
ATOM      6  C   UNL     1     -17.764 -16.794   9.620  1.00  0.00     0.136 C 
BRANCH   6   7
ATOM      7  C   UNL     1     -18.914 -16.464  10.543  1.00  0.00    -0.004 C 
ATOM      8  C   UNL     1     -19.124 -17.122  11.688  1.00  0.00     0.007 C 
ENDBRANCH   6   7
BRANCH   6   9
ATOM      9  O   UNL     1     -18.238 -16.988   8.312  1.00  0.00    -0.389 OA
ATOM     10  H   UNL     1     -19.180 -17.296   8.391  1.00  0.00     0.211 HD
ENDBRANCH   6   9
ENDBRANCH   5   6
ENDBRANCH   1   5
TORSDOF 6
ENDMDL
