MODEL 1
REMARK VINA RESULT:    -6.085      0.000      0.000
REMARK INTER + INTRA:          -6.853
REMARK INTER:                  -6.797
REMARK INTRA:                  -0.056
REMARK UNBOUND:                -0.056
REMARK SMILES COc1cc2ccc(=O)oc2c(O)c1O
REMARK SMILES IDX 3 1 14 2 12 3 11 4 5 5 4 6 6 7 7 8 8 9 9 10 10 11 2 12 1 13
REMARK SMILES IDX 15 14 13 16
REMARK H PARENT 15 15 13 17
REMARK Flexibility Score: inf
ROOT
ATOM      1  C   UNL     1     -29.931  -4.892   0.006  1.00  0.00     0.165 A 
ATOM      2  C   UNL     1     -29.179  -4.594  -1.147  1.00  0.00     0.204 A 
ATOM      3  C   UNL     1     -28.331  -5.559  -1.710  1.00  0.00     0.205 A 
ATOM      4  C   UNL     1     -28.228  -6.832  -1.127  1.00  0.00     0.184 A 
ATOM      5  C   UNL     1     -28.981  -7.134   0.029  1.00  0.00     0.025 A 
ATOM      6  C   UNL     1     -29.826  -6.170   0.589  1.00  0.00     0.062 A 
ATOM      7  C   UNL     1     -28.859  -8.410   0.589  1.00  0.00     0.020 A 
ATOM      8  C   UNL     1     -28.006  -9.341  -0.002  1.00  0.00     0.094 A 
ATOM      9  C   UNL     1     -27.291  -8.972  -1.145  1.00  0.00     0.336 A 
ATOM     10  O   UNL     1     -26.515  -9.796  -1.694  1.00  0.00    -0.246 OA
ATOM     11  O   UNL     1     -27.425  -7.751  -1.658  1.00  0.00    -0.419 OA
ENDROOT
BRANCH   1  12
ATOM     12  O   UNL     1     -30.769  -3.900   0.541  1.00  0.00    -0.493 OA
ATOM     13  C   UNL     1     -32.114  -4.114   0.954  1.00  0.00     0.278 C 
ENDBRANCH   1  12
BRANCH   2  14
ATOM     14  O   UNL     1     -29.261  -3.337  -1.747  1.00  0.00    -0.502 OA
ATOM     15  H   UNL     1     -29.937  -2.640  -1.456  1.00  0.00     0.293 HD
ENDBRANCH   2  14
BRANCH   3  16
ATOM     16  O   UNL     1     -27.597  -5.235  -2.853  1.00  0.00    -0.502 OA
ATOM     17  H   UNL     1     -26.660  -5.585  -3.009  1.00  0.00     0.293 HD
ENDBRANCH   3  16
TORSDOF 3
ENDMDL
MODEL 2
REMARK VINA RESULT:    -5.981      9.274     11.321
REMARK INTER + INTRA:          -6.735
REMARK INTER:                  -6.668
REMARK INTRA:                  -0.067
REMARK UNBOUND:                -0.056
REMARK SMILES COc1cc2ccc(=O)oc2c(O)c1O
REMARK SMILES IDX 3 1 14 2 12 3 11 4 5 5 4 6 6 7 7 8 8 9 9 10 10 11 2 12 1 13
REMARK SMILES IDX 15 14 13 16
REMARK H PARENT 15 15 13 17
REMARK Flexibility Score: inf
ROOT
ATOM      1  C   UNL     1     -27.208 -15.647   1.966  1.00  0.00     0.165 A 
ATOM      2  C   UNL     1     -27.638 -16.846   2.567  1.00  0.00     0.204 A 
ATOM      3  C   UNL     1     -27.813 -16.920   3.956  1.00  0.00     0.205 A 
ATOM      4  C   UNL     1     -27.562 -15.795   4.758  1.00  0.00     0.184 A 
ATOM      5  C   UNL     1     -27.131 -14.592   4.160  1.00  0.00     0.025 A 
ATOM      6  C   UNL     1     -26.957 -14.520   2.773  1.00  0.00     0.062 A 
ATOM      7  C   UNL     1     -26.888 -13.487   4.982  1.00  0.00     0.020 A 
ATOM      8  C   UNL     1     -27.075 -13.602   6.359  1.00  0.00     0.094 A 
ATOM      9  C   UNL     1     -27.503 -14.825   6.883  1.00  0.00     0.336 A 
ATOM     10  O   UNL     1     -27.677 -14.951   8.123  1.00  0.00    -0.246 OA
ATOM     11  O   UNL     1     -27.727 -15.861   6.078  1.00  0.00    -0.419 OA
ENDROOT
BRANCH   1  12
ATOM     12  O   UNL     1     -27.044 -15.612   0.571  1.00  0.00    -0.493 OA
ATOM     13  C   UNL     1     -27.886 -14.894  -0.324  1.00  0.00     0.278 C 
ENDBRANCH   1  12
BRANCH   2  14
ATOM     14  O   UNL     1     -27.895 -17.979   1.794  1.00  0.00    -0.502 OA
ATOM     15  H   UNL     1     -28.724 -18.547   1.925  1.00  0.00     0.293 HD
ENDBRANCH   2  14
BRANCH   3  16
ATOM     16  O   UNL     1     -28.240 -18.122   4.524  1.00  0.00    -0.502 OA
ATOM     17  H   UNL     1     -28.968 -18.158   5.227  1.00  0.00     0.293 HD
ENDBRANCH   3  16
TORSDOF 3
ENDMDL
MODEL 3
REMARK VINA RESULT:    -5.942      1.534      2.250
REMARK INTER + INTRA:          -6.692
REMARK INTER:                  -6.637
REMARK INTRA:                  -0.056
REMARK UNBOUND:                -0.056
REMARK SMILES COc1cc2ccc(=O)oc2c(O)c1O
REMARK SMILES IDX 3 1 14 2 12 3 11 4 5 5 4 6 6 7 7 8 8 9 9 10 10 11 2 12 1 13
REMARK SMILES IDX 15 14 13 16
REMARK H PARENT 15 15 13 17
REMARK Flexibility Score: inf
ROOT
ATOM      1  C   UNL     1     -29.027  -5.124  -0.768  1.00  0.00     0.165 A 
ATOM      2  C   UNL     1     -28.144  -5.862  -1.579  1.00  0.00     0.204 A 
ATOM      3  C   UNL     1     -27.878  -7.210  -1.297  1.00  0.00     0.205 A 
ATOM      4  C   UNL     1     -28.495  -7.833  -0.200  1.00  0.00     0.184 A 
ATOM      5  C   UNL     1     -29.380  -7.097   0.616  1.00  0.00     0.025 A 
ATOM      6  C   UNL     1     -29.644  -5.752   0.332  1.00  0.00     0.062 A 
ATOM      7  C   UNL     1     -29.980  -7.742   1.703  1.00  0.00     0.020 A 
ATOM      8  C   UNL     1     -29.690  -9.083   1.949  1.00  0.00     0.094 A 
ATOM      9  C   UNL     1     -28.803  -9.750   1.100  1.00  0.00     0.336 A 
ATOM     10  O   UNL     1     -28.527 -10.960   1.305  1.00  0.00    -0.246 OA
ATOM     11  O   UNL     1     -28.246  -9.112   0.073  1.00  0.00    -0.419 OA
ENDROOT
BRANCH   1  12
ATOM     12  O   UNL     1     -29.268  -3.777  -1.084  1.00  0.00    -0.493 OA
ATOM     13  C   UNL     1     -30.558  -3.177  -1.137  1.00  0.00     0.278 C 
ENDBRANCH   1  12
BRANCH   2  14
ATOM     14  O   UNL     1     -27.518  -5.268  -2.676  1.00  0.00    -0.502 OA
ATOM     15  H   UNL     1     -27.939  -4.505  -3.193  1.00  0.00     0.293 HD
ENDBRANCH   2  14
BRANCH   3  16
ATOM     16  O   UNL     1     -26.998  -7.916  -2.119  1.00  0.00    -0.502 OA
ATOM     17  H   UNL     1     -26.705  -7.565  -3.022  1.00  0.00     0.293 HD
ENDBRANCH   3  16
TORSDOF 3
ENDMDL
MODEL 4
REMARK VINA RESULT:    -5.914      9.292     10.619
REMARK INTER + INTRA:          -6.661
REMARK INTER:                  -6.596
REMARK INTRA:                  -0.065
REMARK UNBOUND:                -0.056
REMARK SMILES COc1cc2ccc(=O)oc2c(O)c1O
REMARK SMILES IDX 3 1 14 2 12 3 11 4 5 5 4 6 6 7 7 8 8 9 9 10 10 11 2 12 1 13
REMARK SMILES IDX 15 14 13 16
REMARK H PARENT 15 15 13 17
REMARK Flexibility Score: inf
ROOT
ATOM      1  C   UNL     1     -30.102 -14.955   4.239  1.00  0.00     0.165 A 
ATOM      2  C   UNL     1     -29.674 -16.224   4.674  1.00  0.00     0.204 A 
ATOM      3  C   UNL     1     -28.509 -16.801   4.145  1.00  0.00     0.205 A 
ATOM      4  C   UNL     1     -27.762 -16.111   3.176  1.00  0.00     0.184 A 
ATOM      5  C   UNL     1     -28.188 -14.839   2.738  1.00  0.00     0.025 A 
ATOM      6  C   UNL     1     -29.349 -14.266   3.268  1.00  0.00     0.062 A 
ATOM      7  C   UNL     1     -27.423 -14.175   1.772  1.00  0.00     0.020 A 
ATOM      8  C   UNL     1     -26.272 -14.782   1.272  1.00  0.00     0.094 A 
ATOM      9  C   UNL     1     -25.911 -16.045   1.752  1.00  0.00     0.336 A 
ATOM     10  O   UNL     1     -24.876 -16.610   1.313  1.00  0.00    -0.246 OA
ATOM     11  O   UNL     1     -26.656 -16.654   2.671  1.00  0.00    -0.419 OA
ENDROOT
BRANCH   1  12
ATOM     12  O   UNL     1     -31.273 -14.411   4.793  1.00  0.00    -0.493 OA
ATOM     13  C   UNL     1     -32.570 -14.531   4.219  1.00  0.00     0.278 C 
ENDBRANCH   1  12
BRANCH   2  14
ATOM     14  O   UNL     1     -30.397 -16.931   5.635  1.00  0.00    -0.502 OA
ATOM     15  H   UNL     1     -31.254 -16.573   6.040  1.00  0.00     0.293 HD
ENDBRANCH   2  14
BRANCH   3  16
ATOM     16  O   UNL     1     -28.110 -18.060   4.594  1.00  0.00    -0.502 OA
ATOM     17  H   UNL     1     -27.149 -18.266   4.837  1.00  0.00     0.293 HD
ENDBRANCH   3  16
TORSDOF 3
ENDMDL
MODEL 5
REMARK VINA RESULT:    -5.906      2.171      4.599
REMARK INTER + INTRA:          -6.653
REMARK INTER:                  -6.586
REMARK INTRA:                  -0.066
REMARK UNBOUND:                -0.056
REMARK SMILES COc1cc2ccc(=O)oc2c(O)c1O
REMARK SMILES IDX 3 1 14 2 12 3 11 4 5 5 4 6 6 7 7 8 8 9 9 10 10 11 2 12 1 13
REMARK SMILES IDX 15 14 13 16
REMARK H PARENT 15 15 13 17
REMARK Flexibility Score: inf
ROOT
ATOM      1  C   UNL     1     -29.561  -9.131   1.781  1.00  0.00     0.165 A 
ATOM      2  C   UNL     1     -28.757  -9.740   0.800  1.00  0.00     0.204 A 
ATOM      3  C   UNL     1     -28.262  -8.991  -0.278  1.00  0.00     0.205 A 
ATOM      4  C   UNL     1     -28.566  -7.624  -0.383  1.00  0.00     0.184 A 
ATOM      5  C   UNL     1     -29.373  -7.010   0.599  1.00  0.00     0.025 A 
ATOM      6  C   UNL     1     -29.865  -7.760   1.674  1.00  0.00     0.062 A 
ATOM      7  C   UNL     1     -29.661  -5.647   0.470  1.00  0.00     0.020 A 
ATOM      8  C   UNL     1     -29.149  -4.938  -0.616  1.00  0.00     0.094 A 
ATOM      9  C   UNL     1     -28.358  -5.611  -1.551  1.00  0.00     0.336 A 
ATOM     10  O   UNL     1     -27.886  -4.990  -2.538  1.00  0.00    -0.246 OA
ATOM     11  O   UNL     1     -28.099  -6.908  -1.404  1.00  0.00    -0.419 OA
ENDROOT
BRANCH   1  12
ATOM     12  O   UNL     1     -30.038  -9.914   2.845  1.00  0.00    -0.493 OA
ATOM     13  C   UNL     1     -31.315 -10.542   2.879  1.00  0.00     0.278 C 
ENDBRANCH   1  12
BRANCH   2  14
ATOM     14  O   UNL     1     -28.438 -11.096   0.879  1.00  0.00    -0.502 OA
ATOM     15  H   UNL     1     -27.482 -11.432   0.836  1.00  0.00     0.293 HD
ENDBRANCH   2  14
BRANCH   3  16
ATOM     16  O   UNL     1     -27.466  -9.622  -1.236  1.00  0.00    -0.502 OA
ATOM     17  H   UNL     1     -27.024 -10.516  -1.066  1.00  0.00     0.293 HD
ENDBRANCH   3  16
TORSDOF 3
ENDMDL
MODEL 6
REMARK VINA RESULT:    -5.813      5.614      6.459
REMARK INTER + INTRA:          -6.548
REMARK INTER:                  -6.498
REMARK INTRA:                  -0.050
REMARK UNBOUND:                -0.056
REMARK SMILES COc1cc2ccc(=O)oc2c(O)c1O
REMARK SMILES IDX 3 1 14 2 12 3 11 4 5 5 4 6 6 7 7 8 8 9 9 10 10 11 2 12 1 13
REMARK SMILES IDX 15 14 13 16
REMARK H PARENT 15 15 13 17
REMARK Flexibility Score: inf
ROOT
ATOM      1  C   UNL     1     -34.298  -9.712   2.295  1.00  0.00     0.165 A 
ATOM      2  C   UNL     1     -33.260  -8.900   2.788  1.00  0.00     0.204 A 
ATOM      3  C   UNL     1     -31.926  -9.325   2.706  1.00  0.00     0.205 A 
ATOM      4  C   UNL     1     -31.618 -10.567   2.127  1.00  0.00     0.184 A 
ATOM      5  C   UNL     1     -32.657 -11.384   1.632  1.00  0.00     0.025 A 
ATOM      6  C   UNL     1     -33.987 -10.957   1.715  1.00  0.00     0.062 A 
ATOM      7  C   UNL     1     -32.322 -12.616   1.061  1.00  0.00     0.020 A 
ATOM      8  C   UNL     1     -30.984 -13.002   0.997  1.00  0.00     0.094 A 
ATOM      9  C   UNL     1     -30.007 -12.142   1.509  1.00  0.00     0.336 A 
ATOM     10  O   UNL     1     -28.794 -12.471   1.462  1.00  0.00    -0.246 OA
ATOM     11  O   UNL     1     -30.353 -10.975   2.047  1.00  0.00    -0.419 OA
ENDROOT
BRANCH   1  12
ATOM     12  O   UNL     1     -35.622  -9.251   2.395  1.00  0.00    -0.493 OA
ATOM     13  C   UNL     1     -36.772 -10.089   2.387  1.00  0.00     0.278 C 
ENDBRANCH   1  12
BRANCH   2  14
ATOM     14  O   UNL     1     -33.536  -7.661   3.368  1.00  0.00    -0.502 OA
ATOM     15  H   UNL     1     -34.465  -7.406   3.685  1.00  0.00     0.293 HD
ENDBRANCH   2  14
BRANCH   3  16
ATOM     16  O   UNL     1     -30.917  -8.499   3.204  1.00  0.00    -0.502 OA
ATOM     17  H   UNL     1     -30.396  -8.728   4.042  1.00  0.00     0.293 HD
ENDBRANCH   3  16
TORSDOF 3
ENDMDL
MODEL 7
REMARK VINA RESULT:    -5.769      6.475      6.935
REMARK INTER + INTRA:          -6.500
REMARK INTER:                  -6.430
REMARK INTRA:                  -0.069
REMARK UNBOUND:                -0.056
REMARK SMILES COc1cc2ccc(=O)oc2c(O)c1O
REMARK SMILES IDX 3 1 14 2 12 3 11 4 5 5 4 6 6 7 7 8 8 9 9 10 10 11 2 12 1 13
REMARK SMILES IDX 15 14 13 16
REMARK H PARENT 15 15 13 17
REMARK Flexibility Score: inf
ROOT
ATOM      1  C   UNL     1     -25.282 -11.641   2.348  1.00  0.00     0.165 A 
ATOM      2  C   UNL     1     -24.500 -10.647   1.731  1.00  0.00     0.204 A 
ATOM      3  C   UNL     1     -24.497 -10.509   0.335  1.00  0.00     0.205 A 
ATOM      4  C   UNL     1     -25.280 -11.365  -0.457  1.00  0.00     0.184 A 
ATOM      5  C   UNL     1     -26.066 -12.363   0.158  1.00  0.00     0.025 A 
ATOM      6  C   UNL     1     -26.067 -12.498   1.551  1.00  0.00     0.062 A 
ATOM      7  C   UNL     1     -26.836 -13.202  -0.655  1.00  0.00     0.020 A 
ATOM      8  C   UNL     1     -26.806 -13.032  -2.038  1.00  0.00     0.094 A 
ATOM      9  C   UNL     1     -26.004 -12.022  -2.579  1.00  0.00     0.336 A 
ATOM     10  O   UNL     1     -25.963 -11.853  -3.825  1.00  0.00    -0.246 OA
ATOM     11  O   UNL     1     -25.281 -11.239  -1.782  1.00  0.00    -0.419 OA
ENDROOT
BRANCH   1  12
ATOM     12  O   UNL     1     -25.258 -11.747   3.749  1.00  0.00    -0.493 OA
ATOM     13  C   UNL     1     -26.271 -11.248   4.615  1.00  0.00     0.278 C 
ENDBRANCH   1  12
BRANCH   2  14
ATOM     14  O   UNL     1     -23.712  -9.782   2.493  1.00  0.00    -0.502 OA
ATOM     15  H   UNL     1     -23.586  -8.807   2.249  1.00  0.00     0.293 HD
ENDBRANCH   2  14
BRANCH   3  16
ATOM     16  O   UNL     1     -23.711  -9.514  -0.249  1.00  0.00    -0.502 OA
ATOM     17  H   UNL     1     -22.701  -9.579  -0.289  1.00  0.00     0.293 HD
ENDBRANCH   3  16
TORSDOF 3
ENDMDL
MODEL 8
REMARK VINA RESULT:    -5.768      8.015     10.443
REMARK INTER + INTRA:          -6.498
REMARK INTER:                  -6.449
REMARK INTRA:                  -0.049
REMARK UNBOUND:                -0.056
REMARK SMILES COc1cc2ccc(=O)oc2c(O)c1O
REMARK SMILES IDX 3 1 14 2 12 3 11 4 5 5 4 6 6 7 7 8 8 9 9 10 10 11 2 12 1 13
REMARK SMILES IDX 15 14 13 16
REMARK H PARENT 15 15 13 17
REMARK Flexibility Score: inf
ROOT
ATOM      1  C   UNL     1     -27.527 -15.642   4.415  1.00  0.00     0.165 A 
ATOM      2  C   UNL     1     -27.783 -16.834   3.711  1.00  0.00     0.204 A 
ATOM      3  C   UNL     1     -27.826 -16.836   2.309  1.00  0.00     0.205 A 
ATOM      4  C   UNL     1     -27.609 -15.644   1.598  1.00  0.00     0.184 A 
ATOM      5  C   UNL     1     -27.352 -14.447   2.300  1.00  0.00     0.025 A 
ATOM      6  C   UNL     1     -27.310 -14.449   3.699  1.00  0.00     0.062 A 
ATOM      7  C   UNL     1     -27.140 -13.275   1.566  1.00  0.00     0.020 A 
ATOM      8  C   UNL     1     -27.189 -13.319   0.174  1.00  0.00     0.094 A 
ATOM      9  C   UNL     1     -27.450 -14.540  -0.455  1.00  0.00     0.336 A 
ATOM     10  O   UNL     1     -27.500 -14.601  -1.711  1.00  0.00    -0.246 OA
ATOM     11  O   UNL     1     -27.648 -15.640   0.267  1.00  0.00    -0.419 OA
ENDROOT
BRANCH   1  12
ATOM     12  O   UNL     1     -27.492 -15.681   5.819  1.00  0.00    -0.493 OA
ATOM     13  C   UNL     1     -27.525 -14.533   6.660  1.00  0.00     0.278 C 
ENDBRANCH   1  12
BRANCH   2  14
ATOM     14  O   UNL     1     -28.002 -18.032   4.392  1.00  0.00    -0.502 OA
ATOM     15  H   UNL     1     -28.885 -18.247   4.841  1.00  0.00     0.293 HD
ENDBRANCH   2  14
BRANCH   3  16
ATOM     16  O   UNL     1     -28.083 -18.032   1.638  1.00  0.00    -0.502 OA
ATOM     17  H   UNL     1     -28.794 -18.683   1.948  1.00  0.00     0.293 HD
ENDBRANCH   3  16
TORSDOF 3
ENDMDL
MODEL 9
REMARK VINA RESULT:    -5.744      8.536     10.602
REMARK INTER + INTRA:          -6.472
REMARK INTER:                  -6.421
REMARK INTRA:                  -0.051
REMARK UNBOUND:                -0.056
REMARK SMILES COc1cc2ccc(=O)oc2c(O)c1O
REMARK SMILES IDX 3 1 14 2 12 3 11 4 5 5 4 6 6 7 7 8 8 9 9 10 10 11 2 12 1 13
REMARK SMILES IDX 15 14 13 16
REMARK H PARENT 15 15 13 17
REMARK Flexibility Score: inf
ROOT
ATOM      1  C   UNL     1     -33.647 -15.669   4.516  1.00  0.00     0.165 A 
ATOM      2  C   UNL     1     -32.349 -15.589   5.057  1.00  0.00     0.204 A 
ATOM      3  C   UNL     1     -31.448 -14.616   4.601  1.00  0.00     0.205 A 
ATOM      4  C   UNL     1     -31.837 -13.712   3.600  1.00  0.00     0.184 A 
ATOM      5  C   UNL     1     -33.137 -13.788   3.055  1.00  0.00     0.025 A 
ATOM      6  C   UNL     1     -34.035 -14.760   3.512  1.00  0.00     0.062 A 
ATOM      7  C   UNL     1     -33.498 -12.875   2.059  1.00  0.00     0.020 A 
ATOM      8  C   UNL     1     -32.573 -11.922   1.634  1.00  0.00     0.094 A 
ATOM      9  C   UNL     1     -31.303 -11.905   2.218  1.00  0.00     0.336 A 
ATOM     10  O   UNL     1     -30.454 -11.054   1.848  1.00  0.00    -0.246 OA
ATOM     11  O   UNL     1     -30.986 -12.786   3.163  1.00  0.00    -0.419 OA
ENDROOT
BRANCH   1  12
ATOM     12  O   UNL     1     -34.521 -16.657   4.999  1.00  0.00    -0.493 OA
ATOM     13  C   UNL     1     -35.936 -16.521   5.069  1.00  0.00     0.278 C 
ENDBRANCH   1  12
BRANCH   2  14
ATOM     14  O   UNL     1     -31.936 -16.475   6.053  1.00  0.00    -0.502 OA
ATOM     15  H   UNL     1     -32.491 -16.657   6.881  1.00  0.00     0.293 HD
ENDBRANCH   2  14
BRANCH   3  16
ATOM     16  O   UNL     1     -30.168 -14.561   5.156  1.00  0.00    -0.502 OA
ATOM     17  H   UNL     1     -29.998 -14.739   6.138  1.00  0.00     0.293 HD
ENDBRANCH   3  16
TORSDOF 3
ENDMDL
