MODEL 1
REMARK VINA RESULT:     0.056      0.000      0.000
REMARK INTER + INTRA:          -0.015
REMARK INTER:                   0.065
REMARK INTRA:                  -0.080
REMARK UNBOUND:                -0.080
REMARK SMILES O=C([O-])CCC(=O)[O-]
REMARK SMILES IDX 4 1 2 2 1 3 3 4 5 5 6 6 7 7 8 8
REMARK H PARENT
REMARK Flexibility Score: inf
ROOT
ATOM      1  C   UNL     1      11.294 -13.125   5.608  1.00  0.00     0.059 C 
ENDROOT
BRANCH   1   2
ATOM      2  C   UNL     1       9.949 -13.640   5.195  1.00  0.00     0.042 C 
ATOM      3  O   UNL     1       9.784 -14.867   4.963  1.00  0.00    -0.550 OA
ATOM      4  O   UNL     1       8.869 -12.771   5.105  1.00  0.00    -0.550 OA
ENDBRANCH   1   2
BRANCH   1   5
ATOM      5  C   UNL     1      11.200 -11.718   6.210  1.00  0.00     0.059 C 
BRANCH   5   6
ATOM      6  C   UNL     1      11.655 -10.671   5.238  1.00  0.00     0.042 C 
ATOM      7  O   UNL     1      11.134  -9.525   5.254  1.00  0.00    -0.550 OA
ATOM      8  O   UNL     1      12.682 -10.950   4.345  1.00  0.00    -0.550 OA
ENDBRANCH   5   6
ENDBRANCH   1   5
TORSDOF 3
ENDMDL
MODEL 2
REMARK VINA RESULT:     0.069      0.071      1.147
REMARK INTER + INTRA:           0.001
REMARK INTER:                   0.074
REMARK INTRA:                  -0.074
REMARK UNBOUND:                -0.080
REMARK SMILES O=C([O-])CCC(=O)[O-]
REMARK SMILES IDX 4 1 2 2 1 3 3 4 5 5 6 6 7 7 8 8
REMARK H PARENT
REMARK Flexibility Score: inf
ROOT
ATOM      1  C   UNL     1      11.287 -13.103   5.642  1.00  0.00     0.059 C 
ENDROOT
BRANCH   1   2
ATOM      2  C   UNL     1       9.949 -13.637   5.233  1.00  0.00     0.042 C 
ATOM      3  O   UNL     1       8.971 -12.856   5.089  1.00  0.00    -0.550 OA
ATOM      4  O   UNL     1       9.791 -14.993   4.971  1.00  0.00    -0.550 OA
ENDBRANCH   1   2
BRANCH   1   5
ATOM      5  C   UNL     1      11.178 -11.685   6.215  1.00  0.00     0.059 C 
BRANCH   5   6
ATOM      6  C   UNL     1      11.651 -10.655   5.234  1.00  0.00     0.042 C 
ATOM      7  O   UNL     1      11.155  -9.498   5.242  1.00  0.00    -0.550 OA
ATOM      8  O   UNL     1      12.668 -10.962   4.339  1.00  0.00    -0.550 OA
ENDBRANCH   5   6
ENDBRANCH   1   5
TORSDOF 3
ENDMDL
MODEL 3
REMARK VINA RESULT:     0.093      0.098      3.850
REMARK INTER + INTRA:           0.029
REMARK INTER:                   0.105
REMARK INTRA:                  -0.075
REMARK UNBOUND:                -0.080
REMARK SMILES O=C([O-])CCC(=O)[O-]
REMARK SMILES IDX 4 1 2 2 1 3 3 4 5 5 6 6 7 7 8 8
REMARK H PARENT
REMARK Flexibility Score: inf
ROOT
ATOM      1  C   UNL     1      11.161 -11.730   6.213  1.00  0.00     0.059 C 
ENDROOT
BRANCH   1   2
ATOM      2  C   UNL     1      11.643 -10.688   5.250  1.00  0.00     0.042 C 
ATOM      3  O   UNL     1      11.172  -9.520   5.292  1.00  0.00    -0.550 OA
ATOM      4  O   UNL     1      12.643 -10.994   4.335  1.00  0.00    -0.550 OA
ENDBRANCH   1   2
BRANCH   1   5
ATOM      5  C   UNL     1      11.284 -13.141   5.626  1.00  0.00     0.059 C 
BRANCH   5   6
ATOM      6  C   UNL     1       9.949 -13.688   5.219  1.00  0.00     0.042 C 
ATOM      7  O   UNL     1       8.968 -12.915   5.066  1.00  0.00    -0.550 OA
ATOM      8  O   UNL     1       9.802 -15.047   4.970  1.00  0.00    -0.550 OA
ENDBRANCH   5   6
ENDBRANCH   1   5
TORSDOF 3
ENDMDL
MODEL 4
REMARK VINA RESULT:     0.193      0.104      3.694
REMARK INTER + INTRA:           0.147
REMARK INTER:                   0.226
REMARK INTRA:                  -0.079
REMARK UNBOUND:                -0.080
REMARK SMILES O=C([O-])CCC(=O)[O-]
REMARK SMILES IDX 4 1 2 2 1 3 3 4 5 5 6 6 7 7 8 8
REMARK H PARENT
REMARK Flexibility Score: inf
ROOT
ATOM      1  C   UNL     1      11.194 -11.720   6.218  1.00  0.00     0.059 C 
ENDROOT
BRANCH   1   2
ATOM      2  C   UNL     1      11.681 -10.684   5.251  1.00  0.00     0.042 C 
ATOM      3  O   UNL     1      12.585 -10.967   4.422  1.00  0.00    -0.550 OA
ATOM      4  O   UNL     1      11.107  -9.419   5.239  1.00  0.00    -0.550 OA
ENDBRANCH   1   2
BRANCH   1   5
ATOM      5  C   UNL     1      11.304 -13.134   5.634  1.00  0.00     0.059 C 
BRANCH   5   6
ATOM      6  C   UNL     1       9.964 -13.672   5.232  1.00  0.00     0.042 C 
ATOM      7  O   UNL     1       8.984 -12.893   5.097  1.00  0.00    -0.550 OA
ATOM      8  O   UNL     1       9.809 -15.027   4.969  1.00  0.00    -0.550 OA
ENDBRANCH   5   6
ENDBRANCH   1   5
TORSDOF 3
ENDMDL
MODEL 5
REMARK VINA RESULT:     2.013      2.088      3.269
REMARK INTER + INTRA:           2.285
REMARK INTER:                   1.687
REMARK INTRA:                   0.599
REMARK UNBOUND:                -0.080
REMARK SMILES O=C([O-])CCC(=O)[O-]
REMARK SMILES IDX 4 1 2 2 1 3 3 4 5 5 6 6 7 7 8 8
REMARK H PARENT
REMARK Flexibility Score: inf
ROOT
ATOM      1  C   UNL     1      11.812 -12.073   5.328  1.00  0.00     0.059 C 
ENDROOT
BRANCH   1   2
ATOM      2  C   UNL     1      12.326 -13.383   5.840  1.00  0.00     0.042 C 
ATOM      3  O   UNL     1      11.974 -14.461   5.291  1.00  0.00    -0.550 OA
ATOM      4  O   UNL     1      13.227 -13.412   6.898  1.00  0.00    -0.550 OA
ENDBRANCH   1   2
BRANCH   1   5
ATOM      5  C   UNL     1      10.495 -11.678   6.006  1.00  0.00     0.059 C 
BRANCH   5   6
ATOM      6  C   UNL     1       9.321 -12.367   5.379  1.00  0.00     0.042 C 
ATOM      7  O   UNL     1       9.382 -13.593   5.101  1.00  0.00    -0.550 OA
ATOM      8  O   UNL     1       8.148 -11.663   5.140  1.00  0.00    -0.550 OA
ENDBRANCH   5   6
ENDBRANCH   1   5
TORSDOF 3
ENDMDL
MODEL 6
REMARK VINA RESULT:     2.039      2.076      2.579
REMARK INTER + INTRA:           2.317
REMARK INTER:                   1.742
REMARK INTRA:                   0.575
REMARK UNBOUND:                -0.080
REMARK SMILES O=C([O-])CCC(=O)[O-]
REMARK SMILES IDX 4 1 2 2 1 3 3 4 5 5 6 6 7 7 8 8
REMARK H PARENT
REMARK Flexibility Score: inf
ROOT
ATOM      1  C   UNL     1      10.489 -11.677   6.002  1.00  0.00     0.059 C 
ENDROOT
BRANCH   1   2
ATOM      2  C   UNL     1       9.326 -12.390   5.383  1.00  0.00     0.042 C 
ATOM      3  O   UNL     1       9.397 -13.623   5.135  1.00  0.00    -0.550 OA
ATOM      4  O   UNL     1       8.147 -11.703   5.120  1.00  0.00    -0.550 OA
ENDBRANCH   1   2
BRANCH   1   5
ATOM      5  C   UNL     1      11.811 -12.061   5.326  1.00  0.00     0.059 C 
BRANCH   5   6
ATOM      6  C   UNL     1      12.343 -13.360   5.850  1.00  0.00     0.042 C 
ATOM      7  O   UNL     1      13.099 -13.375   6.856  1.00  0.00    -0.550 OA
ATOM      8  O   UNL     1      11.969 -14.557   5.251  1.00  0.00    -0.550 OA
ENDBRANCH   5   6
ENDBRANCH   1   5
TORSDOF 3
ENDMDL
MODEL 7
REMARK VINA RESULT:     2.489      1.677      3.693
REMARK INTER + INTRA:           2.846
REMARK INTER:                   2.877
REMARK INTRA:                  -0.031
REMARK UNBOUND:                -0.080
REMARK SMILES O=C([O-])CCC(=O)[O-]
REMARK SMILES IDX 4 1 2 2 1 3 3 4 5 5 6 6 7 7 8 8
REMARK H PARENT
REMARK Flexibility Score: inf
ROOT
ATOM      1  C   UNL     1      10.380 -11.779   5.894  1.00  0.00     0.059 C 
ENDROOT
BRANCH   1   2
ATOM      2  C   UNL     1      11.830 -11.953   5.556  1.00  0.00     0.042 C 
ATOM      3  O   UNL     1      12.427 -11.087   4.863  1.00  0.00    -0.550 OA
ATOM      4  O   UNL     1      12.531 -13.050   6.041  1.00  0.00    -0.550 OA
ENDBRANCH   1   2
BRANCH   1   5
ATOM      5  C   UNL     1       9.529 -12.926   5.337  1.00  0.00     0.059 C 
BRANCH   5   6
ATOM      6  C   UNL     1       8.267 -12.421   4.705  1.00  0.00     0.042 C 
ATOM      7  O   UNL     1       7.588 -11.526   5.274  1.00  0.00    -0.550 OA
ATOM      8  O   UNL     1       7.865 -12.910   3.468  1.00  0.00    -0.550 OA
ENDBRANCH   5   6
ENDBRANCH   1   5
TORSDOF 3
ENDMDL
