MODEL 1
REMARK VINA RESULT:    -5.259      0.000      0.000
REMARK INTER + INTRA:          -6.321
REMARK INTER:                  -6.182
REMARK INTRA:                  -0.140
REMARK UNBOUND:                -0.140
REMARK SMILES O=C([O-])C=Cc1ccc(O)c(O)c1
REMARK SMILES IDX 6 1 13 2 7 3 11 4 8 5 9 6 5 7 4 8 2 9 1 10 3 11 12 12 10 14
REMARK H PARENT 12 13 10 15
REMARK Flexibility Score: inf
ROOT
ATOM      1  C   UNL     1       8.484  35.332  -0.526  1.00  0.00    -0.022 A 
ATOM      2  C   UNL     1       9.023  35.131   0.756  1.00  0.00     0.058 A 
ATOM      3  C   UNL     1       9.070  36.300  -1.366  1.00  0.00     0.012 A 
ATOM      4  C   UNL     1      10.141  35.861   1.186  1.00  0.00     0.157 A 
ATOM      5  C   UNL     1      10.184  37.027  -0.937  1.00  0.00     0.051 A 
ATOM      6  C   UNL     1      10.725  36.811   0.333  1.00  0.00     0.157 A 
ENDROOT
BRANCH   1   7
ATOM      7  C   UNL     1       7.294  34.541  -0.928  1.00  0.00     0.010 C 
ATOM      8  C   UNL     1       6.778  34.549  -2.164  1.00  0.00     0.025 C 
BRANCH   8   9
ATOM      9  C   UNL     1       5.602  33.738  -2.520  1.00  0.00     0.064 C 
ATOM     10  O   UNL     1       4.464  34.081  -2.105  1.00  0.00    -0.545 OA
ATOM     11  O   UNL     1       5.726  32.599  -3.305  1.00  0.00    -0.545 OA
ENDBRANCH   8   9
ENDBRANCH   1   7
BRANCH   4  12
ATOM     12  O   UNL     1      10.673  35.645   2.457  1.00  0.00    -0.504 OA
ATOM     13  H   UNL     1      10.728  36.388   3.143  1.00  0.00     0.293 HD
ENDBRANCH   4  12
BRANCH   6  14
ATOM     14  O   UNL     1      11.837  37.552   0.730  1.00  0.00    -0.504 OA
ATOM     15  H   UNL     1      11.748  38.444   1.202  1.00  0.00     0.293 HD
ENDBRANCH   6  14
TORSDOF 4
ENDMDL
MODEL 2
REMARK VINA RESULT:    -5.163      1.397      1.953
REMARK INTER + INTRA:          -6.208
REMARK INTER:                  -6.077
REMARK INTRA:                  -0.131
REMARK UNBOUND:                -0.140
REMARK SMILES O=C([O-])C=Cc1ccc(O)c(O)c1
REMARK SMILES IDX 6 1 13 2 7 3 11 4 8 5 9 6 5 7 4 8 2 9 1 10 3 11 12 12 10 14
REMARK H PARENT 12 13 10 15
REMARK Flexibility Score: inf
ROOT
ATOM      1  C   UNL     1       7.630  35.531  -0.507  1.00  0.00    -0.022 A 
ATOM      2  C   UNL     1       7.816  34.500   0.429  1.00  0.00     0.058 A 
ATOM      3  C   UNL     1       8.493  36.644  -0.472  1.00  0.00     0.012 A 
ATOM      4  C   UNL     1       8.857  34.562   1.367  1.00  0.00     0.157 A 
ATOM      5  C   UNL     1       9.530  36.707   0.463  1.00  0.00     0.051 A 
ATOM      6  C   UNL     1       9.719  35.670   1.381  1.00  0.00     0.157 A 
ENDROOT
BRANCH   1   7
ATOM      7  C   UNL     1       6.508  35.420  -1.471  1.00  0.00     0.010 C 
ATOM      8  C   UNL     1       5.379  34.740  -1.225  1.00  0.00     0.025 C 
BRANCH   8   9
ATOM      9  C   UNL     1       4.287  34.667  -2.208  1.00  0.00     0.064 C 
ATOM     10  O   UNL     1       3.774  33.550  -2.483  1.00  0.00    -0.545 OA
ATOM     11  O   UNL     1       3.812  35.809  -2.841  1.00  0.00    -0.545 OA
ENDBRANCH   8   9
ENDBRANCH   1   7
BRANCH   4  12
ATOM     12  O   UNL     1       9.037  33.527   2.284  1.00  0.00    -0.504 OA
ATOM     13  H   UNL     1       8.795  32.569   2.058  1.00  0.00     0.293 HD
ENDBRANCH   4  12
BRANCH   6  14
ATOM     14  O   UNL     1      10.764  35.761   2.300  1.00  0.00    -0.504 OA
ATOM     15  H   UNL     1      10.849  35.123   3.082  1.00  0.00     0.293 HD
ENDBRANCH   6  14
TORSDOF 4
ENDMDL
MODEL 3
REMARK VINA RESULT:    -5.110      1.736      2.345
REMARK INTER + INTRA:          -6.146
REMARK INTER:                  -6.014
REMARK INTRA:                  -0.132
REMARK UNBOUND:                -0.140
REMARK SMILES O=C([O-])C=Cc1ccc(O)c(O)c1
REMARK SMILES IDX 6 1 13 2 7 3 11 4 8 5 9 6 5 7 4 8 2 9 1 10 3 11 12 12 10 14
REMARK H PARENT 12 13 10 15
REMARK Flexibility Score: inf
ROOT
ATOM      1  C   UNL     1       7.383  34.710  -0.501  1.00  0.00    -0.022 A 
ATOM      2  C   UNL     1       7.271  35.809   0.368  1.00  0.00     0.058 A 
ATOM      3  C   UNL     1       8.568  33.948  -0.483  1.00  0.00     0.012 A 
ATOM      4  C   UNL     1       8.308  36.130   1.256  1.00  0.00     0.157 A 
ATOM      5  C   UNL     1       9.601  34.267   0.401  1.00  0.00     0.051 A 
ATOM      6  C   UNL     1       9.477  35.353   1.273  1.00  0.00     0.157 A 
ENDROOT
BRANCH   1   7
ATOM      7  C   UNL     1       6.260  34.420  -1.427  1.00  0.00     0.010 C 
ATOM      8  C   UNL     1       5.010  34.868  -1.245  1.00  0.00     0.025 C 
BRANCH   8   9
ATOM      9  C   UNL     1       3.930  34.564  -2.197  1.00  0.00     0.064 C 
ATOM     10  O   UNL     1       3.658  33.365  -2.464  1.00  0.00    -0.545 OA
ATOM     11  O   UNL     1       3.205  35.579  -2.809  1.00  0.00    -0.545 OA
ENDBRANCH   8   9
ENDBRANCH   1   7
BRANCH   4  12
ATOM     12  O   UNL     1       8.180  37.217   2.119  1.00  0.00    -0.504 OA
ATOM     13  H   UNL     1       7.359  37.811   2.107  1.00  0.00     0.293 HD
ENDBRANCH   4  12
BRANCH   6  14
ATOM     14  O   UNL     1      10.526  35.645   2.145  1.00  0.00    -0.504 OA
ATOM     15  H   UNL     1      11.281  36.268   1.886  1.00  0.00     0.293 HD
ENDBRANCH   6  14
TORSDOF 4
ENDMDL
MODEL 4
REMARK VINA RESULT:    -4.845      2.377      3.129
REMARK INTER + INTRA:          -5.835
REMARK INTER:                  -5.705
REMARK INTRA:                  -0.130
REMARK UNBOUND:                -0.140
REMARK SMILES O=C([O-])C=Cc1ccc(O)c(O)c1
REMARK SMILES IDX 6 1 13 2 7 3 11 4 8 5 9 6 5 7 4 8 2 9 1 10 3 11 12 12 10 14
REMARK H PARENT 12 13 10 15
REMARK Flexibility Score: inf
ROOT
ATOM      1  C   UNL     1       7.391  34.609  -1.496  1.00  0.00    -0.022 A 
ATOM      2  C   UNL     1       7.915  33.333  -1.763  1.00  0.00     0.058 A 
ATOM      3  C   UNL     1       8.281  35.664  -1.216  1.00  0.00     0.012 A 
ATOM      4  C   UNL     1       9.301  33.115  -1.777  1.00  0.00     0.157 A 
ATOM      5  C   UNL     1       9.662  35.448  -1.230  1.00  0.00     0.051 A 
ATOM      6  C   UNL     1      10.177  34.179  -1.512  1.00  0.00     0.157 A 
ENDROOT
BRANCH   1   7
ATOM      7  C   UNL     1       5.917  34.782  -1.484  1.00  0.00     0.010 C 
ATOM      8  C   UNL     1       5.076  34.051  -2.227  1.00  0.00     0.025 C 
BRANCH   8   9
ATOM      9  C   UNL     1       3.619  34.251  -2.174  1.00  0.00     0.064 C 
ATOM     10  O   UNL     1       2.875  33.305  -1.804  1.00  0.00    -0.545 OA
ATOM     11  O   UNL     1       3.047  35.467  -2.528  1.00  0.00    -0.545 OA
ENDBRANCH   8   9
ENDBRANCH   1   7
BRANCH   4  12
ATOM     12  O   UNL     1       9.808  31.846  -2.054  1.00  0.00    -0.504 OA
ATOM     13  H   UNL     1      10.355  31.333  -1.372  1.00  0.00     0.293 HD
ENDBRANCH   4  12
BRANCH   6  14
ATOM     14  O   UNL     1      11.560  33.996  -1.519  1.00  0.00    -0.504 OA
ATOM     15  H   UNL     1      12.158  34.446  -2.203  1.00  0.00     0.293 HD
ENDBRANCH   6  14
TORSDOF 4
ENDMDL
MODEL 5
REMARK VINA RESULT:    -4.812      2.096      2.352
REMARK INTER + INTRA:          -5.796
REMARK INTER:                  -5.669
REMARK INTRA:                  -0.127
REMARK UNBOUND:                -0.140
REMARK SMILES O=C([O-])C=Cc1ccc(O)c(O)c1
REMARK SMILES IDX 6 1 13 2 7 3 11 4 8 5 9 6 5 7 4 8 2 9 1 10 3 11 12 12 10 14
REMARK H PARENT 12 13 10 15
REMARK Flexibility Score: inf
ROOT
ATOM      1  C   UNL     1       7.900  36.722   0.124  1.00  0.00    -0.022 A 
ATOM      2  C   UNL     1       8.605  36.205   1.224  1.00  0.00     0.058 A 
ATOM      3  C   UNL     1       8.625  37.309  -0.932  1.00  0.00     0.012 A 
ATOM      4  C   UNL     1      10.007  36.248   1.262  1.00  0.00     0.157 A 
ATOM      5  C   UNL     1      10.021  37.352  -0.895  1.00  0.00     0.051 A 
ATOM      6  C   UNL     1      10.717  36.821   0.196  1.00  0.00     0.157 A 
ENDROOT
BRANCH   1   7
ATOM      7  C   UNL     1       6.418  36.661   0.139  1.00  0.00     0.010 C 
ATOM      8  C   UNL     1       5.721  35.555   0.436  1.00  0.00     0.025 C 
BRANCH   8   9
ATOM      9  C   UNL     1       4.250  35.544   0.449  1.00  0.00     0.064 C 
ATOM     10  O   UNL     1       3.638  35.647   1.544  1.00  0.00    -0.545 OA
ATOM     11  O   UNL     1       3.522  35.421  -0.729  1.00  0.00    -0.545 OA
ENDBRANCH   8   9
ENDBRANCH   1   7
BRANCH   4  12
ATOM     12  O   UNL     1      10.694  35.722   2.355  1.00  0.00    -0.504 OA
ATOM     13  H   UNL     1      10.451  34.821   2.752  1.00  0.00     0.293 HD
ENDBRANCH   4  12
BRANCH   6  14
ATOM     14  O   UNL     1      12.110  36.878   0.202  1.00  0.00    -0.504 OA
ATOM     15  H   UNL     1      12.617  37.584   0.723  1.00  0.00     0.293 HD
ENDBRANCH   6  14
TORSDOF 4
ENDMDL
MODEL 6
REMARK VINA RESULT:    -4.804      3.284      3.847
REMARK INTER + INTRA:          -5.786
REMARK INTER:                  -5.654
REMARK INTRA:                  -0.132
REMARK UNBOUND:                -0.140
REMARK SMILES O=C([O-])C=Cc1ccc(O)c(O)c1
REMARK SMILES IDX 6 1 13 2 7 3 11 4 8 5 9 6 5 7 4 8 2 9 1 10 3 11 12 12 10 14
REMARK H PARENT 12 13 10 15
REMARK Flexibility Score: inf
ROOT
ATOM      1  C   UNL     1      10.495  35.587  -0.710  1.00  0.00    -0.022 A 
ATOM      2  C   UNL     1       9.204  36.057  -1.004  1.00  0.00     0.058 A 
ATOM      3  C   UNL     1      11.506  36.521  -0.408  1.00  0.00     0.012 A 
ATOM      4  C   UNL     1       8.917  37.430  -0.974  1.00  0.00     0.157 A 
ATOM      5  C   UNL     1      11.220  37.888  -0.378  1.00  0.00     0.051 A 
ATOM      6  C   UNL     1       9.929  38.348  -0.656  1.00  0.00     0.157 A 
ENDROOT
BRANCH   1   7
ATOM      7  C   UNL     1      10.748  34.125  -0.765  1.00  0.00     0.010 C 
ATOM      8  C   UNL     1       9.780  33.200  -0.715  1.00  0.00     0.025 C 
BRANCH   8   9
ATOM      9  C   UNL     1      10.078  31.761  -0.785  1.00  0.00     0.064 C 
ATOM     10  O   UNL     1       9.788  31.019   0.190  1.00  0.00    -0.545 OA
ATOM     11  O   UNL     1      10.675  31.204  -1.909  1.00  0.00    -0.545 OA
ENDBRANCH   8   9
ENDBRANCH   1   7
BRANCH   4  12
ATOM     12  O   UNL     1       7.629  37.882  -1.258  1.00  0.00    -0.504 OA
ATOM     13  H   UNL     1       7.207  38.643  -0.738  1.00  0.00     0.293 HD
ENDBRANCH   4  12
BRANCH   6  14
ATOM     14  O   UNL     1       9.676  39.719  -0.617  1.00  0.00    -0.504 OA
ATOM     15  H   UNL     1       9.518  40.211   0.254  1.00  0.00     0.293 HD
ENDBRANCH   6  14
TORSDOF 4
ENDMDL
MODEL 7
REMARK VINA RESULT:    -4.776      2.946      4.138
REMARK INTER + INTRA:          -5.754
REMARK INTER:                  -5.614
REMARK INTRA:                  -0.140
REMARK UNBOUND:                -0.140
REMARK SMILES O=C([O-])C=Cc1ccc(O)c(O)c1
REMARK SMILES IDX 6 1 13 2 7 3 11 4 8 5 9 6 5 7 4 8 2 9 1 10 3 11 12 12 10 14
REMARK H PARENT 12 13 10 15
REMARK Flexibility Score: inf
ROOT
ATOM      1  C   UNL     1       6.931  34.503  -0.766  1.00  0.00    -0.022 A 
ATOM      2  C   UNL     1       8.200  34.249  -0.216  1.00  0.00     0.058 A 
ATOM      3  C   UNL     1       6.656  34.057  -2.073  1.00  0.00     0.012 A 
ATOM      4  C   UNL     1       9.168  33.542  -0.944  1.00  0.00     0.157 A 
ATOM      5  C   UNL     1       7.620  33.352  -2.798  1.00  0.00     0.051 A 
ATOM      6  C   UNL     1       8.874  33.089  -2.239  1.00  0.00     0.157 A 
ENDROOT
BRANCH   1   7
ATOM      7  C   UNL     1       5.947  35.265   0.043  1.00  0.00     0.010 C 
ATOM      8  C   UNL     1       4.658  35.410  -0.296  1.00  0.00     0.025 C 
BRANCH   8   9
ATOM      9  C   UNL     1       3.715  36.165   0.543  1.00  0.00     0.064 C 
ATOM     10  O   UNL     1       2.913  36.972   0.003  1.00  0.00    -0.545 OA
ATOM     11  O   UNL     1       3.694  36.006   1.923  1.00  0.00    -0.545 OA
ENDBRANCH   8   9
ENDBRANCH   1   7
BRANCH   4  12
ATOM     12  O   UNL     1      10.418  33.288  -0.383  1.00  0.00    -0.504 OA
ATOM     13  H   UNL     1      10.515  32.813   0.508  1.00  0.00     0.293 HD
ENDBRANCH   4  12
BRANCH   6  14
ATOM     14  O   UNL     1       9.815  32.382  -2.988  1.00  0.00    -0.504 OA
ATOM     15  H   UNL     1       9.846  32.435  -3.999  1.00  0.00     0.293 HD
ENDBRANCH   6  14
TORSDOF 4
ENDMDL
MODEL 8
REMARK VINA RESULT:    -4.753      2.567      3.314
REMARK INTER + INTRA:          -5.726
REMARK INTER:                  -5.592
REMARK INTRA:                  -0.134
REMARK UNBOUND:                -0.140
REMARK SMILES O=C([O-])C=Cc1ccc(O)c(O)c1
REMARK SMILES IDX 6 1 13 2 7 3 11 4 8 5 9 6 5 7 4 8 2 9 1 10 3 11 12 12 10 14
REMARK H PARENT 12 13 10 15
REMARK Flexibility Score: inf
ROOT
ATOM      1  C   UNL     1       6.945  34.180  -1.556  1.00  0.00    -0.022 A 
ATOM      2  C   UNL     1       7.501  34.553  -0.321  1.00  0.00     0.058 A 
ATOM      3  C   UNL     1       7.680  33.325  -2.401  1.00  0.00     0.012 A 
ATOM      4  C   UNL     1       8.754  34.065   0.079  1.00  0.00     0.157 A 
ATOM      5  C   UNL     1       8.928  32.839  -2.004  1.00  0.00     0.051 A 
ATOM      6  C   UNL     1       9.468  33.201  -0.766  1.00  0.00     0.157 A 
ENDROOT
BRANCH   1   7
ATOM      7  C   UNL     1       5.621  34.732  -1.935  1.00  0.00     0.010 C 
ATOM      8  C   UNL     1       4.957  35.640  -1.205  1.00  0.00     0.025 C 
BRANCH   8   9
ATOM      9  C   UNL     1       3.650  36.168  -1.626  1.00  0.00     0.064 C 
ATOM     10  O   UNL     1       3.070  37.029  -0.913  1.00  0.00    -0.545 OA
ATOM     11  O   UNL     1       3.042  35.733  -2.797  1.00  0.00    -0.545 OA
ENDBRANCH   8   9
ENDBRANCH   1   7
BRANCH   4  12
ATOM     12  O   UNL     1       9.289  34.435   1.312  1.00  0.00    -0.504 OA
ATOM     13  H   UNL     1       8.763  34.994   1.973  1.00  0.00     0.293 HD
ENDBRANCH   4  12
BRANCH   6  14
ATOM     14  O   UNL     1      10.716  32.698  -0.398  1.00  0.00    -0.504 OA
ATOM     15  H   UNL     1      11.514  33.302  -0.242  1.00  0.00     0.293 HD
ENDBRANCH   6  14
TORSDOF 4
ENDMDL
