MODEL 1
REMARK VINA RESULT:    -4.471      0.000      0.000
REMARK INTER + INTRA:          -5.914
REMARK INTER:                  -5.778
REMARK INTRA:                  -0.136
REMARK UNBOUND:                -0.136
REMARK SMILES C=CC(=O)CCCCC
REMARK SMILES IDX 6 1 7 2 8 3 9 4 5 5 3 6 4 7 2 8 1 9
REMARK H PARENT
REMARK Flexibility Score: inf
ROOT
ATOM      1  C   UNL     1      87.639  37.619  25.490  1.00  0.00     0.008 C 
ENDROOT
BRANCH   1   2
ATOM      2  C   UNL     1      87.418  37.011  24.096  1.00  0.00     0.000 C 
BRANCH   2   3
ATOM      3  C   UNL     1      88.596  36.140  23.638  1.00  0.00    -0.003 C 
ATOM      4  C   UNL     1      88.119  34.993  22.751  1.00  0.00     0.004 C 
ENDBRANCH   2   3
ENDBRANCH   1   2
BRANCH   1   5
ATOM      5  C   UNL     1      88.735  38.693  25.499  1.00  0.00     0.080 C 
BRANCH   5   6
ATOM      6  C   UNL     1      89.366  38.789  26.856  1.00  0.00     0.155 C 
ATOM      7  O   UNL     1      88.640  38.690  27.883  1.00  0.00    -0.295 OA
BRANCH   6   8
ATOM      8  C   UNL     1      90.814  39.041  26.982  1.00  0.00     0.039 C 
ATOM      9  C   UNL     1      91.380  40.176  26.575  1.00  0.00     0.012 C 
ENDBRANCH   6   8
ENDBRANCH   5   6
ENDBRANCH   1   5
TORSDOF 5
ENDMDL
MODEL 2
REMARK VINA RESULT:    -4.448      2.944      4.526
REMARK INTER + INTRA:          -5.884
REMARK INTER:                  -5.694
REMARK INTRA:                  -0.190
REMARK UNBOUND:                -0.136
REMARK SMILES C=CC(=O)CCCCC
REMARK SMILES IDX 6 1 7 2 8 3 9 4 5 5 3 6 4 7 2 8 1 9
REMARK H PARENT
REMARK Flexibility Score: inf
ROOT
ATOM      1  C   UNL     1      87.592  37.669  27.913  1.00  0.00     0.008 C 
ENDROOT
BRANCH   1   2
ATOM      2  C   UNL     1      86.531  37.917  28.998  1.00  0.00     0.000 C 
BRANCH   2   3
ATOM      3  C   UNL     1      86.676  39.294  29.661  1.00  0.00    -0.003 C 
ATOM      4  C   UNL     1      85.486  39.594  30.568  1.00  0.00     0.004 C 
ENDBRANCH   2   3
ENDBRANCH   1   2
BRANCH   1   5
ATOM      5  C   UNL     1      88.736  38.690  27.961  1.00  0.00     0.080 C 
BRANCH   5   6
ATOM      6  C   UNL     1      89.109  39.126  26.575  1.00  0.00     0.155 C 
ATOM      7  O   UNL     1      88.560  38.572  25.584  1.00  0.00    -0.295 OA
BRANCH   6   8
ATOM      8  C   UNL     1      90.142  40.162  26.378  1.00  0.00     0.039 C 
ATOM      9  C   UNL     1      91.416  39.974  26.715  1.00  0.00     0.012 C 
ENDBRANCH   6   8
ENDBRANCH   5   6
ENDBRANCH   1   5
TORSDOF 5
ENDMDL
MODEL 3
REMARK VINA RESULT:    -4.346      1.375      4.619
REMARK INTER + INTRA:          -5.752
REMARK INTER:                  -5.563
REMARK INTRA:                  -0.190
REMARK UNBOUND:                -0.136
REMARK SMILES C=CC(=O)CCCCC
REMARK SMILES IDX 6 1 7 2 8 3 9 4 5 5 3 6 4 7 2 8 1 9
REMARK H PARENT
REMARK Flexibility Score: inf
ROOT
ATOM      1  C   UNL     1      89.060  38.720  26.109  1.00  0.00     0.008 C 
ENDROOT
BRANCH   1   2
ATOM      2  C   UNL     1      89.335  40.232  26.159  1.00  0.00     0.000 C 
BRANCH   2   3
ATOM      3  C   UNL     1      90.832  40.557  26.256  1.00  0.00    -0.003 C 
ATOM      4  C   UNL     1      91.597  39.424  26.935  1.00  0.00     0.004 C 
ENDBRANCH   2   3
ENDBRANCH   1   2
BRANCH   1   5
ATOM      5  C   UNL     1      88.560  38.256  24.734  1.00  0.00     0.080 C 
BRANCH   5   6
ATOM      6  C   UNL     1      87.487  37.220  24.889  1.00  0.00     0.155 C 
ATOM      7  O   UNL     1      86.653  37.329  25.829  1.00  0.00    -0.295 OA
BRANCH   6   8
ATOM      8  C   UNL     1      87.441  36.061  23.975  1.00  0.00     0.039 C 
ATOM      9  C   UNL     1      88.521  35.604  23.345  1.00  0.00     0.012 C 
ENDBRANCH   6   8
ENDBRANCH   5   6
ENDBRANCH   1   5
TORSDOF 5
ENDMDL
MODEL 4
REMARK VINA RESULT:    -4.345      3.042      4.866
REMARK INTER + INTRA:          -5.752
REMARK INTER:                  -5.583
REMARK INTRA:                  -0.169
REMARK UNBOUND:                -0.136
REMARK SMILES C=CC(=O)CCCCC
REMARK SMILES IDX 6 1 7 2 8 3 9 4 5 5 3 6 4 7 2 8 1 9
REMARK H PARENT
REMARK Flexibility Score: inf
ROOT
ATOM      1  C   UNL     1      89.077  38.919  27.017  1.00  0.00     0.008 C 
ENDROOT
BRANCH   1   2
ATOM      2  C   UNL     1      90.603  38.748  27.092  1.00  0.00     0.000 C 
BRANCH   2   3
ATOM      3  C   UNL     1      91.360  40.023  26.693  1.00  0.00    -0.003 C 
ATOM      4  C   UNL     1      90.404  41.084  26.157  1.00  0.00     0.004 C 
ENDBRANCH   2   3
ENDBRANCH   1   2
BRANCH   1   5
ATOM      5  C   UNL     1      88.384  38.623  28.353  1.00  0.00     0.080 C 
BRANCH   5   6
ATOM      6  C   UNL     1      87.327  37.574  28.175  1.00  0.00     0.155 C 
ATOM      7  O   UNL     1      87.007  37.210  27.010  1.00  0.00    -0.295 OA
BRANCH   6   8
ATOM      8  C   UNL     1      86.639  37.009  29.352  1.00  0.00     0.039 C 
ATOM      9  C   UNL     1      86.820  35.752  29.751  1.00  0.00     0.012 C 
ENDBRANCH   6   8
ENDBRANCH   5   6
ENDBRANCH   1   5
TORSDOF 5
ENDMDL
MODEL 5
REMARK VINA RESULT:    -4.325      3.000      4.818
REMARK INTER + INTRA:          -5.725
REMARK INTER:                  -5.569
REMARK INTRA:                  -0.156
REMARK UNBOUND:                -0.136
REMARK SMILES C=CC(=O)CCCCC
REMARK SMILES IDX 6 1 7 2 8 3 9 4 5 5 3 6 4 7 2 8 1 9
REMARK H PARENT
REMARK Flexibility Score: inf
ROOT
ATOM      1  C   UNL     1      88.739  38.608  27.762  1.00  0.00     0.008 C 
ENDROOT
BRANCH   1   2
ATOM      2  C   UNL     1      89.085  39.036  26.326  1.00  0.00     0.000 C 
BRANCH   2   3
ATOM      3  C   UNL     1      89.893  40.341  26.278  1.00  0.00    -0.003 C 
ATOM      4  C   UNL     1      91.347  40.101  26.672  1.00  0.00     0.004 C 
ENDBRANCH   2   3
ENDBRANCH   1   2
BRANCH   1   5
ATOM      5  C   UNL     1      87.423  37.823  27.842  1.00  0.00     0.080 C 
BRANCH   5   6
ATOM      6  C   UNL     1      86.830  37.932  29.215  1.00  0.00     0.155 C 
ATOM      7  O   UNL     1      86.673  36.889  29.906  1.00  0.00    -0.295 OA
BRANCH   6   8
ATOM      8  C   UNL     1      86.395  39.245  29.730  1.00  0.00     0.039 C 
ATOM      9  C   UNL     1      85.450  39.372  30.660  1.00  0.00     0.012 C 
ENDBRANCH   6   8
ENDBRANCH   5   6
ENDBRANCH   1   5
TORSDOF 5
ENDMDL
MODEL 6
REMARK VINA RESULT:    -4.150      1.993      4.858
REMARK INTER + INTRA:          -5.500
REMARK INTER:                  -5.277
REMARK INTRA:                  -0.222
REMARK UNBOUND:                -0.136
REMARK SMILES C=CC(=O)CCCCC
REMARK SMILES IDX 6 1 7 2 8 3 9 4 5 5 3 6 4 7 2 8 1 9
REMARK H PARENT
REMARK Flexibility Score: inf
ROOT
ATOM      1  C   UNL     1      88.207  38.063  26.390  1.00  0.00     0.008 C 
ENDROOT
BRANCH   1   2
ATOM      2  C   UNL     1      89.068  39.047  27.198  1.00  0.00     0.000 C 
BRANCH   2   3
ATOM      3  C   UNL     1      89.764  40.090  26.311  1.00  0.00    -0.003 C 
ATOM      4  C   UNL     1      91.254  40.173  26.628  1.00  0.00     0.004 C 
ENDBRANCH   2   3
ENDBRANCH   1   2
BRANCH   1   5
ATOM      5  C   UNL     1      88.354  38.256  24.875  1.00  0.00     0.080 C 
BRANCH   5   6
ATOM      6  C   UNL     1      88.016  36.988  24.150  1.00  0.00     0.155 C 
ATOM      7  O   UNL     1      88.933  36.345  23.569  1.00  0.00    -0.295 OA
BRANCH   6   8
ATOM      8  C   UNL     1      86.616  36.526  24.080  1.00  0.00     0.039 C 
ATOM      9  C   UNL     1      85.607  37.343  23.786  1.00  0.00     0.012 C 
ENDBRANCH   6   8
ENDBRANCH   5   6
ENDBRANCH   1   5
TORSDOF 5
ENDMDL
MODEL 7
REMARK VINA RESULT:    -3.981      1.367      1.890
REMARK INTER + INTRA:          -5.280
REMARK INTER:                  -5.007
REMARK INTRA:                  -0.273
REMARK UNBOUND:                -0.136
REMARK SMILES C=CC(=O)CCCCC
REMARK SMILES IDX 6 1 7 2 8 3 9 4 5 5 3 6 4 7 2 8 1 9
REMARK H PARENT
REMARK Flexibility Score: inf
ROOT
ATOM      1  C   UNL     1      87.338  37.747  24.994  1.00  0.00     0.008 C 
ENDROOT
BRANCH   1   2
ATOM      2  C   UNL     1      87.344  36.300  24.475  1.00  0.00     0.000 C 
BRANCH   2   3
ATOM      3  C   UNL     1      88.539  36.006  23.558  1.00  0.00    -0.003 C 
ATOM      4  C   UNL     1      88.218  34.877  22.583  1.00  0.00     0.004 C 
ENDBRANCH   2   3
ENDBRANCH   1   2
BRANCH   1   5
ATOM      5  C   UNL     1      88.752  38.315  25.175  1.00  0.00     0.080 C 
BRANCH   5   6
ATOM      6  C   UNL     1      88.931  38.843  26.567  1.00  0.00     0.155 C 
ATOM      7  O   UNL     1      89.650  39.862  26.755  1.00  0.00    -0.295 OA
BRANCH   6   8
ATOM      8  C   UNL     1      88.307  38.145  27.708  1.00  0.00     0.039 C 
ATOM      9  C   UNL     1      87.846  38.792  28.777  1.00  0.00     0.012 C 
ENDBRANCH   6   8
ENDBRANCH   5   6
ENDBRANCH   1   5
TORSDOF 5
ENDMDL
MODEL 8
REMARK VINA RESULT:    -3.928      2.814      3.345
REMARK INTER + INTRA:          -5.212
REMARK INTER:                  -5.070
REMARK INTRA:                  -0.142
REMARK UNBOUND:                -0.136
REMARK SMILES C=CC(=O)CCCCC
REMARK SMILES IDX 6 1 7 2 8 3 9 4 5 5 3 6 4 7 2 8 1 9
REMARK H PARENT
REMARK Flexibility Score: inf
ROOT
ATOM      1  C   UNL     1      87.410  37.853  27.959  1.00  0.00     0.008 C 
ENDROOT
BRANCH   1   2
ATOM      2  C   UNL     1      87.100  36.990  29.193  1.00  0.00     0.000 C 
BRANCH   2   3
ATOM      3  C   UNL     1      86.775  35.534  28.829  1.00  0.00    -0.003 C 
ATOM      4  C   UNL     1      86.309  35.422  27.381  1.00  0.00     0.004 C 
ENDBRANCH   2   3
ENDBRANCH   1   2
BRANCH   1   5
ATOM      5  C   UNL     1      88.730  38.625  28.094  1.00  0.00     0.080 C 
BRANCH   5   6
ATOM      6  C   UNL     1      89.291  38.944  26.741  1.00  0.00     0.155 C 
ATOM      7  O   UNL     1      88.637  38.628  25.709  1.00  0.00    -0.295 OA
BRANCH   6   8
ATOM      8  C   UNL     1      90.617  39.581  26.622  1.00  0.00     0.039 C 
ATOM      9  C   UNL     1      90.773  40.841  26.223  1.00  0.00     0.012 C 
ENDBRANCH   6   8
ENDBRANCH   5   6
ENDBRANCH   1   5
TORSDOF 5
ENDMDL
MODEL 9
REMARK VINA RESULT:    -3.881      3.591      5.119
REMARK INTER + INTRA:          -5.151
REMARK INTER:                  -4.976
REMARK INTRA:                  -0.175
REMARK UNBOUND:                -0.136
REMARK SMILES C=CC(=O)CCCCC
REMARK SMILES IDX 6 1 7 2 8 3 9 4 5 5 3 6 4 7 2 8 1 9
REMARK H PARENT
REMARK Flexibility Score: inf
ROOT
ATOM      1  C   UNL     1      87.572  37.887  27.711  1.00  0.00     0.008 C 
ENDROOT
BRANCH   1   2
ATOM      2  C   UNL     1      88.903  38.653  27.784  1.00  0.00     0.000 C 
BRANCH   2   3
ATOM      3  C   UNL     1      89.399  39.106  26.404  1.00  0.00    -0.003 C 
ATOM      4  C   UNL     1      90.598  40.042  26.531  1.00  0.00     0.004 C 
ENDBRANCH   2   3
ENDBRANCH   1   2
BRANCH   1   5
ATOM      5  C   UNL     1      87.235  37.164  29.022  1.00  0.00     0.080 C 
BRANCH   5   6
ATOM      6  C   UNL     1      85.982  37.727  29.624  1.00  0.00     0.155 C 
ATOM      7  O   UNL     1      84.970  36.985  29.754  1.00  0.00    -0.295 OA
BRANCH   6   8
ATOM      8  C   UNL     1      85.925  39.148  30.017  1.00  0.00     0.039 C 
ATOM      9  C   UNL     1      85.087  39.600  30.948  1.00  0.00     0.012 C 
ENDBRANCH   6   8
ENDBRANCH   5   6
ENDBRANCH   1   5
TORSDOF 5
ENDMDL
