MODEL 1
REMARK VINA RESULT:    -1.874      0.000      0.000
REMARK INTER + INTRA:          -2.267
REMARK INTER:                  -2.038
REMARK INTRA:                  -0.229
REMARK UNBOUND:                -0.229
REMARK SMILES CC(=O)c1cc(C)ccc1O
REMARK SMILES IDX 7 1 6 2 5 3 4 4 10 5 9 6 8 7 2 8 3 9 1 10 11 11
REMARK H PARENT 11 12
REMARK Flexibility Score: inf
ROOT
ATOM      1  C   UNL     1      35.618  22.840  26.885  1.00  0.00     0.044 C 
ATOM      2  C   UNL     1      34.458  23.095  27.802  1.00  0.00    -0.050 A 
ATOM      3  C   UNL     1      33.180  22.624  27.469  1.00  0.00     0.019 A 
ATOM      4  C   UNL     1      32.071  22.882  28.301  1.00  0.00     0.059 A 
ATOM      5  C   UNL     1      32.268  23.644  29.478  1.00  0.00     0.126 A 
ATOM      6  C   UNL     1      33.547  24.125  29.795  1.00  0.00     0.047 A 
ATOM      7  C   UNL     1      34.632  23.859  28.961  1.00  0.00     0.007 A 
ENDROOT
BRANCH   4   8
ATOM      8  C   UNL     1      30.722  22.358  27.940  1.00  0.00     0.163 C 
ATOM      9  O   UNL     1      29.684  22.935  28.361  1.00  0.00    -0.294 OA
ATOM     10  C   UNL     1      30.553  21.122  27.105  1.00  0.00     0.093 C 
ENDBRANCH   4   8
BRANCH   5  11
ATOM     11  O   UNL     1      31.199  23.938  30.324  1.00  0.00    -0.507 OA
ATOM     12  H   UNL     1      30.531  23.230  30.605  1.00  0.00     0.293 HD
ENDBRANCH   5  11
TORSDOF 2
ENDMDL
MODEL 2
REMARK VINA RESULT:    -0.706      2.124      4.464
REMARK INTER + INTRA:          -0.997
REMARK INTER:                  -0.813
REMARK INTRA:                  -0.184
REMARK UNBOUND:                -0.229
REMARK SMILES CC(=O)c1cc(C)ccc1O
REMARK SMILES IDX 7 1 6 2 5 3 4 4 10 5 9 6 8 7 2 8 3 9 1 10 11 11
REMARK H PARENT 11 12
REMARK Flexibility Score: inf
ROOT
ATOM      1  C   UNL     1      30.442  24.125  32.164  1.00  0.00     0.044 C 
ATOM      2  C   UNL     1      30.912  23.761  30.786  1.00  0.00    -0.050 A 
ATOM      3  C   UNL     1      32.235  24.021  30.401  1.00  0.00     0.019 A 
ATOM      4  C   UNL     1      32.685  23.717  29.100  1.00  0.00     0.059 A 
ATOM      5  C   UNL     1      31.770  23.157  28.178  1.00  0.00     0.126 A 
ATOM      6  C   UNL     1      30.444  22.915  28.566  1.00  0.00     0.047 A 
ATOM      7  C   UNL     1      30.016  23.221  29.857  1.00  0.00     0.007 A 
ENDROOT
BRANCH   4   8
ATOM      8  C   UNL     1      34.101  23.983  28.713  1.00  0.00     0.163 C 
ATOM      9  O   UNL     1      34.421  24.070  27.498  1.00  0.00    -0.294 OA
ATOM     10  C   UNL     1      35.187  24.121  29.740  1.00  0.00     0.093 C 
ENDBRANCH   4   8
BRANCH   5  11
ATOM     11  O   UNL     1      32.165  22.853  26.875  1.00  0.00    -0.507 OA
ATOM     12  H   UNL     1      32.979  22.280  26.684  1.00  0.00     0.293 HD
ENDBRANCH   5  11
TORSDOF 2
ENDMDL
