MODEL 1
REMARK VINA RESULT:    -5.424      0.000      0.000
REMARK INTER + INTRA:          -6.901
REMARK INTER:                  -6.692
REMARK INTRA:                  -0.209
REMARK UNBOUND:                -0.209
REMARK SMILES [NH3+][C@@H](Cc1ccc(O)cc1)C(=O)[O-]
REMARK SMILES IDX 3 1 2 2 1 3 11 7 12 8 13 9 4 10 5 11 10 12 6 13 9 14 7 15
REMARK SMILES IDX 8 16
REMARK H PARENT 1 4 1 5 1 6 8 17
REMARK Flexibility Score: inf
ROOT
ATOM      1  C   UNL     1      64.703   2.810  -2.664  1.00  0.00     0.107 C 
ENDROOT
BRANCH   1   2
ATOM      2  C   UNL     1      65.455   3.573  -3.779  1.00  0.00     0.232 C 
BRANCH   2   3
ATOM      3  N   UNL     1      66.689   2.883  -4.180  1.00  0.00    -0.350 N 
ATOM      4  H   UNL     1      67.139   3.396  -4.973  1.00  0.00     0.345 HD
ATOM      5  H   UNL     1      67.360   2.870  -3.377  1.00  0.00     0.345 HD
ATOM      6  H   UNL     1      66.496   1.899  -4.474  1.00  0.00     0.345 HD
ENDBRANCH   2   3
BRANCH   2   7
ATOM      7  C   UNL     1      65.727   5.003  -3.385  1.00  0.00     0.099 C 
ATOM      8  O   UNL     1      64.872   5.671  -2.745  1.00  0.00    -0.544 OA
ATOM      9  O   UNL     1      66.912   5.612  -3.778  1.00  0.00    -0.544 OA
ENDBRANCH   2   7
ENDBRANCH   1   2
BRANCH   1  10
ATOM     10  C   UNL     1      63.246   2.562  -2.977  1.00  0.00    -0.041 A 
ATOM     11  C   UNL     1      62.478   1.716  -2.161  1.00  0.00     0.008 A 
ATOM     12  C   UNL     1      62.646   3.166  -4.096  1.00  0.00     0.008 A 
ATOM     13  C   UNL     1      61.133   1.476  -2.459  1.00  0.00     0.046 A 
ATOM     14  C   UNL     1      61.302   2.925  -4.393  1.00  0.00     0.046 A 
ATOM     15  C   UNL     1      60.542   2.078  -3.575  1.00  0.00     0.115 A 
BRANCH  15  16
ATOM     16  O   UNL     1      59.201   1.829  -3.861  1.00  0.00    -0.508 OA
ATOM     17  H   UNL     1      58.621   1.275  -3.241  1.00  0.00     0.293 HD
ENDBRANCH  15  16
ENDBRANCH   1  10
TORSDOF 5
ENDMDL
MODEL 2
REMARK VINA RESULT:    -5.423      0.021      1.344
REMARK INTER + INTRA:          -6.900
REMARK INTER:                  -6.687
REMARK INTRA:                  -0.213
REMARK UNBOUND:                -0.209
REMARK SMILES [NH3+][C@@H](Cc1ccc(O)cc1)C(=O)[O-]
REMARK SMILES IDX 3 1 2 2 1 3 11 7 12 8 13 9 4 10 5 11 10 12 6 13 9 14 7 15
REMARK SMILES IDX 8 16
REMARK H PARENT 1 4 1 5 1 6 8 17
REMARK Flexibility Score: inf
ROOT
ATOM      1  C   UNL     1      64.703   2.805  -2.671  1.00  0.00     0.107 C 
ENDROOT
BRANCH   1   2
ATOM      2  C   UNL     1      65.457   3.572  -3.782  1.00  0.00     0.232 C 
BRANCH   2   3
ATOM      3  N   UNL     1      66.693   2.884  -4.182  1.00  0.00    -0.350 N 
ATOM      4  H   UNL     1      66.862   2.066  -3.554  1.00  0.00     0.345 HD
ATOM      5  H   UNL     1      66.594   2.530  -5.161  1.00  0.00     0.345 HD
ATOM      6  H   UNL     1      67.517   3.527  -4.138  1.00  0.00     0.345 HD
ENDBRANCH   2   3
BRANCH   2   7
ATOM      7  C   UNL     1      65.726   5.001  -3.384  1.00  0.00     0.099 C 
ATOM      8  O   UNL     1      64.865   5.670  -2.754  1.00  0.00    -0.544 OA
ATOM      9  O   UNL     1      66.918   5.608  -3.762  1.00  0.00    -0.544 OA
ENDBRANCH   2   7
ENDBRANCH   1   2
BRANCH   1  10
ATOM     10  C   UNL     1      63.249   2.550  -2.993  1.00  0.00    -0.041 A 
ATOM     11  C   UNL     1      62.653   3.148  -4.115  1.00  0.00     0.008 A 
ATOM     12  C   UNL     1      62.472   1.720  -2.165  1.00  0.00     0.008 A 
ATOM     13  C   UNL     1      61.304   2.922  -4.404  1.00  0.00     0.046 A 
ATOM     14  C   UNL     1      61.124   1.495  -2.455  1.00  0.00     0.046 A 
ATOM     15  C   UNL     1      60.536   2.097  -3.576  1.00  0.00     0.115 A 
BRANCH  15  16
ATOM     16  O   UNL     1      59.192   1.881  -3.875  1.00  0.00    -0.508 OA
ATOM     17  H   UNL     1      58.488   1.839  -3.147  1.00  0.00     0.293 HD
ENDBRANCH  15  16
ENDBRANCH   1  10
TORSDOF 5
ENDMDL
MODEL 3
REMARK VINA RESULT:    -5.331      3.135      5.972
REMARK INTER + INTRA:          -6.786
REMARK INTER:                  -6.578
REMARK INTRA:                  -0.209
REMARK UNBOUND:                -0.209
REMARK SMILES [NH3+][C@@H](Cc1ccc(O)cc1)C(=O)[O-]
REMARK SMILES IDX 3 1 2 2 1 3 11 7 12 8 13 9 4 10 5 11 10 12 6 13 9 14 7 15
REMARK SMILES IDX 8 16
REMARK H PARENT 1 4 1 5 1 6 8 17
REMARK Flexibility Score: inf
ROOT
ATOM      1  C   UNL     1      59.933   1.624  -2.562  1.00  0.00     0.107 C 
ENDROOT
BRANCH   1   2
ATOM      2  C   UNL     1      59.937   0.297  -1.768  1.00  0.00     0.232 C 
BRANCH   2   3
ATOM      3  N   UNL     1      59.521  -0.842  -2.599  1.00  0.00    -0.350 N 
ATOM      4  H   UNL     1      59.956  -1.721  -2.238  1.00  0.00     0.345 HD
ATOM      5  H   UNL     1      58.482  -0.948  -2.552  1.00  0.00     0.345 HD
ATOM      6  H   UNL     1      59.801  -0.705  -3.598  1.00  0.00     0.345 HD
ENDBRANCH   2   3
BRANCH   2   7
ATOM      7  C   UNL     1      59.103   0.398  -0.516  1.00  0.00     0.099 C 
ATOM      8  O   UNL     1      59.563   0.938   0.525  1.00  0.00    -0.544 OA
ATOM      9  O   UNL     1      57.830  -0.158  -0.489  1.00  0.00    -0.544 OA
ENDBRANCH   2   7
ENDBRANCH   1   2
BRANCH   1  10
ATOM     10  C   UNL     1      61.314   2.113  -2.930  1.00  0.00    -0.041 A 
ATOM     11  C   UNL     1      62.436   1.687  -2.201  1.00  0.00     0.008 A 
ATOM     12  C   UNL     1      61.490   3.010  -3.998  1.00  0.00     0.008 A 
ATOM     13  C   UNL     1      63.713   2.151  -2.533  1.00  0.00     0.046 A 
ATOM     14  C   UNL     1      62.766   3.473  -4.329  1.00  0.00     0.046 A 
ATOM     15  C   UNL     1      63.882   3.044  -3.596  1.00  0.00     0.115 A 
BRANCH  15  16
ATOM     16  O   UNL     1      65.159   3.500  -3.916  1.00  0.00    -0.508 OA
ATOM     17  H   UNL     1      65.300   4.284  -4.542  1.00  0.00     0.293 HD
ENDBRANCH  15  16
ENDBRANCH   1  10
TORSDOF 5
ENDMDL
MODEL 4
REMARK VINA RESULT:    -4.950      2.711      5.010
REMARK INTER + INTRA:          -6.317
REMARK INTER:                  -6.101
REMARK INTRA:                  -0.216
REMARK UNBOUND:                -0.209
REMARK SMILES [NH3+][C@@H](Cc1ccc(O)cc1)C(=O)[O-]
REMARK SMILES IDX 3 1 2 2 1 3 11 7 12 8 13 9 4 10 5 11 10 12 6 13 9 14 7 15
REMARK SMILES IDX 8 16
REMARK H PARENT 1 4 1 5 1 6 8 17
REMARK Flexibility Score: inf
ROOT
ATOM      1  C   UNL     1      62.451   3.827  -5.343  1.00  0.00     0.107 C 
ENDROOT
BRANCH   1   2
ATOM      2  C   UNL     1      62.215   2.816  -6.489  1.00  0.00     0.232 C 
BRANCH   2   3
ATOM      3  N   UNL     1      62.929   3.200  -7.715  1.00  0.00    -0.350 N 
ATOM      4  H   UNL     1      63.909   2.835  -7.684  1.00  0.00     0.345 HD
ATOM      5  H   UNL     1      62.451   2.779  -8.545  1.00  0.00     0.345 HD
ATOM      6  H   UNL     1      62.954   4.239  -7.832  1.00  0.00     0.345 HD
ENDBRANCH   2   3
BRANCH   2   7
ATOM      7  C   UNL     1      60.745   2.607  -6.751  1.00  0.00     0.099 C 
ATOM      8  O   UNL     1      60.024   1.983  -5.927  1.00  0.00    -0.544 OA
ATOM      9  O   UNL     1      60.186   3.060  -7.939  1.00  0.00    -0.544 OA
ENDBRANCH   2   7
ENDBRANCH   1   2
BRANCH   1  10
ATOM     10  C   UNL     1      63.212   3.249  -4.173  1.00  0.00    -0.041 A 
ATOM     11  C   UNL     1      64.549   3.613  -3.945  1.00  0.00     0.008 A 
ATOM     12  C   UNL     1      62.594   2.330  -3.306  1.00  0.00     0.008 A 
ATOM     13  C   UNL     1      65.257   3.067  -2.871  1.00  0.00     0.046 A 
ATOM     14  C   UNL     1      63.303   1.786  -2.232  1.00  0.00     0.046 A 
ATOM     15  C   UNL     1      64.638   2.153  -2.012  1.00  0.00     0.115 A 
BRANCH  15  16
ATOM     16  O   UNL     1      65.356   1.616  -0.945  1.00  0.00    -0.508 OA
ATOM     17  H   UNL     1      66.369   1.625  -0.931  1.00  0.00     0.293 HD
ENDBRANCH  15  16
ENDBRANCH   1  10
TORSDOF 5
ENDMDL
MODEL 5
REMARK VINA RESULT:    -4.945      2.722      4.898
REMARK INTER + INTRA:          -6.310
REMARK INTER:                  -6.095
REMARK INTRA:                  -0.216
REMARK UNBOUND:                -0.209
REMARK SMILES [NH3+][C@@H](Cc1ccc(O)cc1)C(=O)[O-]
REMARK SMILES IDX 3 1 2 2 1 3 11 7 12 8 13 9 4 10 5 11 10 12 6 13 9 14 7 15
REMARK SMILES IDX 8 16
REMARK H PARENT 1 4 1 5 1 6 8 17
REMARK Flexibility Score: inf
ROOT
ATOM      1  C   UNL     1      62.489   3.823  -5.346  1.00  0.00     0.107 C 
ENDROOT
BRANCH   1   2
ATOM      2  C   UNL     1      62.227   2.821  -6.493  1.00  0.00     0.232 C 
BRANCH   2   3
ATOM      3  N   UNL     1      62.937   3.196  -7.724  1.00  0.00    -0.350 N 
ATOM      4  H   UNL     1      62.429   3.975  -8.202  1.00  0.00     0.345 HD
ATOM      5  H   UNL     1      63.899   3.529  -7.485  1.00  0.00     0.345 HD
ATOM      6  H   UNL     1      63.015   2.385  -8.380  1.00  0.00     0.345 HD
ENDBRANCH   2   3
BRANCH   2   7
ATOM      7  C   UNL     1      60.751   2.637  -6.743  1.00  0.00     0.099 C 
ATOM      8  O   UNL     1      60.023   2.041  -5.905  1.00  0.00    -0.544 OA
ATOM      9  O   UNL     1      60.194   3.083  -7.934  1.00  0.00    -0.544 OA
ENDBRANCH   2   7
ENDBRANCH   1   2
BRANCH   1  10
ATOM     10  C   UNL     1      63.249   3.229  -4.183  1.00  0.00    -0.041 A 
ATOM     11  C   UNL     1      62.609   2.355  -3.289  1.00  0.00     0.008 A 
ATOM     12  C   UNL     1      64.601   3.552  -3.977  1.00  0.00     0.008 A 
ATOM     13  C   UNL     1      63.309   1.816  -2.205  1.00  0.00     0.046 A 
ATOM     14  C   UNL     1      65.299   3.012  -2.893  1.00  0.00     0.046 A 
ATOM     15  C   UNL     1      64.653   2.143  -2.004  1.00  0.00     0.115 A 
BRANCH  15  16
ATOM     16  O   UNL     1      65.339   1.599  -0.919  1.00  0.00    -0.508 OA
ATOM     17  H   UNL     1      66.307   1.833  -0.733  1.00  0.00     0.293 HD
ENDBRANCH  15  16
ENDBRANCH   1  10
TORSDOF 5
ENDMDL
MODEL 6
REMARK VINA RESULT:    -4.944      1.608      2.217
REMARK INTER + INTRA:          -6.309
REMARK INTER:                  -6.130
REMARK INTRA:                  -0.179
REMARK UNBOUND:                -0.209
REMARK SMILES [NH3+][C@@H](Cc1ccc(O)cc1)C(=O)[O-]
REMARK SMILES IDX 3 1 2 2 1 3 11 7 12 8 13 9 4 10 5 11 10 12 6 13 9 14 7 15
REMARK SMILES IDX 8 16
REMARK H PARENT 1 4 1 5 1 6 8 17
REMARK Flexibility Score: inf
ROOT
ATOM      1  C   UNL     1      64.735   4.083  -4.299  1.00  0.00     0.107 C 
ENDROOT
BRANCH   1   2
ATOM      2  C   UNL     1      65.477   4.932  -3.241  1.00  0.00     0.232 C 
BRANCH   2   3
ATOM      3  N   UNL     1      64.600   5.942  -2.632  1.00  0.00    -0.350 N 
ATOM      4  H   UNL     1      64.303   6.636  -3.356  1.00  0.00     0.345 HD
ATOM      5  H   UNL     1      63.742   5.478  -2.254  1.00  0.00     0.345 HD
ATOM      6  H   UNL     1      65.083   6.444  -1.853  1.00  0.00     0.345 HD
ENDBRANCH   2   3
BRANCH   2   7
ATOM      7  C   UNL     1      66.725   5.558  -3.810  1.00  0.00     0.099 C 
ATOM      8  O   UNL     1      67.164   6.649  -3.359  1.00  0.00    -0.544 OA
ATOM      9  O   UNL     1      67.373   4.953  -4.880  1.00  0.00    -0.544 OA
ENDBRANCH   2   7
ENDBRANCH   1   2
BRANCH   1  10
ATOM     10  C   UNL     1      63.602   3.261  -3.729  1.00  0.00    -0.041 A 
ATOM     11  C   UNL     1      62.310   3.361  -4.271  1.00  0.00     0.008 A 
ATOM     12  C   UNL     1      63.825   2.397  -2.644  1.00  0.00     0.008 A 
ATOM     13  C   UNL     1      61.259   2.611  -3.735  1.00  0.00     0.046 A 
ATOM     14  C   UNL     1      62.774   1.648  -2.109  1.00  0.00     0.046 A 
ATOM     15  C   UNL     1      61.487   1.754  -2.654  1.00  0.00     0.115 A 
BRANCH  15  16
ATOM     16  O   UNL     1      60.430   1.012  -2.129  1.00  0.00    -0.508 OA
ATOM     17  H   UNL     1      59.553   0.915  -2.627  1.00  0.00     0.293 HD
ENDBRANCH  15  16
ENDBRANCH   1  10
TORSDOF 5
ENDMDL
MODEL 7
REMARK VINA RESULT:    -4.910      3.157      4.471
REMARK INTER + INTRA:          -6.268
REMARK INTER:                  -6.031
REMARK INTRA:                  -0.237
REMARK UNBOUND:                -0.209
REMARK SMILES [NH3+][C@@H](Cc1ccc(O)cc1)C(=O)[O-]
REMARK SMILES IDX 3 1 2 2 1 3 11 7 12 8 13 9 4 10 5 11 10 12 6 13 9 14 7 15
REMARK SMILES IDX 8 16
REMARK H PARENT 1 4 1 5 1 6 8 17
REMARK Flexibility Score: inf
ROOT
ATOM      1  C   UNL     1      62.867   4.137  -5.076  1.00  0.00     0.107 C 
ENDROOT
BRANCH   1   2
ATOM      2  C   UNL     1      63.697   4.085  -6.379  1.00  0.00     0.232 C 
BRANCH   2   3
ATOM      3  N   UNL     1      63.616   5.343  -7.134  1.00  0.00    -0.350 N 
ATOM      4  H   UNL     1      63.728   6.154  -6.484  1.00  0.00     0.345 HD
ATOM      5  H   UNL     1      64.389   5.380  -7.837  1.00  0.00     0.345 HD
ATOM      6  H   UNL     1      62.701   5.428  -7.634  1.00  0.00     0.345 HD
ENDBRANCH   2   3
BRANCH   2   7
ATOM      7  C   UNL     1      63.313   2.904  -7.234  1.00  0.00     0.099 C 
ATOM      8  O   UNL     1      64.134   2.399  -8.046  1.00  0.00    -0.544 OA
ATOM      9  O   UNL     1      62.021   2.396  -7.167  1.00  0.00    -0.544 OA
ENDBRANCH   2   7
ENDBRANCH   1   2
BRANCH   1  10
ATOM     10  C   UNL     1      63.437   3.294  -3.960  1.00  0.00    -0.041 A 
ATOM     11  C   UNL     1      64.804   3.364  -3.644  1.00  0.00     0.008 A 
ATOM     12  C   UNL     1      62.609   2.422  -3.232  1.00  0.00     0.008 A 
ATOM     13  C   UNL     1      65.334   2.573  -2.620  1.00  0.00     0.046 A 
ATOM     14  C   UNL     1      63.140   1.632  -2.209  1.00  0.00     0.046 A 
ATOM     15  C   UNL     1      64.505   1.706  -1.901  1.00  0.00     0.115 A 
BRANCH  15  16
ATOM     16  O   UNL     1      65.047   0.923  -0.883  1.00  0.00    -0.508 OA
ATOM     17  H   UNL     1      65.502   1.341  -0.079  1.00  0.00     0.293 HD
ENDBRANCH  15  16
ENDBRANCH   1  10
TORSDOF 5
ENDMDL
MODEL 8
REMARK VINA RESULT:    -4.901      2.976      5.367
REMARK INTER + INTRA:          -6.256
REMARK INTER:                  -6.045
REMARK INTRA:                  -0.211
REMARK UNBOUND:                -0.209
REMARK SMILES [NH3+][C@@H](Cc1ccc(O)cc1)C(=O)[O-]
REMARK SMILES IDX 3 1 2 2 1 3 11 7 12 8 13 9 4 10 5 11 10 12 6 13 9 14 7 15
REMARK SMILES IDX 8 16
REMARK H PARENT 1 4 1 5 1 6 8 17
REMARK Flexibility Score: inf
ROOT
ATOM      1  C   UNL     1      61.072   3.035  -4.702  1.00  0.00     0.107 C 
ENDROOT
BRANCH   1   2
ATOM      2  C   UNL     1      59.735   2.386  -4.274  1.00  0.00     0.232 C 
BRANCH   2   3
ATOM      3  N   UNL     1      59.335   1.301  -5.181  1.00  0.00    -0.350 N 
ATOM      4  H   UNL     1      59.640   0.381  -4.789  1.00  0.00     0.345 HD
ATOM      5  H   UNL     1      58.294   1.288  -5.273  1.00  0.00     0.345 HD
ATOM      6  H   UNL     1      59.756   1.425  -6.130  1.00  0.00     0.345 HD
ENDBRANCH   2   3
BRANCH   2   7
ATOM      7  C   UNL     1      58.641   3.414  -4.130  1.00  0.00     0.099 C 
ATOM      8  O   UNL     1      57.578   3.325  -4.800  1.00  0.00    -0.544 OA
ATOM      9  O   UNL     1      58.827   4.504  -3.288  1.00  0.00    -0.544 OA
ENDBRANCH   2   7
ENDBRANCH   1   2
BRANCH   1  10
ATOM     10  C   UNL     1      62.216   2.741  -3.761  1.00  0.00    -0.041 A 
ATOM     11  C   UNL     1      62.053   1.824  -2.709  1.00  0.00     0.008 A 
ATOM     12  C   UNL     1      63.453   3.390  -3.920  1.00  0.00     0.008 A 
ATOM     13  C   UNL     1      63.109   1.563  -1.830  1.00  0.00     0.046 A 
ATOM     14  C   UNL     1      64.506   3.128  -3.040  1.00  0.00     0.046 A 
ATOM     15  C   UNL     1      64.336   2.213  -1.992  1.00  0.00     0.115 A 
BRANCH  15  16
ATOM     16  O   UNL     1      65.379   1.944  -1.107  1.00  0.00    -0.508 OA
ATOM     17  H   UNL     1      65.465   1.045  -0.648  1.00  0.00     0.293 HD
ENDBRANCH  15  16
ENDBRANCH   1  10
TORSDOF 5
ENDMDL
MODEL 9
REMARK VINA RESULT:    -4.872      4.285      5.785
REMARK INTER + INTRA:          -6.221
REMARK INTER:                  -6.000
REMARK INTRA:                  -0.221
REMARK UNBOUND:                -0.209
REMARK SMILES [NH3+][C@@H](Cc1ccc(O)cc1)C(=O)[O-]
REMARK SMILES IDX 3 1 2 2 1 3 11 7 12 8 13 9 4 10 5 11 10 12 6 13 9 14 7 15
REMARK SMILES IDX 8 16
REMARK H PARENT 1 4 1 5 1 6 8 17
REMARK Flexibility Score: inf
ROOT
ATOM      1  C   UNL     1      59.997   0.402  -2.244  1.00  0.00     0.107 C 
ENDROOT
BRANCH   1   2
ATOM      2  C   UNL     1      60.110   1.864  -2.733  1.00  0.00     0.232 C 
BRANCH   2   3
ATOM      3  N   UNL     1      59.205   2.139  -3.859  1.00  0.00    -0.350 N 
ATOM      4  H   UNL     1      58.400   1.472  -3.837  1.00  0.00     0.345 HD
ATOM      5  H   UNL     1      58.828   3.111  -3.774  1.00  0.00     0.345 HD
ATOM      6  H   UNL     1      59.701   2.049  -4.775  1.00  0.00     0.345 HD
ENDBRANCH   2   3
BRANCH   2   7
ATOM      7  C   UNL     1      61.534   2.228  -3.071  1.00  0.00     0.099 C 
ATOM      8  O   UNL     1      61.800   2.933  -4.080  1.00  0.00    -0.544 OA
ATOM      9  O   UNL     1      62.573   1.736  -2.290  1.00  0.00    -0.544 OA
ENDBRANCH   2   7
ENDBRANCH   1   2
BRANCH   1  10
ATOM     10  C   UNL     1      59.436   0.272  -0.848  1.00  0.00    -0.041 A 
ATOM     11  C   UNL     1      58.300  -0.519  -0.609  1.00  0.00     0.008 A 
ATOM     12  C   UNL     1      60.037   0.951   0.227  1.00  0.00     0.008 A 
ATOM     13  C   UNL     1      57.773  -0.628   0.682  1.00  0.00     0.046 A 
ATOM     14  C   UNL     1      59.509   0.842   1.516  1.00  0.00     0.046 A 
ATOM     15  C   UNL     1      58.375   0.051   1.746  1.00  0.00     0.115 A 
BRANCH  15  16
ATOM     16  O   UNL     1      57.838  -0.065   3.027  1.00  0.00    -0.508 OA
ATOM     17  H   UNL     1      56.954  -0.532   3.190  1.00  0.00     0.293 HD
ENDBRANCH  15  16
ENDBRANCH   1  10
TORSDOF 5
ENDMDL
