MODEL 1
REMARK VINA RESULT:    -5.822      0.000      0.000
REMARK INTER + INTRA:          -5.822
REMARK INTER:                  -5.822
REMARK INTRA:                   0.000
REMARK UNBOUND:                 0.000
REMARK SMILES C=C1c2ccccc2-c2ccccc21
REMARK SMILES IDX 1 1 2 2 3 3 4 4 5 5 6 6 7 7 8 8 9 9 10 10 11 11 12 12 13 13
REMARK SMILES IDX 14 14
REMARK H PARENT
REMARK Flexibility Score: inf
ROOT
ATOM      1  C   UNL     1      51.192 -19.417 135.391  1.00  0.00     0.018 C 
ATOM      2  C   UNL     1      50.322 -18.746 134.638  1.00  0.00    -0.017 C 
ATOM      3  C   UNL     1      50.607 -17.621 133.737  1.00  0.00    -0.010 A 
ATOM      4  C   UNL     1      51.816 -16.984 133.448  1.00  0.00     0.009 A 
ATOM      5  C   UNL     1      51.804 -15.915 132.534  1.00  0.00     0.001 A 
ATOM      6  C   UNL     1      50.599 -15.503 131.931  1.00  0.00     0.001 A 
ATOM      7  C   UNL     1      49.392 -16.156 132.233  1.00  0.00     0.009 A 
ATOM      8  C   UNL     1      49.425 -17.213 133.141  1.00  0.00    -0.010 A 
ATOM      9  C   UNL     1      48.343 -18.059 133.636  1.00  0.00    -0.010 A 
ATOM     10  C   UNL     1      46.981 -18.041 133.335  1.00  0.00     0.009 A 
ATOM     11  C   UNL     1      46.150 -18.984 133.963  1.00  0.00     0.001 A 
ATOM     12  C   UNL     1      46.688 -19.917 134.873  1.00  0.00     0.001 A 
ATOM     13  C   UNL     1      48.063 -19.919 135.164  1.00  0.00     0.009 A 
ATOM     14  C   UNL     1      48.875 -18.975 134.529  1.00  0.00    -0.010 A 
ENDROOT
TORSDOF 0
ENDMDL
MODEL 2
REMARK VINA RESULT:    -5.795      0.971      2.820
REMARK INTER + INTRA:          -5.795
REMARK INTER:                  -5.795
REMARK INTRA:                   0.000
REMARK UNBOUND:                 0.000
REMARK SMILES C=C1c2ccccc2-c2ccccc21
REMARK SMILES IDX 1 1 2 2 3 3 4 4 5 5 6 6 7 7 8 8 9 9 10 10 11 11 12 12 13 13
REMARK SMILES IDX 14 14
REMARK H PARENT
REMARK Flexibility Score: inf
ROOT
ATOM      1  C   UNL     1      48.849 -15.530 131.924  1.00  0.00     0.018 C 
ATOM      2  C   UNL     1      49.385 -16.456 132.719  1.00  0.00    -0.017 C 
ATOM      3  C   UNL     1      50.787 -16.559 133.145  1.00  0.00    -0.010 A 
ATOM      4  C   UNL     1      51.883 -15.748 132.839  1.00  0.00     0.009 A 
ATOM      5  C   UNL     1      53.132 -16.080 133.390  1.00  0.00     0.001 A 
ATOM      6  C   UNL     1      53.268 -17.206 134.228  1.00  0.00     0.001 A 
ATOM      7  C   UNL     1      52.155 -18.011 134.525  1.00  0.00     0.009 A 
ATOM      8  C   UNL     1      50.925 -17.664 133.969  1.00  0.00    -0.010 A 
ATOM      9  C   UNL     1      49.621 -18.306 134.101  1.00  0.00    -0.010 A 
ATOM     10  C   UNL     1      49.250 -19.442 134.820  1.00  0.00     0.009 A 
ATOM     11  C   UNL     1      47.905 -19.848 134.774  1.00  0.00     0.001 A 
ATOM     12  C   UNL     1      46.966 -19.119 134.017  1.00  0.00     0.001 A 
ATOM     13  C   UNL     1      47.359 -17.977 133.299  1.00  0.00     0.009 A 
ATOM     14  C   UNL     1      48.700 -17.587 133.357  1.00  0.00    -0.010 A 
ENDROOT
TORSDOF 0
ENDMDL
MODEL 3
REMARK VINA RESULT:    -5.792      2.559      5.910
REMARK INTER + INTRA:          -5.792
REMARK INTER:                  -5.792
REMARK INTRA:                   0.000
REMARK UNBOUND:                 0.000
REMARK SMILES C=C1c2ccccc2-c2ccccc21
REMARK SMILES IDX 1 1 2 2 3 3 4 4 5 5 6 6 7 7 8 8 9 9 10 10 11 11 12 12 13 13
REMARK SMILES IDX 14 14
REMARK H PARENT
REMARK Flexibility Score: inf
ROOT
ATOM      1  C   UNL     1      53.260 -17.762 133.688  1.00  0.00     0.018 C 
ATOM      2  C   UNL     1      52.765 -16.531 133.570  1.00  0.00    -0.017 C 
ATOM      3  C   UNL     1      51.349 -16.140 133.537  1.00  0.00    -0.010 A 
ATOM      4  C   UNL     1      50.197 -16.926 133.616  1.00  0.00     0.009 A 
ATOM      5  C   UNL     1      48.947 -16.284 133.558  1.00  0.00     0.001 A 
ATOM      6  C   UNL     1      48.868 -14.883 133.423  1.00  0.00     0.001 A 
ATOM      7  C   UNL     1      50.038 -14.108 133.345  1.00  0.00     0.009 A 
ATOM      8  C   UNL     1      51.267 -14.764 133.405  1.00  0.00    -0.010 A 
ATOM      9  C   UNL     1      52.622 -14.224 133.348  1.00  0.00    -0.010 A 
ATOM     10  C   UNL     1      53.057 -12.905 133.219  1.00  0.00     0.009 A 
ATOM     11  C   UNL     1      54.441 -12.662 133.192  1.00  0.00     0.001 A 
ATOM     12  C   UNL     1      55.355 -13.730 133.292  1.00  0.00     0.001 A 
ATOM     13  C   UNL     1      54.897 -15.053 133.420  1.00  0.00     0.009 A 
ATOM     14  C   UNL     1      53.518 -15.276 133.447  1.00  0.00    -0.010 A 
ENDROOT
TORSDOF 0
ENDMDL
MODEL 4
REMARK VINA RESULT:    -5.788      0.973      5.024
REMARK INTER + INTRA:          -5.788
REMARK INTER:                  -5.788
REMARK INTRA:                   0.000
REMARK UNBOUND:                 0.000
REMARK SMILES C=C1c2ccccc2-c2ccccc21
REMARK SMILES IDX 1 1 2 2 3 3 4 4 5 5 6 6 7 7 8 8 9 9 10 10 11 11 12 12 13 13
REMARK SMILES IDX 14 14
REMARK H PARENT
REMARK Flexibility Score: inf
ROOT
ATOM      1  C   UNL     1      48.852 -15.506 131.940  1.00  0.00     0.018 C 
ATOM      2  C   UNL     1      49.393 -16.442 132.718  1.00  0.00    -0.017 C 
ATOM      3  C   UNL     1      48.710 -17.580 133.348  1.00  0.00    -0.010 A 
ATOM      4  C   UNL     1      47.367 -17.962 133.300  1.00  0.00     0.009 A 
ATOM      5  C   UNL     1      46.976 -19.112 134.007  1.00  0.00     0.001 A 
ATOM      6  C   UNL     1      47.920 -19.855 134.744  1.00  0.00     0.001 A 
ATOM      7  C   UNL     1      49.267 -19.456 134.781  1.00  0.00     0.009 A 
ATOM      8  C   UNL     1      49.635 -18.313 134.073  1.00  0.00    -0.010 A 
ATOM      9  C   UNL     1      50.940 -17.674 133.934  1.00  0.00    -0.010 A 
ATOM     10  C   UNL     1      52.176 -18.034 134.473  1.00  0.00     0.009 A 
ATOM     11  C   UNL     1      53.289 -17.230 134.174  1.00  0.00     0.001 A 
ATOM     12  C   UNL     1      53.149 -16.093 133.352  1.00  0.00     0.001 A 
ATOM     13  C   UNL     1      51.895 -15.747 132.819  1.00  0.00     0.009 A 
ATOM     14  C   UNL     1      50.799 -16.558 133.126  1.00  0.00    -0.010 A 
ENDROOT
TORSDOF 0
ENDMDL
MODEL 5
REMARK VINA RESULT:    -5.768      7.005      9.851
REMARK INTER + INTRA:          -5.768
REMARK INTER:                  -5.768
REMARK INTRA:                   0.000
REMARK UNBOUND:                 0.000
REMARK SMILES C=C1c2ccccc2-c2ccccc21
REMARK SMILES IDX 1 1 2 2 3 3 4 4 5 5 6 6 7 7 8 8 9 9 10 10 11 11 12 12 13 13
REMARK SMILES IDX 14 14
REMARK H PARENT
REMARK Flexibility Score: inf
ROOT
ATOM      1  C   UNL     1      58.134 -13.528 132.219  1.00  0.00     0.018 C 
ATOM      2  C   UNL     1      57.410 -12.628 132.883  1.00  0.00    -0.017 C 
ATOM      3  C   UNL     1      57.900 -11.432 133.581  1.00  0.00    -0.010 A 
ATOM      4  C   UNL     1      59.202 -10.945 133.728  1.00  0.00     0.009 A 
ATOM      5  C   UNL     1      59.392  -9.759 134.458  1.00  0.00     0.001 A 
ATOM      6  C   UNL     1      58.291  -9.084 135.026  1.00  0.00     0.001 A 
ATOM      7  C   UNL     1      56.989  -9.588 134.868  1.00  0.00     0.009 A 
ATOM      8  C   UNL     1      56.822 -10.766 134.140  1.00  0.00    -0.010 A 
ATOM      9  C   UNL     1      55.606 -11.507 133.821  1.00  0.00    -0.010 A 
ATOM     10  C   UNL     1      54.279 -11.240 134.158  1.00  0.00     0.009 A 
ATOM     11  C   UNL     1      53.289 -12.133 133.714  1.00  0.00     0.001 A 
ATOM     12  C   UNL     1      53.639 -13.265 132.950  1.00  0.00     0.001 A 
ATOM     13  C   UNL     1      54.982 -13.517 132.622  1.00  0.00     0.009 A 
ATOM     14  C   UNL     1      55.954 -12.618 133.071  1.00  0.00    -0.010 A 
ENDROOT
TORSDOF 0
ENDMDL
MODEL 6
REMARK VINA RESULT:    -5.767      2.643      4.368
REMARK INTER + INTRA:          -5.767
REMARK INTER:                  -5.767
REMARK INTRA:                   0.000
REMARK UNBOUND:                 0.000
REMARK SMILES C=C1c2ccccc2-c2ccccc21
REMARK SMILES IDX 1 1 2 2 3 3 4 4 5 5 6 6 7 7 8 8 9 9 10 10 11 11 12 12 13 13
REMARK SMILES IDX 14 14
REMARK H PARENT
REMARK Flexibility Score: inf
ROOT
ATOM      1  C   UNL     1      53.253 -17.567 133.489  1.00  0.00     0.018 C 
ATOM      2  C   UNL     1      52.733 -16.341 133.451  1.00  0.00    -0.017 C 
ATOM      3  C   UNL     1      53.460 -15.067 133.390  1.00  0.00    -0.010 A 
ATOM      4  C   UNL     1      54.834 -14.815 133.360  1.00  0.00     0.009 A 
ATOM      5  C   UNL     1      55.266 -13.478 133.303  1.00  0.00     0.001 A 
ATOM      6  C   UNL     1      54.330 -12.425 133.277  1.00  0.00     0.001 A 
ATOM      7  C   UNL     1      52.951 -12.696 133.308  1.00  0.00     0.009 A 
ATOM      8  C   UNL     1      52.544 -14.028 133.364  1.00  0.00    -0.010 A 
ATOM      9  C   UNL     1      51.201 -14.597 133.407  1.00  0.00    -0.010 A 
ATOM     10  C   UNL     1      49.958 -13.964 133.401  1.00  0.00     0.009 A 
ATOM     11  C   UNL     1      48.804 -14.765 133.449  1.00  0.00     0.001 A 
ATOM     12  C   UNL     1      48.912 -16.169 133.502  1.00  0.00     0.001 A 
ATOM     13  C   UNL     1      50.173 -16.789 133.507  1.00  0.00     0.009 A 
ATOM     14  C   UNL     1      51.310 -15.977 133.458  1.00  0.00    -0.010 A 
ENDROOT
TORSDOF 0
ENDMDL
MODEL 7
REMARK VINA RESULT:    -5.764      7.047     10.637
REMARK INTER + INTRA:          -5.764
REMARK INTER:                  -5.764
REMARK INTRA:                   0.000
REMARK UNBOUND:                 0.000
REMARK SMILES C=C1c2ccccc2-c2ccccc21
REMARK SMILES IDX 1 1 2 2 3 3 4 4 5 5 6 6 7 7 8 8 9 9 10 10 11 11 12 12 13 13
REMARK SMILES IDX 14 14
REMARK H PARENT
REMARK Flexibility Score: inf
ROOT
ATOM      1  C   UNL     1      58.158 -13.533 132.233  1.00  0.00     0.018 C 
ATOM      2  C   UNL     1      57.444 -12.620 132.888  1.00  0.00    -0.017 C 
ATOM      3  C   UNL     1      55.986 -12.592 133.069  1.00  0.00    -0.010 A 
ATOM      4  C   UNL     1      55.006 -13.479 132.618  1.00  0.00     0.009 A 
ATOM      5  C   UNL     1      53.664 -13.209 132.938  1.00  0.00     0.001 A 
ATOM      6  C   UNL     1      53.325 -12.069 133.695  1.00  0.00     0.001 A 
ATOM      7  C   UNL     1      54.324 -11.188 134.141  1.00  0.00     0.009 A 
ATOM      8  C   UNL     1      55.649 -11.474 133.814  1.00  0.00    -0.010 A 
ATOM      9  C   UNL     1      56.873 -10.747 134.136  1.00  0.00    -0.010 A 
ATOM     10  C   UNL     1      57.051  -9.569 134.861  1.00  0.00     0.009 A 
ATOM     11  C   UNL     1      58.359  -9.082 135.023  1.00  0.00     0.001 A 
ATOM     12  C   UNL     1      59.454  -9.773 134.464  1.00  0.00     0.001 A 
ATOM     13  C   UNL     1      59.253 -10.958 133.737  1.00  0.00     0.009 A 
ATOM     14  C   UNL     1      57.945 -11.429 133.586  1.00  0.00    -0.010 A 
ENDROOT
TORSDOF 0
ENDMDL
MODEL 8
REMARK VINA RESULT:    -5.731      7.237     10.162
REMARK INTER + INTRA:          -5.731
REMARK INTER:                  -5.731
REMARK INTRA:                   0.000
REMARK UNBOUND:                 0.000
REMARK SMILES C=C1c2ccccc2-c2ccccc21
REMARK SMILES IDX 1 1 2 2 3 3 4 4 5 5 6 6 7 7 8 8 9 9 10 10 11 11 12 12 13 13
REMARK SMILES IDX 14 14
REMARK H PARENT
REMARK Flexibility Score: inf
ROOT
ATOM      1  C   UNL     1      55.088  -9.466 135.696  1.00  0.00     0.018 C 
ATOM      2  C   UNL     1      55.755 -10.292 134.892  1.00  0.00    -0.017 C 
ATOM      3  C   UNL     1      57.196 -10.287 134.609  1.00  0.00    -0.010 A 
ATOM      4  C   UNL     1      58.205  -9.447 135.087  1.00  0.00     0.009 A 
ATOM      5  C   UNL     1      59.521  -9.667 134.645  1.00  0.00     0.001 A 
ATOM      6  C   UNL     1      59.808 -10.711 133.742  1.00  0.00     0.001 A 
ATOM      7  C   UNL     1      58.781 -11.547 133.272  1.00  0.00     0.009 A 
ATOM      8  C   UNL     1      57.482 -11.312 133.722  1.00  0.00    -0.010 A 
ATOM      9  C   UNL     1      56.240 -12.009 133.407  1.00  0.00    -0.010 A 
ATOM     10  C   UNL     1      56.012 -13.101 132.568  1.00  0.00     0.009 A 
ATOM     11  C   UNL     1      54.697 -13.580 132.445  1.00  0.00     0.001 A 
ATOM     12  C   UNL     1      53.643 -12.965 133.152  1.00  0.00     0.001 A 
ATOM     13  C   UNL     1      53.893 -11.866 133.992  1.00  0.00     0.009 A 
ATOM     14  C   UNL     1      55.207 -11.403 134.103  1.00  0.00    -0.010 A 
ENDROOT
TORSDOF 0
ENDMDL
MODEL 9
REMARK VINA RESULT:    -5.730      6.984     10.646
REMARK INTER + INTRA:          -5.730
REMARK INTER:                  -5.730
REMARK INTRA:                   0.000
REMARK UNBOUND:                 0.000
REMARK SMILES C=C1c2ccccc2-c2ccccc21
REMARK SMILES IDX 1 1 2 2 3 3 4 4 5 5 6 6 7 7 8 8 9 9 10 10 11 11 12 12 13 13
REMARK SMILES IDX 14 14
REMARK H PARENT
REMARK Flexibility Score: inf
ROOT
ATOM      1  C   UNL     1      55.004  -9.525 135.657  1.00  0.00     0.018 C 
ATOM      2  C   UNL     1      55.604 -10.388 134.840  1.00  0.00    -0.017 C 
ATOM      3  C   UNL     1      54.977 -11.477 134.080  1.00  0.00    -0.010 A 
ATOM      4  C   UNL     1      53.640 -11.879 134.018  1.00  0.00     0.009 A 
ATOM      5  C   UNL     1      53.309 -12.971 133.198  1.00  0.00     0.001 A 
ATOM      6  C   UNL     1      54.307 -13.640 132.459  1.00  0.00     0.001 A 
ATOM      7  C   UNL     1      55.647 -13.222 132.533  1.00  0.00     0.009 A 
ATOM      8  C   UNL     1      55.954 -12.136 133.352  1.00  0.00    -0.010 A 
ATOM      9  C   UNL     1      57.238 -11.496 133.618  1.00  0.00    -0.010 A 
ATOM     10  C   UNL     1      58.509 -11.794 133.125  1.00  0.00     0.009 A 
ATOM     11  C   UNL     1      59.589 -11.004 133.552  1.00  0.00     0.001 A 
ATOM     12  C   UNL     1      59.383  -9.941 134.455  1.00  0.00     0.001 A 
ATOM     13  C   UNL     1      58.096  -9.656 134.941  1.00  0.00     0.009 A 
ATOM     14  C   UNL     1      57.033 -10.452 134.505  1.00  0.00    -0.010 A 
ENDROOT
TORSDOF 0
ENDMDL
