MODEL 1
REMARK VINA RESULT:    -3.056      0.000      0.000
REMARK INTER + INTRA:          -3.793
REMARK INTER:                  -3.681
REMARK INTRA:                  -0.112
REMARK UNBOUND:                -0.112
REMARK SMILES CC[C@H](C)[C@@H]([NH3+])C(=O)[O-]
REMARK SMILES IDX 3 1 4 2 5 3 6 4 7 8 8 9 9 10 2 11 1 12
REMARK H PARENT 6 5 6 6 6 7
REMARK Flexibility Score: inf
ROOT
ATOM      1  C   UNL     1       2.073   2.924 -38.972  1.00  0.00     0.050 C 
ATOM      2  C   UNL     1       3.216   3.822 -38.466  1.00  0.00     0.014 C 
ENDROOT
BRANCH   1   3
ATOM      3  C   UNL     1       1.524   1.968 -37.865  1.00  0.00     0.230 C 
BRANCH   3   4
ATOM      4  N   UNL     1       0.057   1.874 -37.904  1.00  0.00    -0.350 N 
ATOM      5  H   UNL     1      -0.367   2.708 -37.436  1.00  0.00     0.345 HD
ATOM      6  H   UNL     1      -0.293   1.817 -38.887  1.00  0.00     0.345 HD
ATOM      7  H   UNL     1      -0.254   1.020 -37.386  1.00  0.00     0.345 HD
ENDBRANCH   3   4
BRANCH   3   8
ATOM      8  C   UNL     1       2.165   0.596 -37.851  1.00  0.00     0.099 C 
ATOM      9  O   UNL     1       3.208   0.373 -37.183  1.00  0.00    -0.544 OA
ATOM     10  O   UNL     1       1.621  -0.428 -38.618  1.00  0.00    -0.544 OA
ENDBRANCH   3   8
ENDBRANCH   1   3
BRANCH   1  11
ATOM     11  C   UNL     1       2.412   2.271 -40.339  1.00  0.00     0.006 C 
ATOM     12  C   UNL     1       1.224   2.038 -41.275  1.00  0.00     0.004 C 
ENDBRANCH   1  11
TORSDOF 4
ENDMDL
MODEL 2
REMARK VINA RESULT:    -3.030      2.269      3.356
REMARK INTER + INTRA:          -3.762
REMARK INTER:                  -3.691
REMARK INTRA:                  -0.072
REMARK UNBOUND:                -0.112
REMARK SMILES CC[C@H](C)[C@@H]([NH3+])C(=O)[O-]
REMARK SMILES IDX 3 1 4 2 5 3 6 4 7 8 8 9 9 10 2 11 1 12
REMARK H PARENT 6 5 6 6 6 7
REMARK Flexibility Score: inf
ROOT
ATOM      1  C   UNL     1       1.564   1.141 -38.500  1.00  0.00     0.050 C 
ATOM      2  C   UNL     1       2.362  -0.063 -37.969  1.00  0.00     0.014 C 
ENDROOT
BRANCH   1   3
ATOM      3  C   UNL     1       2.409   2.050 -39.450  1.00  0.00     0.230 C 
BRANCH   3   4
ATOM      4  N   UNL     1       1.599   2.588 -40.552  1.00  0.00    -0.350 N 
ATOM      5  H   UNL     1       2.103   3.382 -41.012  1.00  0.00     0.345 HD
ATOM      6  H   UNL     1       1.393   1.854 -41.266  1.00  0.00     0.345 HD
ATOM      7  H   UNL     1       0.694   2.955 -40.176  1.00  0.00     0.345 HD
ENDBRANCH   3   4
BRANCH   3   8
ATOM      8  C   UNL     1       3.177   3.147 -38.744  1.00  0.00     0.099 C 
ATOM      9  O   UNL     1       4.336   2.943 -38.294  1.00  0.00    -0.544 OA
ATOM     10  O   UNL     1       2.586   4.389 -38.548  1.00  0.00    -0.544 OA
ENDBRANCH   3   8
ENDBRANCH   1   3
BRANCH   1  11
ATOM     11  C   UNL     1       0.785   1.863 -37.369  1.00  0.00     0.006 C 
ATOM     12  C   UNL     1      -0.470   2.621 -37.808  1.00  0.00     0.004 C 
ENDBRANCH   1  11
TORSDOF 4
ENDMDL
MODEL 3
REMARK VINA RESULT:    -2.807      2.221      3.105
REMARK INTER + INTRA:          -3.493
REMARK INTER:                  -3.994
REMARK INTRA:                   0.501
REMARK UNBOUND:                -0.112
REMARK SMILES CC[C@H](C)[C@@H]([NH3+])C(=O)[O-]
REMARK SMILES IDX 3 1 4 2 5 3 6 4 7 8 8 9 9 10 2 11 1 12
REMARK H PARENT 6 5 6 6 6 7
REMARK Flexibility Score: inf
ROOT
ATOM      1  C   UNL     1       3.023   2.006 -38.784  1.00  0.00     0.050 C 
ATOM      2  C   UNL     1       3.804   3.237 -38.292  1.00  0.00     0.014 C 
ENDROOT
BRANCH   1   3
ATOM      3  C   UNL     1       1.760   2.388 -39.621  1.00  0.00     0.230 C 
BRANCH   3   4
ATOM      4  N   UNL     1       1.581   1.497 -40.776  1.00  0.00    -0.350 N 
ATOM      5  H   UNL     1       2.058   0.583 -40.599  1.00  0.00     0.345 HD
ATOM      6  H   UNL     1       0.569   1.323 -40.968  1.00  0.00     0.345 HD
ATOM      7  H   UNL     1       2.015   1.929 -41.624  1.00  0.00     0.345 HD
ENDBRANCH   3   4
BRANCH   3   8
ATOM      8  C   UNL     1       0.486   2.504 -38.810  1.00  0.00     0.099 C 
ATOM      9  O   UNL     1      -0.643   2.479 -39.368  1.00  0.00    -0.544 OA
ATOM     10  O   UNL     1       0.557   2.681 -37.434  1.00  0.00    -0.544 OA
ENDBRANCH   3   8
ENDBRANCH   1   3
BRANCH   1  11
ATOM     11  C   UNL     1       2.809   0.967 -37.651  1.00  0.00     0.006 C 
ATOM     12  C   UNL     1       2.391  -0.434 -38.105  1.00  0.00     0.004 C 
ENDBRANCH   1  11
TORSDOF 4
ENDMDL
MODEL 4
REMARK VINA RESULT:    -2.792      1.908      3.033
REMARK INTER + INTRA:          -3.475
REMARK INTER:                  -3.852
REMARK INTRA:                   0.377
REMARK UNBOUND:                -0.112
REMARK SMILES CC[C@H](C)[C@@H]([NH3+])C(=O)[O-]
REMARK SMILES IDX 3 1 4 2 5 3 6 4 7 8 8 9 9 10 2 11 1 12
REMARK H PARENT 6 5 6 6 6 7
REMARK Flexibility Score: inf
ROOT
ATOM      1  C   UNL     1       2.363   1.812 -37.780  1.00  0.00     0.050 C 
ATOM      2  C   UNL     1       2.870   0.378 -37.543  1.00  0.00     0.014 C 
ENDROOT
BRANCH   1   3
ATOM      3  C   UNL     1       0.928   1.848 -38.397  1.00  0.00     0.230 C 
BRANCH   3   4
ATOM      4  N   UNL     1       0.070   2.835 -37.725  1.00  0.00    -0.350 N 
ATOM      5  H   UNL     1       0.559   3.218 -36.883  1.00  0.00     0.345 HD
ATOM      6  H   UNL     1      -0.177   3.622 -38.366  1.00  0.00     0.345 HD
ATOM      7  H   UNL     1      -0.812   2.373 -37.404  1.00  0.00     0.345 HD
ENDBRANCH   3   4
BRANCH   3   8
ATOM      8  C   UNL     1       0.900   2.027 -39.901  1.00  0.00     0.099 C 
ATOM      9  O   UNL     1      -0.107   2.516 -40.478  1.00  0.00    -0.544 OA
ATOM     10  O   UNL     1       1.981   1.609 -40.667  1.00  0.00    -0.544 OA
ENDBRANCH   3   8
ENDBRANCH   1   3
BRANCH   1  11
ATOM     11  C   UNL     1       3.433   2.696 -38.474  1.00  0.00     0.006 C 
ATOM     12  C   UNL     1       3.296   4.204 -38.247  1.00  0.00     0.004 C 
ENDBRANCH   1  11
TORSDOF 4
ENDMDL
MODEL 5
REMARK VINA RESULT:    -2.791      2.177      2.770
REMARK INTER + INTRA:          -3.474
REMARK INTER:                  -3.576
REMARK INTRA:                   0.102
REMARK UNBOUND:                -0.112
REMARK SMILES CC[C@H](C)[C@@H]([NH3+])C(=O)[O-]
REMARK SMILES IDX 3 1 4 2 5 3 6 4 7 8 8 9 9 10 2 11 1 12
REMARK H PARENT 6 5 6 6 6 7
REMARK Flexibility Score: inf
ROOT
ATOM      1  C   UNL     1       0.798   1.949 -38.508  1.00  0.00     0.050 C 
ATOM      2  C   UNL     1      -0.295   2.639 -37.671  1.00  0.00     0.014 C 
ENDROOT
BRANCH   1   3
ATOM      3  C   UNL     1       2.184   1.928 -37.787  1.00  0.00     0.230 C 
BRANCH   3   4
ATOM      4  N   UNL     1       2.757   0.575 -37.746  1.00  0.00    -0.350 N 
ATOM      5  H   UNL     1       2.541   0.124 -36.827  1.00  0.00     0.345 HD
ATOM      6  H   UNL     1       2.380  -0.020 -38.517  1.00  0.00     0.345 HD
ATOM      7  H   UNL     1       3.797   0.631 -37.842  1.00  0.00     0.345 HD
ENDBRANCH   3   4
BRANCH   3   8
ATOM      8  C   UNL     1       3.182   2.933 -38.324  1.00  0.00     0.099 C 
ATOM      9  O   UNL     1       4.296   2.563 -38.778  1.00  0.00    -0.544 OA
ATOM     10  O   UNL     1       2.886   4.290 -38.282  1.00  0.00    -0.544 OA
ENDBRANCH   3   8
ENDBRANCH   1   3
BRANCH   1  11
ATOM     11  C   UNL     1       0.795   2.440 -39.980  1.00  0.00     0.006 C 
ATOM     12  C   UNL     1       1.636   1.614 -40.956  1.00  0.00     0.004 C 
ENDBRANCH   1  11
TORSDOF 4
ENDMDL
MODEL 6
REMARK VINA RESULT:    -2.790      1.999      2.847
REMARK INTER + INTRA:          -3.473
REMARK INTER:                  -3.371
REMARK INTRA:                  -0.102
REMARK UNBOUND:                -0.112
REMARK SMILES CC[C@H](C)[C@@H]([NH3+])C(=O)[O-]
REMARK SMILES IDX 3 1 4 2 5 3 6 4 7 8 8 9 9 10 2 11 1 12
REMARK H PARENT 6 5 6 6 6 7
REMARK Flexibility Score: inf
ROOT
ATOM      1  C   UNL     1       2.016   1.475 -39.361  1.00  0.00     0.050 C 
ATOM      2  C   UNL     1       1.877   0.288 -38.392  1.00  0.00     0.014 C 
ENDROOT
BRANCH   1   3
ATOM      3  C   UNL     1       1.750   2.851 -38.669  1.00  0.00     0.230 C 
BRANCH   3   4
ATOM      4  N   UNL     1       0.895   2.708 -37.482  1.00  0.00    -0.350 N 
ATOM      5  H   UNL     1       0.509   1.737 -37.434  1.00  0.00     0.345 HD
ATOM      6  H   UNL     1       1.426   2.910 -36.605  1.00  0.00     0.345 HD
ATOM      7  H   UNL     1       0.089   3.372 -37.548  1.00  0.00     0.345 HD
ENDBRANCH   3   4
BRANCH   3   8
ATOM      8  C   UNL     1       3.001   3.644 -38.355  1.00  0.00     0.099 C 
ATOM      9  O   UNL     1       2.969   4.899 -38.261  1.00  0.00    -0.544 OA
ATOM     10  O   UNL     1       4.217   2.986 -38.207  1.00  0.00    -0.544 OA
ENDBRANCH   3   8
ENDBRANCH   1   3
BRANCH   1  11
ATOM     11  C   UNL     1       1.269   1.222 -40.698  1.00  0.00     0.006 C 
ATOM     12  C   UNL     1       1.169   2.423 -41.640  1.00  0.00     0.004 C 
ENDBRANCH   1  11
TORSDOF 4
ENDMDL
MODEL 7
REMARK VINA RESULT:    -2.783      1.599      2.463
REMARK INTER + INTRA:          -3.464
REMARK INTER:                  -3.498
REMARK INTRA:                   0.034
REMARK UNBOUND:                -0.112
REMARK SMILES CC[C@H](C)[C@@H]([NH3+])C(=O)[O-]
REMARK SMILES IDX 3 1 4 2 5 3 6 4 7 8 8 9 9 10 2 11 1 12
REMARK H PARENT 6 5 6 6 6 7
REMARK Flexibility Score: inf
ROOT
ATOM      1  C   UNL     1       1.456   2.396 -39.660  1.00  0.00     0.050 C 
ATOM      2  C   UNL     1       1.420   1.920 -41.123  1.00  0.00     0.014 C 
ENDROOT
BRANCH   1   3
ATOM      3  C   UNL     1       2.749   1.941 -38.911  1.00  0.00     0.230 C 
BRANCH   3   4
ATOM      4  N   UNL     1       3.402   3.061 -38.219  1.00  0.00    -0.350 N 
ATOM      5  H   UNL     1       3.942   3.639 -38.906  1.00  0.00     0.345 HD
ATOM      6  H   UNL     1       2.703   3.669 -37.736  1.00  0.00     0.345 HD
ATOM      7  H   UNL     1       4.075   2.692 -37.509  1.00  0.00     0.345 HD
ENDBRANCH   3   4
BRANCH   3   8
ATOM      8  C   UNL     1       2.549   0.761 -37.982  1.00  0.00     0.099 C 
ATOM      9  O   UNL     1       2.782   0.859 -36.748  1.00  0.00    -0.544 OA
ATOM     10  O   UNL     1       2.142  -0.463 -38.498  1.00  0.00    -0.544 OA
ENDBRANCH   3   8
ENDBRANCH   1   3
BRANCH   1  11
ATOM     11  C   UNL     1       0.110   2.134 -38.933  1.00  0.00     0.006 C 
ATOM     12  C   UNL     1      -0.073   2.856 -37.596  1.00  0.00     0.004 C 
ENDBRANCH   1  11
TORSDOF 4
ENDMDL
MODEL 8
REMARK VINA RESULT:    -2.749      1.600      2.446
REMARK INTER + INTRA:          -3.423
REMARK INTER:                  -3.315
REMARK INTRA:                  -0.109
REMARK UNBOUND:                -0.112
REMARK SMILES CC[C@H](C)[C@@H]([NH3+])C(=O)[O-]
REMARK SMILES IDX 3 1 4 2 5 3 6 4 7 8 8 9 9 10 2 11 1 12
REMARK H PARENT 6 5 6 6 6 7
REMARK Flexibility Score: inf
ROOT
ATOM      1  C   UNL     1       1.665   2.585 -38.081  1.00  0.00     0.050 C 
ATOM      2  C   UNL     1       2.717   3.583 -38.597  1.00  0.00     0.014 C 
ENDROOT
BRANCH   1   3
ATOM      3  C   UNL     1       1.628   1.265 -38.915  1.00  0.00     0.230 C 
BRANCH   3   4
ATOM      4  N   UNL     1       2.200   1.451 -40.257  1.00  0.00    -0.350 N 
ATOM      5  H   UNL     1       1.803   0.742 -40.916  1.00  0.00     0.345 HD
ATOM      6  H   UNL     1       2.003   2.409 -40.624  1.00  0.00     0.345 HD
ATOM      7  H   UNL     1       3.237   1.312 -40.219  1.00  0.00     0.345 HD
ENDBRANCH   3   4
BRANCH   3   8
ATOM      8  C   UNL     1       2.239   0.068 -38.217  1.00  0.00     0.099 C 
ATOM      9  O   UNL     1       1.936  -1.106 -38.555  1.00  0.00    -0.544 OA
ATOM     10  O   UNL     1       3.117   0.261 -37.157  1.00  0.00    -0.544 OA
ENDBRANCH   3   8
ENDBRANCH   1   3
BRANCH   1  11
ATOM     11  C   UNL     1       0.297   3.271 -37.817  1.00  0.00     0.006 C 
ATOM     12  C   UNL     1      -0.895   2.328 -37.646  1.00  0.00     0.004 C 
ENDBRANCH   1  11
TORSDOF 4
ENDMDL
MODEL 9
REMARK VINA RESULT:    -2.445      1.993      2.828
REMARK INTER + INTRA:          -3.057
REMARK INTER:                  -2.999
REMARK INTRA:                  -0.058
REMARK UNBOUND:                -0.112
REMARK SMILES CC[C@H](C)[C@@H]([NH3+])C(=O)[O-]
REMARK SMILES IDX 3 1 4 2 5 3 6 4 7 8 8 9 9 10 2 11 1 12
REMARK H PARENT 6 5 6 6 6 7
REMARK Flexibility Score: inf
ROOT
ATOM      1  C   UNL     1       2.206   1.871 -39.749  1.00  0.00     0.050 C 
ATOM      2  C   UNL     1       1.483   1.931 -41.105  1.00  0.00     0.014 C 
ENDROOT
BRANCH   1   3
ATOM      3  C   UNL     1       1.359   1.159 -38.646  1.00  0.00     0.230 C 
BRANCH   3   4
ATOM      4  N   UNL     1       2.177   0.246 -37.834  1.00  0.00    -0.350 N 
ATOM      5  H   UNL     1       2.820   0.795 -37.218  1.00  0.00     0.345 HD
ATOM      6  H   UNL     1       1.580  -0.373 -37.241  1.00  0.00     0.345 HD
ATOM      7  H   UNL     1       2.763  -0.352 -38.461  1.00  0.00     0.345 HD
ENDBRANCH   3   4
BRANCH   3   8
ATOM      8  C   UNL     1       0.552   2.099 -37.775  1.00  0.00     0.099 C 
ATOM      9  O   UNL     1       1.000   2.509 -36.672  1.00  0.00    -0.544 OA
ATOM     10  O   UNL     1      -0.722   2.487 -38.173  1.00  0.00    -0.544 OA
ENDBRANCH   3   8
ENDBRANCH   1   3
BRANCH   1  11
ATOM     11  C   UNL     1       2.826   3.241 -39.363  1.00  0.00     0.006 C 
ATOM     12  C   UNL     1       3.970   3.189 -38.347  1.00  0.00     0.004 C 
ENDBRANCH   1  11
TORSDOF 4
ENDMDL
