MODEL 1
REMARK VINA RESULT:    -8.137      0.000      0.000
REMARK INTER + INTRA:          -8.835
REMARK INTER:                  -8.613
REMARK INTRA:                  -0.223
REMARK UNBOUND:                -0.223
REMARK SMILES O=c1cc(-c2ccccc2)oc2ccccc12
REMARK SMILES IDX 4 1 3 2 2 3 1 4 17 5 16 6 15 7 14 8 13 9 12 10 11 11 5 12
REMARK SMILES IDX 8 13 7 14 9 15 6 16 10 17
REMARK H PARENT
REMARK Flexibility Score: inf
ROOT
ATOM      1  C   UNL     1     139.794 -19.053  79.241  1.00  0.00     0.138 A 
ATOM      2  C   UNL     1     140.919 -19.376  78.453  1.00  0.00     0.100 A 
ATOM      3  C   UNL     1     140.785 -19.471  77.066  1.00  0.00     0.193 A 
ATOM      4  O   UNL     1     141.791 -19.760  76.363  1.00  0.00    -0.289 OA
ATOM      5  C   UNL     1     139.534 -19.242  76.476  1.00  0.00     0.065 A 
ATOM      6  C   UNL     1     139.330 -19.322  75.087  1.00  0.00     0.016 A 
ATOM      7  C   UNL     1     138.061 -19.085  74.550  1.00  0.00     0.001 A 
ATOM      8  C   UNL     1     136.990 -18.769  75.391  1.00  0.00     0.004 A 
ATOM      9  C   UNL     1     137.183 -18.688  76.774  1.00  0.00     0.048 A 
ATOM     10  C   UNL     1     138.449 -18.923  77.321  1.00  0.00     0.138 A 
ATOM     11  O   UNL     1     138.622 -18.844  78.636  1.00  0.00    -0.456 OA
ENDROOT
BRANCH   1  12
ATOM     12  C   UNL     1     139.850 -18.931  80.730  1.00  0.00     0.017 A 
ATOM     13  C   UNL     1     139.959 -18.801  83.548  1.00  0.00     0.000 A 
ATOM     14  C   UNL     1     139.980 -20.038  82.904  1.00  0.00     0.001 A 
ATOM     15  C   UNL     1     139.884 -17.629  82.797  1.00  0.00     0.001 A 
ATOM     16  C   UNL     1     139.926 -20.106  81.510  1.00  0.00     0.012 A 
ATOM     17  C   UNL     1     139.830 -17.687  81.400  1.00  0.00     0.012 A 
ENDBRANCH   1  12
TORSDOF 1
ENDMDL
MODEL 2
REMARK VINA RESULT:    -8.087      0.127      1.179
REMARK INTER + INTRA:          -8.782
REMARK INTER:                  -8.557
REMARK INTRA:                  -0.225
REMARK UNBOUND:                -0.223
REMARK SMILES O=c1cc(-c2ccccc2)oc2ccccc12
REMARK SMILES IDX 4 1 3 2 2 3 1 4 17 5 16 6 15 7 14 8 13 9 12 10 11 11 5 12
REMARK SMILES IDX 8 13 7 14 9 15 6 16 10 17
REMARK H PARENT
REMARK Flexibility Score: inf
ROOT
ATOM      1  C   UNL     1     139.845 -19.060  79.307  1.00  0.00     0.138 A 
ATOM      2  C   UNL     1     140.991 -19.362  78.542  1.00  0.00     0.100 A 
ATOM      3  C   UNL     1     140.890 -19.437  77.150  1.00  0.00     0.193 A 
ATOM      4  O   UNL     1     141.915 -19.707  76.467  1.00  0.00    -0.289 OA
ATOM      5  C   UNL     1     139.651 -19.212  76.535  1.00  0.00     0.065 A 
ATOM      6  C   UNL     1     139.480 -19.273  75.140  1.00  0.00     0.016 A 
ATOM      7  C   UNL     1     138.221 -19.040  74.577  1.00  0.00     0.001 A 
ATOM      8  C   UNL     1     137.128 -18.747  75.398  1.00  0.00     0.004 A 
ATOM      9  C   UNL     1     137.288 -18.684  76.786  1.00  0.00     0.048 A 
ATOM     10  C   UNL     1     138.544 -18.915  77.359  1.00  0.00     0.138 A 
ATOM     11  O   UNL     1     138.685 -18.854  78.679  1.00  0.00    -0.456 OA
ENDROOT
BRANCH   1  12
ATOM     12  C   UNL     1     139.865 -18.961  80.799  1.00  0.00     0.017 A 
ATOM     13  C   UNL     1     139.904 -18.675  83.607  1.00  0.00     0.000 A 
ATOM     14  C   UNL     1     139.874 -17.545  82.790  1.00  0.00     0.001 A 
ATOM     15  C   UNL     1     139.915 -19.946  83.034  1.00  0.00     0.001 A 
ATOM     16  C   UNL     1     139.854 -17.683  81.400  1.00  0.00     0.012 A 
ATOM     17  C   UNL     1     139.896 -20.094  81.643  1.00  0.00     0.012 A 
ENDBRANCH   1  12
TORSDOF 1
ENDMDL
MODEL 3
REMARK VINA RESULT:    -7.646      1.405      6.234
REMARK INTER + INTRA:          -8.315
REMARK INTER:                  -8.079
REMARK INTRA:                  -0.236
REMARK UNBOUND:                -0.223
REMARK SMILES O=c1cc(-c2ccccc2)oc2ccccc12
REMARK SMILES IDX 4 1 3 2 2 3 1 4 17 5 16 6 15 7 14 8 13 9 12 10 11 11 5 12
REMARK SMILES IDX 8 13 7 14 9 15 6 16 10 17
REMARK H PARENT
REMARK Flexibility Score: inf
ROOT
ATOM      1  C   UNL     1     139.492 -18.445  79.131  1.00  0.00     0.138 A 
ATOM      2  C   UNL     1     139.548 -17.156  79.702  1.00  0.00     0.100 A 
ATOM      3  C   UNL     1     139.733 -17.019  81.080  1.00  0.00     0.193 A 
ATOM      4  O   UNL     1     139.784 -15.867  81.589  1.00  0.00    -0.289 OA
ATOM      5  C   UNL     1     139.861 -18.167  81.876  1.00  0.00     0.065 A 
ATOM      6  C   UNL     1     140.048 -18.100  83.268  1.00  0.00     0.016 A 
ATOM      7  C   UNL     1     140.169 -19.276  84.015  1.00  0.00     0.001 A 
ATOM      8  C   UNL     1     140.103 -20.521  83.383  1.00  0.00     0.004 A 
ATOM      9  C   UNL     1     139.917 -20.596  81.999  1.00  0.00     0.048 A 
ATOM     10  C   UNL     1     139.795 -19.426  81.242  1.00  0.00     0.138 A 
ATOM     11  O   UNL     1     139.617 -19.509  79.928  1.00  0.00    -0.456 OA
ENDROOT
BRANCH   1  12
ATOM     12  C   UNL     1     139.296 -18.679  77.668  1.00  0.00     0.017 A 
ATOM     13  C   UNL     1     138.845 -19.068  74.908  1.00  0.00     0.000 A 
ATOM     14  C   UNL     1     137.956 -18.301  75.660  1.00  0.00     0.001 A 
ATOM     15  C   UNL     1     139.957 -19.643  75.522  1.00  0.00     0.001 A 
ATOM     16  C   UNL     1     138.177 -18.106  77.026  1.00  0.00     0.012 A 
ATOM     17  C   UNL     1     140.186 -19.454  76.889  1.00  0.00     0.012 A 
ENDBRANCH   1  12
TORSDOF 1
ENDMDL
MODEL 4
REMARK VINA RESULT:    -7.574      2.637      4.789
REMARK INTER + INTRA:          -8.239
REMARK INTER:                  -8.015
REMARK INTRA:                  -0.225
REMARK UNBOUND:                -0.223
REMARK SMILES O=c1cc(-c2ccccc2)oc2ccccc12
REMARK SMILES IDX 4 1 3 2 2 3 1 4 17 5 16 6 15 7 14 8 13 9 12 10 11 11 5 12
REMARK SMILES IDX 8 13 7 14 9 15 6 16 10 17
REMARK H PARENT
REMARK Flexibility Score: inf
ROOT
ATOM      1  C   UNL     1     139.131 -19.867  77.611  1.00  0.00     0.138 A 
ATOM      2  C   UNL     1     140.157 -19.839  76.643  1.00  0.00     0.100 A 
ATOM      3  C   UNL     1     141.065 -18.777  76.633  1.00  0.00     0.193 A 
ATOM      4  O   UNL     1     141.982 -18.753  75.767  1.00  0.00    -0.289 OA
ATOM      5  C   UNL     1     140.944 -17.756  77.585  1.00  0.00     0.065 A 
ATOM      6  C   UNL     1     141.824 -16.660  77.629  1.00  0.00     0.016 A 
ATOM      7  C   UNL     1     141.658 -15.667  78.600  1.00  0.00     0.001 A 
ATOM      8  C   UNL     1     140.618 -15.760  79.530  1.00  0.00     0.004 A 
ATOM      9  C   UNL     1     139.738 -16.846  79.493  1.00  0.00     0.048 A 
ATOM     10  C   UNL     1     139.895 -17.845  78.525  1.00  0.00     0.138 A 
ATOM     11  O   UNL     1     139.054 -18.872  78.498  1.00  0.00    -0.456 OA
ENDROOT
BRANCH   1  12
ATOM     12  C   UNL     1     138.118 -20.964  77.693  1.00  0.00     0.017 A 
ATOM     13  C   UNL     1     136.142 -22.977  77.803  1.00  0.00     0.000 A 
ATOM     14  C   UNL     1     135.848 -21.739  77.231  1.00  0.00     0.001 A 
ATOM     15  C   UNL     1     137.414 -23.218  78.320  1.00  0.00     0.001 A 
ATOM     16  C   UNL     1     136.824 -20.741  77.175  1.00  0.00     0.012 A 
ATOM     17  C   UNL     1     138.398 -22.225  78.269  1.00  0.00     0.012 A 
ENDBRANCH   1  12
TORSDOF 1
ENDMDL
MODEL 5
REMARK VINA RESULT:    -7.477      2.023      2.792
REMARK INTER + INTRA:          -8.137
REMARK INTER:                  -7.884
REMARK INTRA:                  -0.253
REMARK UNBOUND:                -0.223
REMARK SMILES O=c1cc(-c2ccccc2)oc2ccccc12
REMARK SMILES IDX 4 1 3 2 2 3 1 4 17 5 16 6 15 7 14 8 13 9 12 10 11 11 5 12
REMARK SMILES IDX 8 13 7 14 9 15 6 16 10 17
REMARK H PARENT
REMARK Flexibility Score: inf
ROOT
ATOM      1  C   UNL     1     140.044 -18.428  80.345  1.00  0.00     0.138 A 
ATOM      2  C   UNL     1     139.513 -17.149  80.074  1.00  0.00     0.100 A 
ATOM      3  C   UNL     1     139.546 -16.652  78.768  1.00  0.00     0.193 A 
ATOM      4  O   UNL     1     139.071 -15.509  78.526  1.00  0.00    -0.289 OA
ATOM      5  C   UNL     1     140.106 -17.432  77.747  1.00  0.00     0.065 A 
ATOM      6  C   UNL     1     140.172 -16.991  76.413  1.00  0.00     0.016 A 
ATOM      7  C   UNL     1     140.742 -17.809  75.432  1.00  0.00     0.001 A 
ATOM      8  C   UNL     1     141.249 -19.066  75.773  1.00  0.00     0.004 A 
ATOM      9  C   UNL     1     141.189 -19.512  77.097  1.00  0.00     0.048 A 
ATOM     10  C   UNL     1     140.620 -18.702  78.086  1.00  0.00     0.138 A 
ATOM     11  O   UNL     1     140.568 -19.135  79.341  1.00  0.00    -0.456 OA
ENDROOT
BRANCH   1  12
ATOM     12  C   UNL     1     140.049 -19.034  81.712  1.00  0.00     0.017 A 
ATOM     13  C   UNL     1     140.043 -20.266  84.252  1.00  0.00     0.000 A 
ATOM     14  C   UNL     1     139.872 -21.036  83.101  1.00  0.00     0.001 A 
ATOM     15  C   UNL     1     140.216 -18.887  84.145  1.00  0.00     0.001 A 
ATOM     16  C   UNL     1     139.874 -20.429  81.843  1.00  0.00     0.012 A 
ATOM     17  C   UNL     1     140.220 -18.270  82.889  1.00  0.00     0.012 A 
ENDBRANCH   1  12
TORSDOF 1
ENDMDL
MODEL 6
REMARK VINA RESULT:    -7.439      3.224      4.888
REMARK INTER + INTRA:          -8.096
REMARK INTER:                  -7.853
REMARK INTRA:                  -0.243
REMARK UNBOUND:                -0.223
REMARK SMILES O=c1cc(-c2ccccc2)oc2ccccc12
REMARK SMILES IDX 4 1 3 2 2 3 1 4 17 5 16 6 15 7 14 8 13 9 12 10 11 11 5 12
REMARK SMILES IDX 8 13 7 14 9 15 6 16 10 17
REMARK H PARENT
REMARK Flexibility Score: inf
ROOT
ATOM      1  C   UNL     1     138.397 -20.136  77.526  1.00  0.00     0.138 A 
ATOM      2  C   UNL     1     137.977 -18.880  78.012  1.00  0.00     0.100 A 
ATOM      3  C   UNL     1     138.775 -17.755  77.791  1.00  0.00     0.193 A 
ATOM      4  O   UNL     1     138.399 -16.632  78.226  1.00  0.00    -0.289 OA
ATOM      5  C   UNL     1     139.981 -17.890  77.090  1.00  0.00     0.065 A 
ATOM      6  C   UNL     1     140.831 -16.799  76.835  1.00  0.00     0.016 A 
ATOM      7  C   UNL     1     142.024 -16.989  76.130  1.00  0.00     0.001 A 
ATOM      8  C   UNL     1     142.377 -18.264  75.678  1.00  0.00     0.004 A 
ATOM      9  C   UNL     1     141.539 -19.355  75.928  1.00  0.00     0.048 A 
ATOM     10  C   UNL     1     140.342 -19.175  76.632  1.00  0.00     0.138 A 
ATOM     11  O   UNL     1     139.553 -20.219  76.864  1.00  0.00    -0.456 OA
ENDROOT
BRANCH   1  12
ATOM     12  C   UNL     1     137.604 -21.390  77.718  1.00  0.00     0.017 A 
ATOM     13  C   UNL     1     136.190 -23.801  78.111  1.00  0.00     0.000 A 
ATOM     14  C   UNL     1     137.557 -23.741  78.379  1.00  0.00     0.001 A 
ATOM     15  C   UNL     1     135.523 -22.667  77.648  1.00  0.00     0.001 A 
ATOM     16  C   UNL     1     138.260 -22.549  78.186  1.00  0.00     0.012 A 
ATOM     17  C   UNL     1     136.218 -21.469  77.452  1.00  0.00     0.012 A 
ENDBRANCH   1  12
TORSDOF 1
ENDMDL
MODEL 7
REMARK VINA RESULT:    -7.426      1.649      2.668
REMARK INTER + INTRA:          -8.083
REMARK INTER:                  -7.837
REMARK INTRA:                  -0.246
REMARK UNBOUND:                -0.223
REMARK SMILES O=c1cc(-c2ccccc2)oc2ccccc12
REMARK SMILES IDX 4 1 3 2 2 3 1 4 17 5 16 6 15 7 14 8 13 9 12 10 11 11 5 12
REMARK SMILES IDX 8 13 7 14 9 15 6 16 10 17
REMARK H PARENT
REMARK Flexibility Score: inf
ROOT
ATOM      1  C   UNL     1     139.946 -18.962  79.647  1.00  0.00     0.138 A 
ATOM      2  C   UNL     1     139.130 -19.767  78.823  1.00  0.00     0.100 A 
ATOM      3  C   UNL     1     139.193 -19.619  77.436  1.00  0.00     0.193 A 
ATOM      4  O   UNL     1     138.463 -20.338  76.700  1.00  0.00    -0.289 OA
ATOM      5  C   UNL     1     140.066 -18.672  76.881  1.00  0.00     0.065 A 
ATOM      6  C   UNL     1     140.177 -18.472  75.494  1.00  0.00     0.016 A 
ATOM      7  C   UNL     1     141.064 -17.514  74.993  1.00  0.00     0.001 A 
ATOM      8  C   UNL     1     141.842 -16.751  75.868  1.00  0.00     0.004 A 
ATOM      9  C   UNL     1     141.738 -16.943  77.250  1.00  0.00     0.048 A 
ATOM     10  C   UNL     1     140.854 -17.899  77.761  1.00  0.00     0.138 A 
ATOM     11  O   UNL     1     140.762 -18.073  79.075  1.00  0.00    -0.456 OA
ENDROOT
BRANCH   1  12
ATOM     12  C   UNL     1     139.941 -19.057  81.139  1.00  0.00     0.017 A 
ATOM     13  C   UNL     1     139.931 -19.136  83.961  1.00  0.00     0.000 A 
ATOM     14  C   UNL     1     139.923 -17.910  83.296  1.00  0.00     0.001 A 
ATOM     15  C   UNL     1     139.944 -20.323  83.229  1.00  0.00     0.001 A 
ATOM     16  C   UNL     1     139.927 -17.867  81.900  1.00  0.00     0.012 A 
ATOM     17  C   UNL     1     139.949 -20.290  81.830  1.00  0.00     0.012 A 
ENDBRANCH   1  12
TORSDOF 1
ENDMDL
MODEL 8
REMARK VINA RESULT:    -7.343      2.776      4.336
REMARK INTER + INTRA:          -7.995
REMARK INTER:                  -7.730
REMARK INTRA:                  -0.265
REMARK UNBOUND:                -0.223
REMARK SMILES O=c1cc(-c2ccccc2)oc2ccccc12
REMARK SMILES IDX 4 1 3 2 2 3 1 4 17 5 16 6 15 7 14 8 13 9 12 10 11 11 5 12
REMARK SMILES IDX 8 13 7 14 9 15 6 16 10 17
REMARK H PARENT
REMARK Flexibility Score: inf
ROOT
ATOM      1  C   UNL     1     139.357 -20.004  78.849  1.00  0.00     0.138 A 
ATOM      2  C   UNL     1     139.418 -18.920  79.750  1.00  0.00     0.100 A 
ATOM      3  C   UNL     1     140.167 -17.789  79.417  1.00  0.00     0.193 A 
ATOM      4  O   UNL     1     140.222 -16.820  80.223  1.00  0.00    -0.289 OA
ATOM      5  C   UNL     1     140.847 -17.748  78.192  1.00  0.00     0.065 A 
ATOM      6  C   UNL     1     141.619 -16.641  77.796  1.00  0.00     0.016 A 
ATOM      7  C   UNL     1     142.277 -16.651  76.562  1.00  0.00     0.001 A 
ATOM      8  C   UNL     1     142.173 -17.761  75.719  1.00  0.00     0.004 A 
ATOM      9  C   UNL     1     141.408 -18.866  76.104  1.00  0.00     0.048 A 
ATOM     10  C   UNL     1     140.744 -18.866  77.337  1.00  0.00     0.138 A 
ATOM     11  O   UNL     1     140.021 -19.921  77.694  1.00  0.00    -0.456 OA
ENDROOT
BRANCH   1  12
ATOM     12  C   UNL     1     138.579 -21.251  79.128  1.00  0.00     0.017 A 
ATOM     13  C   UNL     1     137.123 -23.631  79.559  1.00  0.00     0.000 A 
ATOM     14  C   UNL     1     137.643 -23.348  78.295  1.00  0.00     0.001 A 
ATOM     15  C   UNL     1     137.323 -22.735  80.608  1.00  0.00     0.001 A 
ATOM     16  C   UNL     1     138.364 -22.172  78.079  1.00  0.00     0.012 A 
ATOM     17  C   UNL     1     138.045 -21.554  80.401  1.00  0.00     0.012 A 
ENDBRANCH   1  12
TORSDOF 1
ENDMDL
MODEL 9
REMARK VINA RESULT:    -7.294      2.960      4.305
REMARK INTER + INTRA:          -7.943
REMARK INTER:                  -7.677
REMARK INTRA:                  -0.266
REMARK UNBOUND:                -0.223
REMARK SMILES O=c1cc(-c2ccccc2)oc2ccccc12
REMARK SMILES IDX 4 1 3 2 2 3 1 4 17 5 16 6 15 7 14 8 13 9 12 10 11 11 5 12
REMARK SMILES IDX 8 13 7 14 9 15 6 16 10 17
REMARK H PARENT
REMARK Flexibility Score: inf
ROOT
ATOM      1  C   UNL     1     138.995 -20.736  78.550  1.00  0.00     0.138 A 
ATOM      2  C   UNL     1     139.488 -20.708  77.228  1.00  0.00     0.100 A 
ATOM      3  C   UNL     1     140.224 -19.605  76.790  1.00  0.00     0.193 A 
ATOM      4  O   UNL     1     140.664 -19.580  75.608  1.00  0.00    -0.289 OA
ATOM      5  C   UNL     1     140.463 -18.541  77.671  1.00  0.00     0.065 A 
ATOM      6  C   UNL     1     141.195 -17.401  77.294  1.00  0.00     0.016 A 
ATOM      7  C   UNL     1     141.405 -16.367  78.212  1.00  0.00     0.001 A 
ATOM      8  C   UNL     1     140.887 -16.462  79.507  1.00  0.00     0.004 A 
ATOM      9  C   UNL     1     140.157 -17.592  79.891  1.00  0.00     0.048 A 
ATOM     10  C   UNL     1     139.942 -18.632  78.979  1.00  0.00     0.138 A 
ATOM     11  O   UNL     1     139.247 -19.700  79.354  1.00  0.00    -0.456 OA
ENDROOT
BRANCH   1  12
ATOM     12  C   UNL     1     138.199 -21.877  79.098  1.00  0.00     0.017 A 
ATOM     13  C   UNL     1     136.709 -24.078  80.048  1.00  0.00     0.000 A 
ATOM     14  C   UNL     1     137.250 -24.103  78.762  1.00  0.00     0.001 A 
ATOM     15  C   UNL     1     136.905 -22.964  80.863  1.00  0.00     0.001 A 
ATOM     16  C   UNL     1     137.988 -23.015  78.289  1.00  0.00     0.012 A 
ATOM     17  C   UNL     1     137.644 -21.870  80.398  1.00  0.00     0.012 A 
ENDBRANCH   1  12
TORSDOF 1
ENDMDL
