MODEL 1
REMARK VINA RESULT:    -3.249      0.000      0.000
REMARK INTER + INTRA:          -4.274
REMARK INTER:                  -4.389
REMARK INTRA:                   0.115
REMARK UNBOUND:                 0.115
REMARK SMILES O=c1c(-c2ccc(O)cc2)coc2c([C@H]3O[C@@H](CO)[C@H](O)[C@H](O)[C@@H]3O)c(O)ccc12
REMARK SMILES IDX 3 1 11 2 12 3 13 4 30 5 2 6 1 7 29 8 28 9 26 10 14 11 4 12
REMARK SMILES IDX 5 13 6 14 7 15 10 16 9 17 8 18 15 20 24 21 16 22 22 23 17 24
REMARK SMILES IDX 20 25 25 26 23 28 18 30 19 31 21 33 27 35
REMARK H PARENT 8 19 25 27 23 29 19 32 21 34 27 36
REMARK Flexibility Score: inf
ROOT
ATOM      1  C   UNL     1      43.504  20.901   7.502  1.00  0.00     0.065 A 
ATOM      2  C   UNL     1      43.883  21.304   8.786  1.00  0.00     0.208 A 
ATOM      3  O   UNL     1      43.134  21.002   9.839  1.00  0.00    -0.463 OA
ATOM      4  C   UNL     1      42.013  20.289   9.776  1.00  0.00     0.147 A 
ATOM      5  C   UNL     1      41.581  19.813   8.511  1.00  0.00     0.066 A 
ATOM      6  C   UNL     1      42.333  20.140   7.366  1.00  0.00     0.200 A 
ATOM      7  O   UNL     1      41.956  19.760   6.224  1.00  0.00    -0.288 OA
ATOM      8  C   UNL     1      40.403  19.064   8.413  1.00  0.00     0.020 A 
ATOM      9  C   UNL     1      39.660  18.789   9.549  1.00  0.00     0.047 A 
ATOM     10  C   UNL     1      40.057  19.250  10.805  1.00  0.00     0.125 A 
ATOM     11  C   UNL     1      41.256  20.017  10.961  1.00  0.00     0.069 A 
ENDROOT
BRANCH   1  12
ATOM     12  C   UNL     1      44.264  21.376   6.330  1.00  0.00    -0.011 A 
ATOM     13  C   UNL     1      44.547  20.509   5.260  1.00  0.00     0.013 A 
ATOM     14  C   UNL     1      45.331  20.949   4.190  1.00  0.00     0.047 A 
ATOM     15  C   UNL     1      45.845  22.253   4.182  1.00  0.00     0.115 A 
ATOM     16  C   UNL     1      44.758  22.691   6.305  1.00  0.00     0.013 A 
ATOM     17  C   UNL     1      45.549  23.125   5.239  1.00  0.00     0.047 A 
BRANCH  15  18
ATOM     18  O   UNL     1      46.646  22.678   3.127  1.00  0.00    -0.508 OA
ATOM     19  H   UNL     1      47.551  23.105   3.290  1.00  0.00     0.293 HD
ENDBRANCH  15  18
ENDBRANCH   1  12
BRANCH  11  20
ATOM     20  C   UNL     1      41.546  20.742  12.302  1.00  0.00     0.188 C 
ATOM     21  C   UNL     1      43.053  20.987  12.651  1.00  0.00     0.179 C 
ATOM     22  O   UNL     1      40.969  20.027  13.379  1.00  0.00    -0.362 OA
ATOM     23  C   UNL     1      43.279  20.995  14.189  1.00  0.00     0.177 C 
ATOM     24  C   UNL     1      40.773  20.868  14.511  1.00  0.00     0.176 C 
ATOM     25  C   UNL     1      42.076  21.633  14.910  1.00  0.00     0.177 C 
BRANCH  21  26
ATOM     26  O   UNL     1      43.460  22.219  12.108  1.00  0.00    -0.387 OA
ATOM     27  H   UNL     1      43.942  22.707  12.828  1.00  0.00     0.211 HD
ENDBRANCH  21  26
BRANCH  23  28
ATOM     28  O   UNL     1      44.471  21.664  14.513  1.00  0.00    -0.387 OA
ATOM     29  H   UNL     1      44.319  22.630  14.326  1.00  0.00     0.211 HD
ENDBRANCH  23  28
BRANCH  24  30
ATOM     30  C   UNL     1      40.264  19.997  15.666  1.00  0.00     0.191 C 
BRANCH  30  31
ATOM     31  O   UNL     1      39.229  20.651  16.351  1.00  0.00    -0.394 OA
ATOM     32  H   UNL     1      39.667  21.250  17.010  1.00  0.00     0.210 HD
ENDBRANCH  30  31
ENDBRANCH  24  30
BRANCH  25  33
ATOM     33  O   UNL     1      41.978  22.989  14.544  1.00  0.00    -0.388 OA
ATOM     34  H   UNL     1      41.029  23.256  14.673  1.00  0.00     0.211 HD
ENDBRANCH  25  33
ENDBRANCH  11  20
BRANCH  10  35
ATOM     35  O   UNL     1      39.203  18.934  11.865  1.00  0.00    -0.507 OA
ATOM     36  H   UNL     1      38.367  19.473  12.052  1.00  0.00     0.293 HD
ENDBRANCH  10  35
TORSDOF 9
ENDMDL
MODEL 2
REMARK VINA RESULT:    -3.111      2.355      8.383
REMARK INTER + INTRA:          -4.088
REMARK INTER:                  -4.284
REMARK INTRA:                   0.197
REMARK UNBOUND:                 0.115
REMARK SMILES O=c1c(-c2ccc(O)cc2)coc2c([C@H]3O[C@@H](CO)[C@H](O)[C@H](O)[C@@H]3O)c(O)ccc12
REMARK SMILES IDX 3 1 11 2 12 3 13 4 30 5 2 6 1 7 29 8 28 9 26 10 14 11 4 12
REMARK SMILES IDX 5 13 6 14 7 15 10 16 9 17 8 18 15 20 24 21 16 22 22 23 17 24
REMARK SMILES IDX 20 25 25 26 23 28 18 30 19 31 21 33 27 35
REMARK H PARENT 8 19 25 27 23 29 19 32 21 34 27 36
REMARK Flexibility Score: inf
ROOT
ATOM      1  C   UNL     1      42.973  21.642  10.083  1.00  0.00     0.065 A 
ATOM      2  C   UNL     1      44.172  22.215   9.647  1.00  0.00     0.208 A 
ATOM      3  O   UNL     1      44.619  21.996   8.417  1.00  0.00    -0.463 OA
ATOM      4  C   UNL     1      43.978  21.264   7.510  1.00  0.00     0.147 A 
ATOM      5  C   UNL     1      42.736  20.678   7.866  1.00  0.00     0.066 A 
ATOM      6  C   UNL     1      42.243  20.862   9.173  1.00  0.00     0.200 A 
ATOM      7  O   UNL     1      41.158  20.326   9.529  1.00  0.00    -0.288 OA
ATOM      8  C   UNL     1      42.040  19.899   6.935  1.00  0.00     0.020 A 
ATOM      9  C   UNL     1      42.564  19.700   5.668  1.00  0.00     0.047 A 
ATOM     10  C   UNL     1      43.787  20.258   5.293  1.00  0.00     0.125 A 
ATOM     11  C   UNL     1      44.537  21.067   6.207  1.00  0.00     0.069 A 
ENDROOT
BRANCH   1  12
ATOM     12  C   UNL     1      42.571  21.770  11.496  1.00  0.00    -0.011 A 
ATOM     13  C   UNL     1      42.600  23.020  12.139  1.00  0.00     0.013 A 
ATOM     14  C   UNL     1      42.289  23.117  13.499  1.00  0.00     0.047 A 
ATOM     15  C   UNL     1      41.955  21.967  14.228  1.00  0.00     0.115 A 
ATOM     16  C   UNL     1      42.209  20.625  12.226  1.00  0.00     0.013 A 
ATOM     17  C   UNL     1      41.908  20.723  13.586  1.00  0.00     0.047 A 
BRANCH  15  18
ATOM     18  O   UNL     1      41.671  22.066  15.587  1.00  0.00    -0.508 OA
ATOM     19  H   UNL     1      41.022  21.431  16.037  1.00  0.00     0.293 HD
ENDBRANCH  15  18
ENDBRANCH   1  12
BRANCH  11  20
ATOM     20  C   UNL     1      46.001  21.459   5.876  1.00  0.00     0.188 C 
ATOM     21  C   UNL     1      46.413  21.407   4.366  1.00  0.00     0.179 C 
ATOM     22  O   UNL     1      46.901  20.635   6.593  1.00  0.00    -0.362 OA
ATOM     23  C   UNL     1      47.923  21.075   4.207  1.00  0.00     0.177 C 
ATOM     24  C   UNL     1      48.178  21.252   6.718  1.00  0.00     0.176 C 
ATOM     25  C   UNL     1      48.743  21.724   5.339  1.00  0.00     0.177 C 
BRANCH  21  26
ATOM     26  O   UNL     1      46.139  22.651   3.768  1.00  0.00    -0.387 OA
ATOM     27  H   UNL     1      46.252  22.531   2.788  1.00  0.00     0.211 HD
ENDBRANCH  21  26
BRANCH  23  28
ATOM     28  O   UNL     1      48.394  21.485   2.948  1.00  0.00    -0.387 OA
ATOM     29  H   UNL     1      47.985  20.876   2.276  1.00  0.00     0.211 HD
ENDBRANCH  23  28
BRANCH  24  30
ATOM     30  C   UNL     1      49.125  20.251   7.392  1.00  0.00     0.191 C 
BRANCH  30  31
ATOM     31  O   UNL     1      48.539  19.735   8.558  1.00  0.00    -0.394 OA
ATOM     32  H   UNL     1      47.580  19.986   8.521  1.00  0.00     0.210 HD
ENDBRANCH  30  31
ENDBRANCH  24  30
BRANCH  25  33
ATOM     33  O   UNL     1      48.660  23.125   5.231  1.00  0.00    -0.388 OA
ATOM     34  H   UNL     1      47.859  23.325   4.676  1.00  0.00     0.211 HD
ENDBRANCH  25  33
ENDBRANCH  11  20
BRANCH  10  35
ATOM     35  O   UNL     1      44.221  19.955   4.000  1.00  0.00    -0.507 OA
ATOM     36  H   UNL     1      44.627  20.658   3.398  1.00  0.00     0.293 HD
ENDBRANCH  10  35
TORSDOF 9
ENDMDL
MODEL 3
REMARK VINA RESULT:    -1.404      1.822      8.187
REMARK INTER + INTRA:          -1.782
REMARK INTER:                  -2.905
REMARK INTRA:                   1.123
REMARK UNBOUND:                 0.115
REMARK SMILES O=c1c(-c2ccc(O)cc2)coc2c([C@H]3O[C@@H](CO)[C@H](O)[C@H](O)[C@@H]3O)c(O)ccc12
REMARK SMILES IDX 3 1 11 2 12 3 13 4 30 5 2 6 1 7 29 8 28 9 26 10 14 11 4 12
REMARK SMILES IDX 5 13 6 14 7 15 10 16 9 17 8 18 15 20 24 21 16 22 22 23 17 24
REMARK SMILES IDX 20 25 25 26 23 28 18 30 19 31 21 33 27 35
REMARK H PARENT 8 19 25 27 23 29 19 32 21 34 27 36
REMARK Flexibility Score: inf
ROOT
ATOM      1  C   UNL     1      42.491  21.193  10.758  1.00  0.00     0.065 A 
ATOM      2  C   UNL     1      43.230  22.045   9.933  1.00  0.00     0.208 A 
ATOM      3  O   UNL     1      43.478  21.720   8.671  1.00  0.00    -0.463 OA
ATOM      4  C   UNL     1      43.036  20.610   8.087  1.00  0.00     0.147 A 
ATOM      5  C   UNL     1      42.247  19.710   8.849  1.00  0.00     0.066 A 
ATOM      6  C   UNL     1      41.990  20.005  10.202  1.00  0.00     0.200 A 
ATOM      7  O   UNL     1      41.321  19.208  10.915  1.00  0.00    -0.288 OA
ATOM      8  C   UNL     1      41.772  18.531   8.265  1.00  0.00     0.020 A 
ATOM      9  C   UNL     1      42.072  18.243   6.943  1.00  0.00     0.047 A 
ATOM     10  C   UNL     1      42.850  19.107   6.170  1.00  0.00     0.125 A 
ATOM     11  C   UNL     1      43.358  20.328   6.720  1.00  0.00     0.069 A 
ENDROOT
BRANCH   1  12
ATOM     12  C   UNL     1      42.359  21.496  12.195  1.00  0.00    -0.011 A 
ATOM     13  C   UNL     1      41.813  20.548  13.079  1.00  0.00     0.013 A 
ATOM     14  C   UNL     1      41.623  20.874  14.426  1.00  0.00     0.047 A 
ATOM     15  C   UNL     1      41.969  22.148  14.898  1.00  0.00     0.115 A 
ATOM     16  C   UNL     1      42.729  22.761  12.680  1.00  0.00     0.013 A 
ATOM     17  C   UNL     1      42.530  23.087  14.023  1.00  0.00     0.047 A 
BRANCH  15  18
ATOM     18  O   UNL     1      41.754  22.475  16.234  1.00  0.00    -0.508 OA
ATOM     19  H   UNL     1      40.835  22.742  16.570  1.00  0.00     0.293 HD
ENDBRANCH  15  18
ENDBRANCH   1  12
BRANCH  11  20
ATOM     20  C   UNL     1      44.430  21.142   5.947  1.00  0.00     0.188 C 
ATOM     21  C   UNL     1      45.167  20.396   4.785  1.00  0.00     0.179 C 
ATOM     22  O   UNL     1      45.417  21.623   6.841  1.00  0.00    -0.362 OA
ATOM     23  C   UNL     1      46.612  20.939   4.597  1.00  0.00     0.177 C 
ATOM     24  C   UNL     1      46.104  22.744   6.296  1.00  0.00     0.176 C 
ATOM     25  C   UNL     1      46.660  22.456   4.863  1.00  0.00     0.177 C 
BRANCH  21  26
ATOM     26  O   UNL     1      44.442  20.566   3.591  1.00  0.00    -0.387 OA
ATOM     27  H   UNL     1      45.005  21.118   2.987  1.00  0.00     0.211 HD
ENDBRANCH  21  26
BRANCH  23  28
ATOM     28  O   UNL     1      47.093  20.639   3.312  1.00  0.00    -0.387 OA
ATOM     29  H   UNL     1      47.422  19.701   3.339  1.00  0.00     0.211 HD
ENDBRANCH  23  28
BRANCH  24  30
ATOM     30  C   UNL     1      47.232  23.125   7.262  1.00  0.00     0.191 C 
BRANCH  30  31
ATOM     31  O   UNL     1      48.365  22.331   7.027  1.00  0.00    -0.394 OA
ATOM     32  H   UNL     1      48.146  21.760   6.247  1.00  0.00     0.210 HD
ENDBRANCH  30  31
ENDBRANCH  24  30
BRANCH  25  33
ATOM     33  O   UNL     1      45.886  23.124   3.896  1.00  0.00    -0.388 OA
ATOM     34  H   UNL     1      45.094  22.552   3.715  1.00  0.00     0.211 HD
ENDBRANCH  25  33
ENDBRANCH  11  20
BRANCH  10  35
ATOM     35  O   UNL     1      43.109  18.686   4.864  1.00  0.00    -0.507 OA
ATOM     36  H   UNL     1      43.930  18.995   4.359  1.00  0.00     0.293 HD
ENDBRANCH  10  35
TORSDOF 9
ENDMDL
MODEL 4
REMARK VINA RESULT:    -0.943      1.713      3.801
REMARK INTER + INTRA:          -1.159
REMARK INTER:                  -1.259
REMARK INTRA:                   0.101
REMARK UNBOUND:                 0.115
REMARK SMILES O=c1c(-c2ccc(O)cc2)coc2c([C@H]3O[C@@H](CO)[C@H](O)[C@H](O)[C@@H]3O)c(O)ccc12
REMARK SMILES IDX 3 1 11 2 12 3 13 4 30 5 2 6 1 7 29 8 28 9 26 10 14 11 4 12
REMARK SMILES IDX 5 13 6 14 7 15 10 16 9 17 8 18 15 20 24 21 16 22 22 23 17 24
REMARK SMILES IDX 20 25 25 26 23 28 18 30 19 31 21 33 27 35
REMARK H PARENT 8 19 25 27 23 29 19 32 21 34 27 36
REMARK Flexibility Score: inf
ROOT
ATOM      1  C   UNL     1      43.974  21.450   7.435  1.00  0.00     0.065 A 
ATOM      2  C   UNL     1      42.905  20.566   7.608  1.00  0.00     0.208 A 
ATOM      3  O   UNL     1      42.238  20.525   8.754  1.00  0.00    -0.463 OA
ATOM      4  C   UNL     1      42.494  21.312   9.794  1.00  0.00     0.147 A 
ATOM      5  C   UNL     1      43.542  22.263   9.684  1.00  0.00     0.066 A 
ATOM      6  C   UNL     1      44.294  22.314   8.494  1.00  0.00     0.200 A 
ATOM      7  O   UNL     1      45.254  23.125   8.378  1.00  0.00    -0.288 OA
ATOM      8  C   UNL     1      43.839  23.102  10.763  1.00  0.00     0.020 A 
ATOM      9  C   UNL     1      43.111  23.006  11.937  1.00  0.00     0.047 A 
ATOM     10  C   UNL     1      42.079  22.076  12.077  1.00  0.00     0.125 A 
ATOM     11  C   UNL     1      41.732  21.196  11.001  1.00  0.00     0.069 A 
ENDROOT
BRANCH   1  12
ATOM     12  C   UNL     1      44.800  21.374   6.216  1.00  0.00    -0.011 A 
ATOM     13  C   UNL     1      44.517  20.423   5.219  1.00  0.00     0.013 A 
ATOM     14  C   UNL     1      45.351  20.309   4.102  1.00  0.00     0.047 A 
ATOM     15  C   UNL     1      46.476  21.138   3.976  1.00  0.00     0.115 A 
ATOM     16  C   UNL     1      45.912  22.219   6.070  1.00  0.00     0.013 A 
ATOM     17  C   UNL     1      46.748  22.098   4.959  1.00  0.00     0.047 A 
BRANCH  15  18
ATOM     18  O   UNL     1      47.316  21.003   2.875  1.00  0.00    -0.508 OA
ATOM     19  H   UNL     1      47.985  20.243   2.813  1.00  0.00     0.293 HD
ENDBRANCH  15  18
ENDBRANCH   1  12
BRANCH  11  20
ATOM     20  C   UNL     1      40.774  20.002  11.252  1.00  0.00     0.188 C 
ATOM     21  C   UNL     1      39.574  19.849  10.258  1.00  0.00     0.179 C 
ATOM     22  O   UNL     1      40.239  20.072  12.561  1.00  0.00    -0.362 OA
ATOM     23  C   UNL     1      38.349  19.191  10.952  1.00  0.00     0.177 C 
ATOM     24  C   UNL     1      39.782  18.797  13.000  1.00  0.00     0.176 C 
ATOM     25  C   UNL     1      38.809  18.132  11.973  1.00  0.00     0.177 C 
BRANCH  21  26
ATOM     26  O   UNL     1      39.976  19.059   9.164  1.00  0.00    -0.387 OA
ATOM     27  H   UNL     1      39.153  18.651   8.785  1.00  0.00     0.211 HD
ENDBRANCH  21  26
BRANCH  23  28
ATOM     28  O   UNL     1      37.481  18.628  10.002  1.00  0.00    -0.387 OA
ATOM     29  H   UNL     1      37.108  17.800  10.408  1.00  0.00     0.211 HD
ENDBRANCH  23  28
BRANCH  24  30
ATOM     30  C   UNL     1      39.107  18.979  14.365  1.00  0.00     0.191 C 
BRANCH  30  31
ATOM     31  O   UNL     1      39.909  19.769  15.204  1.00  0.00    -0.394 OA
ATOM     32  H   UNL     1      40.132  20.585  14.685  1.00  0.00     0.210 HD
ENDBRANCH  30  31
ENDBRANCH  24  30
BRANCH  25  33
ATOM     33  O   UNL     1      39.458  17.082  11.295  1.00  0.00    -0.388 OA
ATOM     34  H   UNL     1      40.409  17.349  11.192  1.00  0.00     0.211 HD
ENDBRANCH  25  33
ENDBRANCH  11  20
BRANCH  10  35
ATOM     35  O   UNL     1      41.445  22.056  13.321  1.00  0.00    -0.507 OA
ATOM     36  H   UNL     1      40.721  21.382  13.537  1.00  0.00     0.293 HD
ENDBRANCH  10  35
TORSDOF 9
ENDMDL
MODEL 5
REMARK VINA RESULT:    -0.902      2.337      4.230
REMARK INTER + INTRA:          -1.104
REMARK INTER:                  -0.454
REMARK INTRA:                  -0.650
REMARK UNBOUND:                 0.115
REMARK SMILES O=c1c(-c2ccc(O)cc2)coc2c([C@H]3O[C@@H](CO)[C@H](O)[C@H](O)[C@@H]3O)c(O)ccc12
REMARK SMILES IDX 3 1 11 2 12 3 13 4 30 5 2 6 1 7 29 8 28 9 26 10 14 11 4 12
REMARK SMILES IDX 5 13 6 14 7 15 10 16 9 17 8 18 15 20 24 21 16 22 22 23 17 24
REMARK SMILES IDX 20 25 25 26 23 28 18 30 19 31 21 33 27 35
REMARK H PARENT 8 19 25 27 23 29 19 32 21 34 27 36
REMARK Flexibility Score: inf
ROOT
ATOM      1  C   UNL     1      44.630  21.433   6.987  1.00  0.00     0.065 A 
ATOM      2  C   UNL     1      43.541  20.556   7.002  1.00  0.00     0.208 A 
ATOM      3  O   UNL     1      42.704  20.533   8.030  1.00  0.00    -0.463 OA
ATOM      4  C   UNL     1      42.802  21.331   9.090  1.00  0.00     0.147 A 
ATOM      5  C   UNL     1      43.862  22.274   9.132  1.00  0.00     0.066 A 
ATOM      6  C   UNL     1      44.789  22.308   8.073  1.00  0.00     0.200 A 
ATOM      7  O   UNL     1      45.761  23.112   8.099  1.00  0.00    -0.288 OA
ATOM      8  C   UNL     1      43.994  23.125  10.235  1.00  0.00     0.020 A 
ATOM      9  C   UNL     1      43.092  23.046  11.284  1.00  0.00     0.047 A 
ATOM     10  C   UNL     1      42.044  22.124  11.272  1.00  0.00     0.125 A 
ATOM     11  C   UNL     1      41.862  21.233  10.165  1.00  0.00     0.069 A 
ENDROOT
BRANCH   1  12
ATOM     12  C   UNL     1      45.634  21.337   5.911  1.00  0.00    -0.011 A 
ATOM     13  C   UNL     1      46.957  20.956   6.198  1.00  0.00     0.013 A 
ATOM     14  C   UNL     1      47.918  20.941   5.182  1.00  0.00     0.047 A 
ATOM     15  C   UNL     1      47.569  21.314   3.877  1.00  0.00     0.115 A 
ATOM     16  C   UNL     1      45.284  21.683   4.595  1.00  0.00     0.013 A 
ATOM     17  C   UNL     1      46.248  21.677   3.585  1.00  0.00     0.047 A 
BRANCH  15  18
ATOM     18  O   UNL     1      48.536  21.322   2.875  1.00  0.00    -0.508 OA
ATOM     19  H   UNL     1      49.054  22.164   2.650  1.00  0.00     0.293 HD
ENDBRANCH  15  18
ENDBRANCH   1  12
BRANCH  11  20
ATOM     20  C   UNL     1      40.868  20.047  10.278  1.00  0.00     0.188 C 
ATOM     21  C   UNL     1      39.363  20.417  10.505  1.00  0.00     0.179 C 
ATOM     22  O   UNL     1      41.258  19.180  11.326  1.00  0.00    -0.362 OA
ATOM     23  C   UNL     1      38.629  19.310  11.312  1.00  0.00     0.177 C 
ATOM     24  C   UNL     1      40.709  17.878  11.151  1.00  0.00     0.176 C 
ATOM     25  C   UNL     1      39.162  17.916  10.929  1.00  0.00     0.177 C 
BRANCH  21  26
ATOM     26  O   UNL     1      38.734  20.587   9.258  1.00  0.00    -0.387 OA
ATOM     27  H   UNL     1      39.374  20.270   8.566  1.00  0.00     0.211 HD
ENDBRANCH  21  26
BRANCH  23  28
ATOM     28  O   UNL     1      37.240  19.388  11.114  1.00  0.00    -0.387 OA
ATOM     29  H   UNL     1      37.011  20.355  11.060  1.00  0.00     0.211 HD
ENDBRANCH  23  28
BRANCH  24  30
ATOM     30  C   UNL     1      41.072  17.041  12.384  1.00  0.00     0.191 C 
BRANCH  30  31
ATOM     31  O   UNL     1      42.460  17.045  12.585  1.00  0.00    -0.394 OA
ATOM     32  H   UNL     1      42.681  16.178  13.012  1.00  0.00     0.210 HD
ENDBRANCH  30  31
ENDBRANCH  24  30
BRANCH  25  33
ATOM     33  O   UNL     1      38.856  17.654   9.580  1.00  0.00    -0.388 OA
ATOM     34  H   UNL     1      39.701  17.760   9.067  1.00  0.00     0.211 HD
ENDBRANCH  25  33
ENDBRANCH  11  20
BRANCH  10  35
ATOM     35  O   UNL     1      41.225  22.122  12.403  1.00  0.00    -0.507 OA
ATOM     36  H   UNL     1      40.260  21.821  12.359  1.00  0.00     0.293 HD
ENDBRANCH  10  35
TORSDOF 9
ENDMDL
