MODEL 1
REMARK VINA RESULT:    -3.869      0.000      0.000
REMARK INTER + INTRA:         -10.549
REMARK INTER:                  -7.488
REMARK INTRA:                  -3.061
REMARK UNBOUND:                -3.061
REMARK SMILES CCCCCCCCCCCCCCCCCC(=O)[O-]
REMARK SMILES IDX 10 1 11 2 12 3 13 4 14 5 15 6 16 7 17 8 18 9 19 10 20 11
REMARK SMILES IDX 9 12 8 13 7 14 6 15 5 16 4 17 3 18 2 19 1 20
REMARK H PARENT
REMARK Flexibility Score: inf
ROOT
ATOM      1  C   UNL     1      -6.198 -11.640  16.461  1.00  0.00     0.000 C 
ENDROOT
BRANCH   1   2
ATOM      2  C   UNL     1      -6.946 -12.510  15.434  1.00  0.00     0.000 C 
BRANCH   2   3
ATOM      3  C   UNL     1      -7.568 -13.765  16.082  1.00  0.00     0.000 C 
BRANCH   3   4
ATOM      4  C   UNL     1      -7.557 -13.735  17.624  1.00  0.00     0.000 C 
BRANCH   4   5
ATOM      5  C   UNL     1      -8.943 -13.617  18.284  1.00  0.00     0.000 C 
BRANCH   5   6
ATOM      6  C   UNL     1      -9.575 -12.226  18.099  1.00  0.00     0.000 C 
BRANCH   6   7
ATOM      7  C   UNL     1     -10.723 -12.234  17.077  1.00  0.00     0.006 C 
BRANCH   7   8
ATOM      8  C   UNL     1     -11.668 -13.429  17.255  1.00  0.00     0.053 C 
BRANCH   8   9
ATOM      9  C   UNL     1     -11.706 -14.255  16.009  1.00  0.00     0.041 C 
ATOM     10  O   UNL     1     -12.426 -13.904  15.037  1.00  0.00    -0.550 OA
ATOM     11  O   UNL     1     -10.911 -15.391  15.901  1.00  0.00    -0.550 OA
ENDBRANCH   8   9
ENDBRANCH   7   8
ENDBRANCH   6   7
ENDBRANCH   5   6
ENDBRANCH   4   5
ENDBRANCH   3   4
ENDBRANCH   2   3
ENDBRANCH   1   2
BRANCH   1  12
ATOM     12  C   UNL     1      -6.737 -10.201  16.521  1.00  0.00     0.000 C 
BRANCH  12  13
ATOM     13  C   UNL     1      -7.902  -9.976  15.540  1.00  0.00    -0.000 C 
BRANCH  13  14
ATOM     14  C   UNL     1      -8.990  -9.058  16.120  1.00  0.00    -0.000 C 
BRANCH  14  15
ATOM     15  C   UNL     1      -8.601  -8.484  17.494  1.00  0.00    -0.000 C 
BRANCH  15  16
ATOM     16  C   UNL     1      -9.714  -8.646  18.541  1.00  0.00    -0.000 C 
BRANCH  16  17
ATOM     17  C   UNL     1      -9.170  -8.944  19.950  1.00  0.00    -0.000 C 
BRANCH  17  18
ATOM     18  C   UNL     1      -7.636  -9.104  19.960  1.00  0.00    -0.000 C 
BRANCH  18  19
ATOM     19  C   UNL     1      -7.170 -10.541  20.246  1.00  0.00    -0.003 C 
ATOM     20  C   UNL     1      -5.672 -10.642  20.522  1.00  0.00     0.004 C 
ENDBRANCH  18  19
ENDBRANCH  17  18
ENDBRANCH  16  17
ENDBRANCH  15  16
ENDBRANCH  14  15
ENDBRANCH  13  14
ENDBRANCH  12  13
ENDBRANCH   1  12
TORSDOF 16
ENDMDL
MODEL 2
REMARK VINA RESULT:    -3.824      1.609      2.697
REMARK INTER + INTRA:         -10.461
REMARK INTER:                  -7.212
REMARK INTRA:                  -3.249
REMARK UNBOUND:                -3.061
REMARK SMILES CCCCCCCCCCCCCCCCCC(=O)[O-]
REMARK SMILES IDX 10 1 11 2 12 3 13 4 14 5 15 6 16 7 17 8 18 9 19 10 20 11
REMARK SMILES IDX 9 12 8 13 7 14 6 15 5 16 4 17 3 18 2 19 1 20
REMARK H PARENT
REMARK Flexibility Score: inf
ROOT
ATOM      1  C   UNL     1      -9.672 -10.813  17.495  1.00  0.00     0.000 C 
ENDROOT
BRANCH   1   2
ATOM      2  C   UNL     1      -8.288 -11.339  17.917  1.00  0.00     0.000 C 
BRANCH   2   3
ATOM      3  C   UNL     1      -8.374 -12.733  18.573  1.00  0.00     0.000 C 
BRANCH   3   4
ATOM      4  C   UNL     1      -7.749 -13.858  17.723  1.00  0.00     0.000 C 
BRANCH   4   5
ATOM      5  C   UNL     1      -6.814 -13.381  16.598  1.00  0.00     0.000 C 
BRANCH   5   6
ATOM      6  C   UNL     1      -7.403 -13.612  15.194  1.00  0.00     0.000 C 
BRANCH   6   7
ATOM      7  C   UNL     1      -8.760 -14.330  15.237  1.00  0.00     0.006 C 
BRANCH   7   8
ATOM      8  C   UNL     1      -9.888 -13.507  14.601  1.00  0.00     0.053 C 
BRANCH   8   9
ATOM      9  C   UNL     1     -11.119 -13.564  15.449  1.00  0.00     0.041 C 
ATOM     10  O   UNL     1     -12.156 -12.938  15.105  1.00  0.00    -0.550 OA
ATOM     11  O   UNL     1     -11.137 -14.345  16.599  1.00  0.00    -0.550 OA
ENDBRANCH   8   9
ENDBRANCH   7   8
ENDBRANCH   6   7
ENDBRANCH   5   6
ENDBRANCH   4   5
ENDBRANCH   3   4
ENDBRANCH   2   3
ENDBRANCH   1   2
BRANCH   1  12
ATOM     12  C   UNL     1      -9.656 -10.156  16.105  1.00  0.00     0.000 C 
BRANCH  12  13
ATOM     13  C   UNL     1      -8.241 -10.110  15.501  1.00  0.00    -0.000 C 
BRANCH  13  14
ATOM     14  C   UNL     1      -7.756  -8.673  15.249  1.00  0.00    -0.000 C 
BRANCH  14  15
ATOM     15  C   UNL     1      -6.515  -8.318  16.086  1.00  0.00    -0.000 C 
BRANCH  15  16
ATOM     16  C   UNL     1      -6.871  -7.877  17.515  1.00  0.00    -0.000 C 
BRANCH  16  17
ATOM     17  C   UNL     1      -8.155  -7.028  17.575  1.00  0.00    -0.000 C 
BRANCH  17  18
ATOM     18  C   UNL     1      -9.036  -7.390  18.789  1.00  0.00    -0.000 C 
BRANCH  18  19
ATOM     19  C   UNL     1      -8.250  -8.017  19.953  1.00  0.00    -0.003 C 
ATOM     20  C   UNL     1      -9.095  -8.957  20.808  1.00  0.00     0.004 C 
ENDBRANCH  18  19
ENDBRANCH  17  18
ENDBRANCH  16  17
ENDBRANCH  15  16
ENDBRANCH  14  15
ENDBRANCH  13  14
ENDBRANCH  12  13
ENDBRANCH   1  12
TORSDOF 16
ENDMDL
MODEL 3
REMARK VINA RESULT:    -3.804      1.837      3.622
REMARK INTER + INTRA:         -10.424
REMARK INTER:                  -8.107
REMARK INTRA:                  -2.316
REMARK UNBOUND:                -3.061
REMARK SMILES CCCCCCCCCCCCCCCCCC(=O)[O-]
REMARK SMILES IDX 10 1 11 2 12 3 13 4 14 5 15 6 16 7 17 8 18 9 19 10 20 11
REMARK SMILES IDX 9 12 8 13 7 14 6 15 5 16 4 17 3 18 2 19 1 20
REMARK H PARENT
REMARK Flexibility Score: inf
ROOT
ATOM      1  C   UNL     1      -7.275 -12.581  16.683  1.00  0.00     0.000 C 
ENDROOT
BRANCH   1   2
ATOM      2  C   UNL     1      -7.539 -13.876  17.475  1.00  0.00     0.000 C 
BRANCH   2   3
ATOM      3  C   UNL     1      -9.038 -14.240  17.504  1.00  0.00     0.000 C 
BRANCH   3   4
ATOM      4  C   UNL     1      -9.941 -13.109  18.039  1.00  0.00     0.000 C 
BRANCH   4   5
ATOM      5  C   UNL     1     -11.304 -12.977  17.337  1.00  0.00     0.000 C 
BRANCH   5   6
ATOM      6  C   UNL     1     -11.607 -14.154  16.393  1.00  0.00     0.000 C 
BRANCH   6   7
ATOM      7  C   UNL     1     -12.138 -13.691  15.028  1.00  0.00     0.006 C 
BRANCH   7   8
ATOM      8  C   UNL     1     -11.179 -14.017  13.875  1.00  0.00     0.053 C 
BRANCH   8   9
ATOM      9  C   UNL     1      -9.910 -13.238  14.016  1.00  0.00     0.041 C 
ATOM     10  O   UNL     1      -8.802 -13.781  13.763  1.00  0.00    -0.550 OA
ATOM     11  O   UNL     1      -9.952 -11.898  14.382  1.00  0.00    -0.550 OA
ENDBRANCH   8   9
ENDBRANCH   7   8
ENDBRANCH   6   7
ENDBRANCH   5   6
ENDBRANCH   4   5
ENDBRANCH   3   4
ENDBRANCH   2   3
ENDBRANCH   1   2
BRANCH   1  12
ATOM     12  C   UNL     1      -6.349 -11.609  17.432  1.00  0.00     0.000 C 
BRANCH  12  13
ATOM     13  C   UNL     1      -6.680 -11.531  18.933  1.00  0.00    -0.000 C 
BRANCH  13  14
ATOM     14  C   UNL     1      -7.694 -10.421  19.255  1.00  0.00    -0.000 C 
BRANCH  14  15
ATOM     15  C   UNL     1      -7.526  -9.192  18.345  1.00  0.00    -0.000 C 
BRANCH  15  16
ATOM     16  C   UNL     1      -8.854  -8.726  17.729  1.00  0.00    -0.000 C 
BRANCH  16  17
ATOM     17  C   UNL     1      -9.075  -9.267  16.304  1.00  0.00    -0.000 C 
BRANCH  17  18
ATOM     18  C   UNL     1      -7.902  -8.926  15.363  1.00  0.00    -0.000 C 
BRANCH  18  19
ATOM     19  C   UNL     1      -7.651  -7.415  15.217  1.00  0.00    -0.003 C 
ATOM     20  C   UNL     1      -7.313  -6.999  13.788  1.00  0.00     0.004 C 
ENDBRANCH  18  19
ENDBRANCH  17  18
ENDBRANCH  16  17
ENDBRANCH  15  16
ENDBRANCH  14  15
ENDBRANCH  13  14
ENDBRANCH  12  13
ENDBRANCH   1  12
TORSDOF 16
ENDMDL
MODEL 4
REMARK VINA RESULT:    -3.719      3.606      6.625
REMARK INTER + INTRA:         -10.260
REMARK INTER:                  -7.853
REMARK INTRA:                  -2.407
REMARK UNBOUND:                -3.061
REMARK SMILES CCCCCCCCCCCCCCCCCC(=O)[O-]
REMARK SMILES IDX 10 1 11 2 12 3 13 4 14 5 15 6 16 7 17 8 18 9 19 10 20 11
REMARK SMILES IDX 9 12 8 13 7 14 6 15 5 16 4 17 3 18 2 19 1 20
REMARK H PARENT
REMARK Flexibility Score: inf
ROOT
ATOM      1  C   UNL     1      -9.855 -10.753  17.824  1.00  0.00     0.000 C 
ENDROOT
BRANCH   1   2
ATOM      2  C   UNL     1      -9.384  -9.758  18.901  1.00  0.00     0.000 C 
BRANCH   2   3
ATOM      3  C   UNL     1      -9.632  -8.293  18.485  1.00  0.00     0.000 C 
BRANCH   3   4
ATOM      4  C   UNL     1      -8.578  -7.307  19.029  1.00  0.00     0.000 C 
BRANCH   4   5
ATOM      5  C   UNL     1      -7.691  -6.646  17.959  1.00  0.00     0.000 C 
BRANCH   5   6
ATOM      6  C   UNL     1      -7.189  -7.644  16.900  1.00  0.00     0.000 C 
BRANCH   6   7
ATOM      7  C   UNL     1      -7.611  -7.251  15.475  1.00  0.00     0.006 C 
BRANCH   7   8
ATOM      8  C   UNL     1      -6.770  -7.943  14.395  1.00  0.00     0.053 C 
BRANCH   8   9
ATOM      9  C   UNL     1      -6.385  -6.968  13.328  1.00  0.00     0.041 C 
ATOM     10  O   UNL     1      -6.927  -5.832  13.282  1.00  0.00    -0.550 OA
ATOM     11  O   UNL     1      -5.394  -7.295  12.410  1.00  0.00    -0.550 OA
ENDBRANCH   8   9
ENDBRANCH   7   8
ENDBRANCH   6   7
ENDBRANCH   5   6
ENDBRANCH   4   5
ENDBRANCH   3   4
ENDBRANCH   2   3
ENDBRANCH   1   2
BRANCH   1  12
ATOM     12  C   UNL     1      -9.626 -10.230  16.396  1.00  0.00     0.000 C 
BRANCH  12  13
ATOM     13  C   UNL     1      -9.070 -11.319  15.461  1.00  0.00    -0.000 C 
BRANCH  13  14
ATOM     14  C   UNL     1      -7.685 -11.821  15.901  1.00  0.00    -0.000 C 
BRANCH  14  15
ATOM     15  C   UNL     1      -7.615 -13.356  15.976  1.00  0.00    -0.000 C 
BRANCH  15  16
ATOM     16  C   UNL     1      -7.866 -13.891  17.395  1.00  0.00    -0.000 C 
BRANCH  16  17
ATOM     17  C   UNL     1      -9.274 -14.490  17.567  1.00  0.00    -0.000 C 
BRANCH  17  18
ATOM     18  C   UNL     1      -9.862 -14.989  16.231  1.00  0.00    -0.000 C 
BRANCH  18  19
ATOM     19  C   UNL     1     -11.220 -14.356  15.883  1.00  0.00    -0.003 C 
ATOM     20  C   UNL     1     -11.838 -13.587  17.048  1.00  0.00     0.004 C 
ENDBRANCH  18  19
ENDBRANCH  17  18
ENDBRANCH  16  17
ENDBRANCH  15  16
ENDBRANCH  14  15
ENDBRANCH  13  14
ENDBRANCH  12  13
ENDBRANCH   1  12
TORSDOF 16
ENDMDL
MODEL 5
REMARK VINA RESULT:    -3.718      3.435      6.238
REMARK INTER + INTRA:         -10.256
REMARK INTER:                  -7.265
REMARK INTRA:                  -2.991
REMARK UNBOUND:                -3.061
REMARK SMILES CCCCCCCCCCCCCCCCCC(=O)[O-]
REMARK SMILES IDX 10 1 11 2 12 3 13 4 14 5 15 6 16 7 17 8 18 9 19 10 20 11
REMARK SMILES IDX 9 12 8 13 7 14 6 15 5 16 4 17 3 18 2 19 1 20
REMARK H PARENT
REMARK Flexibility Score: inf
ROOT
ATOM      1  C   UNL     1      -8.360 -10.824  15.516  1.00  0.00     0.000 C 
ENDROOT
BRANCH   1   2
ATOM      2  C   UNL     1      -9.381  -9.848  16.128  1.00  0.00     0.000 C 
BRANCH   2   3
ATOM      3  C   UNL     1     -10.132 -10.470  17.324  1.00  0.00     0.000 C 
BRANCH   3   4
ATOM      4  C   UNL     1      -9.955  -9.690  18.642  1.00  0.00     0.000 C 
BRANCH   4   5
ATOM      5  C   UNL     1      -9.001  -8.484  18.562  1.00  0.00     0.000 C 
BRANCH   5   6
ATOM      6  C   UNL     1      -7.723  -8.676  19.398  1.00  0.00     0.000 C 
BRANCH   6   7
ATOM      7  C   UNL     1      -7.870  -9.788  20.448  1.00  0.00     0.006 C 
BRANCH   7   8
ATOM      8  C   UNL     1      -7.812  -9.257  21.887  1.00  0.00     0.053 C 
BRANCH   8   9
ATOM      9  C   UNL     1      -9.026  -8.439  22.192  1.00  0.00     0.041 C 
ATOM     10  O   UNL     1     -10.140  -9.000  22.367  1.00  0.00    -0.550 OA
ATOM     11  O   UNL     1      -8.922  -7.060  22.327  1.00  0.00    -0.550 OA
ENDBRANCH   8   9
ENDBRANCH   7   8
ENDBRANCH   6   7
ENDBRANCH   5   6
ENDBRANCH   4   5
ENDBRANCH   3   4
ENDBRANCH   2   3
ENDBRANCH   1   2
BRANCH   1  12
ATOM     12  C   UNL     1      -7.154 -11.073  16.436  1.00  0.00     0.000 C 
BRANCH  12  13
ATOM     13  C   UNL     1      -7.046 -12.547  16.868  1.00  0.00    -0.000 C 
BRANCH  13  14
ATOM     14  C   UNL     1      -7.403 -12.753  18.348  1.00  0.00    -0.000 C 
BRANCH  14  15
ATOM     15  C   UNL     1      -8.698 -13.566  18.530  1.00  0.00    -0.000 C 
BRANCH  15  16
ATOM     16  C   UNL     1      -9.177 -14.217  17.224  1.00  0.00    -0.000 C 
BRANCH  16  17
ATOM     17  C   UNL     1     -10.702 -14.123  17.033  1.00  0.00    -0.000 C 
BRANCH  17  18
ATOM     18  C   UNL     1     -11.083 -13.572  15.644  1.00  0.00    -0.000 C 
BRANCH  18  19
ATOM     19  C   UNL     1      -9.966 -13.721  14.597  1.00  0.00    -0.003 C 
ATOM     20  C   UNL     1     -10.488 -13.741  13.163  1.00  0.00     0.004 C 
ENDBRANCH  18  19
ENDBRANCH  17  18
ENDBRANCH  16  17
ENDBRANCH  15  16
ENDBRANCH  14  15
ENDBRANCH  13  14
ENDBRANCH  12  13
ENDBRANCH   1  12
TORSDOF 16
ENDMDL
MODEL 6
REMARK VINA RESULT:    -3.713      1.833      3.410
REMARK INTER + INTRA:         -10.248
REMARK INTER:                  -7.922
REMARK INTRA:                  -2.325
REMARK UNBOUND:                -3.061
REMARK SMILES CCCCCCCCCCCCCCCCCC(=O)[O-]
REMARK SMILES IDX 10 1 11 2 12 3 13 4 14 5 15 6 16 7 17 8 18 9 19 10 20 11
REMARK SMILES IDX 9 12 8 13 7 14 6 15 5 16 4 17 3 18 2 19 1 20
REMARK H PARENT
REMARK Flexibility Score: inf
ROOT
ATOM      1  C   UNL     1      -8.704 -10.489  15.490  1.00  0.00     0.000 C 
ENDROOT
BRANCH   1   2
ATOM      2  C   UNL     1      -7.176 -10.507  15.673  1.00  0.00     0.000 C 
BRANCH   2   3
ATOM      3  C   UNL     1      -6.683 -11.829  16.298  1.00  0.00     0.000 C 
BRANCH   3   4
ATOM      4  C   UNL     1      -7.636 -13.018  16.063  1.00  0.00     0.000 C 
BRANCH   4   5
ATOM      5  C   UNL     1      -7.802 -13.968  17.263  1.00  0.00     0.000 C 
BRANCH   5   6
ATOM      6  C   UNL     1      -9.270 -14.131  17.696  1.00  0.00     0.000 C 
BRANCH   6   7
ATOM      7  C   UNL     1      -9.943 -12.786  18.010  1.00  0.00     0.006 C 
BRANCH   7   8
ATOM      8  C   UNL     1     -11.418 -12.747  17.591  1.00  0.00     0.053 C 
BRANCH   8   9
ATOM      9  C   UNL     1     -11.604 -13.428  16.272  1.00  0.00     0.041 C 
ATOM     10  O   UNL     1     -11.181 -12.889  15.215  1.00  0.00    -0.550 OA
ATOM     11  O   UNL     1     -12.206 -14.679  16.212  1.00  0.00    -0.550 OA
ENDBRANCH   8   9
ENDBRANCH   7   8
ENDBRANCH   6   7
ENDBRANCH   5   6
ENDBRANCH   4   5
ENDBRANCH   3   4
ENDBRANCH   2   3
ENDBRANCH   1   2
BRANCH   1  12
ATOM     12  C   UNL     1      -9.391  -9.422  16.359  1.00  0.00     0.000 C 
BRANCH  12  13
ATOM     13  C   UNL     1      -8.779  -9.339  17.769  1.00  0.00    -0.000 C 
BRANCH  13  14
ATOM     14  C   UNL     1      -9.411  -8.226  18.620  1.00  0.00    -0.000 C 
BRANCH  14  15
ATOM     15  C   UNL     1      -8.684  -6.879  18.458  1.00  0.00    -0.000 C 
BRANCH  15  16
ATOM     16  C   UNL     1      -7.185  -7.048  18.164  1.00  0.00    -0.000 C 
BRANCH  16  17
ATOM     17  C   UNL     1      -6.664  -6.040  17.122  1.00  0.00    -0.000 C 
BRANCH  17  18
ATOM     18  C   UNL     1      -6.398  -6.702  15.754  1.00  0.00    -0.000 C 
BRANCH  18  19
ATOM     19  C   UNL     1      -7.644  -6.776  14.856  1.00  0.00    -0.003 C 
ATOM     20  C   UNL     1      -7.465  -6.050  13.525  1.00  0.00     0.004 C 
ENDBRANCH  18  19
ENDBRANCH  17  18
ENDBRANCH  16  17
ENDBRANCH  15  16
ENDBRANCH  14  15
ENDBRANCH  13  14
ENDBRANCH  12  13
ENDBRANCH   1  12
TORSDOF 16
ENDMDL
MODEL 7
REMARK VINA RESULT:    -3.711      3.298      6.168
REMARK INTER + INTRA:         -10.243
REMARK INTER:                  -7.576
REMARK INTRA:                  -2.666
REMARK UNBOUND:                -3.061
REMARK SMILES CCCCCCCCCCCCCCCCCC(=O)[O-]
REMARK SMILES IDX 10 1 11 2 12 3 13 4 14 5 15 6 16 7 17 8 18 9 19 10 20 11
REMARK SMILES IDX 9 12 8 13 7 14 6 15 5 16 4 17 3 18 2 19 1 20
REMARK H PARENT
REMARK Flexibility Score: inf
ROOT
ATOM      1  C   UNL     1      -9.867 -11.507  17.559  1.00  0.00     0.000 C 
ENDROOT
BRANCH   1   2
ATOM      2  C   UNL     1      -9.778 -10.423  16.469  1.00  0.00     0.000 C 
BRANCH   2   3
ATOM      3  C   UNL     1      -8.354 -10.302  15.888  1.00  0.00     0.000 C 
BRANCH   3   4
ATOM      4  C   UNL     1      -7.589  -9.055  16.377  1.00  0.00     0.000 C 
BRANCH   4   5
ATOM      5  C   UNL     1      -8.476  -7.887  16.844  1.00  0.00     0.000 C 
BRANCH   5   6
ATOM      6  C   UNL     1      -8.191  -7.464  18.296  1.00  0.00     0.000 C 
BRANCH   6   7
ATOM      7  C   UNL     1      -7.807  -8.653  19.190  1.00  0.00     0.006 C 
BRANCH   7   8
ATOM      8  C   UNL     1      -8.962  -9.122  20.084  1.00  0.00     0.053 C 
BRANCH   8   9
ATOM      9  C   UNL     1      -8.778  -8.622  21.481  1.00  0.00     0.041 C 
ATOM     10  O   UNL     1      -9.722  -8.698  22.312  1.00  0.00    -0.550 OA
ATOM     11  O   UNL     1      -7.549  -8.111  21.882  1.00  0.00    -0.550 OA
ENDBRANCH   8   9
ENDBRANCH   7   8
ENDBRANCH   6   7
ENDBRANCH   5   6
ENDBRANCH   4   5
ENDBRANCH   3   4
ENDBRANCH   2   3
ENDBRANCH   1   2
BRANCH   1  12
ATOM     12  C   UNL     1     -11.295 -12.044  17.745  1.00  0.00     0.000 C 
BRANCH  12  13
ATOM     13  C   UNL     1     -11.475 -13.444  17.129  1.00  0.00    -0.000 C 
BRANCH  13  14
ATOM     14  C   UNL     1     -12.053 -13.391  15.706  1.00  0.00    -0.000 C 
BRANCH  14  15
ATOM     15  C   UNL     1     -11.145 -14.090  14.679  1.00  0.00    -0.000 C 
BRANCH  15  16
ATOM     16  C   UNL     1     -10.161 -13.122  14.003  1.00  0.00    -0.000 C 
BRANCH  16  17
ATOM     17  C   UNL     1      -8.696 -13.583  14.119  1.00  0.00    -0.000 C 
BRANCH  17  18
ATOM     18  C   UNL     1      -8.416 -14.303  15.454  1.00  0.00    -0.000 C 
BRANCH  18  19
ATOM     19  C   UNL     1      -7.229 -13.713  16.233  1.00  0.00    -0.003 C 
ATOM     20  C   UNL     1      -7.295 -13.996  17.732  1.00  0.00     0.004 C 
ENDBRANCH  18  19
ENDBRANCH  17  18
ENDBRANCH  16  17
ENDBRANCH  15  16
ENDBRANCH  14  15
ENDBRANCH  13  14
ENDBRANCH  12  13
ENDBRANCH   1  12
TORSDOF 16
ENDMDL
MODEL 8
REMARK VINA RESULT:    -3.704      1.513      3.061
REMARK INTER + INTRA:         -10.230
REMARK INTER:                  -7.733
REMARK INTRA:                  -2.497
REMARK UNBOUND:                -3.061
REMARK SMILES CCCCCCCCCCCCCCCCCC(=O)[O-]
REMARK SMILES IDX 10 1 11 2 12 3 13 4 14 5 15 6 16 7 17 8 18 9 19 10 20 11
REMARK SMILES IDX 9 12 8 13 7 14 6 15 5 16 4 17 3 18 2 19 1 20
REMARK H PARENT
REMARK Flexibility Score: inf
ROOT
ATOM      1  C   UNL     1      -8.567 -13.153  18.576  1.00  0.00     0.000 C 
ENDROOT
BRANCH   1   2
ATOM      2  C   UNL     1      -8.073 -14.035  17.415  1.00  0.00     0.000 C 
BRANCH   2   3
ATOM      3  C   UNL     1      -6.771 -13.493  16.789  1.00  0.00     0.000 C 
BRANCH   3   4
ATOM      4  C   UNL     1      -6.858 -13.280  15.264  1.00  0.00     0.000 C 
BRANCH   4   5
ATOM      5  C   UNL     1      -8.097 -13.896  14.590  1.00  0.00     0.000 C 
BRANCH   5   6
ATOM      6  C   UNL     1      -9.221 -12.871  14.354  1.00  0.00     0.000 C 
BRANCH   6   7
ATOM      7  C   UNL     1     -10.613 -13.521  14.320  1.00  0.00     0.006 C 
BRANCH   7   8
ATOM      8  C   UNL     1     -11.604 -12.854  15.282  1.00  0.00     0.053 C 
BRANCH   8   9
ATOM      9  C   UNL     1     -11.923 -13.769  16.421  1.00  0.00     0.041 C 
ATOM     10  O   UNL     1     -11.924 -13.334  17.603  1.00  0.00    -0.550 OA
ATOM     11  O   UNL     1     -12.265 -15.094  16.175  1.00  0.00    -0.550 OA
ENDBRANCH   8   9
ENDBRANCH   7   8
ENDBRANCH   6   7
ENDBRANCH   5   6
ENDBRANCH   4   5
ENDBRANCH   3   4
ENDBRANCH   2   3
ENDBRANCH   1   2
BRANCH   1  12
ATOM     12  C   UNL     1      -8.319 -11.656  18.328  1.00  0.00     0.000 C 
BRANCH  12  13
ATOM     13  C   UNL     1      -9.535 -10.963  17.688  1.00  0.00    -0.000 C 
BRANCH  13  14
ATOM     14  C   UNL     1     -10.006  -9.740  18.491  1.00  0.00    -0.000 C 
BRANCH  14  15
ATOM     15  C   UNL     1      -9.022  -9.361  19.611  1.00  0.00    -0.000 C 
BRANCH  15  16
ATOM     16  C   UNL     1      -8.201  -8.105  19.278  1.00  0.00    -0.000 C 
BRANCH  16  17
ATOM     17  C   UNL     1      -8.739  -7.349  18.049  1.00  0.00    -0.000 C 
BRANCH  17  18
ATOM     18  C   UNL     1      -7.710  -7.295  16.901  1.00  0.00    -0.000 C 
BRANCH  18  19
ATOM     19  C   UNL     1      -8.099  -8.156  15.687  1.00  0.00    -0.003 C 
ATOM     20  C   UNL     1      -7.134  -9.312  15.439  1.00  0.00     0.004 C 
ENDBRANCH  18  19
ENDBRANCH  17  18
ENDBRANCH  16  17
ENDBRANCH  15  16
ENDBRANCH  14  15
ENDBRANCH  13  14
ENDBRANCH  12  13
ENDBRANCH   1  12
TORSDOF 16
ENDMDL
MODEL 9
REMARK VINA RESULT:    -3.657      1.475      2.135
REMARK INTER + INTRA:         -10.139
REMARK INTER:                  -7.350
REMARK INTRA:                  -2.789
REMARK UNBOUND:                -3.061
REMARK SMILES CCCCCCCCCCCCCCCCCC(=O)[O-]
REMARK SMILES IDX 10 1 11 2 12 3 13 4 14 5 15 6 16 7 17 8 18 9 19 10 20 11
REMARK SMILES IDX 9 12 8 13 7 14 6 15 5 16 4 17 3 18 2 19 1 20
REMARK H PARENT
REMARK Flexibility Score: inf
ROOT
ATOM      1  C   UNL     1      -7.235 -11.346  15.901  1.00  0.00     0.000 C 
ENDROOT
BRANCH   1   2
ATOM      2  C   UNL     1      -6.726 -12.698  15.367  1.00  0.00     0.000 C 
BRANCH   2   3
ATOM      3  C   UNL     1      -7.456 -13.890  16.019  1.00  0.00     0.000 C 
BRANCH   3   4
ATOM      4  C   UNL     1      -7.494 -13.825  17.560  1.00  0.00     0.000 C 
BRANCH   4   5
ATOM      5  C   UNL     1      -8.902 -13.874  18.180  1.00  0.00     0.000 C 
BRANCH   5   6
ATOM      6  C   UNL     1     -10.009 -14.091  17.132  1.00  0.00     0.000 C 
BRANCH   6   7
ATOM      7  C   UNL     1     -10.917 -12.862  16.974  1.00  0.00     0.006 C 
BRANCH   7   8
ATOM      8  C   UNL     1     -10.736 -12.160  15.622  1.00  0.00     0.053 C 
BRANCH   8   9
ATOM      9  C   UNL     1     -10.952 -13.124  14.500  1.00  0.00     0.041 C 
ATOM     10  O   UNL     1     -10.019 -13.378  13.693  1.00  0.00    -0.550 OA
ATOM     11  O   UNL     1     -12.172 -13.779  14.368  1.00  0.00    -0.550 OA
ENDBRANCH   8   9
ENDBRANCH   7   8
ENDBRANCH   6   7
ENDBRANCH   5   6
ENDBRANCH   4   5
ENDBRANCH   3   4
ENDBRANCH   2   3
ENDBRANCH   1   2
BRANCH   1  12
ATOM     12  C   UNL     1      -6.095 -10.348  16.165  1.00  0.00     0.000 C 
BRANCH  12  13
ATOM     13  C   UNL     1      -6.207  -9.092  15.282  1.00  0.00    -0.000 C 
BRANCH  13  14
ATOM     14  C   UNL     1      -7.657  -8.602  15.137  1.00  0.00    -0.000 C 
BRANCH  14  15
ATOM     15  C   UNL     1      -7.834  -7.146  15.602  1.00  0.00    -0.000 C 
BRANCH  15  16
ATOM     16  C   UNL     1      -7.234  -6.893  16.994  1.00  0.00    -0.000 C 
BRANCH  16  17
ATOM     17  C   UNL     1      -8.184  -7.297  18.137  1.00  0.00    -0.000 C 
BRANCH  17  18
ATOM     18  C   UNL     1      -7.630  -8.473  18.967  1.00  0.00    -0.000 C 
BRANCH  18  19
ATOM     19  C   UNL     1      -8.639  -9.617  19.162  1.00  0.00    -0.003 C 
ATOM     20  C   UNL     1      -9.741  -9.629  18.106  1.00  0.00     0.004 C 
ENDBRANCH  18  19
ENDBRANCH  17  18
ENDBRANCH  16  17
ENDBRANCH  15  16
ENDBRANCH  14  15
ENDBRANCH  13  14
ENDBRANCH  12  13
ENDBRANCH   1  12
TORSDOF 16
ENDMDL
