MODEL 1
REMARK VINA RESULT:    -3.890      0.000      0.000
REMARK INTER + INTRA:          -8.471
REMARK INTER:                  -6.619
REMARK INTRA:                  -1.852
REMARK UNBOUND:                -1.852
REMARK SMILES CCCCCCCCCCCCCC(=O)[O-]
REMARK SMILES IDX 8 1 9 2 10 3 11 4 12 5 13 6 14 7 15 8 16 9 7 10 6 11 5 12
REMARK SMILES IDX 4 13 3 14 2 15 1 16
REMARK H PARENT
REMARK Flexibility Score: inf
ROOT
ATOM      1  C   UNL     1     -22.354 117.936   0.946  1.00  0.00     0.000 C 
ENDROOT
BRANCH   1   2
ATOM      2  C   UNL     1     -21.544 116.659   0.667  1.00  0.00     0.000 C 
BRANCH   2   3
ATOM      3  C   UNL     1     -22.241 115.738  -0.357  1.00  0.00     0.000 C 
BRANCH   3   4
ATOM      4  C   UNL     1     -21.263 114.992  -1.285  1.00  0.00     0.000 C 
BRANCH   4   5
ATOM      5  C   UNL     1     -19.979 114.493  -0.601  1.00  0.00     0.006 C 
BRANCH   5   6
ATOM      6  C   UNL     1     -18.860 114.172  -1.600  1.00  0.00     0.053 C 
BRANCH   6   7
ATOM      7  C   UNL     1     -18.277 115.433  -2.152  1.00  0.00     0.041 C 
ATOM      8  O   UNL     1     -17.621 116.208  -1.406  1.00  0.00    -0.550 OA
ATOM      9  O   UNL     1     -18.499 115.781  -3.479  1.00  0.00    -0.550 OA
ENDBRANCH   6   7
ENDBRANCH   5   6
ENDBRANCH   4   5
ENDBRANCH   3   4
ENDBRANCH   2   3
ENDBRANCH   1   2
BRANCH   1  10
ATOM     10  C   UNL     1     -23.422 118.217  -0.127  1.00  0.00     0.000 C 
BRANCH  10  11
ATOM     11  C   UNL     1     -23.497 119.678  -0.606  1.00  0.00    -0.000 C 
BRANCH  11  12
ATOM     12  C   UNL     1     -22.254 120.498  -0.220  1.00  0.00    -0.000 C 
BRANCH  12  13
ATOM     13  C   UNL     1     -21.438 120.941  -1.447  1.00  0.00    -0.000 C 
BRANCH  13  14
ATOM     14  C   UNL     1     -19.984 120.439  -1.400  1.00  0.00    -0.000 C 
BRANCH  14  15
ATOM     15  C   UNL     1     -19.882 118.915  -1.581  1.00  0.00    -0.003 C 
ATOM     16  C   UNL     1     -20.698 118.403  -2.767  1.00  0.00     0.004 C 
ENDBRANCH  14  15
ENDBRANCH  13  14
ENDBRANCH  12  13
ENDBRANCH  11  12
ENDBRANCH  10  11
ENDBRANCH   1  10
TORSDOF 12
ENDMDL
MODEL 2
REMARK VINA RESULT:    -3.887      1.106      2.362
REMARK INTER + INTRA:          -8.466
REMARK INTER:                  -6.795
REMARK INTRA:                  -1.671
REMARK UNBOUND:                -1.852
REMARK SMILES CCCCCCCCCCCCCC(=O)[O-]
REMARK SMILES IDX 8 1 9 2 10 3 11 4 12 5 13 6 14 7 15 8 16 9 7 10 6 11 5 12
REMARK SMILES IDX 4 13 3 14 2 15 1 16
REMARK H PARENT
REMARK Flexibility Score: inf
ROOT
ATOM      1  C   UNL     1     -21.738 116.987  -2.505  1.00  0.00     0.000 C 
ENDROOT
BRANCH   1   2
ATOM      2  C   UNL     1     -22.190 116.880  -1.039  1.00  0.00     0.000 C 
BRANCH   2   3
ATOM      3  C   UNL     1     -22.168 115.423  -0.527  1.00  0.00     0.000 C 
BRANCH   3   4
ATOM      4  C   UNL     1     -20.929 114.627  -0.980  1.00  0.00     0.000 C 
BRANCH   4   5
ATOM      5  C   UNL     1     -19.614 115.041  -0.300  1.00  0.00     0.006 C 
BRANCH   5   6
ATOM      6  C   UNL     1     -18.379 114.420  -0.967  1.00  0.00     0.053 C 
BRANCH   6   7
ATOM      7  C   UNL     1     -17.698 115.424  -1.841  1.00  0.00     0.041 C 
ATOM      8  O   UNL     1     -17.216 116.474  -1.343  1.00  0.00    -0.550 OA
ATOM      9  O   UNL     1     -17.641 115.224  -3.216  1.00  0.00    -0.550 OA
ENDBRANCH   6   7
ENDBRANCH   5   6
ENDBRANCH   4   5
ENDBRANCH   3   4
ENDBRANCH   2   3
ENDBRANCH   1   2
BRANCH   1  10
ATOM     10  C   UNL     1     -20.583 117.984  -2.707  1.00  0.00     0.000 C 
BRANCH  10  11
ATOM     11  C   UNL     1     -20.081 118.669  -1.422  1.00  0.00    -0.000 C 
BRANCH  11  12
ATOM     12  C   UNL     1     -19.673 120.136  -1.648  1.00  0.00    -0.000 C 
BRANCH  12  13
ATOM     13  C   UNL     1     -20.653 121.125  -0.995  1.00  0.00    -0.000 C 
BRANCH  13  14
ATOM     14  C   UNL     1     -21.914 120.433  -0.449  1.00  0.00    -0.000 C 
BRANCH  14  15
ATOM     15  C   UNL     1     -23.202 120.949  -1.110  1.00  0.00    -0.003 C 
ATOM     16  C   UNL     1     -23.397 120.413  -2.528  1.00  0.00     0.004 C 
ENDBRANCH  14  15
ENDBRANCH  13  14
ENDBRANCH  12  13
ENDBRANCH  11  12
ENDBRANCH  10  11
ENDBRANCH   1  10
TORSDOF 12
ENDMDL
MODEL 3
REMARK VINA RESULT:    -3.836      1.171      3.258
REMARK INTER + INTRA:          -8.379
REMARK INTER:                  -6.609
REMARK INTRA:                  -1.771
REMARK UNBOUND:                -1.852
REMARK SMILES CCCCCCCCCCCCCC(=O)[O-]
REMARK SMILES IDX 8 1 9 2 10 3 11 4 12 5 13 6 14 7 15 8 16 9 7 10 6 11 5 12
REMARK SMILES IDX 4 13 3 14 2 15 1 16
REMARK H PARENT
REMARK Flexibility Score: inf
ROOT
ATOM      1  C   UNL     1     -21.047 121.172  -0.999  1.00  0.00     0.000 C 
ENDROOT
BRANCH   1   2
ATOM      2  C   UNL     1     -19.986 120.454  -1.851  1.00  0.00     0.000 C 
BRANCH   2   3
ATOM      3  C   UNL     1     -19.850 118.962  -1.477  1.00  0.00     0.000 C 
BRANCH   3   4
ATOM      4  C   UNL     1     -20.425 118.003  -2.538  1.00  0.00     0.000 C 
BRANCH   4   5
ATOM      5  C   UNL     1     -19.715 116.643  -2.628  1.00  0.00     0.006 C 
BRANCH   5   6
ATOM      6  C   UNL     1     -18.454 116.572  -1.756  1.00  0.00     0.053 C 
BRANCH   6   7
ATOM      7  C   UNL     1     -17.581 115.440  -2.194  1.00  0.00     0.041 C 
ATOM      8  O   UNL     1     -16.856 114.839  -1.358  1.00  0.00    -0.550 OA
ATOM      9  O   UNL     1     -17.527 115.081  -3.535  1.00  0.00    -0.550 OA
ENDBRANCH   6   7
ENDBRANCH   5   6
ENDBRANCH   4   5
ENDBRANCH   3   4
ENDBRANCH   2   3
ENDBRANCH   1   2
BRANCH   1  10
ATOM     10  C   UNL     1     -22.468 121.042  -1.576  1.00  0.00     0.000 C 
BRANCH  10  11
ATOM     11  C   UNL     1     -23.497 120.388  -0.634  1.00  0.00    -0.000 C 
BRANCH  11  12
ATOM     12  C   UNL     1     -24.089 119.089  -1.207  1.00  0.00    -0.000 C 
BRANCH  12  13
ATOM     13  C   UNL     1     -23.869 117.883  -0.279  1.00  0.00    -0.000 C 
BRANCH  13  14
ATOM     14  C   UNL     1     -22.668 118.076   0.663  1.00  0.00    -0.000 C 
BRANCH  14  15
ATOM     15  C   UNL     1     -21.828 116.797   0.816  1.00  0.00    -0.003 C 
ATOM     16  C   UNL     1     -22.314 115.658  -0.078  1.00  0.00     0.004 C 
ENDBRANCH  14  15
ENDBRANCH  13  14
ENDBRANCH  12  13
ENDBRANCH  11  12
ENDBRANCH  10  11
ENDBRANCH   1  10
TORSDOF 12
ENDMDL
MODEL 4
REMARK VINA RESULT:    -3.822      2.821      5.653
REMARK INTER + INTRA:          -8.355
REMARK INTER:                  -6.516
REMARK INTRA:                  -1.839
REMARK UNBOUND:                -1.852
REMARK SMILES CCCCCCCCCCCCCC(=O)[O-]
REMARK SMILES IDX 8 1 9 2 10 3 11 4 12 5 13 6 14 7 15 8 16 9 7 10 6 11 5 12
REMARK SMILES IDX 4 13 3 14 2 15 1 16
REMARK H PARENT
REMARK Flexibility Score: inf
ROOT
ATOM      1  C   UNL     1     -20.992 116.513  -0.447  1.00  0.00     0.000 C 
ENDROOT
BRANCH   1   2
ATOM      2  C   UNL     1     -21.525 117.310  -1.650  1.00  0.00     0.000 C 
BRANCH   2   3
ATOM      3  C   UNL     1     -20.408 118.098  -2.369  1.00  0.00     0.000 C 
BRANCH   3   4
ATOM      4  C   UNL     1     -19.769 119.198  -1.499  1.00  0.00     0.000 C 
BRANCH   4   5
ATOM      5  C   UNL     1     -20.140 120.635  -1.903  1.00  0.00     0.006 C 
BRANCH   5   6
ATOM      6  C   UNL     1     -21.168 121.270  -0.957  1.00  0.00     0.053 C 
BRANCH   6   7
ATOM      7  C   UNL     1     -22.558 120.951  -1.408  1.00  0.00     0.041 C 
ATOM      8  O   UNL     1     -23.496 120.887  -0.572  1.00  0.00    -0.550 OA
ATOM      9  O   UNL     1     -22.808 120.673  -2.747  1.00  0.00    -0.550 OA
ENDBRANCH   6   7
ENDBRANCH   5   6
ENDBRANCH   4   5
ENDBRANCH   3   4
ENDBRANCH   2   3
ENDBRANCH   1   2
BRANCH   1  10
ATOM     10  C   UNL     1     -21.129 114.991  -0.627  1.00  0.00     0.000 C 
BRANCH  10  11
ATOM     11  C   UNL     1     -19.818 114.252  -0.955  1.00  0.00    -0.000 C 
BRANCH  11  12
ATOM     12  C   UNL     1     -18.569 115.117  -0.715  1.00  0.00    -0.000 C 
BRANCH  12  13
ATOM     13  C   UNL     1     -17.833 115.463  -2.020  1.00  0.00    -0.000 C 
BRANCH  13  14
ATOM     14  C   UNL     1     -18.267 114.569  -3.195  1.00  0.00    -0.000 C 
BRANCH  14  15
ATOM     15  C   UNL     1     -18.866 115.376  -4.359  1.00  0.00    -0.003 C 
ATOM     16  C   UNL     1     -20.342 115.061  -4.600  1.00  0.00     0.004 C 
ENDBRANCH  14  15
ENDBRANCH  13  14
ENDBRANCH  12  13
ENDBRANCH  11  12
ENDBRANCH  10  11
ENDBRANCH   1  10
TORSDOF 12
ENDMDL
MODEL 5
REMARK VINA RESULT:    -3.812      2.845      5.817
REMARK INTER + INTRA:          -8.337
REMARK INTER:                  -6.620
REMARK INTRA:                  -1.717
REMARK UNBOUND:                -1.852
REMARK SMILES CCCCCCCCCCCCCC(=O)[O-]
REMARK SMILES IDX 8 1 9 2 10 3 11 4 12 5 13 6 14 7 15 8 16 9 7 10 6 11 5 12
REMARK SMILES IDX 4 13 3 14 2 15 1 16
REMARK H PARENT
REMARK Flexibility Score: inf
ROOT
ATOM      1  C   UNL     1     -21.672 117.249  -2.225  1.00  0.00     0.000 C 
ENDROOT
BRANCH   1   2
ATOM      2  C   UNL     1     -20.516 118.165  -2.662  1.00  0.00     0.000 C 
BRANCH   2   3
ATOM      3  C   UNL     1     -19.945 118.985  -1.485  1.00  0.00     0.000 C 
BRANCH   3   4
ATOM      4  C   UNL     1     -19.891 120.501  -1.756  1.00  0.00     0.000 C 
BRANCH   4   5
ATOM      5  C   UNL     1     -20.911 121.334  -0.963  1.00  0.00     0.006 C 
BRANCH   5   6
ATOM      6  C   UNL     1     -22.119 120.509  -0.500  1.00  0.00     0.053 C 
BRANCH   6   7
ATOM      7  C   UNL     1     -23.296 120.765  -1.386  1.00  0.00     0.041 C 
ATOM      8  O   UNL     1     -24.421 121.024  -0.886  1.00  0.00    -0.550 OA
ATOM      9  O   UNL     1     -23.161 120.668  -2.766  1.00  0.00    -0.550 OA
ENDBRANCH   6   7
ENDBRANCH   5   6
ENDBRANCH   4   5
ENDBRANCH   3   4
ENDBRANCH   2   3
ENDBRANCH   1   2
BRANCH   1  10
ATOM     10  C   UNL     1     -21.525 116.743  -0.779  1.00  0.00     0.000 C 
BRANCH  10  11
ATOM     11  C   UNL     1     -21.094 115.271  -0.643  1.00  0.00    -0.000 C 
BRANCH  11  12
ATOM     12  C   UNL     1     -21.072 114.528  -1.990  1.00  0.00    -0.000 C 
BRANCH  12  13
ATOM     13  C   UNL     1     -19.670 114.011  -2.354  1.00  0.00    -0.000 C 
BRANCH  13  14
ATOM     14  C   UNL     1     -18.918 114.964  -3.299  1.00  0.00    -0.000 C 
BRANCH  14  15
ATOM     15  C   UNL     1     -17.493 115.272  -2.812  1.00  0.00    -0.003 C 
ATOM     16  C   UNL     1     -17.470 116.010  -1.475  1.00  0.00     0.004 C 
ENDBRANCH  14  15
ENDBRANCH  13  14
ENDBRANCH  12  13
ENDBRANCH  11  12
ENDBRANCH  10  11
ENDBRANCH   1  10
TORSDOF 12
ENDMDL
MODEL 6
REMARK VINA RESULT:    -3.781      3.287      6.087
REMARK INTER + INTRA:          -8.285
REMARK INTER:                  -6.315
REMARK INTRA:                  -1.971
REMARK UNBOUND:                -1.852
REMARK SMILES CCCCCCCCCCCCCC(=O)[O-]
REMARK SMILES IDX 8 1 9 2 10 3 11 4 12 5 13 6 14 7 15 8 16 9 7 10 6 11 5 12
REMARK SMILES IDX 4 13 3 14 2 15 1 16
REMARK H PARENT
REMARK Flexibility Score: inf
ROOT
ATOM      1  C   UNL     1     -20.158 117.229  -2.224  1.00  0.00     0.000 C 
ENDROOT
BRANCH   1   2
ATOM      2  C   UNL     1     -19.613 118.531  -1.612  1.00  0.00     0.000 C 
BRANCH   2   3
ATOM      3  C   UNL     1     -20.423 119.768  -2.057  1.00  0.00     0.000 C 
BRANCH   3   4
ATOM      4  C   UNL     1     -20.827 120.694  -0.893  1.00  0.00     0.000 C 
BRANCH   4   5
ATOM      5  C   UNL     1     -22.271 121.219  -0.959  1.00  0.00     0.006 C 
BRANCH   5   6
ATOM      6  C   UNL     1     -23.014 120.754  -2.219  1.00  0.00     0.053 C 
BRANCH   6   7
ATOM      7  C   UNL     1     -24.479 121.021  -2.087  1.00  0.00     0.041 C 
ATOM      8  O   UNL     1     -25.077 121.714  -2.952  1.00  0.00    -0.550 OA
ATOM      9  O   UNL     1     -25.177 120.547  -0.982  1.00  0.00    -0.550 OA
ENDBRANCH   6   7
ENDBRANCH   5   6
ENDBRANCH   4   5
ENDBRANCH   3   4
ENDBRANCH   2   3
ENDBRANCH   1   2
BRANCH   1  10
ATOM     10  C   UNL     1     -19.703 115.971  -1.462  1.00  0.00     0.000 C 
BRANCH  10  11
ATOM     11  C   UNL     1     -20.821 114.962  -1.142  1.00  0.00    -0.000 C 
BRANCH  11  12
ATOM     12  C   UNL     1     -22.176 115.357  -1.754  1.00  0.00    -0.000 C 
BRANCH  12  13
ATOM     13  C   UNL     1     -23.190 115.816  -0.692  1.00  0.00    -0.000 C 
BRANCH  13  14
ATOM     14  C   UNL     1     -23.374 117.344  -0.675  1.00  0.00    -0.000 C 
BRANCH  14  15
ATOM     15  C   UNL     1     -23.249 117.936   0.738  1.00  0.00    -0.003 C 
ATOM     16  C   UNL     1     -21.837 117.815   1.308  1.00  0.00     0.004 C 
ENDBRANCH  14  15
ENDBRANCH  13  14
ENDBRANCH  12  13
ENDBRANCH  11  12
ENDBRANCH  10  11
ENDBRANCH   1  10
TORSDOF 12
ENDMDL
MODEL 7
REMARK VINA RESULT:    -3.764      1.634      2.474
REMARK INTER + INTRA:          -8.257
REMARK INTER:                  -6.694
REMARK INTRA:                  -1.563
REMARK UNBOUND:                -1.852
REMARK SMILES CCCCCCCCCCCCCC(=O)[O-]
REMARK SMILES IDX 8 1 9 2 10 3 11 4 12 5 13 6 14 7 15 8 16 9 7 10 6 11 5 12
REMARK SMILES IDX 4 13 3 14 2 15 1 16
REMARK H PARENT
REMARK Flexibility Score: inf
ROOT
ATOM      1  C   UNL     1     -21.412 115.466  -0.326  1.00  0.00     0.000 C 
ENDROOT
BRANCH   1   2
ATOM      2  C   UNL     1     -21.441 115.055  -1.808  1.00  0.00     0.000 C 
BRANCH   2   3
ATOM      3  C   UNL     1     -21.063 116.223  -2.745  1.00  0.00     0.000 C 
BRANCH   3   4
ATOM      4  C   UNL     1     -19.675 116.825  -2.454  1.00  0.00     0.000 C 
BRANCH   4   5
ATOM      5  C   UNL     1     -18.500 115.851  -2.643  1.00  0.00     0.006 C 
BRANCH   5   6
ATOM      6  C   UNL     1     -17.390 116.053  -1.602  1.00  0.00     0.053 C 
BRANCH   6   7
ATOM      7  C   UNL     1     -17.169 114.794  -0.826  1.00  0.00     0.041 C 
ATOM      8  O   UNL     1     -18.139 114.209  -0.278  1.00  0.00    -0.550 OA
ATOM      9  O   UNL     1     -15.882 114.293  -0.663  1.00  0.00    -0.550 OA
ENDBRANCH   6   7
ENDBRANCH   5   6
ENDBRANCH   4   5
ENDBRANCH   3   4
ENDBRANCH   2   3
ENDBRANCH   1   2
BRANCH   1  10
ATOM     10  C   UNL     1     -22.766 116.001   0.176  1.00  0.00     0.000 C 
BRANCH  10  11
ATOM     11  C   UNL     1     -23.003 117.503  -0.062  1.00  0.00    -0.000 C 
BRANCH  11  12
ATOM     12  C   UNL     1     -21.826 118.376   0.406  1.00  0.00    -0.000 C 
BRANCH  12  13
ATOM     13  C   UNL     1     -21.764 119.725  -0.329  1.00  0.00    -0.000 C 
BRANCH  13  14
ATOM     14  C   UNL     1     -20.335 120.093  -0.766  1.00  0.00    -0.000 C 
BRANCH  14  15
ATOM     15  C   UNL     1     -20.277 120.612  -2.212  1.00  0.00    -0.003 C 
ATOM     16  C   UNL     1     -21.427 120.095  -3.074  1.00  0.00     0.004 C 
ENDBRANCH  14  15
ENDBRANCH  13  14
ENDBRANCH  12  13
ENDBRANCH  11  12
ENDBRANCH  10  11
ENDBRANCH   1  10
TORSDOF 12
ENDMDL
MODEL 8
REMARK VINA RESULT:    -3.753      1.311      2.153
REMARK INTER + INTRA:          -8.238
REMARK INTER:                  -6.120
REMARK INTRA:                  -2.118
REMARK UNBOUND:                -1.852
REMARK SMILES CCCCCCCCCCCCCC(=O)[O-]
REMARK SMILES IDX 8 1 9 2 10 3 11 4 12 5 13 6 14 7 15 8 16 9 7 10 6 11 5 12
REMARK SMILES IDX 4 13 3 14 2 15 1 16
REMARK H PARENT
REMARK Flexibility Score: inf
ROOT
ATOM      1  C   UNL     1     -23.709 118.099   0.014  1.00  0.00     0.000 C 
ENDROOT
BRANCH   1   2
ATOM      2  C   UNL     1     -22.541 118.009   1.010  1.00  0.00     0.000 C 
BRANCH   2   3
ATOM      3  C   UNL     1     -21.513 116.929   0.608  1.00  0.00     0.000 C 
BRANCH   3   4
ATOM      4  C   UNL     1     -22.143 115.697  -0.070  1.00  0.00     0.000 C 
BRANCH   4   5
ATOM      5  C   UNL     1     -21.185 114.896  -0.967  1.00  0.00     0.006 C 
BRANCH   5   6
ATOM      6  C   UNL     1     -19.799 115.546  -1.085  1.00  0.00     0.053 C 
BRANCH   6   7
ATOM      7  C   UNL     1     -18.728 114.548  -0.780  1.00  0.00     0.041 C 
ATOM      8  O   UNL     1     -18.500 114.206   0.410  1.00  0.00    -0.550 OA
ATOM      9  O   UNL     1     -17.946 114.032  -1.806  1.00  0.00    -0.550 OA
ENDBRANCH   6   7
ENDBRANCH   5   6
ENDBRANCH   4   5
ENDBRANCH   3   4
ENDBRANCH   2   3
ENDBRANCH   1   2
BRANCH   1  10
ATOM     10  C   UNL     1     -23.815 119.477  -0.665  1.00  0.00     0.000 C 
BRANCH  10  11
ATOM     11  C   UNL     1     -23.564 119.476  -2.184  1.00  0.00    -0.000 C 
BRANCH  11  12
ATOM     12  C   UNL     1     -22.972 118.150  -2.691  1.00  0.00    -0.000 C 
BRANCH  12  13
ATOM     13  C   UNL     1     -21.471 118.259  -3.007  1.00  0.00    -0.000 C 
BRANCH  13  14
ATOM     14  C   UNL     1     -20.926 119.682  -2.793  1.00  0.00    -0.000 C 
BRANCH  14  15
ATOM     15  C   UNL     1     -19.930 119.762  -1.625  1.00  0.00    -0.003 C 
ATOM     16  C   UNL     1     -20.369 120.742  -0.538  1.00  0.00     0.004 C 
ENDBRANCH  14  15
ENDBRANCH  13  14
ENDBRANCH  12  13
ENDBRANCH  11  12
ENDBRANCH  10  11
ENDBRANCH   1  10
TORSDOF 12
ENDMDL
MODEL 9
REMARK VINA RESULT:    -3.729      3.004      4.929
REMARK INTER + INTRA:          -8.196
REMARK INTER:                  -6.121
REMARK INTRA:                  -2.075
REMARK UNBOUND:                -1.852
REMARK SMILES CCCCCCCCCCCCCC(=O)[O-]
REMARK SMILES IDX 8 1 9 2 10 3 11 4 12 5 13 6 14 7 15 8 16 9 7 10 6 11 5 12
REMARK SMILES IDX 4 13 3 14 2 15 1 16
REMARK H PARENT
REMARK Flexibility Score: inf
ROOT
ATOM      1  C   UNL     1     -21.545 114.924  -0.593  1.00  0.00     0.000 C 
ENDROOT
BRANCH   1   2
ATOM      2  C   UNL     1     -22.612 115.776   0.114  1.00  0.00     0.000 C 
BRANCH   2   3
ATOM      3  C   UNL     1     -22.005 117.020   0.799  1.00  0.00     0.000 C 
BRANCH   3   4
ATOM      4  C   UNL     1     -22.776 118.323   0.511  1.00  0.00     0.000 C 
BRANCH   4   5
ATOM      5  C   UNL     1     -24.044 118.146  -0.341  1.00  0.00     0.006 C 
BRANCH   5   6
ATOM      6  C   UNL     1     -23.887 118.704  -1.762  1.00  0.00     0.053 C 
BRANCH   6   7
ATOM      7  C   UNL     1     -24.201 120.165  -1.785  1.00  0.00     0.041 C 
ATOM      8  O   UNL     1     -25.101 120.633  -1.040  1.00  0.00    -0.550 OA
ATOM      9  O   UNL     1     -23.534 121.006  -2.669  1.00  0.00    -0.550 OA
ENDBRANCH   6   7
ENDBRANCH   5   6
ENDBRANCH   4   5
ENDBRANCH   3   4
ENDBRANCH   2   3
ENDBRANCH   1   2
BRANCH   1  10
ATOM     10  C   UNL     1     -21.609 115.033  -2.128  1.00  0.00     0.000 C 
BRANCH  10  11
ATOM     11  C   UNL     1     -21.041 116.339  -2.713  1.00  0.00    -0.000 C 
BRANCH  11  12
ATOM     12  C   UNL     1     -19.652 116.690  -2.151  1.00  0.00    -0.000 C 
BRANCH  12  13
ATOM     13  C   UNL     1     -19.583 118.129  -1.611  1.00  0.00    -0.000 C 
BRANCH  13  14
ATOM     14  C   UNL     1     -20.396 119.118  -2.465  1.00  0.00    -0.000 C 
BRANCH  14  15
ATOM     15  C   UNL     1     -20.084 120.584  -2.124  1.00  0.00    -0.003 C 
ATOM     16  C   UNL     1     -20.534 120.974  -0.717  1.00  0.00     0.004 C 
ENDBRANCH  14  15
ENDBRANCH  13  14
ENDBRANCH  12  13
ENDBRANCH  11  12
ENDBRANCH  10  11
ENDBRANCH   1  10
TORSDOF 12
ENDMDL
