MODEL 1
REMARK VINA RESULT:    -5.693      0.000      0.000
REMARK INTER + INTRA:          -9.983
REMARK INTER:                  -8.355
REMARK INTRA:                  -1.628
REMARK UNBOUND:                -1.628
REMARK SMILES Cc1cc2c(C(C)C)c(O)c(O)c(C=O)c2c(O)c1-c1c(C)cc2c(C(C)C)c(O)c(O)c(C=O)c2c1O
REMARK SMILES IDX 1 1 2 2 3 3 4 4 16 5 13 6 11 7 9 8 5 9 17 10 19 11 20 12
REMARK SMILES IDX 37 13 21 14 36 15 23 16 22 17 24 18 33 19 25 20 31 21 29 22
REMARK SMILES IDX 38 23 34 25 35 26 26 27 27 28 28 29 32 30 30 32 18 34 6 36
REMARK SMILES IDX 7 37 8 38 14 39 15 40 10 41 12 43
REMARK H PARENT 38 24 32 31 30 33 18 35 10 42 12 44
REMARK Flexibility Score: inf
ROOT
ATOM      1  C   UNL     1      -6.516  33.239  47.192  1.00  0.00     0.045 C 
ATOM      2  C   UNL     1      -7.684  32.576  46.501  1.00  0.00    -0.039 A 
ATOM      3  C   UNL     1      -8.770  32.139  47.260  1.00  0.00     0.013 A 
ATOM      4  C   UNL     1      -9.898  31.530  46.667  1.00  0.00    -0.006 A 
ATOM      5  C   UNL     1      -9.871  31.246  45.267  1.00  0.00     0.039 A 
ATOM      6  C   UNL     1     -10.952  30.510  44.693  1.00  0.00     0.072 A 
ATOM      7  C   UNL     1     -11.988  30.023  45.516  1.00  0.00     0.169 A 
ATOM      8  C   UNL     1     -12.006  30.315  46.883  1.00  0.00     0.162 A 
ATOM      9  C   UNL     1     -11.033  31.163  47.455  1.00  0.00     0.008 A 
ATOM     10  C   UNL     1      -8.743  31.672  44.499  1.00  0.00     0.132 A 
ATOM     11  C   UNL     1      -7.674  32.358  45.115  1.00  0.00     0.031 A 
ENDROOT
BRANCH  11  12
ATOM     12  C   UNL     1      -6.518  32.826  44.306  1.00  0.00     0.031 A 
ATOM     13  C   UNL     1      -5.426  31.967  44.061  1.00  0.00     0.132 A 
ATOM     14  C   UNL     1      -6.535  34.115  43.752  1.00  0.00    -0.039 A 
ATOM     15  C   UNL     1      -4.292  32.431  43.327  1.00  0.00     0.039 A 
ATOM     16  C   UNL     1      -5.470  34.534  42.953  1.00  0.00     0.013 A 
ATOM     17  C   UNL     1      -7.720  35.030  43.941  1.00  0.00     0.045 C 
ATOM     18  C   UNL     1      -4.324  33.740  42.754  1.00  0.00    -0.006 A 
ATOM     19  C   UNL     1      -3.148  31.608  43.106  1.00  0.00     0.072 A 
ATOM     20  C   UNL     1      -3.221  34.209  41.972  1.00  0.00     0.008 A 
ATOM     21  C   UNL     1      -2.167  32.015  42.189  1.00  0.00     0.169 A 
ATOM     22  C   UNL     1      -2.229  33.274  41.585  1.00  0.00     0.162 A 
BRANCH  13  23
ATOM     23  O   UNL     1      -5.489  30.642  44.505  1.00  0.00    -0.507 OA
ATOM     24  H   UNL     1      -5.282  30.352  45.452  1.00  0.00     0.293 HD
ENDBRANCH  13  23
BRANCH  19  25
ATOM     25  C   UNL     1      -2.913  30.356  43.865  1.00  0.00     0.264 C 
ATOM     26  O   UNL     1      -3.021  29.229  43.311  1.00  0.00    -0.298 OA
ENDBRANCH  19  25
BRANCH  20  27
ATOM     27  C   UNL     1      -3.013  35.688  41.588  1.00  0.00     0.017 C 
ATOM     28  C   UNL     1      -3.901  36.119  40.412  1.00  0.00     0.012 C 
ATOM     29  C   UNL     1      -3.071  36.672  42.775  1.00  0.00     0.012 C 
ENDBRANCH  20  27
BRANCH  21  30
ATOM     30  O   UNL     1      -1.099  31.158  41.895  1.00  0.00    -0.504 OA
ATOM     31  H   UNL     1      -1.136  30.159  42.056  1.00  0.00     0.293 HD
ENDBRANCH  21  30
BRANCH  22  32
ATOM     32  O   UNL     1      -1.277  33.567  40.601  1.00  0.00    -0.504 OA
ATOM     33  H   UNL     1      -1.454  34.162  39.802  1.00  0.00     0.293 HD
ENDBRANCH  22  32
ENDBRANCH  11  12
BRANCH  10  34
ATOM     34  O   UNL     1      -8.673  31.399  43.127  1.00  0.00    -0.507 OA
ATOM     35  H   UNL     1      -7.815  31.407  42.591  1.00  0.00     0.293 HD
ENDBRANCH  10  34
BRANCH   9  36
ATOM     36  C   UNL     1     -11.206  31.649  48.906  1.00  0.00     0.017 C 
ATOM     37  C   UNL     1     -10.839  30.542  49.899  1.00  0.00     0.012 C 
ATOM     38  C   UNL     1     -12.599  32.233  49.208  1.00  0.00     0.012 C 
ENDBRANCH   9  36
BRANCH   6  39
ATOM     39  C   UNL     1     -11.022  30.223  43.245  1.00  0.00     0.264 C 
ATOM     40  O   UNL     1     -10.728  29.080  42.804  1.00  0.00    -0.298 OA
ENDBRANCH   6  39
BRANCH   8  41
ATOM     41  O   UNL     1     -13.004  29.758  47.686  1.00  0.00    -0.504 OA
ATOM     42  H   UNL     1     -12.825  29.029  48.365  1.00  0.00     0.293 HD
ENDBRANCH   8  41
BRANCH   7  43
ATOM     43  O   UNL     1     -13.044  29.264  44.995  1.00  0.00    -0.504 OA
ATOM     44  H   UNL     1     -14.008  29.357  45.285  1.00  0.00     0.293 HD
ENDBRANCH   7  43
TORSDOF 11
ENDMDL
MODEL 2
REMARK VINA RESULT:    -5.676      2.704      4.104
REMARK INTER + INTRA:          -9.959
REMARK INTER:                  -8.409
REMARK INTRA:                  -1.550
REMARK UNBOUND:                -1.628
REMARK SMILES Cc1cc2c(C(C)C)c(O)c(O)c(C=O)c2c(O)c1-c1c(C)cc2c(C(C)C)c(O)c(O)c(C=O)c2c1O
REMARK SMILES IDX 1 1 2 2 3 3 4 4 16 5 13 6 11 7 9 8 5 9 17 10 19 11 20 12
REMARK SMILES IDX 37 13 21 14 36 15 23 16 22 17 24 18 33 19 25 20 31 21 29 22
REMARK SMILES IDX 38 23 34 25 35 26 26 27 27 28 28 29 32 30 30 32 18 34 6 36
REMARK SMILES IDX 7 37 8 38 14 39 15 40 10 41 12 43
REMARK H PARENT 38 24 32 31 30 33 18 35 10 42 12 44
REMARK Flexibility Score: inf
ROOT
ATOM      1  C   UNL     1      -6.292  33.942  47.735  1.00  0.00     0.045 C 
ATOM      2  C   UNL     1      -7.496  33.254  47.136  1.00  0.00    -0.039 A 
ATOM      3  C   UNL     1      -8.295  32.447  47.944  1.00  0.00     0.013 A 
ATOM      4  C   UNL     1      -9.445  31.794  47.445  1.00  0.00    -0.006 A 
ATOM      5  C   UNL     1      -9.724  31.868  46.046  1.00  0.00     0.039 A 
ATOM      6  C   UNL     1     -10.807  31.099  45.519  1.00  0.00     0.072 A 
ATOM      7  C   UNL     1     -11.536  30.239  46.363  1.00  0.00     0.169 A 
ATOM      8  C   UNL     1     -11.256  30.182  47.732  1.00  0.00     0.162 A 
ATOM      9  C   UNL     1     -10.293  31.037  48.310  1.00  0.00     0.008 A 
ATOM     10  C   UNL     1      -8.885  32.675  45.216  1.00  0.00     0.132 A 
ATOM     11  C   UNL     1      -7.797  33.384  45.771  1.00  0.00     0.031 A 
ENDROOT
BRANCH  11  12
ATOM     12  C   UNL     1      -6.947  34.247  44.910  1.00  0.00     0.031 A 
ATOM     13  C   UNL     1      -7.191  35.635  44.830  1.00  0.00     0.132 A 
ATOM     14  C   UNL     1      -5.873  33.683  44.205  1.00  0.00    -0.039 A 
ATOM     15  C   UNL     1      -6.409  36.458  43.965  1.00  0.00     0.039 A 
ATOM     16  C   UNL     1      -5.049  34.504  43.435  1.00  0.00     0.013 A 
ATOM     17  C   UNL     1      -5.548  32.214  44.325  1.00  0.00     0.045 C 
ATOM     18  C   UNL     1      -5.309  35.877  43.262  1.00  0.00    -0.006 A 
ATOM     19  C   UNL     1      -6.662  37.854  43.819  1.00  0.00     0.072 A 
ATOM     20  C   UNL     1      -4.478  36.692  42.428  1.00  0.00     0.008 A 
ATOM     21  C   UNL     1      -5.730  38.662  43.148  1.00  0.00     0.169 A 
ATOM     22  C   UNL     1      -4.623  38.099  42.509  1.00  0.00     0.162 A 
BRANCH  13  23
ATOM     23  O   UNL     1      -8.178  36.200  45.646  1.00  0.00    -0.507 OA
ATOM     24  H   UNL     1      -8.077  36.337  46.643  1.00  0.00     0.293 HD
ENDBRANCH  13  23
BRANCH  19  25
ATOM     25  C   UNL     1      -7.916  38.487  44.293  1.00  0.00     0.264 C 
ATOM     26  O   UNL     1      -7.925  39.239  45.305  1.00  0.00    -0.298 OA
ENDBRANCH  19  25
BRANCH  20  27
ATOM     27  C   UNL     1      -3.486  36.123  41.393  1.00  0.00     0.017 C 
ATOM     28  C   UNL     1      -3.855  36.508  39.954  1.00  0.00     0.012 C 
ATOM     29  C   UNL     1      -2.001  36.381  41.721  1.00  0.00     0.012 C 
ENDBRANCH  20  27
BRANCH  21  30
ATOM     30  O   UNL     1      -5.929  40.047  43.098  1.00  0.00    -0.504 OA
ATOM     31  H   UNL     1      -6.835  40.468  42.928  1.00  0.00     0.293 HD
ENDBRANCH  21  30
BRANCH  22  32
ATOM     32  O   UNL     1      -3.681  38.975  41.954  1.00  0.00    -0.504 OA
ATOM     33  H   UNL     1      -3.429  39.865  42.361  1.00  0.00     0.293 HD
ENDBRANCH  22  32
ENDBRANCH  11  12
BRANCH  10  34
ATOM     34  O   UNL     1      -9.118  32.761  43.838  1.00  0.00    -0.507 OA
ATOM     35  H   UNL     1      -9.984  33.085  43.429  1.00  0.00     0.293 HD
ENDBRANCH  10  34
BRANCH   9  36
ATOM     36  C   UNL     1     -10.167  31.115  49.843  1.00  0.00     0.017 C 
ATOM     37  C   UNL     1      -9.581  29.818  50.409  1.00  0.00     0.012 C 
ATOM     38  C   UNL     1     -11.477  31.496  50.559  1.00  0.00     0.012 C 
ENDBRANCH   9  36
BRANCH   6  39
ATOM     39  C   UNL     1     -11.191  31.163  44.093  1.00  0.00     0.264 C 
ATOM     40  O   UNL     1     -10.897  30.222  43.308  1.00  0.00    -0.298 OA
ENDBRANCH   6  39
BRANCH   8  41
ATOM     41  O   UNL     1     -11.945  29.267  48.531  1.00  0.00    -0.504 OA
ATOM     42  H   UNL     1     -11.827  28.264  48.452  1.00  0.00     0.293 HD
ENDBRANCH   8  41
BRANCH   7  43
ATOM     43  O   UNL     1     -12.578  29.440  45.875  1.00  0.00    -0.504 OA
ATOM     44  H   UNL     1     -13.125  28.809  46.445  1.00  0.00     0.293 HD
ENDBRANCH   7  43
TORSDOF 11
ENDMDL
MODEL 3
REMARK VINA RESULT:    -5.615      5.265      7.586
REMARK INTER + INTRA:          -9.869
REMARK INTER:                  -8.315
REMARK INTRA:                  -1.554
REMARK UNBOUND:                -1.628
REMARK SMILES Cc1cc2c(C(C)C)c(O)c(O)c(C=O)c2c(O)c1-c1c(C)cc2c(C(C)C)c(O)c(O)c(C=O)c2c1O
REMARK SMILES IDX 1 1 2 2 3 3 4 4 16 5 13 6 11 7 9 8 5 9 17 10 19 11 20 12
REMARK SMILES IDX 37 13 21 14 36 15 23 16 22 17 24 18 33 19 25 20 31 21 29 22
REMARK SMILES IDX 38 23 34 25 35 26 26 27 27 28 28 29 32 30 30 32 18 34 6 36
REMARK SMILES IDX 7 37 8 38 14 39 15 40 10 41 12 43
REMARK H PARENT 38 24 32 31 30 33 18 35 10 42 12 44
REMARK Flexibility Score: inf
ROOT
ATOM      1  C   UNL     1      -5.111  33.875  42.303  1.00  0.00     0.045 C 
ATOM      2  C   UNL     1      -4.641  34.743  43.447  1.00  0.00    -0.039 A 
ATOM      3  C   UNL     1      -5.438  35.805  43.872  1.00  0.00     0.013 A 
ATOM      4  C   UNL     1      -5.060  36.638  44.948  1.00  0.00    -0.006 A 
ATOM      5  C   UNL     1      -3.771  36.460  45.537  1.00  0.00     0.039 A 
ATOM      6  C   UNL     1      -3.335  37.387  46.533  1.00  0.00     0.072 A 
ATOM      7  C   UNL     1      -4.145  38.489  46.872  1.00  0.00     0.169 A 
ATOM      8  C   UNL     1      -5.408  38.648  46.293  1.00  0.00     0.162 A 
ATOM      9  C   UNL     1      -5.930  37.672  45.417  1.00  0.00     0.008 A 
ATOM     10  C   UNL     1      -2.946  35.385  45.079  1.00  0.00     0.132 A 
ATOM     11  C   UNL     1      -3.399  34.519  44.060  1.00  0.00     0.031 A 
ENDROOT
BRANCH  11  12
ATOM     12  C   UNL     1      -2.550  33.384  43.610  1.00  0.00     0.031 A 
ATOM     13  C   UNL     1      -2.680  32.115  44.213  1.00  0.00     0.132 A 
ATOM     14  C   UNL     1      -1.646  33.569  42.554  1.00  0.00    -0.039 A 
ATOM     15  C   UNL     1      -1.832  31.037  43.818  1.00  0.00     0.039 A 
ATOM     16  C   UNL     1      -0.886  32.490  42.103  1.00  0.00     0.013 A 
ATOM     17  C   UNL     1      -1.534  34.898  41.846  1.00  0.00     0.045 C 
ATOM     18  C   UNL     1      -0.924  31.230  42.732  1.00  0.00    -0.006 A 
ATOM     19  C   UNL     1      -1.899  29.756  44.442  1.00  0.00     0.072 A 
ATOM     20  C   UNL     1      -0.098  30.150  42.283  1.00  0.00     0.008 A 
ATOM     21  C   UNL     1      -1.220  28.668  43.870  1.00  0.00     0.169 A 
ATOM     22  C   UNL     1      -0.375  28.849  42.771  1.00  0.00     0.162 A 
BRANCH  13  23
ATOM     23  O   UNL     1      -3.683  31.915  45.169  1.00  0.00    -0.507 OA
ATOM     24  H   UNL     1      -4.086  31.013  45.386  1.00  0.00     0.293 HD
ENDBRANCH  13  23
BRANCH  19  25
ATOM     25  C   UNL     1      -2.609  29.535  45.725  1.00  0.00     0.264 C 
ATOM     26  O   UNL     1      -3.701  28.906  45.766  1.00  0.00    -0.298 OA
ENDBRANCH  19  25
BRANCH  20  27
ATOM     27  C   UNL     1       1.120  30.333  41.357  1.00  0.00     0.017 C 
ATOM     28  C   UNL     1       2.382  29.654  41.907  1.00  0.00     0.012 C 
ATOM     29  C   UNL     1       0.855  29.994  39.875  1.00  0.00     0.012 C 
ENDBRANCH  20  27
BRANCH  21  30
ATOM     30  O   UNL     1      -1.373  27.392  44.424  1.00  0.00    -0.504 OA
ATOM     31  H   UNL     1      -1.653  26.585  43.879  1.00  0.00     0.293 HD
ENDBRANCH  21  30
BRANCH  22  32
ATOM     32  O   UNL     1       0.181  27.704  42.188  1.00  0.00    -0.504 OA
ATOM     33  H   UNL     1       0.291  26.821  42.669  1.00  0.00     0.293 HD
ENDBRANCH  22  32
ENDBRANCH  11  12
BRANCH  10  34
ATOM     34  O   UNL     1      -1.670  35.188  45.621  1.00  0.00    -0.507 OA
ATOM     35  H   UNL     1      -1.108  34.362  45.458  1.00  0.00     0.293 HD
ENDBRANCH  10  34
BRANCH   9  36
ATOM     36  C   UNL     1      -7.403  37.755  44.976  1.00  0.00     0.017 C 
ATOM     37  C   UNL     1      -7.613  38.909  43.992  1.00  0.00     0.012 C 
ATOM     38  C   UNL     1      -8.403  37.828  46.146  1.00  0.00     0.012 C 
ENDBRANCH   9  36
BRANCH   6  39
ATOM     39  C   UNL     1      -2.038  37.239  47.225  1.00  0.00     0.264 C 
ATOM     40  O   UNL     1      -1.066  37.985  46.932  1.00  0.00    -0.298 OA
ENDBRANCH   6  39
BRANCH   8  41
ATOM     41  O   UNL     1      -6.156  39.788  46.592  1.00  0.00    -0.504 OA
ATOM     42  H   UNL     1      -5.773  40.724  46.568  1.00  0.00     0.293 HD
ENDBRANCH   8  41
BRANCH   7  43
ATOM     43  O   UNL     1      -3.734  39.440  47.814  1.00  0.00    -0.504 OA
ATOM     44  H   UNL     1      -3.760  40.439  47.662  1.00  0.00     0.293 HD
ENDBRANCH   7  43
TORSDOF 11
ENDMDL
MODEL 4
REMARK VINA RESULT:    -5.583      2.991      9.074
REMARK INTER + INTRA:          -9.822
REMARK INTER:                  -8.437
REMARK INTRA:                  -1.385
REMARK UNBOUND:                -1.628
REMARK SMILES Cc1cc2c(C(C)C)c(O)c(O)c(C=O)c2c(O)c1-c1c(C)cc2c(C(C)C)c(O)c(O)c(C=O)c2c1O
REMARK SMILES IDX 1 1 2 2 3 3 4 4 16 5 13 6 11 7 9 8 5 9 17 10 19 11 20 12
REMARK SMILES IDX 37 13 21 14 36 15 23 16 22 17 24 18 33 19 25 20 31 21 29 22
REMARK SMILES IDX 38 23 34 25 35 26 26 27 27 28 28 29 32 30 30 32 18 34 6 36
REMARK SMILES IDX 7 37 8 38 14 39 15 40 10 41 12 43
REMARK H PARENT 38 24 32 31 30 33 18 35 10 42 12 44
REMARK Flexibility Score: inf
ROOT
ATOM      1  C   UNL     1      -5.182  32.196  43.842  1.00  0.00     0.045 C 
ATOM      2  C   UNL     1      -5.498  33.671  43.755  1.00  0.00    -0.039 A 
ATOM      3  C   UNL     1      -4.531  34.551  43.270  1.00  0.00     0.013 A 
ATOM      4  C   UNL     1      -4.777  35.936  43.148  1.00  0.00    -0.006 A 
ATOM      5  C   UNL     1      -6.007  36.464  43.647  1.00  0.00     0.039 A 
ATOM      6  C   UNL     1      -6.199  37.880  43.647  1.00  0.00     0.072 A 
ATOM      7  C   UNL     1      -5.161  38.731  43.220  1.00  0.00     0.169 A 
ATOM      8  C   UNL     1      -3.964  38.201  42.726  1.00  0.00     0.162 A 
ATOM      9  C   UNL     1      -3.799  36.807  42.575  1.00  0.00     0.008 A 
ATOM     10  C   UNL     1      -6.984  35.560  44.168  1.00  0.00     0.132 A 
ATOM     11  C   UNL     1      -6.735  34.171  44.191  1.00  0.00     0.031 A 
ENDROOT
BRANCH  11  12
ATOM     12  C   UNL     1      -7.768  33.232  44.704  1.00  0.00     0.031 A 
ATOM     13  C   UNL     1      -7.924  33.037  46.092  1.00  0.00     0.132 A 
ATOM     14  C   UNL     1      -8.614  32.570  43.803  1.00  0.00    -0.039 A 
ATOM     15  C   UNL     1      -8.881  32.099  46.587  1.00  0.00     0.039 A 
ATOM     16  C   UNL     1      -9.613  31.727  44.290  1.00  0.00     0.013 A 
ATOM     17  C   UNL     1      -8.513  32.811  42.316  1.00  0.00     0.045 C 
ATOM     18  C   UNL     1      -9.748  31.439  45.662  1.00  0.00    -0.006 A 
ATOM     19  C   UNL     1      -9.030  31.836  47.981  1.00  0.00     0.072 A 
ATOM     20  C   UNL     1     -10.749  30.532  46.137  1.00  0.00     0.008 A 
ATOM     21  C   UNL     1     -10.131  31.092  48.434  1.00  0.00     0.169 A 
ATOM     22  C   UNL     1     -11.012  30.494  47.529  1.00  0.00     0.162 A 
BRANCH  13  23
ATOM     23  O   UNL     1      -7.165  33.809  46.979  1.00  0.00    -0.507 OA
ATOM     24  H   UNL     1      -6.160  33.909  46.923  1.00  0.00     0.293 HD
ENDBRANCH  13  23
BRANCH  19  25
ATOM     25  C   UNL     1      -8.022  32.264  48.981  1.00  0.00     0.264 C 
ATOM     26  O   UNL     1      -8.235  33.247  49.741  1.00  0.00    -0.298 OA
ENDBRANCH  19  25
BRANCH  20  27
ATOM     27  C   UNL     1     -11.505  29.542  45.228  1.00  0.00     0.017 C 
ATOM     28  C   UNL     1     -12.219  30.242  44.064  1.00  0.00     0.012 C 
ATOM     29  C   UNL     1     -10.673  28.324  44.776  1.00  0.00     0.012 C 
ENDBRANCH  20  27
BRANCH  21  30
ATOM     30  O   UNL     1     -10.332  30.926  49.809  1.00  0.00    -0.504 OA
ATOM     31  H   UNL     1     -10.172  30.047  50.286  1.00  0.00     0.293 HD
ENDBRANCH  21  30
BRANCH  22  32
ATOM     32  O   UNL     1     -12.145  29.860  48.052  1.00  0.00    -0.504 OA
ATOM     33  H   UNL     1     -12.243  29.586  49.021  1.00  0.00     0.293 HD
ENDBRANCH  22  32
ENDBRANCH  11  12
BRANCH  10  34
ATOM     34  O   UNL     1      -8.196  36.040  44.680  1.00  0.00    -0.507 OA
ATOM     35  H   UNL     1      -8.745  36.770  44.245  1.00  0.00     0.293 HD
ENDBRANCH  10  34
BRANCH   9  36
ATOM     36  C   UNL     1      -2.570  36.264  41.821  1.00  0.00     0.017 C 
ATOM     37  C   UNL     1      -2.999  35.438  40.605  1.00  0.00     0.012 C 
ATOM     38  C   UNL     1      -1.586  35.481  42.711  1.00  0.00     0.012 C 
ENDBRANCH   9  36
BRANCH   6  39
ATOM     39  C   UNL     1      -7.463  38.498  44.098  1.00  0.00     0.264 C 
ATOM     40  O   UNL     1      -7.526  39.091  45.207  1.00  0.00    -0.298 OA
ENDBRANCH   6  39
BRANCH   8  41
ATOM     41  O   UNL     1      -2.926  39.068  42.379  1.00  0.00    -0.504 OA
ATOM     42  H   UNL     1      -2.912  39.597  41.516  1.00  0.00     0.293 HD
ENDBRANCH   8  41
BRANCH   7  43
ATOM     43  O   UNL     1      -5.297  40.125  43.242  1.00  0.00    -0.504 OA
ATOM     44  H   UNL     1      -4.540  40.767  43.432  1.00  0.00     0.293 HD
ENDBRANCH   7  43
TORSDOF 11
ENDMDL
MODEL 5
REMARK VINA RESULT:    -5.506      3.055      5.046
REMARK INTER + INTRA:          -9.708
REMARK INTER:                  -8.303
REMARK INTRA:                  -1.405
REMARK UNBOUND:                -1.628
REMARK SMILES Cc1cc2c(C(C)C)c(O)c(O)c(C=O)c2c(O)c1-c1c(C)cc2c(C(C)C)c(O)c(O)c(C=O)c2c1O
REMARK SMILES IDX 1 1 2 2 3 3 4 4 16 5 13 6 11 7 9 8 5 9 17 10 19 11 20 12
REMARK SMILES IDX 37 13 21 14 36 15 23 16 22 17 24 18 33 19 25 20 31 21 29 22
REMARK SMILES IDX 38 23 34 25 35 26 26 27 27 28 28 29 32 30 30 32 18 34 6 36
REMARK SMILES IDX 7 37 8 38 14 39 15 40 10 41 12 43
REMARK H PARENT 38 24 32 31 30 33 18 35 10 42 12 44
REMARK Flexibility Score: inf
ROOT
ATOM      1  C   UNL     1      -8.771  32.892  42.729  1.00  0.00     0.045 C 
ATOM      2  C   UNL     1      -8.742  32.663  44.222  1.00  0.00    -0.039 A 
ATOM      3  C   UNL     1      -9.682  31.811  44.802  1.00  0.00     0.013 A 
ATOM      4  C   UNL     1      -9.691  31.543  46.189  1.00  0.00    -0.006 A 
ATOM      5  C   UNL     1      -8.789  32.259  47.034  1.00  0.00     0.039 A 
ATOM      6  C   UNL     1      -8.890  32.089  48.449  1.00  0.00     0.072 A 
ATOM      7  C   UNL     1      -9.907  31.277  48.990  1.00  0.00     0.169 A 
ATOM      8  C   UNL     1     -10.779  30.576  48.151  1.00  0.00     0.162 A 
ATOM      9  C   UNL     1     -10.613  30.605  46.749  1.00  0.00     0.008 A 
ATOM     10  C   UNL     1      -7.846  33.152  46.437  1.00  0.00     0.132 A 
ATOM     11  C   UNL     1      -7.810  33.324  45.036  1.00  0.00     0.031 A 
ENDROOT
BRANCH  11  12
ATOM     12  C   UNL     1      -6.806  34.230  44.418  1.00  0.00     0.031 A 
ATOM     13  C   UNL     1      -7.019  35.625  44.403  1.00  0.00     0.132 A 
ATOM     14  C   UNL     1      -5.625  33.696  43.882  1.00  0.00    -0.039 A 
ATOM     15  C   UNL     1      -6.081  36.493  43.766  1.00  0.00     0.039 A 
ATOM     16  C   UNL     1      -4.664  34.553  43.346  1.00  0.00     0.013 A 
ATOM     17  C   UNL     1      -5.340  32.214  43.945  1.00  0.00     0.045 C 
ATOM     18  C   UNL     1      -4.874  35.941  43.236  1.00  0.00    -0.006 A 
ATOM     19  C   UNL     1      -6.290  37.902  43.686  1.00  0.00     0.072 A 
ATOM     20  C   UNL     1      -3.895  36.796  42.637  1.00  0.00     0.008 A 
ATOM     21  C   UNL     1      -5.242  38.736  43.265  1.00  0.00     0.169 A 
ATOM     22  C   UNL     1      -4.040  38.196  42.800  1.00  0.00     0.162 A 
BRANCH  13  23
ATOM     23  O   UNL     1      -8.136  36.150  45.064  1.00  0.00    -0.507 OA
ATOM     24  H   UNL     1      -8.479  37.092  44.933  1.00  0.00     0.293 HD
ENDBRANCH  13  23
BRANCH  19  25
ATOM     25  C   UNL     1      -7.605  38.526  43.967  1.00  0.00     0.264 C 
ATOM     26  O   UNL     1      -7.799  39.191  45.020  1.00  0.00    -0.298 OA
ENDBRANCH  19  25
BRANCH  20  27
ATOM     27  C   UNL     1      -2.733  36.284  41.763  1.00  0.00     0.017 C 
ATOM     28  C   UNL     1      -1.696  35.492  42.571  1.00  0.00     0.012 C 
ATOM     29  C   UNL     1      -3.172  35.557  40.475  1.00  0.00     0.012 C 
ENDBRANCH  20  27
BRANCH  21  30
ATOM     30  O   UNL     1      -5.416  40.125  43.288  1.00  0.00    -0.504 OA
ATOM     31  H   UNL     1      -4.690  40.774  43.008  1.00  0.00     0.293 HD
ENDBRANCH  21  30
BRANCH  22  32
ATOM     32  O   UNL     1      -3.004  39.089  42.501  1.00  0.00    -0.504 OA
ATOM     33  H   UNL     1      -2.453  39.053  41.653  1.00  0.00     0.293 HD
ENDBRANCH  22  32
ENDBRANCH  11  12
BRANCH  10  34
ATOM     34  O   UNL     1      -6.956  33.883  47.233  1.00  0.00    -0.507 OA
ATOM     35  H   UNL     1      -6.384  34.645  46.891  1.00  0.00     0.293 HD
ENDBRANCH  10  34
BRANCH   9  36
ATOM     36  C   UNL     1     -11.437  29.650  45.865  1.00  0.00     0.017 C 
ATOM     37  C   UNL     1     -10.563  28.511  45.334  1.00  0.00     0.012 C 
ATOM     38  C   UNL     1     -12.197  30.352  44.724  1.00  0.00     0.012 C 
ENDBRANCH   9  36
BRANCH   6  39
ATOM     39  C   UNL     1      -7.960  32.753  49.386  1.00  0.00     0.264 C 
ATOM     40  O   UNL     1      -8.336  33.745  50.066  1.00  0.00    -0.298 OA
ENDBRANCH   6  39
BRANCH   8  41
ATOM     41  O   UNL     1     -11.822  29.839  48.714  1.00  0.00    -0.504 OA
ATOM     42  H   UNL     1     -11.739  29.346  49.594  1.00  0.00     0.293 HD
ENDBRANCH   8  41
BRANCH   7  43
ATOM     43  O   UNL     1     -10.062  31.118  50.373  1.00  0.00    -0.504 OA
ATOM     44  H   UNL     1     -10.228  31.879  51.017  1.00  0.00     0.293 HD
ENDBRANCH   7  43
TORSDOF 11
ENDMDL
MODEL 6
REMARK VINA RESULT:    -5.492      3.156      4.724
REMARK INTER + INTRA:          -9.687
REMARK INTER:                  -8.079
REMARK INTRA:                  -1.609
REMARK UNBOUND:                -1.628
REMARK SMILES Cc1cc2c(C(C)C)c(O)c(O)c(C=O)c2c(O)c1-c1c(C)cc2c(C(C)C)c(O)c(O)c(C=O)c2c1O
REMARK SMILES IDX 1 1 2 2 3 3 4 4 16 5 13 6 11 7 9 8 5 9 17 10 19 11 20 12
REMARK SMILES IDX 37 13 21 14 36 15 23 16 22 17 24 18 33 19 25 20 31 21 29 22
REMARK SMILES IDX 38 23 34 25 35 26 26 27 27 28 28 29 32 30 30 32 18 34 6 36
REMARK SMILES IDX 7 37 8 38 14 39 15 40 10 41 12 43
REMARK H PARENT 38 24 32 31 30 33 18 35 10 42 12 44
REMARK Flexibility Score: inf
ROOT
ATOM      1  C   UNL     1      -5.522  32.846  46.803  1.00  0.00     0.045 C 
ATOM      2  C   UNL     1      -6.587  32.164  45.979  1.00  0.00    -0.039 A 
ATOM      3  C   UNL     1      -7.124  30.954  46.419  1.00  0.00     0.013 A 
ATOM      4  C   UNL     1      -8.136  30.280  45.700  1.00  0.00    -0.006 A 
ATOM      5  C   UNL     1      -8.533  30.792  44.427  1.00  0.00     0.039 A 
ATOM      6  C   UNL     1      -9.457  30.039  43.640  1.00  0.00     0.072 A 
ATOM      7  C   UNL     1      -9.911  28.785  44.095  1.00  0.00     0.169 A 
ATOM      8  C   UNL     1      -9.519  28.299  45.347  1.00  0.00     0.162 A 
ATOM      9  C   UNL     1      -8.726  29.083  46.211  1.00  0.00     0.008 A 
ATOM     10  C   UNL     1      -7.960  32.019  43.968  1.00  0.00     0.132 A 
ATOM     11  C   UNL     1      -7.016  32.709  44.759  1.00  0.00     0.031 A 
ENDROOT
BRANCH  11  12
ATOM     12  C   UNL     1      -6.446  34.000  44.290  1.00  0.00     0.031 A 
ATOM     13  C   UNL     1      -7.062  35.220  44.644  1.00  0.00     0.132 A 
ATOM     14  C   UNL     1      -5.270  34.005  43.526  1.00  0.00    -0.039 A 
ATOM     15  C   UNL     1      -6.547  36.458  44.155  1.00  0.00     0.039 A 
ATOM     16  C   UNL     1      -4.713  35.221  43.129  1.00  0.00     0.013 A 
ATOM     17  C   UNL     1      -4.553  32.719  43.190  1.00  0.00     0.045 C 
ATOM     18  C   UNL     1      -5.341  36.454  43.389  1.00  0.00    -0.006 A 
ATOM     19  C   UNL     1      -7.175  37.705  44.448  1.00  0.00     0.072 A 
ATOM     20  C   UNL     1      -4.777  37.687  42.929  1.00  0.00     0.008 A 
ATOM     21  C   UNL     1      -6.510  38.904  44.148  1.00  0.00     0.169 A 
ATOM     22  C   UNL     1      -5.300  38.897  43.449  1.00  0.00     0.162 A 
BRANCH  13  23
ATOM     23  O   UNL     1      -8.154  35.202  45.520  1.00  0.00    -0.507 OA
ATOM     24  H   UNL     1      -8.304  34.489  46.222  1.00  0.00     0.293 HD
ENDBRANCH  13  23
BRANCH  19  25
ATOM     25  C   UNL     1      -8.547  37.792  45.003  1.00  0.00     0.264 C 
ATOM     26  O   UNL     1      -8.744  38.074  46.215  1.00  0.00    -0.298 OA
ENDBRANCH  19  25
BRANCH  20  27
ATOM     27  C   UNL     1      -3.683  37.775  41.847  1.00  0.00     0.017 C 
ATOM     28  C   UNL     1      -2.293  37.407  42.385  1.00  0.00     0.012 C 
ATOM     29  C   UNL     1      -4.027  37.051  40.528  1.00  0.00     0.012 C 
ENDBRANCH  20  27
BRANCH  21  30
ATOM     30  O   UNL     1      -7.080  40.124  44.533  1.00  0.00    -0.504 OA
ATOM     31  H   UNL     1      -6.986  40.505  45.467  1.00  0.00     0.293 HD
ENDBRANCH  21  30
BRANCH  22  32
ATOM     32  O   UNL     1      -4.642  40.122  43.282  1.00  0.00    -0.504 OA
ATOM     33  H   UNL     1      -4.943  40.988  43.707  1.00  0.00     0.293 HD
ENDBRANCH  22  32
ENDBRANCH  11  12
BRANCH  10  34
ATOM     34  O   UNL     1      -8.313  32.545  42.719  1.00  0.00    -0.507 OA
ATOM     35  H   UNL     1      -9.003  33.272  42.585  1.00  0.00     0.293 HD
ENDBRANCH  10  34
BRANCH   9  36
ATOM     36  C   UNL     1      -8.502  28.623  47.665  1.00  0.00     0.017 C 
ATOM     37  C   UNL     1      -7.590  27.394  47.711  1.00  0.00     0.012 C 
ATOM     38  C   UNL     1      -9.803  28.385  48.453  1.00  0.00     0.012 C 
ENDBRANCH   9  36
BRANCH   6  39
ATOM     39  C   UNL     1      -9.956  30.528  42.338  1.00  0.00     0.264 C 
ATOM     40  O   UNL     1      -9.592  29.976  41.265  1.00  0.00    -0.298 OA
ENDBRANCH   6  39
BRANCH   8  41
ATOM     41  O   UNL     1      -9.925  27.021  45.739  1.00  0.00    -0.504 OA
ATOM     42  H   UNL     1      -9.367  26.191  45.582  1.00  0.00     0.293 HD
ENDBRANCH   8  41
BRANCH   7  43
ATOM     43  O   UNL     1     -10.785  28.000  43.333  1.00  0.00    -0.504 OA
ATOM     44  H   UNL     1     -11.789  27.987  43.454  1.00  0.00     0.293 HD
ENDBRANCH   7  43
TORSDOF 11
ENDMDL
MODEL 7
REMARK VINA RESULT:    -5.457      5.136      8.843
REMARK INTER + INTRA:          -9.636
REMARK INTER:                  -8.089
REMARK INTRA:                  -1.547
REMARK UNBOUND:                -1.628
REMARK SMILES Cc1cc2c(C(C)C)c(O)c(O)c(C=O)c2c(O)c1-c1c(C)cc2c(C(C)C)c(O)c(O)c(C=O)c2c1O
REMARK SMILES IDX 1 1 2 2 3 3 4 4 16 5 13 6 11 7 9 8 5 9 17 10 19 11 20 12
REMARK SMILES IDX 37 13 21 14 36 15 23 16 22 17 24 18 33 19 25 20 31 21 29 22
REMARK SMILES IDX 38 23 34 25 35 26 26 27 27 28 28 29 32 30 30 32 18 34 6 36
REMARK SMILES IDX 7 37 8 38 14 39 15 40 10 41 12 43
REMARK H PARENT 38 24 32 31 30 33 18 35 10 42 12 44
REMARK Flexibility Score: inf
ROOT
ATOM      1  C   UNL     1      -1.726  34.877  41.881  1.00  0.00     0.045 C 
ATOM      2  C   UNL     1      -1.778  33.561  42.619  1.00  0.00    -0.039 A 
ATOM      3  C   UNL     1      -1.049  32.475  42.135  1.00  0.00     0.013 A 
ATOM      4  C   UNL     1      -1.043  31.226  42.793  1.00  0.00    -0.006 A 
ATOM      5  C   UNL     1      -1.903  31.036  43.918  1.00  0.00     0.039 A 
ATOM      6  C   UNL     1      -1.999  29.736  44.501  1.00  0.00     0.072 A 
ATOM      7  C   UNL     1      -1.302  28.654  43.926  1.00  0.00     0.169 A 
ATOM      8  C   UNL     1      -0.457  28.855  42.830  1.00  0.00     0.162 A 
ATOM      9  C   UNL     1      -0.226  30.152  42.322  1.00  0.00     0.008 A 
ATOM     10  C   UNL     1      -2.670  32.146  44.395  1.00  0.00     0.132 A 
ATOM     11  C   UNL     1      -2.579  33.404  43.761  1.00  0.00     0.031 A 
ENDROOT
BRANCH  11  12
ATOM     12  C   UNL     1      -3.354  34.562  44.280  1.00  0.00     0.031 A 
ATOM     13  C   UNL     1      -2.800  35.404  45.268  1.00  0.00     0.132 A 
ATOM     14  C   UNL     1      -4.625  34.839  43.755  1.00  0.00    -0.039 A 
ATOM     15  C   UNL     1      -3.560  36.486  45.804  1.00  0.00     0.039 A 
ATOM     16  C   UNL     1      -5.329  35.954  44.211  1.00  0.00     0.013 A 
ATOM     17  C   UNL     1      -5.213  33.995  42.651  1.00  0.00     0.045 C 
ATOM     18  C   UNL     1      -4.849  36.770  45.254  1.00  0.00    -0.006 A 
ATOM     19  C   UNL     1      -3.053  37.325  46.841  1.00  0.00     0.072 A 
ATOM     20  C   UNL     1      -5.610  37.880  45.740  1.00  0.00     0.008 A 
ATOM     21  C   UNL     1      -3.731  38.509  47.171  1.00  0.00     0.169 A 
ATOM     22  C   UNL     1      -4.965  38.814  46.589  1.00  0.00     0.162 A 
BRANCH  13  23
ATOM     23  O   UNL     1      -1.479  35.193  45.679  1.00  0.00    -0.507 OA
ATOM     24  H   UNL     1      -1.012  35.744  46.387  1.00  0.00     0.293 HD
ENDBRANCH  13  23
BRANCH  19  25
ATOM     25  C   UNL     1      -1.860  36.961  47.644  1.00  0.00     0.264 C 
ATOM     26  O   UNL     1      -0.764  37.563  47.491  1.00  0.00    -0.298 OA
ENDBRANCH  19  25
BRANCH  20  27
ATOM     27  C   UNL     1      -7.111  38.078  45.452  1.00  0.00     0.017 C 
ATOM     28  C   UNL     1      -7.373  38.590  44.029  1.00  0.00     0.012 C 
ATOM     29  C   UNL     1      -8.000  36.875  45.830  1.00  0.00     0.012 C 
ENDBRANCH  20  27
BRANCH  21  30
ATOM     30  O   UNL     1      -3.176  39.382  48.114  1.00  0.00    -0.504 OA
ATOM     31  H   UNL     1      -2.334  39.166  48.635  1.00  0.00     0.293 HD
ENDBRANCH  21  30
BRANCH  22  32
ATOM     32  O   UNL     1      -5.529  40.061  46.883  1.00  0.00    -0.504 OA
ATOM     33  H   UNL     1      -6.168  40.226  47.649  1.00  0.00     0.293 HD
ENDBRANCH  22  32
ENDBRANCH  11  12
BRANCH  10  34
ATOM     34  O   UNL     1      -3.535  31.996  45.485  1.00  0.00    -0.507 OA
ATOM     35  H   UNL     1      -4.525  31.806  45.400  1.00  0.00     0.293 HD
ENDBRANCH  10  34
BRANCH   9  36
ATOM     36  C   UNL     1       0.877  30.372  41.270  1.00  0.00     0.017 C 
ATOM     37  C   UNL     1       0.483  29.742  39.930  1.00  0.00     0.012 C 
ATOM     38  C   UNL     1       2.273  29.903  41.719  1.00  0.00     0.012 C 
ENDBRANCH   9  36
BRANCH   6  39
ATOM     39  C   UNL     1      -2.825  29.472  45.697  1.00  0.00     0.264 C 
ATOM     40  O   UNL     1      -2.288  29.333  46.828  1.00  0.00    -0.298 OA
ENDBRANCH   6  39
BRANCH   8  41
ATOM     41  O   UNL     1       0.162  27.753  42.236  1.00  0.00    -0.504 OA
ATOM     42  H   UNL     1       0.841  27.175  42.715  1.00  0.00     0.293 HD
ENDBRANCH   8  41
BRANCH   7  43
ATOM     43  O   UNL     1      -1.402  27.357  44.445  1.00  0.00    -0.504 OA
ATOM     44  H   UNL     1      -1.666  26.546  43.901  1.00  0.00     0.293 HD
ENDBRANCH   7  43
TORSDOF 11
ENDMDL
MODEL 8
REMARK VINA RESULT:    -5.444      3.561      4.963
REMARK INTER + INTRA:          -9.618
REMARK INTER:                  -7.963
REMARK INTRA:                  -1.655
REMARK UNBOUND:                -1.628
REMARK SMILES Cc1cc2c(C(C)C)c(O)c(O)c(C=O)c2c(O)c1-c1c(C)cc2c(C(C)C)c(O)c(O)c(C=O)c2c1O
REMARK SMILES IDX 1 1 2 2 3 3 4 4 16 5 13 6 11 7 9 8 5 9 17 10 19 11 20 12
REMARK SMILES IDX 37 13 21 14 36 15 23 16 22 17 24 18 33 19 25 20 31 21 29 22
REMARK SMILES IDX 38 23 34 25 35 26 26 27 27 28 28 29 32 30 30 32 18 34 6 36
REMARK SMILES IDX 7 37 8 38 14 39 15 40 10 41 12 43
REMARK H PARENT 38 24 32 31 30 33 18 35 10 42 12 44
REMARK Flexibility Score: inf
ROOT
ATOM      1  C   UNL     1      -4.810  31.350  46.975  1.00  0.00     0.045 C 
ATOM      2  C   UNL     1      -5.842  30.539  46.229  1.00  0.00    -0.039 A 
ATOM      3  C   UNL     1      -5.874  29.154  46.394  1.00  0.00     0.013 A 
ATOM      4  C   UNL     1      -6.829  28.346  45.738  1.00  0.00    -0.006 A 
ATOM      5  C   UNL     1      -7.707  28.952  44.787  1.00  0.00     0.039 A 
ATOM      6  C   UNL     1      -8.579  28.116  44.025  1.00  0.00     0.072 A 
ATOM      7  C   UNL     1      -8.519  26.716  44.172  1.00  0.00     0.169 A 
ATOM      8  C   UNL     1      -7.660  26.136  45.112  1.00  0.00     0.162 A 
ATOM      9  C   UNL     1      -6.894  26.940  45.983  1.00  0.00     0.008 A 
ATOM     10  C   UNL     1      -7.651  30.369  44.602  1.00  0.00     0.132 A 
ATOM     11  C   UNL     1      -6.742  31.153  45.344  1.00  0.00     0.031 A 
ENDROOT
BRANCH  11  12
ATOM     12  C   UNL     1      -6.710  32.629  45.171  1.00  0.00     0.031 A 
ATOM     13  C   UNL     1      -5.873  33.214  44.196  1.00  0.00     0.132 A 
ATOM     14  C   UNL     1      -7.545  33.439  45.954  1.00  0.00    -0.039 A 
ATOM     15  C   UNL     1      -5.803  34.633  44.061  1.00  0.00     0.039 A 
ATOM     16  C   UNL     1      -7.547  34.820  45.755  1.00  0.00     0.013 A 
ATOM     17  C   UNL     1      -8.499  32.836  46.957  1.00  0.00     0.045 C 
ATOM     18  C   UNL     1      -6.668  35.450  44.854  1.00  0.00    -0.006 A 
ATOM     19  C   UNL     1      -4.929  35.261  43.124  1.00  0.00     0.072 A 
ATOM     20  C   UNL     1      -6.652  36.873  44.701  1.00  0.00     0.008 A 
ATOM     21  C   UNL     1      -5.063  36.633  42.861  1.00  0.00     0.169 A 
ATOM     22  C   UNL     1      -5.951  37.421  43.598  1.00  0.00     0.162 A 
BRANCH  13  23
ATOM     23  O   UNL     1      -5.152  32.383  43.332  1.00  0.00    -0.507 OA
ATOM     24  H   UNL     1      -4.266  31.954  43.567  1.00  0.00     0.293 HD
ENDBRANCH  13  23
BRANCH  19  25
ATOM     25  C   UNL     1      -3.827  34.529  42.455  1.00  0.00     0.264 C 
ATOM     26  O   UNL     1      -3.901  34.209  41.238  1.00  0.00    -0.298 OA
ENDBRANCH  19  25
BRANCH  20  27
ATOM     27  C   UNL     1      -7.293  37.848  45.709  1.00  0.00     0.017 C 
ATOM     28  C   UNL     1      -8.818  37.932  45.556  1.00  0.00     0.012 C 
ATOM     29  C   UNL     1      -6.849  37.639  47.172  1.00  0.00     0.012 C 
ENDBRANCH  20  27
BRANCH  21  30
ATOM     30  O   UNL     1      -4.276  37.224  41.864  1.00  0.00    -0.504 OA
ATOM     31  H   UNL     1      -3.819  38.119  41.984  1.00  0.00     0.293 HD
ENDBRANCH  21  30
BRANCH  22  32
ATOM     32  O   UNL     1      -6.109  38.756  43.208  1.00  0.00    -0.504 OA
ATOM     33  H   UNL     1      -5.902  39.547  43.802  1.00  0.00     0.293 HD
ENDBRANCH  22  32
ENDBRANCH  11  12
BRANCH  10  34
ATOM     34  O   UNL     1      -8.484  30.997  43.668  1.00  0.00    -0.507 OA
ATOM     35  H   UNL     1      -9.061  30.502  43.000  1.00  0.00     0.293 HD
ENDBRANCH  10  34
BRANCH   9  36
ATOM     36  C   UNL     1      -6.136  26.284  47.153  1.00  0.00     0.017 C 
ATOM     37  C   UNL     1      -4.965  25.441  46.639  1.00  0.00     0.012 C 
ATOM     38  C   UNL     1      -7.035  25.473  48.105  1.00  0.00     0.012 C 
ENDBRANCH   9  36
BRANCH   6  39
ATOM     39  C   UNL     1      -9.552  28.672  43.061  1.00  0.00     0.264 C 
ATOM     40  O   UNL     1      -9.338  28.600  41.822  1.00  0.00    -0.298 OA
ENDBRANCH   6  39
BRANCH   8  41
ATOM     41  O   UNL     1      -7.568  24.745  45.184  1.00  0.00    -0.504 OA
ATOM     42  H   UNL     1      -6.917  24.204  44.629  1.00  0.00     0.293 HD
ENDBRANCH   8  41
BRANCH   7  43
ATOM     43  O   UNL     1      -9.330  25.862  43.414  1.00  0.00    -0.504 OA
ATOM     44  H   UNL     1      -9.892  26.161  42.629  1.00  0.00     0.293 HD
ENDBRANCH   7  43
TORSDOF 11
ENDMDL
MODEL 9
REMARK VINA RESULT:    -5.399      3.730      7.810
REMARK INTER + INTRA:          -9.552
REMARK INTER:                  -7.924
REMARK INTRA:                  -1.628
REMARK UNBOUND:                -1.628
REMARK SMILES Cc1cc2c(C(C)C)c(O)c(O)c(C=O)c2c(O)c1-c1c(C)cc2c(C(C)C)c(O)c(O)c(C=O)c2c1O
REMARK SMILES IDX 1 1 2 2 3 3 4 4 16 5 13 6 11 7 9 8 5 9 17 10 19 11 20 12
REMARK SMILES IDX 37 13 21 14 36 15 23 16 22 17 24 18 33 19 25 20 31 21 29 22
REMARK SMILES IDX 38 23 34 25 35 26 26 27 27 28 28 29 32 30 30 32 18 34 6 36
REMARK SMILES IDX 7 37 8 38 14 39 15 40 10 41 12 43
REMARK H PARENT 38 24 32 31 30 33 18 35 10 42 12 44
REMARK Flexibility Score: inf
ROOT
ATOM      1  C   UNL     1      -8.873  32.303  47.054  1.00  0.00     0.045 C 
ATOM      2  C   UNL     1      -7.881  32.979  46.138  1.00  0.00    -0.039 A 
ATOM      3  C   UNL     1      -7.899  34.368  46.014  1.00  0.00     0.013 A 
ATOM      4  C   UNL     1      -6.982  35.056  45.188  1.00  0.00    -0.006 A 
ATOM      5  C   UNL     1      -6.093  34.298  44.366  1.00  0.00     0.039 A 
ATOM      6  C   UNL     1      -5.261  34.988  43.433  1.00  0.00     0.072 A 
ATOM      7  C   UNL     1      -5.372  36.386  43.290  1.00  0.00     0.169 A 
ATOM      8  C   UNL     1      -6.242  37.117  44.107  1.00  0.00     0.162 A 
ATOM      9  C   UNL     1      -6.968  36.484  45.138  1.00  0.00     0.008 A 
ATOM     10  C   UNL     1      -6.098  32.872  44.477  1.00  0.00     0.132 A 
ATOM     11  C   UNL     1      -6.969  32.227  45.381  1.00  0.00     0.031 A 
ENDROOT
BRANCH  11  12
ATOM     12  C   UNL     1      -6.947  30.746  45.516  1.00  0.00     0.031 A 
ATOM     13  C   UNL     1      -7.782  29.946  44.708  1.00  0.00     0.132 A 
ATOM     14  C   UNL     1      -6.062  30.144  46.423  1.00  0.00    -0.039 A 
ATOM     15  C   UNL     1      -7.800  28.527  44.869  1.00  0.00     0.039 A 
ATOM     16  C   UNL     1      -6.011  28.752  46.511  1.00  0.00     0.013 A 
ATOM     17  C   UNL     1      -5.110  30.972  47.250  1.00  0.00     0.045 C 
ATOM     18  C   UNL     1      -6.886  27.921  45.786  1.00  0.00    -0.006 A 
ATOM     19  C   UNL     1      -8.670  27.691  44.108  1.00  0.00     0.072 A 
ATOM     20  C   UNL     1      -6.849  26.497  45.929  1.00  0.00     0.008 A 
ATOM     21  C   UNL     1      -8.490  26.300  44.129  1.00  0.00     0.169 A 
ATOM     22  C   UNL     1      -7.554  25.711  44.984  1.00  0.00     0.162 A 
BRANCH  13  23
ATOM     23  O   UNL     1      -8.556  30.556  43.715  1.00  0.00    -0.507 OA
ATOM     24  H   UNL     1      -8.205  31.257  43.075  1.00  0.00     0.293 HD
ENDBRANCH  13  23
BRANCH  19  25
ATOM     25  C   UNL     1      -9.816  28.232  43.338  1.00  0.00     0.264 C 
ATOM     26  O   UNL     1      -9.780  28.305  42.080  1.00  0.00    -0.298 OA
ENDBRANCH  19  25
BRANCH  20  27
ATOM     27  C   UNL     1      -6.147  25.774  47.095  1.00  0.00     0.017 C 
ATOM     28  C   UNL     1      -7.113  24.906  47.913  1.00  0.00     0.012 C 
ATOM     29  C   UNL     1      -4.857  25.025  46.701  1.00  0.00     0.012 C 
ENDBRANCH  20  27
BRANCH  21  30
ATOM     30  O   UNL     1      -9.276  25.490  43.300  1.00  0.00    -0.504 OA
ATOM     31  H   UNL     1      -8.910  24.680  42.815  1.00  0.00     0.293 HD
ENDBRANCH  21  30
BRANCH  22  32
ATOM     32  O   UNL     1      -7.354  24.330  44.871  1.00  0.00    -0.504 OA
ATOM     33  H   UNL     1      -6.716  23.802  45.451  1.00  0.00     0.293 HD
ENDBRANCH  22  32
ENDBRANCH  11  12
BRANCH  10  34
ATOM     34  O   UNL     1      -5.252  32.094  43.678  1.00  0.00    -0.507 OA
ATOM     35  H   UNL     1      -5.388  31.946  42.686  1.00  0.00     0.293 HD
ENDBRANCH  10  34
BRANCH   9  36
ATOM     36  C   UNL     1      -7.737  37.340  46.163  1.00  0.00     0.017 C 
ATOM     37  C   UNL     1      -8.882  38.100  45.487  1.00  0.00     0.012 C 
ATOM     38  C   UNL     1      -6.842  38.289  46.982  1.00  0.00     0.012 C 
ENDBRANCH   9  36
BRANCH   6  39
ATOM     39  C   UNL     1      -4.279  34.280  42.586  1.00  0.00     0.264 C 
ATOM     40  O   UNL     1      -4.504  34.097  41.360  1.00  0.00    -0.298 OA
ENDBRANCH   6  39
BRANCH   8  41
ATOM     41  O   UNL     1      -6.385  38.489  43.893  1.00  0.00    -0.504 OA
ATOM     42  H   UNL     1      -7.257  38.984  44.037  1.00  0.00     0.293 HD
ENDBRANCH   8  41
BRANCH   7  43
ATOM     43  O   UNL     1      -4.603  37.093  42.358  1.00  0.00    -0.504 OA
ATOM     44  H   UNL     1      -4.379  36.755  41.432  1.00  0.00     0.293 HD
ENDBRANCH   7  43
TORSDOF 11
ENDMDL
