MODEL 1
REMARK VINA RESULT:    -4.701      0.000      0.000
REMARK INTER + INTRA:         -13.242
REMARK INTER:                 -10.198
REMARK INTRA:                  -3.044
REMARK UNBOUND:                -3.044
REMARK SMILES CCCCCCCCCCCCCCCCCCCCCC(=O)[O-]
REMARK SMILES IDX 12 1 11 2 10 3 9 4 8 5 7 6 6 7 5 8 4 9 3 10 2 11 1 12 13 13
REMARK SMILES IDX 14 14 15 15 16 16 17 17 18 18 19 19 20 20 21 21 22 22 23 23
REMARK SMILES IDX 24 24
REMARK H PARENT
REMARK Flexibility Score: inf
ROOT
ATOM      1  C   UNL     1     -18.841   0.550  27.083  1.00  0.00     0.000 C 
ENDROOT
BRANCH   1   2
ATOM      2  C   UNL     1     -20.315   0.970  26.955  1.00  0.00     0.000 C 
BRANCH   2   3
ATOM      3  C   UNL     1     -21.104   0.070  25.988  1.00  0.00     0.000 C 
BRANCH   3   4
ATOM      4  C   UNL     1     -22.590  -0.130  26.348  1.00  0.00    -0.000 C 
BRANCH   4   5
ATOM      5  C   UNL     1     -23.035   0.514  27.673  1.00  0.00    -0.000 C 
BRANCH   5   6
ATOM      6  C   UNL     1     -23.764  -0.474  28.599  1.00  0.00    -0.000 C 
BRANCH   6   7
ATOM      7  C   UNL     1     -23.083  -1.854  28.646  1.00  0.00    -0.000 C 
BRANCH   7   8
ATOM      8  C   UNL     1     -23.205  -2.595  29.993  1.00  0.00    -0.000 C 
BRANCH   8   9
ATOM      9  C   UNL     1     -22.692  -4.050  29.951  1.00  0.00    -0.000 C 
BRANCH   9  10
ATOM     10  C   UNL     1     -21.933  -4.431  31.236  1.00  0.00    -0.000 C 
BRANCH  10  11
ATOM     11  C   UNL     1     -20.733  -5.350  30.963  1.00  0.00    -0.003 C 
ATOM     12  C   UNL     1     -20.402  -5.464  29.476  1.00  0.00     0.004 C 
ENDBRANCH  10  11
ENDBRANCH   9  10
ENDBRANCH   8   9
ENDBRANCH   7   8
ENDBRANCH   6   7
ENDBRANCH   5   6
ENDBRANCH   4   5
ENDBRANCH   3   4
ENDBRANCH   2   3
ENDBRANCH   1   2
BRANCH   1  13
ATOM     13  C   UNL     1     -18.467   0.133  28.513  1.00  0.00     0.000 C 
BRANCH  13  14
ATOM     14  C   UNL     1     -19.686  -0.334  29.334  1.00  0.00     0.000 C 
BRANCH  14  15
ATOM     15  C   UNL     1     -19.559  -1.798  29.784  1.00  0.00     0.000 C 
BRANCH  15  16
ATOM     16  C   UNL     1     -18.223  -2.432  29.361  1.00  0.00     0.000 C 
BRANCH  16  17
ATOM     17  C   UNL     1     -17.374  -2.906  30.558  1.00  0.00     0.000 C 
BRANCH  17  18
ATOM     18  C   UNL     1     -17.719  -2.246  31.912  1.00  0.00     0.000 C 
BRANCH  18  19
ATOM     19  C   UNL     1     -16.887  -0.993  32.242  1.00  0.00     0.000 C 
BRANCH  19  20
ATOM     20  C   UNL     1     -15.920  -0.612  31.107  1.00  0.00     0.006 C 
BRANCH  20  21
ATOM     21  C   UNL     1     -14.469  -0.538  31.596  1.00  0.00     0.053 C 
BRANCH  21  22
ATOM     22  C   UNL     1     -13.613   0.246  30.647  1.00  0.00     0.041 C 
ATOM     23  O   UNL     1     -12.445  -0.141  30.380  1.00  0.00    -0.550 OA
ATOM     24  O   UNL     1     -14.118   1.391  30.038  1.00  0.00    -0.550 OA
ENDBRANCH  21  22
ENDBRANCH  20  21
ENDBRANCH  19  20
ENDBRANCH  18  19
ENDBRANCH  17  18
ENDBRANCH  16  17
ENDBRANCH  15  16
ENDBRANCH  14  15
ENDBRANCH  13  14
ENDBRANCH   1  13
TORSDOF 20
ENDMDL
MODEL 2
REMARK VINA RESULT:    -4.579      3.223      6.296
REMARK INTER + INTRA:         -12.976
REMARK INTER:                  -9.617
REMARK INTRA:                  -3.358
REMARK UNBOUND:                -3.044
REMARK SMILES CCCCCCCCCCCCCCCCCCCCCC(=O)[O-]
REMARK SMILES IDX 12 1 11 2 10 3 9 4 8 5 7 6 6 7 5 8 4 9 3 10 2 11 1 12 13 13
REMARK SMILES IDX 14 14 15 15 16 16 17 17 18 18 19 19 20 20 21 21 22 22 23 23
REMARK SMILES IDX 24 24
REMARK H PARENT
REMARK Flexibility Score: inf
ROOT
ATOM      1  C   UNL     1     -20.776   0.810  26.412  1.00  0.00     0.000 C 
ENDROOT
BRANCH   1   2
ATOM      2  C   UNL     1     -19.321   0.314  26.358  1.00  0.00     0.000 C 
BRANCH   2   3
ATOM      3  C   UNL     1     -18.700   0.150  27.757  1.00  0.00     0.000 C 
BRANCH   3   4
ATOM      4  C   UNL     1     -19.488   0.813  28.904  1.00  0.00    -0.000 C 
BRANCH   4   5
ATOM      5  C   UNL     1     -20.140  -0.163  29.899  1.00  0.00    -0.000 C 
BRANCH   5   6
ATOM      6  C   UNL     1     -20.283  -1.585  29.330  1.00  0.00    -0.000 C 
BRANCH   6   7
ATOM      7  C   UNL     1     -19.467  -2.624  30.120  1.00  0.00    -0.000 C 
BRANCH   7   8
ATOM      8  C   UNL     1     -18.051  -2.891  29.573  1.00  0.00    -0.000 C 
BRANCH   8   9
ATOM      9  C   UNL     1     -16.945  -2.816  30.647  1.00  0.00    -0.000 C 
BRANCH   9  10
ATOM     10  C   UNL     1     -16.760  -1.386  31.186  1.00  0.00    -0.000 C 
BRANCH  10  11
ATOM     11  C   UNL     1     -17.228  -1.237  32.641  1.00  0.00    -0.003 C 
ATOM     12  C   UNL     1     -17.599  -2.573  33.282  1.00  0.00     0.004 C 
ENDBRANCH  10  11
ENDBRANCH   9  10
ENDBRANCH   8   9
ENDBRANCH   7   8
ENDBRANCH   6   7
ENDBRANCH   5   6
ENDBRANCH   4   5
ENDBRANCH   3   4
ENDBRANCH   2   3
ENDBRANCH   1   2
BRANCH   1  13
ATOM     13  C   UNL     1     -21.747  -0.125  25.676  1.00  0.00     0.000 C 
BRANCH  13  14
ATOM     14  C   UNL     1     -23.132  -0.194  26.349  1.00  0.00     0.000 C 
BRANCH  14  15
ATOM     15  C   UNL     1     -23.144   0.487  27.727  1.00  0.00     0.000 C 
BRANCH  15  16
ATOM     16  C   UNL     1     -23.787  -0.391  28.814  1.00  0.00     0.000 C 
BRANCH  16  17
ATOM     17  C   UNL     1     -23.887  -1.877  28.408  1.00  0.00     0.000 C 
BRANCH  17  18
ATOM     18  C   UNL     1     -24.125  -2.863  29.573  1.00  0.00     0.000 C 
BRANCH  18  19
ATOM     19  C   UNL     1     -23.392  -2.498  30.879  1.00  0.00     0.000 C 
BRANCH  19  20
ATOM     20  C   UNL     1     -23.295  -3.688  31.850  1.00  0.00     0.006 C 
BRANCH  20  21
ATOM     21  C   UNL     1     -22.152  -4.638  31.474  1.00  0.00     0.053 C 
BRANCH  21  22
ATOM     22  C   UNL     1     -21.616  -5.350  32.680  1.00  0.00     0.041 C 
ATOM     23  O   UNL     1     -20.818  -4.762  33.458  1.00  0.00    -0.550 OA
ATOM     24  O   UNL     1     -22.018  -6.652  32.956  1.00  0.00    -0.550 OA
ENDBRANCH  21  22
ENDBRANCH  20  21
ENDBRANCH  19  20
ENDBRANCH  18  19
ENDBRANCH  17  18
ENDBRANCH  16  17
ENDBRANCH  15  16
ENDBRANCH  14  15
ENDBRANCH  13  14
ENDBRANCH   1  13
TORSDOF 20
ENDMDL
MODEL 3
REMARK VINA RESULT:    -4.571      3.081      7.076
REMARK INTER + INTRA:         -12.958
REMARK INTER:                 -10.469
REMARK INTRA:                  -2.489
REMARK UNBOUND:                -3.044
REMARK SMILES CCCCCCCCCCCCCCCCCCCCCC(=O)[O-]
REMARK SMILES IDX 12 1 11 2 10 3 9 4 8 5 7 6 6 7 5 8 4 9 3 10 2 11 1 12 13 13
REMARK SMILES IDX 14 14 15 15 16 16 17 17 18 18 19 19 20 20 21 21 22 22 23 23
REMARK SMILES IDX 24 24
REMARK H PARENT
REMARK Flexibility Score: inf
ROOT
ATOM      1  C   UNL     1     -19.458   0.260  27.222  1.00  0.00     0.000 C 
ENDROOT
BRANCH   1   2
ATOM      2  C   UNL     1     -19.250   0.740  28.667  1.00  0.00     0.000 C 
BRANCH   2   3
ATOM      3  C   UNL     1     -19.001  -0.422  29.646  1.00  0.00     0.000 C 
BRANCH   3   4
ATOM      4  C   UNL     1     -18.530  -1.737  28.993  1.00  0.00    -0.000 C 
BRANCH   4   5
ATOM      5  C   UNL     1     -18.427  -2.940  29.946  1.00  0.00    -0.000 C 
BRANCH   5   6
ATOM      6  C   UNL     1     -18.413  -2.525  31.428  1.00  0.00    -0.000 C 
BRANCH   6   7
ATOM      7  C   UNL     1     -16.994  -2.502  32.023  1.00  0.00    -0.000 C 
BRANCH   7   8
ATOM      8  C   UNL     1     -16.394  -1.096  32.224  1.00  0.00    -0.000 C 
BRANCH   8   9
ATOM      9  C   UNL     1     -15.524  -0.616  31.042  1.00  0.00    -0.000 C 
BRANCH   9  10
ATOM     10  C   UNL     1     -14.146  -0.114  31.508  1.00  0.00    -0.000 C 
BRANCH  10  11
ATOM     11  C   UNL     1     -13.314   0.479  30.361  1.00  0.00    -0.003 C 
ATOM     12  C   UNL     1     -14.040   1.602  29.623  1.00  0.00     0.004 C 
ENDBRANCH  10  11
ENDBRANCH   9  10
ENDBRANCH   8   9
ENDBRANCH   7   8
ENDBRANCH   6   7
ENDBRANCH   5   6
ENDBRANCH   4   5
ENDBRANCH   3   4
ENDBRANCH   2   3
ENDBRANCH   1   2
BRANCH   1  13
ATOM     13  C   UNL     1     -20.515   1.084  26.471  1.00  0.00     0.000 C 
BRANCH  13  14
ATOM     14  C   UNL     1     -21.462   0.209  25.627  1.00  0.00     0.000 C 
BRANCH  14  15
ATOM     15  C   UNL     1     -22.814  -0.023  26.320  1.00  0.00     0.000 C 
BRANCH  15  16
ATOM     16  C   UNL     1     -22.824   0.477  27.775  1.00  0.00     0.000 C 
BRANCH  16  17
ATOM     17  C   UNL     1     -23.501  -0.512  28.747  1.00  0.00     0.000 C 
BRANCH  17  18
ATOM     18  C   UNL     1     -22.608  -1.013  29.904  1.00  0.00     0.000 C 
BRANCH  18  19
ATOM     19  C   UNL     1     -22.113  -2.463  29.747  1.00  0.00     0.000 C 
BRANCH  19  20
ATOM     20  C   UNL     1     -22.898  -3.451  30.627  1.00  0.00     0.006 C 
BRANCH  20  21
ATOM     21  C   UNL     1     -21.984  -4.524  31.232  1.00  0.00     0.053 C 
BRANCH  21  22
ATOM     22  C   UNL     1     -21.925  -4.411  32.726  1.00  0.00     0.041 C 
ATOM     23  O   UNL     1     -22.948  -4.064  33.376  1.00  0.00    -0.550 OA
ATOM     24  O   UNL     1     -20.747  -4.712  33.401  1.00  0.00    -0.550 OA
ENDBRANCH  21  22
ENDBRANCH  20  21
ENDBRANCH  19  20
ENDBRANCH  18  19
ENDBRANCH  17  18
ENDBRANCH  16  17
ENDBRANCH  15  16
ENDBRANCH  14  15
ENDBRANCH  13  14
ENDBRANCH   1  13
TORSDOF 20
ENDMDL
MODEL 4
REMARK VINA RESULT:    -4.494      3.044      7.233
REMARK INTER + INTRA:         -12.793
REMARK INTER:                  -9.772
REMARK INTRA:                  -3.021
REMARK UNBOUND:                -3.044
REMARK SMILES CCCCCCCCCCCCCCCCCCCCCC(=O)[O-]
REMARK SMILES IDX 12 1 11 2 10 3 9 4 8 5 7 6 6 7 5 8 4 9 3 10 2 11 1 12 13 13
REMARK SMILES IDX 14 14 15 15 16 16 17 17 18 18 19 19 20 20 21 21 22 22 23 23
REMARK SMILES IDX 24 24
REMARK H PARENT
REMARK Flexibility Score: inf
ROOT
ATOM      1  C   UNL     1     -18.335  -0.033  28.413  1.00  0.00     0.000 C 
ENDROOT
BRANCH   1   2
ATOM      2  C   UNL     1     -19.278  -0.112  29.624  1.00  0.00     0.000 C 
BRANCH   2   3
ATOM      3  C   UNL     1     -19.908  -1.506  29.793  1.00  0.00     0.000 C 
BRANCH   3   4
ATOM      4  C   UNL     1     -18.973  -2.689  29.473  1.00  0.00    -0.000 C 
BRANCH   4   5
ATOM      5  C   UNL     1     -18.618  -3.585  30.672  1.00  0.00    -0.000 C 
BRANCH   5   6
ATOM      6  C   UNL     1     -18.463  -2.793  31.981  1.00  0.00    -0.000 C 
BRANCH   6   7
ATOM      7  C   UNL     1     -16.996  -2.447  32.294  1.00  0.00    -0.000 C 
BRANCH   7   8
ATOM      8  C   UNL     1     -16.642  -0.951  32.181  1.00  0.00    -0.000 C 
BRANCH   8   9
ATOM      9  C   UNL     1     -15.650  -0.630  31.042  1.00  0.00    -0.000 C 
BRANCH   9  10
ATOM     10  C   UNL     1     -14.263  -0.236  31.581  1.00  0.00    -0.000 C 
BRANCH  10  11
ATOM     11  C   UNL     1     -13.350   0.348  30.491  1.00  0.00    -0.003 C 
ATOM     12  C   UNL     1     -14.011   1.482  29.711  1.00  0.00     0.004 C 
ENDBRANCH  10  11
ENDBRANCH   9  10
ENDBRANCH   8   9
ENDBRANCH   7   8
ENDBRANCH   6   7
ENDBRANCH   5   6
ENDBRANCH   4   5
ENDBRANCH   3   4
ENDBRANCH   2   3
ENDBRANCH   1   2
BRANCH   1  13
ATOM     13  C   UNL     1     -18.579   1.216  27.553  1.00  0.00     0.000 C 
BRANCH  13  14
ATOM     14  C   UNL     1     -20.076   1.560  27.417  1.00  0.00     0.000 C 
BRANCH  14  15
ATOM     15  C   UNL     1     -20.735   0.832  26.235  1.00  0.00     0.000 C 
BRANCH  15  16
ATOM     16  C   UNL     1     -21.869  -0.109  26.679  1.00  0.00     0.000 C 
BRANCH  16  17
ATOM     17  C   UNL     1     -22.704   0.461  27.845  1.00  0.00     0.000 C 
BRANCH  17  18
ATOM     18  C   UNL     1     -23.382  -0.594  28.746  1.00  0.00     0.000 C 
BRANCH  18  19
ATOM     19  C   UNL     1     -23.050  -2.053  28.383  1.00  0.00     0.000 C 
BRANCH  19  20
ATOM     20  C   UNL     1     -23.680  -3.060  29.361  1.00  0.00     0.006 C 
BRANCH  20  21
ATOM     21  C   UNL     1     -23.006  -4.435  29.276  1.00  0.00     0.053 C 
BRANCH  21  22
ATOM     22  C   UNL     1     -22.285  -4.768  30.548  1.00  0.00     0.041 C 
ATOM     23  O   UNL     1     -22.041  -3.865  31.392  1.00  0.00    -0.550 OA
ATOM     24  O   UNL     1     -21.907  -6.080  30.811  1.00  0.00    -0.550 OA
ENDBRANCH  21  22
ENDBRANCH  20  21
ENDBRANCH  19  20
ENDBRANCH  18  19
ENDBRANCH  17  18
ENDBRANCH  16  17
ENDBRANCH  15  16
ENDBRANCH  14  15
ENDBRANCH  13  14
ENDBRANCH   1  13
TORSDOF 20
ENDMDL
MODEL 5
REMARK VINA RESULT:    -4.459      3.313      6.243
REMARK INTER + INTRA:         -12.716
REMARK INTER:                  -9.955
REMARK INTRA:                  -2.760
REMARK UNBOUND:                -3.044
REMARK SMILES CCCCCCCCCCCCCCCCCCCCCC(=O)[O-]
REMARK SMILES IDX 12 1 11 2 10 3 9 4 8 5 7 6 6 7 5 8 4 9 3 10 2 11 1 12 13 13
REMARK SMILES IDX 14 14 15 15 16 16 17 17 18 18 19 19 20 20 21 21 22 22 23 23
REMARK SMILES IDX 24 24
REMARK H PARENT
REMARK Flexibility Score: inf
ROOT
ATOM      1  C   UNL     1     -22.137  -1.479  29.489  1.00  0.00     0.000 C 
ENDROOT
BRANCH   1   2
ATOM      2  C   UNL     1     -22.891  -0.171  29.197  1.00  0.00     0.000 C 
BRANCH   2   3
ATOM      3  C   UNL     1     -22.225   0.660  28.087  1.00  0.00     0.000 C 
BRANCH   3   4
ATOM      4  C   UNL     1     -21.797  -0.138  26.840  1.00  0.00    -0.000 C 
BRANCH   4   5
ATOM      5  C   UNL     1     -20.367   0.140  26.343  1.00  0.00    -0.000 C 
BRANCH   5   6
ATOM      6  C   UNL     1     -19.687   1.290  27.105  1.00  0.00    -0.000 C 
BRANCH   6   7
ATOM      7  C   UNL     1     -18.452   0.827  27.898  1.00  0.00    -0.000 C 
BRANCH   7   8
ATOM      8  C   UNL     1     -18.528  -0.616  28.436  1.00  0.00    -0.000 C 
BRANCH   8   9
ATOM      9  C   UNL     1     -18.715  -0.700  29.966  1.00  0.00    -0.000 C 
BRANCH   9  10
ATOM     10  C   UNL     1     -17.791  -1.755  30.603  1.00  0.00    -0.000 C 
BRANCH  10  11
ATOM     11  C   UNL     1     -17.217  -1.299  31.953  1.00  0.00    -0.003 C 
ATOM     12  C   UNL     1     -17.548  -2.261  33.091  1.00  0.00     0.004 C 
ENDBRANCH  10  11
ENDBRANCH   9  10
ENDBRANCH   8   9
ENDBRANCH   7   8
ENDBRANCH   6   7
ENDBRANCH   5   6
ENDBRANCH   4   5
ENDBRANCH   3   4
ENDBRANCH   2   3
ENDBRANCH   1   2
BRANCH   1  13
ATOM     13  C   UNL     1     -23.020  -2.723  29.308  1.00  0.00     0.000 C 
BRANCH  13  14
ATOM     14  C   UNL     1     -22.260  -4.036  29.585  1.00  0.00     0.000 C 
BRANCH  14  15
ATOM     15  C   UNL     1     -20.827  -3.786  30.081  1.00  0.00     0.000 C 
BRANCH  15  16
ATOM     16  C   UNL     1     -19.896  -4.984  29.826  1.00  0.00     0.000 C 
BRANCH  16  17
ATOM     17  C   UNL     1     -20.659  -6.272  29.452  1.00  0.00     0.000 C 
BRANCH  17  18
ATOM     18  C   UNL     1     -20.673  -7.369  30.538  1.00  0.00     0.000 C 
BRANCH  18  19
ATOM     19  C   UNL     1     -21.869  -7.296  31.506  1.00  0.00     0.000 C 
BRANCH  19  20
ATOM     20  C   UNL     1     -21.458  -7.538  32.969  1.00  0.00     0.006 C 
BRANCH  20  21
ATOM     21  C   UNL     1     -22.094  -6.514  33.916  1.00  0.00     0.053 C 
BRANCH  21  22
ATOM     22  C   UNL     1     -21.868  -5.112  33.433  1.00  0.00     0.041 C 
ATOM     23  O   UNL     1     -20.702  -4.638  33.389  1.00  0.00    -0.550 OA
ATOM     24  O   UNL     1     -22.945  -4.340  33.008  1.00  0.00    -0.550 OA
ENDBRANCH  21  22
ENDBRANCH  20  21
ENDBRANCH  19  20
ENDBRANCH  18  19
ENDBRANCH  17  18
ENDBRANCH  16  17
ENDBRANCH  15  16
ENDBRANCH  14  15
ENDBRANCH  13  14
ENDBRANCH   1  13
TORSDOF 20
ENDMDL
MODEL 6
REMARK VINA RESULT:    -4.430      2.176      4.582
REMARK INTER + INTRA:         -12.653
REMARK INTER:                 -10.431
REMARK INTRA:                  -2.222
REMARK UNBOUND:                -3.044
REMARK SMILES CCCCCCCCCCCCCCCCCCCCCC(=O)[O-]
REMARK SMILES IDX 12 1 11 2 10 3 9 4 8 5 7 6 6 7 5 8 4 9 3 10 2 11 1 12 13 13
REMARK SMILES IDX 14 14 15 15 16 16 17 17 18 18 19 19 20 20 21 21 22 22 23 23
REMARK SMILES IDX 24 24
REMARK H PARENT
REMARK Flexibility Score: inf
ROOT
ATOM      1  C   UNL     1     -22.808  -0.605  28.374  1.00  0.00     0.000 C 
ENDROOT
BRANCH   1   2
ATOM      2  C   UNL     1     -23.435  -1.926  27.898  1.00  0.00     0.000 C 
BRANCH   2   3
ATOM      3  C   UNL     1     -23.395  -3.022  28.978  1.00  0.00     0.000 C 
BRANCH   3   4
ATOM      4  C   UNL     1     -22.369  -2.793  30.104  1.00  0.00    -0.000 C 
BRANCH   4   5
ATOM      5  C   UNL     1     -21.954  -4.056  30.879  1.00  0.00    -0.000 C 
BRANCH   5   6
ATOM      6  C   UNL     1     -21.420  -5.168  29.961  1.00  0.00    -0.000 C 
BRANCH   6   7
ATOM      7  C   UNL     1     -21.081  -6.459  30.728  1.00  0.00    -0.000 C 
BRANCH   7   8
ATOM      8  C   UNL     1     -22.299  -7.308  31.142  1.00  0.00    -0.000 C 
BRANCH   8   9
ATOM      9  C   UNL     1     -22.306  -7.699  32.636  1.00  0.00    -0.000 C 
BRANCH   9  10
ATOM     10  C   UNL     1     -21.171  -7.012  33.417  1.00  0.00    -0.000 C 
BRANCH  10  11
ATOM     11  C   UNL     1     -21.127  -7.438  34.892  1.00  0.00    -0.003 C 
ATOM     12  C   UNL     1     -19.993  -6.769  35.667  1.00  0.00     0.004 C 
ENDBRANCH  10  11
ENDBRANCH   9  10
ENDBRANCH   8   9
ENDBRANCH   7   8
ENDBRANCH   6   7
ENDBRANCH   5   6
ENDBRANCH   4   5
ENDBRANCH   3   4
ENDBRANCH   2   3
ENDBRANCH   1   2
BRANCH   1  13
ATOM     13  C   UNL     1     -22.804   0.474  27.282  1.00  0.00     0.000 C 
BRANCH  13  14
ATOM     14  C   UNL     1     -22.123   0.003  25.982  1.00  0.00     0.000 C 
BRANCH  14  15
ATOM     15  C   UNL     1     -20.594  -0.072  26.120  1.00  0.00     0.000 C 
BRANCH  15  16
ATOM     16  C   UNL     1     -19.966   1.285  26.483  1.00  0.00     0.000 C 
BRANCH  16  17
ATOM     17  C   UNL     1     -19.005   1.202  27.686  1.00  0.00     0.000 C 
BRANCH  17  18
ATOM     18  C   UNL     1     -18.787  -0.216  28.258  1.00  0.00     0.000 C 
BRANCH  18  19
ATOM     19  C   UNL     1     -19.248  -0.395  29.717  1.00  0.00     0.000 C 
BRANCH  19  20
ATOM     20  C   UNL     1     -18.877  -1.776  30.286  1.00  0.00     0.006 C 
BRANCH  20  21
ATOM     21  C   UNL     1     -17.358  -1.975  30.350  1.00  0.00     0.053 C 
BRANCH  21  22
ATOM     22  C   UNL     1     -16.757  -1.215  31.494  1.00  0.00     0.041 C 
ATOM     23  O   UNL     1     -17.400  -1.073  32.568  1.00  0.00    -0.550 OA
ATOM     24  O   UNL     1     -15.475  -0.686  31.381  1.00  0.00    -0.550 OA
ENDBRANCH  21  22
ENDBRANCH  20  21
ENDBRANCH  19  20
ENDBRANCH  18  19
ENDBRANCH  17  18
ENDBRANCH  16  17
ENDBRANCH  15  16
ENDBRANCH  14  15
ENDBRANCH  13  14
ENDBRANCH   1  13
TORSDOF 20
ENDMDL
MODEL 7
REMARK VINA RESULT:    -4.414      3.455      6.337
REMARK INTER + INTRA:         -12.618
REMARK INTER:                 -10.049
REMARK INTRA:                  -2.569
REMARK UNBOUND:                -3.044
REMARK SMILES CCCCCCCCCCCCCCCCCCCCCC(=O)[O-]
REMARK SMILES IDX 12 1 11 2 10 3 9 4 8 5 7 6 6 7 5 8 4 9 3 10 2 11 1 12 13 13
REMARK SMILES IDX 14 14 15 15 16 16 17 17 18 18 19 19 20 20 21 21 22 22 23 23
REMARK SMILES IDX 24 24
REMARK H PARENT
REMARK Flexibility Score: inf
ROOT
ATOM      1  C   UNL     1     -22.865   0.659  27.800  1.00  0.00     0.000 C 
ENDROOT
BRANCH   1   2
ATOM      2  C   UNL     1     -22.370  -0.042  26.524  1.00  0.00     0.000 C 
BRANCH   2   3
ATOM      3  C   UNL     1     -20.844   0.052  26.351  1.00  0.00     0.000 C 
BRANCH   3   4
ATOM      4  C   UNL     1     -20.186   1.279  27.014  1.00  0.00    -0.000 C 
BRANCH   4   5
ATOM      5  C   UNL     1     -19.298   0.967  28.232  1.00  0.00    -0.000 C 
BRANCH   5   6
ATOM      6  C   UNL     1     -18.920  -0.522  28.326  1.00  0.00    -0.000 C 
BRANCH   6   7
ATOM      7  C   UNL     1     -19.496  -1.201  29.582  1.00  0.00    -0.000 C 
BRANCH   7   8
ATOM      8  C   UNL     1     -19.028  -2.652  29.809  1.00  0.00    -0.000 C 
BRANCH   8   9
ATOM      9  C   UNL     1     -17.657  -2.761  30.509  1.00  0.00    -0.000 C 
BRANCH   9  10
ATOM     10  C   UNL     1     -17.741  -2.399  32.003  1.00  0.00    -0.000 C 
BRANCH  10  11
ATOM     11  C   UNL     1     -17.028  -1.079  32.332  1.00  0.00    -0.003 C 
ATOM     12  C   UNL     1     -15.794  -0.841  31.464  1.00  0.00     0.004 C 
ENDBRANCH  10  11
ENDBRANCH   9  10
ENDBRANCH   8   9
ENDBRANCH   7   8
ENDBRANCH   6   7
ENDBRANCH   5   6
ENDBRANCH   4   5
ENDBRANCH   3   4
ENDBRANCH   2   3
ENDBRANCH   1   2
BRANCH   1  13
ATOM     13  C   UNL     1     -23.193  -0.329  28.928  1.00  0.00     0.000 C 
BRANCH  13  14
ATOM     14  C   UNL     1     -22.918  -1.794  28.534  1.00  0.00     0.000 C 
BRANCH  14  15
ATOM     15  C   UNL     1     -22.978  -2.743  29.741  1.00  0.00     0.000 C 
BRANCH  15  16
ATOM     16  C   UNL     1     -22.447  -4.149  29.415  1.00  0.00     0.000 C 
BRANCH  16  17
ATOM     17  C   UNL     1     -21.900  -4.890  30.653  1.00  0.00     0.000 C 
BRANCH  17  18
ATOM     18  C   UNL     1     -20.910  -6.036  30.350  1.00  0.00     0.000 C 
BRANCH  18  19
ATOM     19  C   UNL     1     -21.252  -7.373  31.035  1.00  0.00     0.000 C 
BRANCH  19  20
ATOM     20  C   UNL     1     -22.261  -7.205  32.184  1.00  0.00     0.006 C 
BRANCH  20  21
ATOM     21  C   UNL     1     -21.729  -7.789  33.499  1.00  0.00     0.053 C 
BRANCH  21  22
ATOM     22  C   UNL     1     -20.948  -6.769  34.272  1.00  0.00     0.041 C 
ATOM     23  O   UNL     1     -20.230  -7.125  35.244  1.00  0.00    -0.550 OA
ATOM     24  O   UNL     1     -20.996  -5.429  33.902  1.00  0.00    -0.550 OA
ENDBRANCH  21  22
ENDBRANCH  20  21
ENDBRANCH  19  20
ENDBRANCH  18  19
ENDBRANCH  17  18
ENDBRANCH  16  17
ENDBRANCH  15  16
ENDBRANCH  14  15
ENDBRANCH  13  14
ENDBRANCH   1  13
TORSDOF 20
ENDMDL
MODEL 8
REMARK VINA RESULT:    -4.395      2.359      4.645
REMARK INTER + INTRA:         -12.577
REMARK INTER:                 -10.315
REMARK INTRA:                  -2.263
REMARK UNBOUND:                -3.044
REMARK SMILES CCCCCCCCCCCCCCCCCCCCCC(=O)[O-]
REMARK SMILES IDX 12 1 11 2 10 3 9 4 8 5 7 6 6 7 5 8 4 9 3 10 2 11 1 12 13 13
REMARK SMILES IDX 14 14 15 15 16 16 17 17 18 18 19 19 20 20 21 21 22 22 23 23
REMARK SMILES IDX 24 24
REMARK H PARENT
REMARK Flexibility Score: inf
ROOT
ATOM      1  C   UNL     1     -23.765   0.360  28.105  1.00  0.00     0.000 C 
ENDROOT
BRANCH   1   2
ATOM      2  C   UNL     1     -24.016  -0.615  29.267  1.00  0.00     0.000 C 
BRANCH   2   3
ATOM      3  C   UNL     1     -22.737  -0.931  30.061  1.00  0.00     0.000 C 
BRANCH   3   4
ATOM      4  C   UNL     1     -21.978  -2.193  29.603  1.00  0.00    -0.000 C 
BRANCH   4   5
ATOM      5  C   UNL     1     -22.795  -3.496  29.638  1.00  0.00    -0.000 C 
BRANCH   5   6
ATOM      6  C   UNL     1     -21.925  -4.749  29.436  1.00  0.00    -0.000 C 
BRANCH   6   7
ATOM      7  C   UNL     1     -20.992  -5.021  30.629  1.00  0.00    -0.000 C 
BRANCH   7   8
ATOM      8  C   UNL     1     -21.695  -5.545  31.898  1.00  0.00    -0.000 C 
BRANCH   8   9
ATOM      9  C   UNL     1     -21.930  -7.071  31.894  1.00  0.00    -0.000 C 
BRANCH   9  10
ATOM     10  C   UNL     1     -21.674  -7.697  33.277  1.00  0.00    -0.000 C 
BRANCH  10  11
ATOM     11  C   UNL     1     -21.470  -6.643  34.375  1.00  0.00    -0.003 C 
ATOM     12  C   UNL     1     -20.293  -6.966  35.294  1.00  0.00     0.004 C 
ENDBRANCH  10  11
ENDBRANCH   9  10
ENDBRANCH   8   9
ENDBRANCH   7   8
ENDBRANCH   6   7
ENDBRANCH   5   6
ENDBRANCH   4   5
ENDBRANCH   3   4
ENDBRANCH   2   3
ENDBRANCH   1   2
BRANCH   1  13
ATOM     13  C   UNL     1     -23.693  -0.347  26.744  1.00  0.00     0.000 C 
BRANCH  13  14
ATOM     14  C   UNL     1     -22.658   0.291  25.796  1.00  0.00     0.000 C 
BRANCH  14  15
ATOM     15  C   UNL     1     -21.216  -0.078  26.176  1.00  0.00     0.000 C 
BRANCH  15  16
ATOM     16  C   UNL     1     -20.329   1.160  26.400  1.00  0.00     0.000 C 
BRANCH  16  17
ATOM     17  C   UNL     1     -20.281   1.608  27.876  1.00  0.00     0.000 C 
BRANCH  17  18
ATOM     18  C   UNL     1     -19.731   0.558  28.865  1.00  0.00     0.000 C 
BRANCH  18  19
ATOM     19  C   UNL     1     -18.520  -0.239  28.344  1.00  0.00     0.000 C 
BRANCH  19  20
ATOM     20  C   UNL     1     -18.163  -1.429  29.251  1.00  0.00     0.006 C 
BRANCH  20  21
ATOM     21  C   UNL     1     -18.185  -1.040  30.735  1.00  0.00     0.053 C 
BRANCH  21  22
ATOM     22  C   UNL     1     -17.586  -2.116  31.589  1.00  0.00     0.041 C 
ATOM     23  O   UNL     1     -16.926  -3.050  31.060  1.00  0.00    -0.550 OA
ATOM     24  O   UNL     1     -17.736  -2.073  32.971  1.00  0.00    -0.550 OA
ENDBRANCH  21  22
ENDBRANCH  20  21
ENDBRANCH  19  20
ENDBRANCH  18  19
ENDBRANCH  17  18
ENDBRANCH  16  17
ENDBRANCH  15  16
ENDBRANCH  14  15
ENDBRANCH  13  14
ENDBRANCH   1  13
TORSDOF 20
ENDMDL
MODEL 9
REMARK VINA RESULT:    -4.230      3.401      6.238
REMARK INTER + INTRA:         -12.219
REMARK INTER:                  -9.543
REMARK INTRA:                  -2.676
REMARK UNBOUND:                -3.044
REMARK SMILES CCCCCCCCCCCCCCCCCCCCCC(=O)[O-]
REMARK SMILES IDX 12 1 11 2 10 3 9 4 8 5 7 6 6 7 5 8 4 9 3 10 2 11 1 12 13 13
REMARK SMILES IDX 14 14 15 15 16 16 17 17 18 18 19 19 20 20 21 21 22 22 23 23
REMARK SMILES IDX 24 24
REMARK H PARENT
REMARK Flexibility Score: inf
ROOT
ATOM      1  C   UNL     1     -23.153  -0.232  27.889  1.00  0.00     0.000 C 
ENDROOT
BRANCH   1   2
ATOM      2  C   UNL     1     -23.312  -0.194  26.361  1.00  0.00     0.000 C 
BRANCH   2   3
ATOM      3  C   UNL     1     -22.121   0.482  25.659  1.00  0.00     0.000 C 
BRANCH   3   4
ATOM      4  C   UNL     1     -20.732   0.067  26.184  1.00  0.00    -0.000 C 
BRANCH   4   5
ATOM      5  C   UNL     1     -19.890   1.208  26.781  1.00  0.00    -0.000 C 
BRANCH   5   6
ATOM      6  C   UNL     1     -18.991   0.741  27.938  1.00  0.00    -0.000 C 
BRANCH   6   7
ATOM      7  C   UNL     1     -19.780   0.486  29.235  1.00  0.00    -0.000 C 
BRANCH   7   8
ATOM      8  C   UNL     1     -19.750  -0.971  29.739  1.00  0.00    -0.000 C 
BRANCH   8   9
ATOM      9  C   UNL     1     -18.566  -1.796  29.189  1.00  0.00    -0.000 C 
BRANCH   9  10
ATOM     10  C   UNL     1     -17.762  -2.472  30.315  1.00  0.00    -0.000 C 
BRANCH  10  11
ATOM     11  C   UNL     1     -17.562  -1.555  31.531  1.00  0.00    -0.003 C 
ATOM     12  C   UNL     1     -16.139  -1.011  31.634  1.00  0.00     0.004 C 
ENDBRANCH  10  11
ENDBRANCH   9  10
ENDBRANCH   8   9
ENDBRANCH   7   8
ENDBRANCH   6   7
ENDBRANCH   5   6
ENDBRANCH   4   5
ENDBRANCH   3   4
ENDBRANCH   2   3
ENDBRANCH   1   2
BRANCH   1  13
ATOM     13  C   UNL     1     -23.213  -1.659  28.455  1.00  0.00     0.000 C 
BRANCH  13  14
ATOM     14  C   UNL     1     -23.698  -2.690  27.416  1.00  0.00     0.000 C 
BRANCH  14  15
ATOM     15  C   UNL     1     -23.805  -4.105  28.007  1.00  0.00     0.000 C 
BRANCH  15  16
ATOM     16  C   UNL     1     -23.494  -5.202  26.975  1.00  0.00     0.000 C 
BRANCH  16  17
ATOM     17  C   UNL     1     -22.357  -6.144  27.420  1.00  0.00     0.000 C 
BRANCH  17  18
ATOM     18  C   UNL     1     -22.063  -6.150  28.937  1.00  0.00     0.000 C 
BRANCH  18  19
ATOM     19  C   UNL     1     -20.800  -5.369  29.347  1.00  0.00     0.000 C 
BRANCH  19  20
ATOM     20  C   UNL     1     -20.827  -4.943  30.825  1.00  0.00     0.006 C 
BRANCH  20  21
ATOM     21  C   UNL     1     -21.983  -5.602  31.587  1.00  0.00     0.053 C 
BRANCH  21  22
ATOM     22  C   UNL     1     -21.970  -5.216  33.036  1.00  0.00     0.041 C 
ATOM     23  O   UNL     1     -21.246  -5.846  33.853  1.00  0.00    -0.550 OA
ATOM     24  O   UNL     1     -22.740  -4.145  33.478  1.00  0.00    -0.550 OA
ENDBRANCH  21  22
ENDBRANCH  20  21
ENDBRANCH  19  20
ENDBRANCH  18  19
ENDBRANCH  17  18
ENDBRANCH  16  17
ENDBRANCH  15  16
ENDBRANCH  14  15
ENDBRANCH  13  14
ENDBRANCH   1  13
TORSDOF 20
ENDMDL
