MODEL 1
REMARK VINA RESULT:    -6.962      0.000      0.000
REMARK INTER + INTRA:          -8.845
REMARK INTER:                  -8.183
REMARK INTRA:                  -0.662
REMARK UNBOUND:                -0.662
REMARK SMILES C=C(C)[C@@H]1CC[C@]2(CO)CC[C@@]3(C)[C@H](CC[C@@H]4[C@@]5(C)CC[C@H](O)C(C)(C)[C@@H]5CC[C@@]43C)[C@@H]12
REMARK SMILES IDX 4 1 5 2 6 3 7 4 32 5 14 6 15 7 16 8 17 9 18 10 20 11 21 12
REMARK SMILES IDX 22 13 24 14 27 15 28 16 29 17 30 18 12 19 11 20 10 21 13 22
REMARK SMILES IDX 31 23 25 24 26 25 19 26 2 27 3 28 1 29 8 30 9 31 23 33
REMARK H PARENT 9 32 23 34
REMARK Flexibility Score: inf
ROOT
ATOM      1  C   UNL     1     107.555 100.464  99.477  1.00  0.00     0.018 C 
ATOM      2  C   UNL     1     108.723 101.386  99.007  1.00  0.00     0.009 C 
ATOM      3  C   UNL     1     108.425 101.753  97.525  1.00  0.00     0.010 C 
ATOM      4  C   UNL     1     107.457 100.635  97.057  1.00  0.00    -0.003 C 
ATOM      5  C   UNL     1     106.572 100.541  98.307  1.00  0.00     0.008 C 
ATOM      6  C   UNL     1     105.240  99.679  98.264  1.00  0.00    -0.000 C 
ATOM      7  C   UNL     1     104.105 100.640  98.696  1.00  0.00     0.005 C 
ATOM      8  C   UNL     1     102.744 100.019  98.727  1.00  0.00     0.005 C 
ATOM      9  C   UNL     1     102.265  99.590  97.306  1.00  0.00     0.002 C 
ATOM     10  C   UNL     1     100.705  99.120  97.294  1.00  0.00    -0.026 C 
ATOM     11  C   UNL     1      99.965  99.640  96.025  1.00  0.00     0.010 C 
ATOM     12  C   UNL     1      98.507  99.130  95.910  1.00  0.00     0.033 C 
ATOM     13  C   UNL     1      98.397  97.585  95.988  1.00  0.00     0.120 C 
ATOM     14  C   UNL     1      99.147  96.927  97.207  1.00  0.00    -0.006 C 
ATOM     15  C   UNL     1     100.597  97.555  97.257  1.00  0.00     0.003 C 
ATOM     16  C   UNL     1     101.666  96.923  98.155  1.00  0.00     0.005 C 
ATOM     17  C   UNL     1     103.091  97.183  97.579  1.00  0.00     0.008 C 
ATOM     18  C   UNL     1     103.318  98.530  96.748  1.00  0.00    -0.024 C 
ATOM     19  C   UNL     1     104.884  99.034  96.855  1.00  0.00    -0.024 C 
ATOM     20  C   UNL     1     105.247 100.101  95.726  1.00  0.00     0.008 C 
ATOM     21  C   UNL     1     106.498 101.035  95.908  1.00  0.00     0.010 C 
ATOM     22  C   UNL     1     105.766  97.755  96.622  1.00  0.00     0.012 C 
ATOM     23  C   UNL     1     103.057  98.261  95.215  1.00  0.00     0.012 C 
ATOM     24  C   UNL     1      99.254  95.403  96.901  1.00  0.00     0.014 C 
ATOM     25  C   UNL     1      98.353  97.063  98.537  1.00  0.00     0.014 C 
ATOM     26  C   UNL     1      99.958  99.732  98.527  1.00  0.00     0.012 C 
ENDROOT
BRANCH   1  27
ATOM     27  C   UNL     1     106.934 100.884 100.806  1.00  0.00    -0.077 C 
ATOM     28  C   UNL     1     106.445 102.297 100.989  1.00  0.00     0.039 C 
ATOM     29  C   UNL     1     106.844 100.034 101.845  1.00  0.00     0.008 C 
ENDBRANCH   1  27
BRANCH   4  30
ATOM     30  C   UNL     1     108.388  99.402  96.737  1.00  0.00     0.163 C 
BRANCH  30  31
ATOM     31  O   UNL     1     108.706  99.340  95.370  1.00  0.00    -0.396 OA
ATOM     32  H   UNL     1     109.215  98.497  95.230  1.00  0.00     0.210 HD
ENDBRANCH  30  31
ENDBRANCH   4  30
BRANCH  13  33
ATOM     33  O   UNL     1      97.055  97.155  95.913  1.00  0.00    -0.393 OA
ATOM     34  H   UNL     1      96.817  96.708  96.767  1.00  0.00     0.210 HD
ENDBRANCH  13  33
TORSDOF 4
ENDMDL
MODEL 2
REMARK VINA RESULT:    -6.557      1.797      8.136
REMARK INTER + INTRA:          -8.369
REMARK INTER:                  -8.061
REMARK INTRA:                  -0.308
REMARK UNBOUND:                -0.662
REMARK SMILES C=C(C)[C@@H]1CC[C@]2(CO)CC[C@@]3(C)[C@H](CC[C@@H]4[C@@]5(C)CC[C@H](O)C(C)(C)[C@@H]5CC[C@@]43C)[C@@H]12
REMARK SMILES IDX 4 1 5 2 6 3 7 4 32 5 14 6 15 7 16 8 17 9 18 10 20 11 21 12
REMARK SMILES IDX 22 13 24 14 27 15 28 16 29 17 30 18 12 19 11 20 10 21 13 22
REMARK SMILES IDX 31 23 25 24 26 25 19 26 2 27 3 28 1 29 8 30 9 31 23 33
REMARK H PARENT 9 32 23 34
REMARK Flexibility Score: inf
ROOT
ATOM      1  C   UNL     1      98.077  97.308  97.724  1.00  0.00     0.018 C 
ATOM      2  C   UNL     1      96.623  97.664  97.281  1.00  0.00     0.009 C 
ATOM      3  C   UNL     1      96.712  99.021  96.526  1.00  0.00     0.010 C 
ATOM      4  C   UNL     1      98.044  99.635  97.031  1.00  0.00    -0.003 C 
ATOM      5  C   UNL     1      98.916  98.372  97.013  1.00  0.00     0.008 C 
ATOM      6  C   UNL     1     100.484  98.495  97.229  1.00  0.00    -0.000 C 
ATOM      7  C   UNL     1     101.131  97.808  96.002  1.00  0.00     0.005 C 
ATOM      8  C   UNL     1     102.627  97.809  96.007  1.00  0.00     0.005 C 
ATOM      9  C   UNL     1     103.210  99.251  95.900  1.00  0.00     0.002 C 
ATOM     10  C   UNL     1     104.825  99.251  95.681  1.00  0.00    -0.026 C 
ATOM     11  C   UNL     1     105.258 100.341  94.655  1.00  0.00     0.010 C 
ATOM     12  C   UNL     1     106.794 100.457  94.492  1.00  0.00     0.033 C 
ATOM     13  C   UNL     1     107.533 100.677  95.839  1.00  0.00     0.120 C 
ATOM     14  C   UNL     1     107.146  99.665  96.981  1.00  0.00    -0.006 C 
ATOM     15  C   UNL     1     105.567  99.588  97.022  1.00  0.00     0.003 C 
ATOM     16  C   UNL     1     104.872  98.906  98.205  1.00  0.00     0.005 C 
ATOM     17  C   UNL     1     103.455  99.513  98.435  1.00  0.00     0.008 C 
ATOM     18  C   UNL     1     102.676 100.075  97.157  1.00  0.00    -0.024 C 
ATOM     19  C   UNL     1     101.044  99.976  97.367  1.00  0.00    -0.024 C 
ATOM     20  C   UNL     1     100.251 100.895  96.332  1.00  0.00     0.008 C 
ATOM     21  C   UNL     1      98.730 100.617  96.048  1.00  0.00     0.010 C 
ATOM     22  C   UNL     1     100.762 100.515  98.816  1.00  0.00     0.012 C 
ATOM     23  C   UNL     1     102.993 101.611  96.973  1.00  0.00     0.012 C 
ATOM     24  C   UNL     1     107.670 100.271  98.317  1.00  0.00     0.014 C 
ATOM     25  C   UNL     1     107.840  98.284  96.812  1.00  0.00     0.014 C 
ATOM     26  C   UNL     1     105.280  97.876  95.087  1.00  0.00     0.012 C 
ENDROOT
BRANCH   1  27
ATOM     27  C   UNL     1      98.497  95.884  97.372  1.00  0.00    -0.077 C 
ATOM     28  C   UNL     1      98.863  95.542  95.951  1.00  0.00     0.039 C 
ATOM     29  C   UNL     1      98.513  94.903  98.293  1.00  0.00     0.008 C 
ENDBRANCH   1  27
BRANCH   4  30
ATOM     30  C   UNL     1      97.698 100.253  98.441  1.00  0.00     0.163 C 
BRANCH  30  31
ATOM     31  O   UNL     1      97.369 101.614  98.337  1.00  0.00    -0.396 OA
ATOM     32  H   UNL     1      97.580 102.030  99.217  1.00  0.00     0.210 HD
ENDBRANCH  30  31
ENDBRANCH   4  30
BRANCH  13  33
ATOM     33  O   UNL     1     108.931 100.746  95.660  1.00  0.00    -0.393 OA
ATOM     34  H   UNL     1     109.237  99.904  95.234  1.00  0.00     0.210 HD
ENDBRANCH  13  33
TORSDOF 4
ENDMDL
MODEL 3
REMARK VINA RESULT:    -6.549      2.593      7.852
REMARK INTER + INTRA:          -8.359
REMARK INTER:                  -7.672
REMARK INTRA:                  -0.687
REMARK UNBOUND:                -0.662
REMARK SMILES C=C(C)[C@@H]1CC[C@]2(CO)CC[C@@]3(C)[C@H](CC[C@@H]4[C@@]5(C)CC[C@H](O)C(C)(C)[C@@H]5CC[C@@]43C)[C@@H]12
REMARK SMILES IDX 4 1 5 2 6 3 7 4 32 5 14 6 15 7 16 8 17 9 18 10 20 11 21 12
REMARK SMILES IDX 22 13 24 14 27 15 28 16 29 17 30 18 12 19 11 20 10 21 13 22
REMARK SMILES IDX 31 23 25 24 26 25 19 26 2 27 3 28 1 29 8 30 9 31 23 33
REMARK H PARENT 9 32 23 34
REMARK Flexibility Score: inf
ROOT
ATOM      1  C   UNL     1      97.639  97.976 100.014  1.00  0.00     0.018 C 
ATOM      2  C   UNL     1      96.558  98.834 100.743  1.00  0.00     0.009 C 
ATOM      3  C   UNL     1      97.218 100.210 101.045  1.00  0.00     0.010 C 
ATOM      4  C   UNL     1      98.739  99.908 100.991  1.00  0.00    -0.003 C 
ATOM      5  C   UNL     1      98.760  98.988  99.764  1.00  0.00     0.008 C 
ATOM      6  C   UNL     1     100.148  98.567  99.119  1.00  0.00    -0.000 C 
ATOM      7  C   UNL     1     100.059  98.974  97.628  1.00  0.00     0.005 C 
ATOM      8  C   UNL     1     101.281  98.660  96.825  1.00  0.00     0.005 C 
ATOM      9  C   UNL     1     102.519  99.482  97.298  1.00  0.00     0.002 C 
ATOM     10  C   UNL     1     103.792  99.316  96.295  1.00  0.00    -0.026 C 
ATOM     11  C   UNL     1     104.533 100.671  96.090  1.00  0.00     0.010 C 
ATOM     12  C   UNL     1     105.817 100.547  95.232  1.00  0.00     0.033 C 
ATOM     13  C   UNL     1     106.807  99.481  95.770  1.00  0.00     0.120 C 
ATOM     14  C   UNL     1     106.169  98.073  96.066  1.00  0.00    -0.006 C 
ATOM     15  C   UNL     1     104.848  98.323  96.898  1.00  0.00     0.003 C 
ATOM     16  C   UNL     1     104.146  97.143  97.579  1.00  0.00     0.005 C 
ATOM     17  C   UNL     1     103.365  97.623  98.840  1.00  0.00     0.008 C 
ATOM     18  C   UNL     1     102.781  99.110  98.827  1.00  0.00    -0.024 C 
ATOM     19  C   UNL     1     101.438  99.227  99.775  1.00  0.00    -0.024 C 
ATOM     20  C   UNL     1     101.083 100.743 100.126  1.00  0.00     0.008 C 
ATOM     21  C   UNL     1      99.635 101.114 100.612  1.00  0.00     0.010 C 
ATOM     22  C   UNL     1     101.789  98.484 101.114  1.00  0.00     0.012 C 
ATOM     23  C   UNL     1     103.837 100.103  99.453  1.00  0.00     0.012 C 
ATOM     24  C   UNL     1     107.191  97.289  96.942  1.00  0.00     0.014 C 
ATOM     25  C   UNL     1     105.951  97.235  94.773  1.00  0.00     0.014 C 
ATOM     26  C   UNL     1     103.298  98.861  94.881  1.00  0.00     0.012 C 
ENDROOT
BRANCH   1  27
ATOM     27  C   UNL     1      97.138  97.313  98.735  1.00  0.00    -0.077 C 
ATOM     28  C   UNL     1      97.571  95.909  98.401  1.00  0.00     0.039 C 
ATOM     29  C   UNL     1      96.344  97.963  97.864  1.00  0.00     0.008 C 
ENDBRANCH   1  27
BRANCH   4  30
ATOM     30  C   UNL     1      99.072  99.256 102.389  1.00  0.00     0.163 C 
BRANCH  30  31
ATOM     31  O   UNL     1      99.532 100.215 103.306  1.00  0.00    -0.396 OA
ATOM     32  H   UNL     1      98.994 100.103 104.135  1.00  0.00     0.210 HD
ENDBRANCH  30  31
ENDBRANCH   4  30
BRANCH  13  33
ATOM     33  O   UNL     1     107.949  99.370  94.949  1.00  0.00    -0.393 OA
ATOM     34  H   UNL     1     108.081  98.414  94.718  1.00  0.00     0.210 HD
ENDBRANCH  13  33
TORSDOF 4
ENDMDL
MODEL 4
REMARK VINA RESULT:    -6.428      2.086      3.210
REMARK INTER + INTRA:          -8.218
REMARK INTER:                  -7.571
REMARK INTRA:                  -0.647
REMARK UNBOUND:                -0.662
REMARK SMILES C=C(C)[C@@H]1CC[C@]2(CO)CC[C@@]3(C)[C@H](CC[C@@H]4[C@@]5(C)CC[C@H](O)C(C)(C)[C@@H]5CC[C@@]43C)[C@@H]12
REMARK SMILES IDX 4 1 5 2 6 3 7 4 32 5 14 6 15 7 16 8 17 9 18 10 20 11 21 12
REMARK SMILES IDX 22 13 24 14 27 15 28 16 29 17 30 18 12 19 11 20 10 21 13 22
REMARK SMILES IDX 31 23 25 24 26 25 19 26 2 27 3 28 1 29 8 30 9 31 23 33
REMARK H PARENT 9 32 23 34
REMARK Flexibility Score: inf
ROOT
ATOM      1  C   UNL     1     108.839 103.918  97.818  1.00  0.00     0.018 C 
ATOM      2  C   UNL     1     109.790 104.681  96.844  1.00  0.00     0.009 C 
ATOM      3  C   UNL     1     109.562 104.065  95.433  1.00  0.00     0.010 C 
ATOM      4  C   UNL     1     108.946 102.674  95.735  1.00  0.00    -0.003 C 
ATOM      5  C   UNL     1     107.990 103.072  96.867  1.00  0.00     0.008 C 
ATOM      6  C   UNL     1     106.917 102.027  97.394  1.00  0.00    -0.000 C 
ATOM      7  C   UNL     1     105.545 102.736  97.270  1.00  0.00     0.005 C 
ATOM      8  C   UNL     1     104.380 101.915  97.724  1.00  0.00     0.005 C 
ATOM      9  C   UNL     1     104.164 100.660  96.824  1.00  0.00     0.002 C 
ATOM     10  C   UNL     1     102.774  99.883  97.168  1.00  0.00    -0.026 C 
ATOM     11  C   UNL     1     102.061  99.394  95.872  1.00  0.00     0.010 C 
ATOM     12  C   UNL     1     100.789  98.553  96.148  1.00  0.00     0.033 C 
ATOM     13  C   UNL     1     101.050  97.351  97.093  1.00  0.00     0.120 C 
ATOM     14  C   UNL     1     101.811  97.706  98.425  1.00  0.00    -0.006 C 
ATOM     15  C   UNL     1     103.053  98.601  98.029  1.00  0.00     0.003 C 
ATOM     16  C   UNL     1     104.147  98.878  99.065  1.00  0.00     0.005 C 
ATOM     17  C   UNL     1     105.517  99.126  98.363  1.00  0.00     0.008 C 
ATOM     18  C   UNL     1     105.493  99.781  96.906  1.00  0.00    -0.024 C 
ATOM     19  C   UNL     1     106.871 100.639  96.620  1.00  0.00    -0.024 C 
ATOM     20  C   UNL     1     107.076 100.942  95.067  1.00  0.00     0.008 C 
ATOM     21  C   UNL     1     108.039 102.101  94.617  1.00  0.00     0.010 C 
ATOM     22  C   UNL     1     108.056  99.726  97.101  1.00  0.00     0.012 C 
ATOM     23  C   UNL     1     105.460  98.644  95.810  1.00  0.00     0.012 C 
ATOM     24  C   UNL     1     102.314  96.360  99.029  1.00  0.00     0.014 C 
ATOM     25  C   UNL     1     100.878  98.354  99.487  1.00  0.00     0.014 C 
ATOM     26  C   UNL     1     101.780 100.863  97.879  1.00  0.00     0.012 C 
ENDROOT
BRANCH   1  27
ATOM     27  C   UNL     1     108.005 104.833  98.708  1.00  0.00    -0.077 C 
ATOM     28  C   UNL     1     107.789 104.475 100.156  1.00  0.00     0.039 C 
ATOM     29  C   UNL     1     107.415 105.943  98.227  1.00  0.00     0.008 C 
ENDBRANCH   1  27
BRANCH   4  30
ATOM     30  C   UNL     1     110.175 101.761  96.116  1.00  0.00     0.163 C 
BRANCH  30  31
ATOM     31  O   UNL     1     111.229 101.909  95.200  1.00  0.00    -0.396 OA
ATOM     32  H   UNL     1     111.300 102.881  94.997  1.00  0.00     0.210 HD
ENDBRANCH  30  31
ENDBRANCH   4  30
BRANCH  13  33
ATOM     33  O   UNL     1      99.866  96.626  97.350  1.00  0.00    -0.393 OA
ATOM     34  H   UNL     1     100.092  95.843  97.916  1.00  0.00     0.210 HD
ENDBRANCH  13  33
TORSDOF 4
ENDMDL
MODEL 5
REMARK VINA RESULT:    -6.023      1.556      7.770
REMARK INTER + INTRA:          -7.742
REMARK INTER:                  -7.064
REMARK INTRA:                  -0.677
REMARK UNBOUND:                -0.662
REMARK SMILES C=C(C)[C@@H]1CC[C@]2(CO)CC[C@@]3(C)[C@H](CC[C@@H]4[C@@]5(C)CC[C@H](O)C(C)(C)[C@@H]5CC[C@@]43C)[C@@H]12
REMARK SMILES IDX 4 1 5 2 6 3 7 4 32 5 14 6 15 7 16 8 17 9 18 10 20 11 21 12
REMARK SMILES IDX 22 13 24 14 27 15 28 16 29 17 30 18 12 19 11 20 10 21 13 22
REMARK SMILES IDX 31 23 25 24 26 25 19 26 2 27 3 28 1 29 8 30 9 31 23 33
REMARK H PARENT 9 32 23 34
REMARK Flexibility Score: inf
ROOT
ATOM      1  C   UNL     1      97.952  99.445  99.777  1.00  0.00     0.018 C 
ATOM      2  C   UNL     1      96.800  98.445 100.107  1.00  0.00     0.009 C 
ATOM      3  C   UNL     1      97.168  97.104  99.409  1.00  0.00     0.010 C 
ATOM      4  C   UNL     1      98.168  97.528  98.302  1.00  0.00    -0.003 C 
ATOM      5  C   UNL     1      98.991  98.550  99.098  1.00  0.00     0.008 C 
ATOM      6  C   UNL     1     100.332  99.132  98.480  1.00  0.00    -0.000 C 
ATOM      7  C   UNL     1     101.435  98.850  99.530  1.00  0.00     0.005 C 
ATOM      8  C   UNL     1     102.798  99.328  99.142  1.00  0.00     0.005 C 
ATOM      9  C   UNL     1     103.352  98.568  97.898  1.00  0.00     0.002 C 
ATOM     10  C   UNL     1     104.915  98.920  97.603  1.00  0.00    -0.026 C 
ATOM     11  C   UNL     1     105.712  97.650  97.178  1.00  0.00     0.010 C 
ATOM     12  C   UNL     1     107.179  97.948  96.780  1.00  0.00     0.033 C 
ATOM     13  C   UNL     1     107.301  99.038  95.683  1.00  0.00     0.120 C 
ATOM     14  C   UNL     1     106.497 100.361  95.970  1.00  0.00    -0.006 C 
ATOM     15  C   UNL     1     105.040  99.936  96.414  1.00  0.00     0.003 C 
ATOM     16  C   UNL     1     103.935 100.994  96.495  1.00  0.00     0.005 C 
ATOM     17  C   UNL     1     102.537 100.348  96.248  1.00  0.00     0.008 C 
ATOM     18  C   UNL     1     102.339  98.825  96.693  1.00  0.00    -0.024 C 
ATOM     19  C   UNL     1     100.764  98.522  97.077  1.00  0.00    -0.024 C 
ATOM     20  C   UNL     1     100.448  96.958  97.109  1.00  0.00     0.008 C 
ATOM     21  C   UNL     1      99.179  96.434  97.876  1.00  0.00     0.010 C 
ATOM     22  C   UNL     1      99.908  99.172  95.931  1.00  0.00     0.012 C 
ATOM     23  C   UNL     1     102.679  97.868  95.485  1.00  0.00     0.012 C 
ATOM     24  C   UNL     1     106.421 101.143  94.625  1.00  0.00     0.014 C 
ATOM     25  C   UNL     1     107.222 101.287  96.988  1.00  0.00     0.014 C 
ATOM     26  C   UNL     1     105.594  99.455  98.908  1.00  0.00     0.012 C 
ENDROOT
BRANCH   1  27
ATOM     27  C   UNL     1      98.502 100.175 100.999  1.00  0.00    -0.077 C 
ATOM     28  C   UNL     1      98.790 101.652 100.920  1.00  0.00     0.039 C 
ATOM     29  C   UNL     1      98.778  99.527 102.145  1.00  0.00     0.008 C 
ENDBRANCH   1  27
BRANCH   4  30
ATOM     30  C   UNL     1      97.267  98.081  97.131  1.00  0.00     0.163 C 
BRANCH  30  31
ATOM     31  O   UNL     1      97.063  97.110  96.138  1.00  0.00    -0.396 OA
ATOM     32  H   UNL     1      96.254  97.383  95.627  1.00  0.00     0.210 HD
ENDBRANCH  30  31
ENDBRANCH   4  30
BRANCH  13  33
ATOM     33  O   UNL     1     108.649  99.309  95.366  1.00  0.00    -0.393 OA
ATOM     34  H   UNL     1     109.202  99.149  96.175  1.00  0.00     0.210 HD
ENDBRANCH  13  33
TORSDOF 4
ENDMDL
MODEL 6
REMARK VINA RESULT:    -5.947      2.028      8.189
REMARK INTER + INTRA:          -7.653
REMARK INTER:                  -7.111
REMARK INTRA:                  -0.541
REMARK UNBOUND:                -0.662
REMARK SMILES C=C(C)[C@@H]1CC[C@]2(CO)CC[C@@]3(C)[C@H](CC[C@@H]4[C@@]5(C)CC[C@H](O)C(C)(C)[C@@H]5CC[C@@]43C)[C@@H]12
REMARK SMILES IDX 4 1 5 2 6 3 7 4 32 5 14 6 15 7 16 8 17 9 18 10 20 11 21 12
REMARK SMILES IDX 22 13 24 14 27 15 28 16 29 17 30 18 12 19 11 20 10 21 13 22
REMARK SMILES IDX 31 23 25 24 26 25 19 26 2 27 3 28 1 29 8 30 9 31 23 33
REMARK H PARENT 9 32 23 34
REMARK Flexibility Score: inf
ROOT
ATOM      1  C   UNL     1     101.427  99.378  98.963  1.00  0.00     0.018 C 
ATOM      2  C   UNL     1     100.513  98.113  98.938  1.00  0.00     0.009 C 
ATOM      3  C   UNL     1     101.355  96.974  98.294  1.00  0.00     0.010 C 
ATOM      4  C   UNL     1     102.452  97.731  97.503  1.00  0.00    -0.003 C 
ATOM      5  C   UNL     1     102.784  98.821  98.530  1.00  0.00     0.008 C 
ATOM      6  C   UNL     1     104.048  99.756  98.305  1.00  0.00    -0.000 C 
ATOM      7  C   UNL     1     104.905  99.620  99.588  1.00  0.00     0.005 C 
ATOM      8  C   UNL     1     106.159 100.434  99.585  1.00  0.00     0.005 C 
ATOM      9  C   UNL     1     107.162  99.958  98.490  1.00  0.00     0.002 C 
ATOM     10  C   UNL     1     108.614 100.685  98.622  1.00  0.00    -0.026 C 
ATOM     11  C   UNL     1     109.777  99.683  98.355  1.00  0.00     0.010 C 
ATOM     12  C   UNL     1     111.176 100.348  98.361  1.00  0.00     0.033 C 
ATOM     13  C   UNL     1     111.282 101.549  97.384  1.00  0.00     0.120 C 
ATOM     14  C   UNL     1     110.132 102.616  97.520  1.00  0.00    -0.006 C 
ATOM     15  C   UNL     1     108.763 101.826  97.555  1.00  0.00     0.003 C 
ATOM     16  C   UNL     1     107.443 102.590  97.400  1.00  0.00     0.005 C 
ATOM     17  C   UNL     1     106.348 101.674  96.773  1.00  0.00     0.008 C 
ATOM     18  C   UNL     1     106.432 100.107  97.079  1.00  0.00    -0.024 C 
ATOM     19  C   UNL     1     104.937  99.415  97.032  1.00  0.00    -0.024 C 
ATOM     20  C   UNL     1     105.018  97.826  96.907  1.00  0.00     0.008 C 
ATOM     21  C   UNL     1     103.773  96.948  97.298  1.00  0.00     0.010 C 
ATOM     22  C   UNL     1     104.243  99.973  95.737  1.00  0.00     0.012 C 
ATOM     23  C   UNL     1     107.275  99.389  95.954  1.00  0.00     0.012 C 
ATOM     24  C   UNL     1     110.186 103.501  96.239  1.00  0.00     0.014 C 
ATOM     25  C   UNL     1     110.343 103.567  98.732  1.00  0.00     0.014 C 
ATOM     26  C   UNL     1     108.811 101.216 100.082  1.00  0.00     0.012 C 
ENDROOT
BRANCH   1  27
ATOM     27  C   UNL     1     101.473 100.078 100.317  1.00  0.00    -0.077 C 
ATOM     28  C   UNL     1     101.592  99.261 101.578  1.00  0.00     0.039 C 
ATOM     29  C   UNL     1     101.371 101.415 100.427  1.00  0.00     0.008 C 
ENDBRANCH   1  27
BRANCH   4  30
ATOM     30  C   UNL     1     101.747  98.189  96.167  1.00  0.00     0.163 C 
BRANCH  30  31
ATOM     31  O   UNL     1     100.736  97.291  95.787  1.00  0.00    -0.396 OA
ATOM     32  H   UNL     1     100.929  96.428  96.244  1.00  0.00     0.210 HD
ENDBRANCH  30  31
ENDBRANCH   4  30
BRANCH  13  33
ATOM     33  O   UNL     1     112.557 102.151  97.437  1.00  0.00    -0.393 OA
ATOM     34  H   UNL     1     113.075 101.731  98.171  1.00  0.00     0.210 HD
ENDBRANCH  13  33
TORSDOF 4
ENDMDL
MODEL 7
REMARK VINA RESULT:    -5.946      1.849      8.121
REMARK INTER + INTRA:          -7.651
REMARK INTER:                  -6.978
REMARK INTRA:                  -0.673
REMARK UNBOUND:                -0.662
REMARK SMILES C=C(C)[C@@H]1CC[C@]2(CO)CC[C@@]3(C)[C@H](CC[C@@H]4[C@@]5(C)CC[C@H](O)C(C)(C)[C@@H]5CC[C@@]43C)[C@@H]12
REMARK SMILES IDX 4 1 5 2 6 3 7 4 32 5 14 6 15 7 16 8 17 9 18 10 20 11 21 12
REMARK SMILES IDX 22 13 24 14 27 15 28 16 29 17 30 18 12 19 11 20 10 21 13 22
REMARK SMILES IDX 31 23 25 24 26 25 19 26 2 27 3 28 1 29 8 30 9 31 23 33
REMARK H PARENT 9 32 23 34
REMARK Flexibility Score: inf
ROOT
ATOM      1  C   UNL     1      97.184 100.433  96.761  1.00  0.00     0.018 C 
ATOM      2  C   UNL     1      95.959 100.070  97.657  1.00  0.00     0.009 C 
ATOM      3  C   UNL     1      96.487  99.099  98.753  1.00  0.00     0.010 C 
ATOM      4  C   UNL     1      97.793  98.529  98.140  1.00  0.00    -0.003 C 
ATOM      5  C   UNL     1      98.357  99.817  97.527  1.00  0.00     0.008 C 
ATOM      6  C   UNL     1      99.840  99.835  96.960  1.00  0.00    -0.000 C 
ATOM      7  C   UNL     1     100.555 100.998  97.691  1.00  0.00     0.005 C 
ATOM      8  C   UNL     1     101.984 101.194  97.296  1.00  0.00     0.005 C 
ATOM      9  C   UNL     1     102.874  99.979  97.700  1.00  0.00     0.002 C 
ATOM     10  C   UNL     1     104.461 100.273  97.478  1.00  0.00    -0.026 C 
ATOM     11  C   UNL     1     105.314  99.694  98.646  1.00  0.00     0.010 C 
ATOM     12  C   UNL     1     106.840  99.850  98.430  1.00  0.00     0.033 C 
ATOM     13  C   UNL     1     107.326  99.261  97.080  1.00  0.00     0.120 C 
ATOM     14  C   UNL     1     106.510  99.733  95.819  1.00  0.00    -0.006 C 
ATOM     15  C   UNL     1     104.976  99.578  96.169  1.00  0.00     0.003 C 
ATOM     16  C   UNL     1     103.930  99.689  95.055  1.00  0.00     0.005 C 
ATOM     17  C   UNL     1     102.660  98.857  95.409  1.00  0.00     0.008 C 
ATOM     18  C   UNL     1     102.291  98.694  96.956  1.00  0.00    -0.024 C 
ATOM     19  C   UNL     1     100.667  98.492  97.158  1.00  0.00    -0.024 C 
ATOM     20  C   UNL     1     100.313  97.911  98.602  1.00  0.00     0.008 C 
ATOM     21  C   UNL     1      98.855  98.068  99.169  1.00  0.00     0.010 C 
ATOM     22  C   UNL     1     100.226  97.436  96.083  1.00  0.00     0.012 C 
ATOM     23  C   UNL     1     102.961  97.385  97.529  1.00  0.00     0.012 C 
ATOM     24  C   UNL     1     106.877  98.761  94.656  1.00  0.00     0.014 C 
ATOM     25  C   UNL     1     106.910 101.161  95.353  1.00  0.00     0.014 C 
ATOM     26  C   UNL     1     104.717 101.818  97.463  1.00  0.00     0.012 C 
ENDROOT
BRANCH   1  27
ATOM     27  C   UNL     1      97.349 101.930  96.519  1.00  0.00    -0.077 C 
ATOM     28  C   UNL     1      97.089 102.901  97.641  1.00  0.00     0.039 C 
ATOM     29  C   UNL     1      97.686 102.419  95.312  1.00  0.00     0.008 C 
ENDBRANCH   1  27
BRANCH   4  30
ATOM     30  C   UNL     1      97.314  97.404  97.142  1.00  0.00     0.163 C 
BRANCH  30  31
ATOM     31  O   UNL     1      97.324  96.139  97.751  1.00  0.00    -0.396 OA
ATOM     32  H   UNL     1      98.276  95.913  97.932  1.00  0.00     0.210 HD
ENDBRANCH  30  31
ENDBRANCH   4  30
BRANCH  13  33
ATOM     33  O   UNL     1     108.713  99.448  96.900  1.00  0.00    -0.393 OA
ATOM     34  H   UNL     1     108.851 100.124  96.187  1.00  0.00     0.210 HD
ENDBRANCH  13  33
TORSDOF 4
ENDMDL
MODEL 8
REMARK VINA RESULT:    -5.907      2.950      8.869
REMARK INTER + INTRA:          -7.606
REMARK INTER:                  -6.933
REMARK INTRA:                  -0.673
REMARK UNBOUND:                -0.662
REMARK SMILES C=C(C)[C@@H]1CC[C@]2(CO)CC[C@@]3(C)[C@H](CC[C@@H]4[C@@]5(C)CC[C@H](O)C(C)(C)[C@@H]5CC[C@@]43C)[C@@H]12
REMARK SMILES IDX 4 1 5 2 6 3 7 4 32 5 14 6 15 7 16 8 17 9 18 10 20 11 21 12
REMARK SMILES IDX 22 13 24 14 27 15 28 16 29 17 30 18 12 19 11 20 10 21 13 22
REMARK SMILES IDX 31 23 25 24 26 25 19 26 2 27 3 28 1 29 8 30 9 31 23 33
REMARK H PARENT 9 32 23 34
REMARK Flexibility Score: inf
ROOT
ATOM      1  C   UNL     1     103.550  98.937  97.678  1.00  0.00     0.018 C 
ATOM      2  C   UNL     1     103.112  97.446  97.538  1.00  0.00     0.009 C 
ATOM      3  C   UNL     1     104.400  96.637  97.211  1.00  0.00     0.010 C 
ATOM      4  C   UNL     1     105.371  97.706  96.647  1.00  0.00    -0.003 C 
ATOM      5  C   UNL     1     105.076  98.846  97.631  1.00  0.00     0.008 C 
ATOM      6  C   UNL     1     106.001 100.136  97.640  1.00  0.00    -0.000 C 
ATOM      7  C   UNL     1     106.502 100.283  99.098  1.00  0.00     0.005 C 
ATOM      8  C   UNL     1     107.399 101.456  99.331  1.00  0.00     0.005 C 
ATOM      9  C   UNL     1     108.744 101.328  98.551  1.00  0.00     0.002 C 
ATOM     10  C   UNL     1     109.815 102.482  98.968  1.00  0.00    -0.026 C 
ATOM     11  C   UNL     1     111.259 101.906  99.072  1.00  0.00     0.010 C 
ATOM     12  C   UNL     1     112.333 102.985  99.359  1.00  0.00     0.033 C 
ATOM     13  C   UNL     1     112.305 104.156  98.342  1.00  0.00     0.120 C 
ATOM     14  C   UNL     1     110.886 104.798  98.109  1.00  0.00    -0.006 C 
ATOM     15  C   UNL     1     109.868 103.610  97.878  1.00  0.00     0.003 C 
ATOM     16  C   UNL     1     108.461 103.910  97.349  1.00  0.00     0.005 C 
ATOM     17  C   UNL     1     107.902 102.691  96.555  1.00  0.00     0.008 C 
ATOM     18  C   UNL     1     108.387 101.234  96.999  1.00  0.00    -0.024 C 
ATOM     19  C   UNL     1     107.244 100.098  96.651  1.00  0.00    -0.024 C 
ATOM     20  C   UNL     1     107.843  98.619  96.680  1.00  0.00     0.008 C 
ATOM     21  C   UNL     1     106.877  97.389  96.830  1.00  0.00     0.010 C 
ATOM     22  C   UNL     1     106.764 100.404  95.186  1.00  0.00     0.012 C 
ATOM     23  C   UNL     1     109.668 100.823  96.172  1.00  0.00     0.012 C 
ATOM     24  C   UNL     1     110.986 105.653  96.810  1.00  0.00     0.014 C 
ATOM     25  C   UNL     1     110.476 105.767  99.254  1.00  0.00     0.014 C 
ATOM     26  C   UNL     1     109.459 103.049 100.384  1.00  0.00     0.012 C 
ENDROOT
BRANCH   1  27
ATOM     27  C   UNL     1     103.031  99.615  98.942  1.00  0.00    -0.077 C 
ATOM     28  C   UNL     1     102.996  98.851 100.240  1.00  0.00     0.039 C 
ATOM     29  C   UNL     1     102.562 100.876  98.927  1.00  0.00     0.008 C 
ENDBRANCH   1  27
BRANCH   4  30
ATOM     30  C   UNL     1     104.922  97.912  95.148  1.00  0.00     0.163 C 
BRANCH  30  31
ATOM     31  O   UNL     1     105.662  97.099  94.274  1.00  0.00    -0.396 OA
ATOM     32  H   UNL     1     105.056  96.367  93.979  1.00  0.00     0.210 HD
ENDBRANCH  30  31
ENDBRANCH   4  30
BRANCH  13  33
ATOM     33  O   UNL     1     113.272 105.136  98.650  1.00  0.00    -0.393 OA
ATOM     34  H   UNL     1     114.168 104.781  98.415  1.00  0.00     0.210 HD
ENDBRANCH  13  33
TORSDOF 4
ENDMDL
MODEL 9
REMARK VINA RESULT:    -5.886      3.312      5.618
REMARK INTER + INTRA:          -7.581
REMARK INTER:                  -6.893
REMARK INTRA:                  -0.688
REMARK UNBOUND:                -0.662
REMARK SMILES C=C(C)[C@@H]1CC[C@]2(CO)CC[C@@]3(C)[C@H](CC[C@@H]4[C@@]5(C)CC[C@H](O)C(C)(C)[C@@H]5CC[C@@]43C)[C@@H]12
REMARK SMILES IDX 4 1 5 2 6 3 7 4 32 5 14 6 15 7 16 8 17 9 18 10 20 11 21 12
REMARK SMILES IDX 22 13 24 14 27 15 28 16 29 17 30 18 12 19 11 20 10 21 13 22
REMARK SMILES IDX 31 23 25 24 26 25 19 26 2 27 3 28 1 29 8 30 9 31 23 33
REMARK H PARENT 9 32 23 34
REMARK Flexibility Score: inf
ROOT
ATOM      1  C   UNL     1     112.198 102.386 100.103  1.00  0.00     0.018 C 
ATOM      2  C   UNL     1     112.890 103.759 100.373  1.00  0.00     0.009 C 
ATOM      3  C   UNL     1     112.186 104.796  99.451  1.00  0.00     0.010 C 
ATOM      4  C   UNL     1     111.544 103.924  98.341  1.00  0.00    -0.003 C 
ATOM      5  C   UNL     1     111.018 102.774  99.210  1.00  0.00     0.008 C 
ATOM      6  C   UNL     1     110.047 101.690  98.576  1.00  0.00    -0.000 C 
ATOM      7  C   UNL     1     108.785 101.681  99.473  1.00  0.00     0.005 C 
ATOM      8  C   UNL     1     107.728 100.712  99.048  1.00  0.00     0.005 C 
ATOM      9  C   UNL     1     107.120 101.082  97.660  1.00  0.00     0.002 C 
ATOM     10  C   UNL     1     105.821 100.170  97.290  1.00  0.00    -0.026 C 
ATOM     11  C   UNL     1     104.706 101.020  96.612  1.00  0.00     0.010 C 
ATOM     12  C   UNL     1     103.493 100.180  96.140  1.00  0.00     0.033 C 
ATOM     13  C   UNL     1     103.893  99.001  95.215  1.00  0.00     0.120 C 
ATOM     14  C   UNL     1     105.051  98.088  95.767  1.00  0.00    -0.006 C 
ATOM     15  C   UNL     1     106.206  99.047  96.264  1.00  0.00     0.003 C 
ATOM     16  C   UNL     1     107.583  98.464  96.598  1.00  0.00     0.005 C 
ATOM     17  C   UNL     1     108.699  99.530  96.376  1.00  0.00     0.008 C 
ATOM     18  C   UNL     1     108.311 101.065  96.599  1.00  0.00    -0.024 C 
ATOM     19  C   UNL     1     109.624 101.946  97.065  1.00  0.00    -0.024 C 
ATOM     20  C   UNL     1     109.386 103.514  96.886  1.00  0.00     0.008 C 
ATOM     21  C   UNL     1     110.289 104.535  97.669  1.00  0.00     0.010 C 
ATOM     22  C   UNL     1     110.794 101.516  96.108  1.00  0.00     0.012 C 
ATOM     23  C   UNL     1     107.830 101.697  95.235  1.00  0.00     0.012 C 
ATOM     24  C   UNL     1     105.565  97.236  94.568  1.00  0.00     0.014 C 
ATOM     25  C   UNL     1     104.554  97.087  96.848  1.00  0.00     0.014 C 
ATOM     26  C   UNL     1     105.197  99.580  98.600  1.00  0.00     0.012 C 
ENDROOT
BRANCH   1  27
ATOM     27  C   UNL     1     111.771 101.652 101.370  1.00  0.00    -0.077 C 
ATOM     28  C   UNL     1     111.940 100.158 101.461  1.00  0.00     0.039 C 
ATOM     29  C   UNL     1     111.205 102.298 102.406  1.00  0.00     0.008 C 
ENDBRANCH   1  27
BRANCH   4  30
ATOM     30  C   UNL     1     112.726 103.596  97.348  1.00  0.00     0.163 C 
BRANCH  30  31
ATOM     31  O   UNL     1     112.773 104.514  96.286  1.00  0.00    -0.396 OA
ATOM     32  H   UNL     1     113.585 105.073  96.424  1.00  0.00     0.210 HD
ENDBRANCH  30  31
ENDBRANCH   4  30
BRANCH  13  33
ATOM     33  O   UNL     1     102.771  98.237  94.830  1.00  0.00    -0.393 OA
ATOM     34  H   UNL     1     102.823  97.351  95.274  1.00  0.00     0.210 HD
ENDBRANCH  13  33
TORSDOF 4
ENDMDL
