MODEL 1
REMARK VINA RESULT:    -4.358      0.000      0.000
REMARK INTER + INTRA:         -10.455
REMARK INTER:                  -8.435
REMARK INTRA:                  -2.020
REMARK UNBOUND:                -2.020
REMARK SMILES CCCCCCCCCCCCCCCCCC(=O)[O-]
REMARK SMILES IDX 10 1 11 2 12 3 13 4 14 5 15 6 16 7 17 8 18 9 19 10 20 11
REMARK SMILES IDX 9 12 8 13 7 14 6 15 5 16 4 17 3 18 2 19 1 20
REMARK H PARENT
REMARK Flexibility Score: inf
ROOT
ATOM      1  C   UNL     1     172.751 172.892 150.146  1.00  0.00     0.000 C 
ENDROOT
BRANCH   1   2
ATOM      2  C   UNL     1     172.775 171.352 150.072  1.00  0.00     0.000 C 
BRANCH   2   3
ATOM      3  C   UNL     1     172.946 170.634 151.426  1.00  0.00     0.000 C 
BRANCH   3   4
ATOM      4  C   UNL     1     174.347 170.051 151.680  1.00  0.00     0.000 C 
BRANCH   4   5
ATOM      5  C   UNL     1     175.323 170.312 150.520  1.00  0.00     0.000 C 
BRANCH   5   6
ATOM      6  C   UNL     1     175.590 169.040 149.685  1.00  0.00     0.000 C 
BRANCH   6   7
ATOM      7  C   UNL     1     174.527 167.943 149.884  1.00  0.00     0.006 C 
BRANCH   7   8
ATOM      8  C   UNL     1     173.855 167.483 148.583  1.00  0.00     0.053 C 
BRANCH   8   9
ATOM      9  C   UNL     1     172.360 167.558 148.667  1.00  0.00     0.041 C 
ATOM     10  O   UNL     1     171.714 166.657 149.263  1.00  0.00    -0.550 OA
ATOM     11  O   UNL     1     171.681 168.625 148.092  1.00  0.00    -0.550 OA
ENDBRANCH   8   9
ENDBRANCH   7   8
ENDBRANCH   6   7
ENDBRANCH   5   6
ENDBRANCH   4   5
ENDBRANCH   3   4
ENDBRANCH   2   3
ENDBRANCH   1   2
BRANCH   1  12
ATOM     12  C   UNL     1     174.000 173.587 149.573  1.00  0.00     0.000 C 
BRANCH  12  13
ATOM     13  C   UNL     1     175.011 173.985 150.659  1.00  0.00    -0.000 C 
BRANCH  13  14
ATOM     14  C   UNL     1     174.315 174.175 152.014  1.00  0.00    -0.000 C 
BRANCH  14  15
ATOM     15  C   UNL     1     175.297 174.174 153.198  1.00  0.00    -0.000 C 
BRANCH  15  16
ATOM     16  C   UNL     1     175.324 172.843 153.979  1.00  0.00    -0.000 C 
BRANCH  16  17
ATOM     17  C   UNL     1     173.984 172.549 154.677  1.00  0.00    -0.000 C 
BRANCH  17  18
ATOM     18  C   UNL     1     173.887 173.217 156.065  1.00  0.00    -0.000 C 
BRANCH  18  19
ATOM     19  C   UNL     1     174.022 172.228 157.236  1.00  0.00    -0.003 C 
ATOM     20  C   UNL     1     174.613 172.866 158.492  1.00  0.00     0.004 C 
ENDBRANCH  18  19
ENDBRANCH  17  18
ENDBRANCH  16  17
ENDBRANCH  15  16
ENDBRANCH  14  15
ENDBRANCH  13  14
ENDBRANCH  12  13
ENDBRANCH   1  12
TORSDOF 16
ENDMDL
MODEL 2
REMARK VINA RESULT:    -4.257      2.873      6.509
REMARK INTER + INTRA:         -10.259
REMARK INTER:                  -7.773
REMARK INTRA:                  -2.486
REMARK UNBOUND:                -2.020
REMARK SMILES CCCCCCCCCCCCCCCCCC(=O)[O-]
REMARK SMILES IDX 10 1 11 2 12 3 13 4 14 5 15 6 16 7 17 8 18 9 19 10 20 11
REMARK SMILES IDX 9 12 8 13 7 14 6 15 5 16 4 17 3 18 2 19 1 20
REMARK H PARENT
REMARK Flexibility Score: inf
ROOT
ATOM      1  C   UNL     1     174.904 170.991 150.270  1.00  0.00     0.000 C 
ENDROOT
BRANCH   1   2
ATOM      2  C   UNL     1     173.373 171.020 150.089  1.00  0.00     0.000 C 
BRANCH   2   3
ATOM      3  C   UNL     1     172.744 172.427 150.060  1.00  0.00     0.000 C 
BRANCH   3   4
ATOM      4  C   UNL     1     173.749 173.590 150.130  1.00  0.00     0.000 C 
BRANCH   4   5
ATOM      5  C   UNL     1     173.817 174.238 151.523  1.00  0.00     0.000 C 
BRANCH   5   6
ATOM      6  C   UNL     1     175.251 174.231 152.099  1.00  0.00     0.000 C 
BRANCH   6   7
ATOM      7  C   UNL     1     175.341 173.613 153.508  1.00  0.00     0.006 C 
BRANCH   7   8
ATOM      8  C   UNL     1     174.401 172.419 153.726  1.00  0.00     0.053 C 
BRANCH   8   9
ATOM      9  C   UNL     1     175.011 171.381 154.619  1.00  0.00     0.041 C 
ATOM     10  O   UNL     1     175.557 170.361 154.122  1.00  0.00    -0.550 OA
ATOM     11  O   UNL     1     174.981 171.542 155.998  1.00  0.00    -0.550 OA
ENDBRANCH   8   9
ENDBRANCH   7   8
ENDBRANCH   6   7
ENDBRANCH   5   6
ENDBRANCH   4   5
ENDBRANCH   3   4
ENDBRANCH   2   3
ENDBRANCH   1   2
BRANCH   1  12
ATOM     12  C   UNL     1     175.543 169.595 150.154  1.00  0.00     0.000 C 
BRANCH  12  13
ATOM     13  C   UNL     1     174.956 168.586 151.152  1.00  0.00    -0.000 C 
BRANCH  13  14
ATOM     14  C   UNL     1     174.471 167.320 150.432  1.00  0.00    -0.000 C 
BRANCH  14  15
ATOM     15  C   UNL     1     174.342 167.508 148.910  1.00  0.00    -0.000 C 
BRANCH  15  16
ATOM     16  C   UNL     1     172.886 167.679 148.428  1.00  0.00    -0.000 C 
BRANCH  16  17
ATOM     17  C   UNL     1     171.874 167.026 149.387  1.00  0.00    -0.000 C 
BRANCH  17  18
ATOM     18  C   UNL     1     171.009 168.070 150.126  1.00  0.00    -0.000 C 
BRANCH  18  19
ATOM     19  C   UNL     1     170.959 167.860 151.649  1.00  0.00    -0.003 C 
ATOM     20  C   UNL     1     171.461 169.069 152.436  1.00  0.00     0.004 C 
ENDBRANCH  18  19
ENDBRANCH  17  18
ENDBRANCH  16  17
ENDBRANCH  15  16
ENDBRANCH  14  15
ENDBRANCH  13  14
ENDBRANCH  12  13
ENDBRANCH   1  12
TORSDOF 16
ENDMDL
MODEL 3
REMARK VINA RESULT:    -4.241      2.714      6.118
REMARK INTER + INTRA:         -10.229
REMARK INTER:                  -7.382
REMARK INTRA:                  -2.846
REMARK UNBOUND:                -2.020
REMARK SMILES CCCCCCCCCCCCCCCCCC(=O)[O-]
REMARK SMILES IDX 10 1 11 2 12 3 13 4 14 5 15 6 16 7 17 8 18 9 19 10 20 11
REMARK SMILES IDX 9 12 8 13 7 14 6 15 5 16 4 17 3 18 2 19 1 20
REMARK H PARENT
REMARK Flexibility Score: inf
ROOT
ATOM      1  C   UNL     1     173.813 170.919 152.647  1.00  0.00     0.000 C 
ENDROOT
BRANCH   1   2
ATOM      2  C   UNL     1     174.174 172.084 153.590  1.00  0.00     0.000 C 
BRANCH   2   3
ATOM      3  C   UNL     1     175.264 173.038 153.066  1.00  0.00     0.000 C 
BRANCH   3   4
ATOM      4  C   UNL     1     174.755 174.168 152.154  1.00  0.00     0.000 C 
BRANCH   4   5
ATOM      5  C   UNL     1     174.989 173.884 150.661  1.00  0.00     0.000 C 
BRANCH   5   6
ATOM      6  C   UNL     1     173.668 173.631 149.901  1.00  0.00     0.000 C 
BRANCH   6   7
ATOM      7  C   UNL     1     172.420 174.106 150.668  1.00  0.00     0.006 C 
BRANCH   7   8
ATOM      8  C   UNL     1     171.344 173.024 150.840  1.00  0.00     0.053 C 
BRANCH   8   9
ATOM      9  C   UNL     1     170.016 173.608 151.218  1.00  0.00     0.041 C 
ATOM     10  O   UNL     1     169.943 174.791 151.644  1.00  0.00    -0.550 OA
ATOM     11  O   UNL     1     168.859 172.849 151.095  1.00  0.00    -0.550 OA
ENDBRANCH   8   9
ENDBRANCH   7   8
ENDBRANCH   6   7
ENDBRANCH   5   6
ENDBRANCH   4   5
ENDBRANCH   3   4
ENDBRANCH   2   3
ENDBRANCH   1   2
BRANCH   1  12
ATOM     12  C   UNL     1     175.004 170.311 151.884  1.00  0.00     0.000 C 
BRANCH  12  13
ATOM     13  C   UNL     1     174.734 170.161 150.380  1.00  0.00    -0.000 C 
BRANCH  13  14
ATOM     14  C   UNL     1     173.250 169.871 150.115  1.00  0.00    -0.000 C 
BRANCH  14  15
ATOM     15  C   UNL     1     173.002 168.449 149.584  1.00  0.00    -0.000 C 
BRANCH  15  16
ATOM     16  C   UNL     1     174.282 167.741 149.090  1.00  0.00    -0.000 C 
BRANCH  16  17
ATOM     17  C   UNL     1     174.611 166.487 149.919  1.00  0.00    -0.000 C 
BRANCH  17  18
ATOM     18  C   UNL     1     173.559 166.215 151.014  1.00  0.00    -0.000 C 
BRANCH  18  19
ATOM     19  C   UNL     1     174.140 166.202 152.439  1.00  0.00    -0.003 C 
ATOM     20  C   UNL     1     173.539 167.278 153.340  1.00  0.00     0.004 C 
ENDBRANCH  18  19
ENDBRANCH  17  18
ENDBRANCH  16  17
ENDBRANCH  15  16
ENDBRANCH  14  15
ENDBRANCH  13  14
ENDBRANCH  12  13
ENDBRANCH   1  12
TORSDOF 16
ENDMDL
MODEL 4
REMARK VINA RESULT:    -4.237      3.053      6.147
REMARK INTER + INTRA:         -10.221
REMARK INTER:                  -7.795
REMARK INTRA:                  -2.427
REMARK UNBOUND:                -2.020
REMARK SMILES CCCCCCCCCCCCCCCCCC(=O)[O-]
REMARK SMILES IDX 10 1 11 2 12 3 13 4 14 5 15 6 16 7 17 8 18 9 19 10 20 11
REMARK SMILES IDX 9 12 8 13 7 14 6 15 5 16 4 17 3 18 2 19 1 20
REMARK H PARENT
REMARK Flexibility Score: inf
ROOT
ATOM      1  C   UNL     1     175.360 174.020 153.224  1.00  0.00     0.000 C 
ENDROOT
BRANCH   1   2
ATOM      2  C   UNL     1     175.198 172.629 153.870  1.00  0.00     0.000 C 
BRANCH   2   3
ATOM      3  C   UNL     1     173.768 172.282 154.328  1.00  0.00     0.000 C 
BRANCH   3   4
ATOM      4  C   UNL     1     173.027 171.272 153.433  1.00  0.00     0.000 C 
BRANCH   4   5
ATOM      5  C   UNL     1     171.518 171.551 153.339  1.00  0.00     0.000 C 
BRANCH   5   6
ATOM      6  C   UNL     1     171.218 172.964 152.791  1.00  0.00     0.000 C 
BRANCH   6   7
ATOM      7  C   UNL     1     170.708 172.961 151.337  1.00  0.00     0.006 C 
BRANCH   7   8
ATOM      8  C   UNL     1     169.196 172.729 151.207  1.00  0.00     0.053 C 
BRANCH   8   9
ATOM      9  C   UNL     1     168.435 174.018 151.130  1.00  0.00     0.041 C 
ATOM     10  O   UNL     1     167.958 174.406 150.031  1.00  0.00    -0.550 OA
ATOM     11  O   UNL     1     168.247 174.788 152.271  1.00  0.00    -0.550 OA
ENDBRANCH   8   9
ENDBRANCH   7   8
ENDBRANCH   6   7
ENDBRANCH   5   6
ENDBRANCH   4   5
ENDBRANCH   3   4
ENDBRANCH   2   3
ENDBRANCH   1   2
BRANCH   1  12
ATOM     12  C   UNL     1     174.392 174.310 152.063  1.00  0.00     0.000 C 
BRANCH  12  13
ATOM     13  C   UNL     1     175.005 174.010 150.687  1.00  0.00    -0.000 C 
BRANCH  13  14
ATOM     14  C   UNL     1     173.962 173.393 149.744  1.00  0.00    -0.000 C 
BRANCH  14  15
ATOM     15  C   UNL     1     173.809 171.874 149.932  1.00  0.00    -0.000 C 
BRANCH  15  16
ATOM     16  C   UNL     1     175.106 171.174 150.392  1.00  0.00    -0.000 C 
BRANCH  16  17
ATOM     17  C   UNL     1     174.966 169.641 150.410  1.00  0.00    -0.000 C 
BRANCH  17  18
ATOM     18  C   UNL     1     173.494 169.186 150.326  1.00  0.00    -0.000 C 
BRANCH  18  19
ATOM     19  C   UNL     1     173.295 167.884 149.529  1.00  0.00    -0.003 C 
ATOM     20  C   UNL     1     174.528 167.483 148.723  1.00  0.00     0.004 C 
ENDBRANCH  18  19
ENDBRANCH  17  18
ENDBRANCH  16  17
ENDBRANCH  15  16
ENDBRANCH  14  15
ENDBRANCH  13  14
ENDBRANCH  12  13
ENDBRANCH   1  12
TORSDOF 16
ENDMDL
MODEL 5
REMARK VINA RESULT:    -4.199      2.431      3.403
REMARK INTER + INTRA:         -10.147
REMARK INTER:                  -7.630
REMARK INTRA:                  -2.517
REMARK UNBOUND:                -2.020
REMARK SMILES CCCCCCCCCCCCCCCCCC(=O)[O-]
REMARK SMILES IDX 10 1 11 2 12 3 13 4 14 5 15 6 16 7 17 8 18 9 19 10 20 11
REMARK SMILES IDX 9 12 8 13 7 14 6 15 5 16 4 17 3 18 2 19 1 20
REMARK H PARENT
REMARK Flexibility Score: inf
ROOT
ATOM      1  C   UNL     1     173.762 171.788 150.047  1.00  0.00     0.000 C 
ENDROOT
BRANCH   1   2
ATOM      2  C   UNL     1     175.203 171.240 150.074  1.00  0.00     0.000 C 
BRANCH   2   3
ATOM      3  C   UNL     1     175.326 169.733 150.376  1.00  0.00     0.000 C 
BRANCH   3   4
ATOM      4  C   UNL     1     174.076 168.900 150.043  1.00  0.00     0.000 C 
BRANCH   4   5
ATOM      5  C   UNL     1     174.378 167.716 149.109  1.00  0.00     0.000 C 
BRANCH   5   6
ATOM      6  C   UNL     1     174.631 166.406 149.890  1.00  0.00     0.000 C 
BRANCH   6   7
ATOM      7  C   UNL     1     173.564 166.119 150.963  1.00  0.00     0.006 C 
BRANCH   7   8
ATOM      8  C   UNL     1     174.144 165.737 152.333  1.00  0.00     0.053 C 
BRANCH   8   9
ATOM      9  C   UNL     1     174.528 166.944 153.135  1.00  0.00     0.041 C 
ATOM     10  O   UNL     1     173.722 167.431 153.971  1.00  0.00    -0.550 OA
ATOM     11  O   UNL     1     175.777 167.527 152.965  1.00  0.00    -0.550 OA
ENDBRANCH   8   9
ENDBRANCH   7   8
ENDBRANCH   6   7
ENDBRANCH   5   6
ENDBRANCH   4   5
ENDBRANCH   3   4
ENDBRANCH   2   3
ENDBRANCH   1   2
BRANCH   1  12
ATOM     12  C   UNL     1     173.652 173.311 149.858  1.00  0.00     0.000 C 
BRANCH  12  13
ATOM     13  C   UNL     1     174.665 174.092 150.707  1.00  0.00    -0.000 C 
BRANCH  13  14
ATOM     14  C   UNL     1     174.262 174.085 152.188  1.00  0.00    -0.000 C 
BRANCH  14  15
ATOM     15  C   UNL     1     175.448 173.822 153.131  1.00  0.00    -0.000 C 
BRANCH  15  16
ATOM     16  C   UNL     1     175.136 172.806 154.251  1.00  0.00    -0.000 C 
BRANCH  16  17
ATOM     17  C   UNL     1     174.731 171.430 153.692  1.00  0.00    -0.000 C 
BRANCH  17  18
ATOM     18  C   UNL     1     173.366 170.956 154.235  1.00  0.00    -0.000 C 
BRANCH  18  19
ATOM     19  C   UNL     1     172.350 170.610 153.132  1.00  0.00    -0.003 C 
ATOM     20  C   UNL     1     171.366 171.743 152.848  1.00  0.00     0.004 C 
ENDBRANCH  18  19
ENDBRANCH  17  18
ENDBRANCH  16  17
ENDBRANCH  15  16
ENDBRANCH  14  15
ENDBRANCH  13  14
ENDBRANCH  12  13
ENDBRANCH   1  12
TORSDOF 16
ENDMDL
MODEL 6
REMARK VINA RESULT:    -4.172      9.359     11.928
REMARK INTER + INTRA:         -10.095
REMARK INTER:                  -7.319
REMARK INTRA:                  -2.776
REMARK UNBOUND:                -2.020
REMARK SMILES CCCCCCCCCCCCCCCCCC(=O)[O-]
REMARK SMILES IDX 10 1 11 2 12 3 13 4 14 5 15 6 16 7 17 8 18 9 19 10 20 11
REMARK SMILES IDX 9 12 8 13 7 14 6 15 5 16 4 17 3 18 2 19 1 20
REMARK H PARENT
REMARK Flexibility Score: inf
ROOT
ATOM      1  C   UNL     1     173.462 162.712 151.669  1.00  0.00     0.000 C 
ENDROOT
BRANCH   1   2
ATOM      2  C   UNL     1     172.181 163.053 150.881  1.00  0.00     0.000 C 
BRANCH   2   3
ATOM      3  C   UNL     1     171.231 161.866 150.628  1.00  0.00     0.000 C 
BRANCH   3   4
ATOM      4  C   UNL     1     171.405 161.174 149.265  1.00  0.00     0.000 C 
BRANCH   4   5
ATOM      5  C   UNL     1     170.119 160.487 148.775  1.00  0.00     0.000 C 
BRANCH   5   6
ATOM      6  C   UNL     1     170.196 158.949 148.897  1.00  0.00     0.000 C 
BRANCH   6   7
ATOM      7  C   UNL     1     169.228 158.369 149.945  1.00  0.00     0.006 C 
BRANCH   7   8
ATOM      8  C   UNL     1     169.556 158.776 151.389  1.00  0.00     0.053 C 
BRANCH   8   9
ATOM      9  C   UNL     1     169.546 157.602 152.320  1.00  0.00     0.041 C 
ATOM     10  O   UNL     1     170.612 157.227 152.877  1.00  0.00    -0.550 OA
ATOM     11  O   UNL     1     168.361 156.924 152.577  1.00  0.00    -0.550 OA
ENDBRANCH   8   9
ENDBRANCH   7   8
ENDBRANCH   6   7
ENDBRANCH   5   6
ENDBRANCH   4   5
ENDBRANCH   3   4
ENDBRANCH   2   3
ENDBRANCH   1   2
BRANCH   1  12
ATOM     12  C   UNL     1     174.765 163.254 151.053  1.00  0.00     0.000 C 
BRANCH  12  13
ATOM     13  C   UNL     1     175.800 162.152 150.786  1.00  0.00    -0.000 C 
BRANCH  13  14
ATOM     14  C   UNL     1     175.305 161.183 149.703  1.00  0.00    -0.000 C 
BRANCH  14  15
ATOM     15  C   UNL     1     175.348 159.712 150.150  1.00  0.00    -0.000 C 
BRANCH  15  16
ATOM     16  C   UNL     1     173.986 158.992 150.043  1.00  0.00    -0.000 C 
BRANCH  16  17
ATOM     17  C   UNL     1     173.268 158.898 151.401  1.00  0.00    -0.000 C 
BRANCH  17  18
ATOM     18  C   UNL     1     174.190 159.278 152.579  1.00  0.00    -0.000 C 
BRANCH  18  19
ATOM     19  C   UNL     1     173.481 159.271 153.944  1.00  0.00    -0.003 C 
ATOM     20  C   UNL     1     172.239 160.159 153.978  1.00  0.00     0.004 C 
ENDBRANCH  18  19
ENDBRANCH  17  18
ENDBRANCH  16  17
ENDBRANCH  15  16
ENDBRANCH  14  15
ENDBRANCH  13  14
ENDBRANCH  12  13
ENDBRANCH   1  12
TORSDOF 16
ENDMDL
MODEL 7
REMARK VINA RESULT:    -4.161      3.090      6.535
REMARK INTER + INTRA:         -10.074
REMARK INTER:                  -7.091
REMARK INTRA:                  -2.982
REMARK UNBOUND:                -2.020
REMARK SMILES CCCCCCCCCCCCCCCCCC(=O)[O-]
REMARK SMILES IDX 10 1 11 2 12 3 13 4 14 5 15 6 16 7 17 8 18 9 19 10 20 11
REMARK SMILES IDX 9 12 8 13 7 14 6 15 5 16 4 17 3 18 2 19 1 20
REMARK H PARENT
REMARK Flexibility Score: inf
ROOT
ATOM      1  C   UNL     1     172.576 170.147 151.334  1.00  0.00     0.000 C 
ENDROOT
BRANCH   1   2
ATOM      2  C   UNL     1     174.081 170.477 151.398  1.00  0.00     0.000 C 
BRANCH   2   3
ATOM      3  C   UNL     1     174.677 171.071 150.107  1.00  0.00     0.000 C 
BRANCH   3   4
ATOM      4  C   UNL     1     174.849 172.601 150.114  1.00  0.00     0.000 C 
BRANCH   4   5
ATOM      5  C   UNL     1     173.553 173.350 149.763  1.00  0.00     0.000 C 
BRANCH   5   6
ATOM      6  C   UNL     1     172.844 173.910 151.016  1.00  0.00     0.000 C 
BRANCH   6   7
ATOM      7  C   UNL     1     173.811 174.247 152.167  1.00  0.00     0.006 C 
BRANCH   7   8
ATOM      8  C   UNL     1     173.450 173.578 153.501  1.00  0.00     0.053 C 
BRANCH   8   9
ATOM      9  C   UNL     1     174.647 172.965 154.163  1.00  0.00     0.041 C 
ATOM     10  O   UNL     1     175.741 172.884 153.545  1.00  0.00    -0.550 OA
ATOM     11  O   UNL     1     174.557 172.489 155.465  1.00  0.00    -0.550 OA
ENDBRANCH   8   9
ENDBRANCH   7   8
ENDBRANCH   6   7
ENDBRANCH   5   6
ENDBRANCH   4   5
ENDBRANCH   3   4
ENDBRANCH   2   3
ENDBRANCH   1   2
BRANCH   1  12
ATOM     12  C   UNL     1     172.075 169.678 149.956  1.00  0.00     0.000 C 
BRANCH  12  13
ATOM     13  C   UNL     1     171.285 168.363 150.026  1.00  0.00    -0.000 C 
BRANCH  13  14
ATOM     14  C   UNL     1     172.017 167.242 149.276  1.00  0.00    -0.000 C 
BRANCH  14  15
ATOM     15  C   UNL     1     173.335 167.710 148.636  1.00  0.00    -0.000 C 
BRANCH  15  16
ATOM     16  C   UNL     1     174.592 167.093 149.287  1.00  0.00    -0.000 C 
BRANCH  16  17
ATOM     17  C   UNL     1     174.247 166.209 150.499  1.00  0.00    -0.000 C 
BRANCH  17  18
ATOM     18  C   UNL     1     174.626 166.877 151.838  1.00  0.00    -0.000 C 
BRANCH  18  19
ATOM     19  C   UNL     1     173.488 166.869 152.874  1.00  0.00    -0.003 C 
ATOM     20  C   UNL     1     173.740 167.816 154.045  1.00  0.00     0.004 C 
ENDBRANCH  18  19
ENDBRANCH  17  18
ENDBRANCH  16  17
ENDBRANCH  15  16
ENDBRANCH  14  15
ENDBRANCH  13  14
ENDBRANCH  12  13
ENDBRANCH   1  12
TORSDOF 16
ENDMDL
MODEL 8
REMARK VINA RESULT:    -4.134      2.969      6.446
REMARK INTER + INTRA:         -10.021
REMARK INTER:                  -6.912
REMARK INTRA:                  -3.108
REMARK UNBOUND:                -2.020
REMARK SMILES CCCCCCCCCCCCCCCCCC(=O)[O-]
REMARK SMILES IDX 10 1 11 2 12 3 13 4 14 5 15 6 16 7 17 8 18 9 19 10 20 11
REMARK SMILES IDX 9 12 8 13 7 14 6 15 5 16 4 17 3 18 2 19 1 20
REMARK H PARENT
REMARK Flexibility Score: inf
ROOT
ATOM      1  C   UNL     1     171.794 170.783 150.776  1.00  0.00     0.000 C 
ENDROOT
BRANCH   1   2
ATOM      2  C   UNL     1     172.587 171.602 149.737  1.00  0.00     0.000 C 
BRANCH   2   3
ATOM      3  C   UNL     1     172.944 173.038 150.168  1.00  0.00     0.000 C 
BRANCH   3   4
ATOM      4  C   UNL     1     174.364 173.496 149.789  1.00  0.00     0.000 C 
BRANCH   4   5
ATOM      5  C   UNL     1     175.131 174.109 150.973  1.00  0.00     0.000 C 
BRANCH   5   6
ATOM      6  C   UNL     1     174.292 174.117 152.270  1.00  0.00     0.000 C 
BRANCH   6   7
ATOM      7  C   UNL     1     175.059 173.589 153.498  1.00  0.00     0.006 C 
BRANCH   7   8
ATOM      8  C   UNL     1     174.306 173.763 154.824  1.00  0.00     0.053 C 
BRANCH   8   9
ATOM      9  C   UNL     1     174.050 172.449 155.500  1.00  0.00     0.041 C 
ATOM     10  O   UNL     1     175.013 171.757 155.923  1.00  0.00    -0.550 OA
ATOM     11  O   UNL     1     172.749 171.992 155.668  1.00  0.00    -0.550 OA
ENDBRANCH   8   9
ENDBRANCH   7   8
ENDBRANCH   6   7
ENDBRANCH   5   6
ENDBRANCH   4   5
ENDBRANCH   3   4
ENDBRANCH   2   3
ENDBRANCH   1   2
BRANCH   1  12
ATOM     12  C   UNL     1     172.216 171.013 152.239  1.00  0.00     0.000 C 
BRANCH  12  13
ATOM     13  C   UNL     1     173.114 169.893 152.782  1.00  0.00    -0.000 C 
BRANCH  13  14
ATOM     14  C   UNL     1     174.596 170.203 152.525  1.00  0.00    -0.000 C 
BRANCH  14  15
ATOM     15  C   UNL     1     175.313 169.092 151.738  1.00  0.00    -0.000 C 
BRANCH  15  16
ATOM     16  C   UNL     1     175.471 169.402 150.234  1.00  0.00    -0.000 C 
BRANCH  16  17
ATOM     17  C   UNL     1     174.637 168.455 149.352  1.00  0.00    -0.000 C 
BRANCH  17  18
ATOM     18  C   UNL     1     174.266 167.148 150.084  1.00  0.00    -0.000 C 
BRANCH  18  19
ATOM     19  C   UNL     1     172.754 166.865 150.111  1.00  0.00    -0.003 C 
ATOM     20  C   UNL     1     172.225 166.570 151.513  1.00  0.00     0.004 C 
ENDBRANCH  18  19
ENDBRANCH  17  18
ENDBRANCH  16  17
ENDBRANCH  15  16
ENDBRANCH  14  15
ENDBRANCH  13  14
ENDBRANCH  12  13
ENDBRANCH   1  12
TORSDOF 16
ENDMDL
MODEL 9
REMARK VINA RESULT:    -4.112      3.037      6.389
REMARK INTER + INTRA:          -9.979
REMARK INTER:                  -7.168
REMARK INTRA:                  -2.810
REMARK UNBOUND:                -2.020
REMARK SMILES CCCCCCCCCCCCCCCCCC(=O)[O-]
REMARK SMILES IDX 10 1 11 2 12 3 13 4 14 5 15 6 16 7 17 8 18 9 19 10 20 11
REMARK SMILES IDX 9 12 8 13 7 14 6 15 5 16 4 17 3 18 2 19 1 20
REMARK H PARENT
REMARK Flexibility Score: inf
ROOT
ATOM      1  C   UNL     1     173.735 173.164 149.866  1.00  0.00     0.000 C 
ENDROOT
BRANCH   1   2
ATOM      2  C   UNL     1     174.950 173.863 150.511  1.00  0.00     0.000 C 
BRANCH   2   3
ATOM      3  C   UNL     1     174.744 174.322 151.968  1.00  0.00     0.000 C 
BRANCH   3   4
ATOM      4  C   UNL     1     175.205 173.316 153.037  1.00  0.00     0.000 C 
BRANCH   4   5
ATOM      5  C   UNL     1     174.103 172.980 154.056  1.00  0.00     0.000 C 
BRANCH   5   6
ATOM      6  C   UNL     1     172.739 173.592 153.664  1.00  0.00     0.000 C 
BRANCH   6   7
ATOM      7  C   UNL     1     171.695 172.540 153.244  1.00  0.00     0.006 C 
BRANCH   7   8
ATOM      8  C   UNL     1     170.722 173.026 152.161  1.00  0.00     0.053 C 
BRANCH   8   9
ATOM      9  C   UNL     1     169.527 173.715 152.749  1.00  0.00     0.041 C 
ATOM     10  O   UNL     1     169.012 174.702 152.161  1.00  0.00    -0.550 OA
ATOM     11  O   UNL     1     168.977 173.263 153.942  1.00  0.00    -0.550 OA
ENDBRANCH   8   9
ENDBRANCH   7   8
ENDBRANCH   6   7
ENDBRANCH   5   6
ENDBRANCH   4   5
ENDBRANCH   3   4
ENDBRANCH   2   3
ENDBRANCH   1   2
BRANCH   1  12
ATOM     12  C   UNL     1     173.626 171.656 150.158  1.00  0.00     0.000 C 
BRANCH  12  13
ATOM     13  C   UNL     1     174.992 170.956 150.193  1.00  0.00    -0.000 C 
BRANCH  13  14
ATOM     14  C   UNL     1     175.071 169.965 151.362  1.00  0.00    -0.000 C 
BRANCH  14  15
ATOM     15  C   UNL     1     173.712 169.730 152.042  1.00  0.00    -0.000 C 
BRANCH  15  16
ATOM     16  C   UNL     1     173.391 168.240 152.289  1.00  0.00    -0.000 C 
BRANCH  16  17
ATOM     17  C   UNL     1     174.526 167.314 151.816  1.00  0.00    -0.000 C 
BRANCH  17  18
ATOM     18  C   UNL     1     174.126 166.479 150.582  1.00  0.00    -0.000 C 
BRANCH  18  19
ATOM     19  C   UNL     1     172.893 167.027 149.840  1.00  0.00    -0.003 C 
ATOM     20  C   UNL     1     173.231 167.612 148.471  1.00  0.00     0.004 C 
ENDBRANCH  18  19
ENDBRANCH  17  18
ENDBRANCH  16  17
ENDBRANCH  15  16
ENDBRANCH  14  15
ENDBRANCH  13  14
ENDBRANCH  12  13
ENDBRANCH   1  12
TORSDOF 16
ENDMDL
