MODEL 1
REMARK VINA RESULT:    -3.183      0.000      0.000
REMARK INTER + INTRA:          -3.183
REMARK INTER:                  -3.183
REMARK INTRA:                   0.000
REMARK UNBOUND:                 0.000
REMARK SMILES CC1(C)C(=O)[C@]2(C)CC[C@H]1C2
REMARK SMILES IDX 1 1 2 2 10 3 9 4 8 5 6 6 11 7 4 8 5 9 7 10 3 11
REMARK H PARENT
REMARK Flexibility Score: inf
ROOT
ATOM      1  C   UNL     1     159.629 153.766 137.676  1.00  0.00     0.020 C 
ATOM      2  C   UNL     1     158.877 153.727 139.024  1.00  0.00     0.027 C 
ATOM      3  C   UNL     1     157.626 154.674 139.092  1.00  0.00     0.003 C 
ATOM      4  C   UNL     1     156.724 154.501 137.843  1.00  0.00     0.005 C 
ATOM      5  C   UNL     1     156.147 153.078 138.022  1.00  0.00     0.015 C 
ATOM      6  C   UNL     1     156.708 152.659 139.395  1.00  0.00     0.027 C 
ATOM      7  C   UNL     1     156.740 153.984 140.129  1.00  0.00     0.019 C 
ATOM      8  C   UNL     1     158.182 152.412 139.228  1.00  0.00     0.144 C 
ATOM      9  O   UNL     1     158.719 151.315 139.189  1.00  0.00    -0.298 OA
ATOM     10  C   UNL     1     155.935 151.549 140.110  1.00  0.00     0.020 C 
ATOM     11  C   UNL     1     159.873 154.017 140.167  1.00  0.00     0.020 C 
ENDROOT
TORSDOF 0
ENDMDL
MODEL 2
REMARK VINA RESULT:    -3.181      9.784     10.955
REMARK INTER + INTRA:          -3.181
REMARK INTER:                  -3.181
REMARK INTRA:                   0.000
REMARK UNBOUND:                 0.000
REMARK SMILES CC1(C)C(=O)[C@]2(C)CC[C@H]1C2
REMARK SMILES IDX 1 1 2 2 10 3 9 4 8 5 6 6 11 7 4 8 5 9 7 10 3 11
REMARK H PARENT
REMARK Flexibility Score: inf
ROOT
ATOM      1  C   UNL     1     147.531 159.611 137.681  1.00  0.00     0.020 C 
ATOM      2  C   UNL     1     147.565 158.864 139.032  1.00  0.00     0.027 C 
ATOM      3  C   UNL     1     146.614 157.616 139.103  1.00  0.00     0.003 C 
ATOM      4  C   UNL     1     146.786 156.709 137.858  1.00  0.00     0.005 C 
ATOM      5  C   UNL     1     148.206 156.128 138.042  1.00  0.00     0.015 C 
ATOM      6  C   UNL     1     148.624 156.693 139.413  1.00  0.00     0.027 C 
ATOM      7  C   UNL     1     147.298 156.732 140.144  1.00  0.00     0.019 C 
ATOM      8  C   UNL     1     148.877 158.165 139.241  1.00  0.00     0.144 C 
ATOM      9  O   UNL     1     149.976 158.698 139.202  1.00  0.00    -0.298 OA
ATOM     10  C   UNL     1     149.731 155.918 140.133  1.00  0.00     0.020 C 
ATOM     11  C   UNL     1     147.276 159.865 140.171  1.00  0.00     0.020 C 
ENDROOT
TORSDOF 0
ENDMDL
MODEL 3
REMARK VINA RESULT:    -3.180      9.760     10.952
REMARK INTER + INTRA:          -3.180
REMARK INTER:                  -3.180
REMARK INTRA:                   0.000
REMARK UNBOUND:                 0.000
REMARK SMILES CC1(C)C(=O)[C@]2(C)CC[C@H]1C2
REMARK SMILES IDX 1 1 2 2 10 3 9 4 8 5 6 6 11 7 4 8 5 9 7 10 3 11
REMARK H PARENT
REMARK Flexibility Score: inf
ROOT
ATOM      1  C   UNL     1     153.746 141.685 137.663  1.00  0.00     0.020 C 
ATOM      2  C   UNL     1     153.717 142.418 139.021  1.00  0.00     0.027 C 
ATOM      3  C   UNL     1     154.681 143.655 139.108  1.00  0.00     0.003 C 
ATOM      4  C   UNL     1     154.521 144.577 137.871  1.00  0.00     0.005 C 
ATOM      5  C   UNL     1     153.106 145.170 138.058  1.00  0.00     0.015 C 
ATOM      6  C   UNL     1     152.679 144.596 139.423  1.00  0.00     0.027 C 
ATOM      7  C   UNL     1     154.002 144.535 140.156  1.00  0.00     0.019 C 
ATOM      8  C   UNL     1     152.411 143.128 139.235  1.00  0.00     0.144 C 
ATOM      9  O   UNL     1     151.307 142.607 139.188  1.00  0.00    -0.298 OA
ATOM     10  C   UNL     1     151.579 145.375 140.148  1.00  0.00     0.020 C 
ATOM     11  C   UNL     1     153.993 141.403 140.151  1.00  0.00     0.020 C 
ENDROOT
TORSDOF 0
ENDMDL
MODEL 4
REMARK VINA RESULT:    -3.178      1.756      3.053
REMARK INTER + INTRA:          -3.178
REMARK INTER:                  -3.178
REMARK INTRA:                   0.000
REMARK UNBOUND:                 0.000
REMARK SMILES CC1(C)C(=O)[C@]2(C)CC[C@H]1C2
REMARK SMILES IDX 1 1 2 2 10 3 9 4 8 5 6 6 11 7 4 8 5 9 7 10 3 11
REMARK H PARENT
REMARK Flexibility Score: inf
ROOT
ATOM      1  C   UNL     1     157.177 151.187 137.776  1.00  0.00     0.020 C 
ATOM      2  C   UNL     1     156.750 152.172 138.885  1.00  0.00     0.027 C 
ATOM      3  C   UNL     1     157.862 153.202 139.296  1.00  0.00     0.003 C 
ATOM      4  C   UNL     1     158.498 153.868 138.049  1.00  0.00     0.005 C 
ATOM      5  C   UNL     1     157.348 154.738 137.492  1.00  0.00     0.015 C 
ATOM      6  C   UNL     1     156.239 154.539 138.543  1.00  0.00     0.027 C 
ATOM      7  C   UNL     1     157.047 154.386 139.815  1.00  0.00     0.019 C 
ATOM      8  C   UNL     1     155.712 153.139 138.391  1.00  0.00     0.144 C 
ATOM      9  O   UNL     1     154.646 152.832 137.880  1.00  0.00    -0.298 OA
ATOM     10  C   UNL     1     155.174 155.638 138.589  1.00  0.00     0.020 C 
ATOM     11  C   UNL     1     156.237 151.373 140.101  1.00  0.00     0.020 C 
ENDROOT
TORSDOF 0
ENDMDL
MODEL 5
REMARK VINA RESULT:    -3.171     13.416     15.574
REMARK INTER + INTRA:          -3.171
REMARK INTER:                  -3.171
REMARK INTRA:                   0.000
REMARK UNBOUND:                 0.000
REMARK SMILES CC1(C)C(=O)[C@]2(C)CC[C@H]1C2
REMARK SMILES IDX 1 1 2 2 10 3 9 4 8 5 6 6 11 7 4 8 5 9 7 10 3 11
REMARK H PARENT
REMARK Flexibility Score: inf
ROOT
ATOM      1  C   UNL     1     141.482 147.748 137.739  1.00  0.00     0.020 C 
ATOM      2  C   UNL     1     142.291 147.663 139.051  1.00  0.00     0.027 C 
ATOM      3  C   UNL     1     143.513 146.677 138.993  1.00  0.00     0.003 C 
ATOM      4  C   UNL     1     144.365 146.917 137.721  1.00  0.00     0.005 C 
ATOM      5  C   UNL     1     144.996 148.304 137.980  1.00  0.00     0.015 C 
ATOM      6  C   UNL     1     144.508 148.635 139.403  1.00  0.00     0.027 C 
ATOM      7  C   UNL     1     144.463 147.260 140.038  1.00  0.00     0.019 C 
ATOM      8  C   UNL     1     143.037 148.938 139.321  1.00  0.00     0.144 C 
ATOM      9  O   UNL     1     142.535 150.050 139.387  1.00  0.00    -0.298 OA
ATOM     10  C   UNL     1     145.347 149.665 140.162  1.00  0.00     0.020 C 
ATOM     11  C   UNL     1     141.336 147.317 140.213  1.00  0.00     0.020 C 
ENDROOT
TORSDOF 0
ENDMDL
MODEL 6
REMARK VINA RESULT:    -3.170      9.423     10.438
REMARK INTER + INTRA:          -3.170
REMARK INTER:                  -3.170
REMARK INTRA:                   0.000
REMARK UNBOUND:                 0.000
REMARK SMILES CC1(C)C(=O)[C@]2(C)CC[C@H]1C2
REMARK SMILES IDX 1 1 2 2 10 3 9 4 8 5 6 6 11 7 4 8 5 9 7 10 3 11
REMARK H PARENT
REMARK Flexibility Score: inf
ROOT
ATOM      1  C   UNL     1     150.090 157.183 137.767  1.00  0.00     0.020 C 
ATOM      2  C   UNL     1     149.103 156.754 138.873  1.00  0.00     0.027 C 
ATOM      3  C   UNL     1     148.067 157.863 139.279  1.00  0.00     0.003 C 
ATOM      4  C   UNL     1     147.403 158.494 138.028  1.00  0.00     0.005 C 
ATOM      5  C   UNL     1     146.540 157.339 137.470  1.00  0.00     0.015 C 
ATOM      6  C   UNL     1     146.739 156.233 138.524  1.00  0.00     0.027 C 
ATOM      7  C   UNL     1     146.884 157.044 139.795  1.00  0.00     0.019 C 
ATOM      8  C   UNL     1     148.141 155.711 138.378  1.00  0.00     0.144 C 
ATOM      9  O   UNL     1     148.455 154.645 137.871  1.00  0.00    -0.298 OA
ATOM     10  C   UNL     1     145.644 155.164 138.568  1.00  0.00     0.020 C 
ATOM     11  C   UNL     1     149.899 156.246 140.094  1.00  0.00     0.020 C 
ENDROOT
TORSDOF 0
ENDMDL
MODEL 7
REMARK VINA RESULT:    -3.168      7.868     10.258
REMARK INTER + INTRA:          -3.168
REMARK INTER:                  -3.168
REMARK INTRA:                   0.000
REMARK UNBOUND:                 0.000
REMARK SMILES CC1(C)C(=O)[C@]2(C)CC[C@H]1C2
REMARK SMILES IDX 1 1 2 2 10 3 9 4 8 5 6 6 11 7 4 8 5 9 7 10 3 11
REMARK H PARENT
REMARK Flexibility Score: inf
ROOT
ATOM      1  C   UNL     1     151.171 144.063 137.783  1.00  0.00     0.020 C 
ATOM      2  C   UNL     1     152.155 144.504 138.887  1.00  0.00     0.027 C 
ATOM      3  C   UNL     1     153.195 143.402 139.302  1.00  0.00     0.003 C 
ATOM      4  C   UNL     1     153.863 142.766 138.057  1.00  0.00     0.005 C 
ATOM      5  C   UNL     1     154.722 143.920 137.492  1.00  0.00     0.015 C 
ATOM      6  C   UNL     1     154.517 145.033 138.538  1.00  0.00     0.027 C 
ATOM      7  C   UNL     1     154.373 144.230 139.814  1.00  0.00     0.019 C 
ATOM      8  C   UNL     1     153.112 145.547 138.386  1.00  0.00     0.144 C 
ATOM      9  O   UNL     1     152.794 146.608 137.871  1.00  0.00    -0.298 OA
ATOM     10  C   UNL     1     155.606 146.107 138.576  1.00  0.00     0.020 C 
ATOM     11  C   UNL     1     151.354 145.016 140.103  1.00  0.00     0.020 C 
ENDROOT
TORSDOF 0
ENDMDL
MODEL 8
REMARK VINA RESULT:    -3.168     13.178     14.299
REMARK INTER + INTRA:          -3.168
REMARK INTER:                  -3.168
REMARK INTRA:                   0.000
REMARK UNBOUND:                 0.000
REMARK SMILES CC1(C)C(=O)[C@]2(C)CC[C@H]1C2
REMARK SMILES IDX 1 1 2 2 10 3 9 4 8 5 6 6 11 7 4 8 5 9 7 10 3 11
REMARK H PARENT
REMARK Flexibility Score: inf
ROOT
ATOM      1  C   UNL     1     144.096 150.095 137.774  1.00  0.00     0.020 C 
ATOM      2  C   UNL     1     144.523 149.107 138.880  1.00  0.00     0.027 C 
ATOM      3  C   UNL     1     143.412 148.074 139.287  1.00  0.00     0.003 C 
ATOM      4  C   UNL     1     142.779 147.412 138.036  1.00  0.00     0.005 C 
ATOM      5  C   UNL     1     143.931 146.546 137.478  1.00  0.00     0.015 C 
ATOM      6  C   UNL     1     145.038 146.742 138.531  1.00  0.00     0.027 C 
ATOM      7  C   UNL     1     144.228 146.890 139.803  1.00  0.00     0.019 C 
ATOM      8  C   UNL     1     145.563 148.143 138.385  1.00  0.00     0.144 C 
ATOM      9  O   UNL     1     146.630 148.454 137.877  1.00  0.00    -0.298 OA
ATOM     10  C   UNL     1     146.105 145.645 138.575  1.00  0.00     0.020 C 
ATOM     11  C   UNL     1     145.033 149.903 140.100  1.00  0.00     0.020 C 
ENDROOT
TORSDOF 0
ENDMDL
MODEL 9
REMARK VINA RESULT:    -3.027      8.932     10.657
REMARK INTER + INTRA:          -3.027
REMARK INTER:                  -3.027
REMARK INTRA:                   0.000
REMARK UNBOUND:                 0.000
REMARK SMILES CC1(C)C(=O)[C@]2(C)CC[C@H]1C2
REMARK SMILES IDX 1 1 2 2 10 3 9 4 8 5 6 6 11 7 4 8 5 9 7 10 3 11
REMARK H PARENT
REMARK Flexibility Score: inf
ROOT
ATOM      1  C   UNL     1     152.064 145.390 140.099  1.00  0.00     0.020 C 
ATOM      2  C   UNL     1     152.903 145.202 138.816  1.00  0.00     0.027 C 
ATOM      3  C   UNL     1     154.393 144.780 139.076  1.00  0.00     0.003 C 
ATOM      4  C   UNL     1     154.474 143.602 140.080  1.00  0.00     0.005 C 
ATOM      5  C   UNL     1     153.867 142.423 139.286  1.00  0.00     0.015 C 
ATOM      6  C   UNL     1     153.611 143.048 137.901  1.00  0.00     0.027 C 
ATOM      7  C   UNL     1     154.757 144.032 137.794  1.00  0.00     0.019 C 
ATOM      8  C   UNL     1     152.455 143.999 138.038  1.00  0.00     0.144 C 
ATOM      9  O   UNL     1     151.316 143.795 137.646  1.00  0.00    -0.298 OA
ATOM     10  C   UNL     1     153.509 142.054 136.742  1.00  0.00     0.020 C 
ATOM     11  C   UNL     1     152.816 146.485 137.963  1.00  0.00     0.020 C 
ENDROOT
TORSDOF 0
ENDMDL
