MODEL 1
REMARK VINA RESULT:    -5.284      0.000      0.000
REMARK INTER + INTRA:          -5.748
REMARK INTER:                  -5.748
REMARK INTRA:                   0.000
REMARK UNBOUND:                 0.000
REMARK SMILES Oc1cccc(O)c1O
REMARK SMILES IDX 4 1 5 2 6 3 8 4 2 5 3 6 7 7 1 9 9 11
REMARK H PARENT 7 8 1 10 9 12
REMARK Flexibility Score: inf
ROOT
ATOM      1  C   UNL     1     -11.634 -66.133 -24.525  1.00  0.00     0.008 A 
ATOM      2  C   UNL     1     -12.934 -65.934 -24.989  1.00  0.00     0.050 A 
ATOM      3  C   UNL     1     -13.991 -65.745 -24.092  1.00  0.00     0.161 A 
ATOM      4  C   UNL     1     -13.734 -65.760 -22.697  1.00  0.00     0.200 A 
ATOM      5  C   UNL     1     -12.418 -65.963 -22.239  1.00  0.00     0.161 A 
ATOM      6  C   UNL     1     -11.377 -66.148 -23.154  1.00  0.00     0.050 A 
ENDROOT
BRANCH   3   7
ATOM      7  O   UNL     1     -15.268 -65.550 -24.623  1.00  0.00    -0.504 OA
ATOM      8  H   UNL     1     -15.629 -66.045 -25.426  1.00  0.00     0.293 HD
ENDBRANCH   3   7
BRANCH   5   9
ATOM      9  O   UNL     1     -12.124 -65.983 -20.875  1.00  0.00    -0.504 OA
ATOM     10  H   UNL     1     -12.392 -65.231 -20.252  1.00  0.00     0.293 HD
ENDBRANCH   5   9
BRANCH   4  11
ATOM     11  O   UNL     1     -14.747 -65.579 -21.752  1.00  0.00    -0.502 OA
ATOM     12  H   UNL     1     -14.937 -66.218 -20.994  1.00  0.00     0.293 HD
ENDBRANCH   4  11
TORSDOF 3
ENDMDL
MODEL 2
REMARK VINA RESULT:    -5.276      0.124      2.827
REMARK INTER + INTRA:          -5.738
REMARK INTER:                  -5.738
REMARK INTRA:                   0.000
REMARK UNBOUND:                 0.000
REMARK SMILES Oc1cccc(O)c1O
REMARK SMILES IDX 4 1 5 2 6 3 8 4 2 5 3 6 7 7 1 9 9 11
REMARK H PARENT 7 8 1 10 9 12
REMARK Flexibility Score: inf
ROOT
ATOM      1  C   UNL     1     -11.622 -66.315 -24.526  1.00  0.00     0.008 A 
ATOM      2  C   UNL     1     -11.366 -66.335 -23.155  1.00  0.00     0.050 A 
ATOM      3  C   UNL     1     -12.389 -66.084 -22.233  1.00  0.00     0.161 A 
ATOM      4  C   UNL     1     -13.698 -65.805 -22.703  1.00  0.00     0.200 A 
ATOM      5  C   UNL     1     -13.946 -65.787 -24.089  1.00  0.00     0.161 A 
ATOM      6  C   UNL     1     -12.908 -66.042 -24.992  1.00  0.00     0.050 A 
ENDROOT
BRANCH   3   7
ATOM      7  O   UNL     1     -12.064 -66.120 -20.875  1.00  0.00    -0.504 OA
ATOM      8  H   UNL     1     -11.773 -66.953 -20.385  1.00  0.00     0.293 HD
ENDBRANCH   3   7
BRANCH   5   9
ATOM      9  O   UNL     1     -15.220 -65.517 -24.590  1.00  0.00    -0.504 OA
ATOM     10  H   UNL     1     -15.727 -66.181 -25.163  1.00  0.00     0.293 HD
ENDBRANCH   5   9
BRANCH   4  11
ATOM     11  O   UNL     1     -14.761 -65.545 -21.834  1.00  0.00    -0.502 OA
ATOM     12  H   UNL     1     -15.320 -66.260 -21.392  1.00  0.00     0.293 HD
ENDBRANCH   4  11
TORSDOF 3
ENDMDL
MODEL 3
REMARK VINA RESULT:    -4.979      1.727      2.987
REMARK INTER + INTRA:          -5.416
REMARK INTER:                  -5.416
REMARK INTRA:                   0.000
REMARK UNBOUND:                 0.000
REMARK SMILES Oc1cccc(O)c1O
REMARK SMILES IDX 4 1 5 2 6 3 8 4 2 5 3 6 7 7 1 9 9 11
REMARK H PARENT 7 8 1 10 9 12
REMARK Flexibility Score: inf
ROOT
ATOM      1  C   UNL     1     -11.348 -65.334 -24.325  1.00  0.00     0.008 A 
ATOM      2  C   UNL     1     -12.016 -66.400 -23.723  1.00  0.00     0.050 A 
ATOM      3  C   UNL     1     -13.404 -66.533 -23.843  1.00  0.00     0.161 A 
ATOM      4  C   UNL     1     -14.136 -65.570 -24.584  1.00  0.00     0.200 A 
ATOM      5  C   UNL     1     -13.452 -64.497 -25.187  1.00  0.00     0.161 A 
ATOM      6  C   UNL     1     -12.064 -64.385 -25.055  1.00  0.00     0.050 A 
ENDROOT
BRANCH   3   7
ATOM      7  O   UNL     1     -14.010 -67.624 -23.216  1.00  0.00    -0.504 OA
ATOM      8  H   UNL     1     -13.509 -68.431 -22.875  1.00  0.00     0.293 HD
ENDBRANCH   3   7
BRANCH   5   9
ATOM      9  O   UNL     1     -14.135 -63.529 -25.925  1.00  0.00    -0.504 OA
ATOM     10  H   UNL     1     -13.849 -62.558 -25.938  1.00  0.00     0.293 HD
ENDBRANCH   5   9
BRANCH   4  11
ATOM     11  O   UNL     1     -15.522 -65.646 -24.739  1.00  0.00    -0.502 OA
ATOM     12  H   UNL     1     -16.115 -66.292 -24.239  1.00  0.00     0.293 HD
ENDBRANCH   4  11
TORSDOF 3
ENDMDL
MODEL 4
REMARK VINA RESULT:    -4.962      1.544      3.173
REMARK INTER + INTRA:          -5.397
REMARK INTER:                  -5.397
REMARK INTRA:                   0.000
REMARK UNBOUND:                 0.000
REMARK SMILES Oc1cccc(O)c1O
REMARK SMILES IDX 4 1 5 2 6 3 8 4 2 5 3 6 7 7 1 9 9 11
REMARK H PARENT 7 8 1 10 9 12
REMARK Flexibility Score: inf
ROOT
ATOM      1  C   UNL     1     -13.008 -63.837 -24.871  1.00  0.00     0.008 A 
ATOM      2  C   UNL     1     -12.466 -64.020 -23.599  1.00  0.00     0.050 A 
ATOM      3  C   UNL     1     -12.798 -65.144 -22.835  1.00  0.00     0.161 A 
ATOM      4  C   UNL     1     -13.698 -66.105 -23.363  1.00  0.00     0.200 A 
ATOM      5  C   UNL     1     -14.241 -65.911 -24.648  1.00  0.00     0.161 A 
ATOM      6  C   UNL     1     -13.894 -64.780 -25.394  1.00  0.00     0.050 A 
ENDROOT
BRANCH   3   7
ATOM      7  O   UNL     1     -12.219 -65.266 -21.570  1.00  0.00    -0.504 OA
ATOM      8  H   UNL     1     -12.464 -65.982 -20.902  1.00  0.00     0.293 HD
ENDBRANCH   3   7
BRANCH   5   9
ATOM      9  O   UNL     1     -15.129 -66.833 -25.203  1.00  0.00    -0.504 OA
ATOM     10  H   UNL     1     -14.912 -67.820 -25.271  1.00  0.00     0.293 HD
ENDBRANCH   5   9
BRANCH   4  11
ATOM     11  O   UNL     1     -14.070 -67.247 -22.649  1.00  0.00    -0.502 OA
ATOM     12  H   UNL     1     -14.933 -67.339 -22.133  1.00  0.00     0.293 HD
ENDBRANCH   4  11
TORSDOF 3
ENDMDL
MODEL 5
REMARK VINA RESULT:    -4.945      1.731      2.205
REMARK INTER + INTRA:          -5.378
REMARK INTER:                  -5.378
REMARK INTRA:                   0.000
REMARK UNBOUND:                 0.000
REMARK SMILES Oc1cccc(O)c1O
REMARK SMILES IDX 4 1 5 2 6 3 8 4 2 5 3 6 7 7 1 9 9 11
REMARK H PARENT 7 8 1 10 9 12
REMARK Flexibility Score: inf
ROOT
ATOM      1  C   UNL     1     -11.328 -65.333 -24.317  1.00  0.00     0.008 A 
ATOM      2  C   UNL     1     -12.044 -64.383 -25.046  1.00  0.00     0.050 A 
ATOM      3  C   UNL     1     -13.432 -64.489 -25.187  1.00  0.00     0.161 A 
ATOM      4  C   UNL     1     -14.114 -65.576 -24.584  1.00  0.00     0.200 A 
ATOM      5  C   UNL     1     -13.382 -66.530 -23.851  1.00  0.00     0.161 A 
ATOM      6  C   UNL     1     -11.995 -66.404 -23.721  1.00  0.00     0.050 A 
ENDROOT
BRANCH   3   7
ATOM      7  O   UNL     1     -14.087 -63.504 -25.929  1.00  0.00    -0.504 OA
ATOM      8  H   UNL     1     -13.858 -63.267 -26.883  1.00  0.00     0.293 HD
ENDBRANCH   3   7
BRANCH   5   9
ATOM      9  O   UNL     1     -14.016 -67.614 -23.242  1.00  0.00    -0.504 OA
ATOM     10  H   UNL     1     -15.024 -67.689 -23.186  1.00  0.00     0.293 HD
ENDBRANCH   5   9
BRANCH   4  11
ATOM     11  O   UNL     1     -15.498 -65.738 -24.690  1.00  0.00    -0.502 OA
ATOM     12  H   UNL     1     -16.117 -65.063 -25.113  1.00  0.00     0.293 HD
ENDBRANCH   4  11
TORSDOF 3
ENDMDL
MODEL 6
REMARK VINA RESULT:    -4.864      1.572      1.684
REMARK INTER + INTRA:          -5.291
REMARK INTER:                  -5.291
REMARK INTRA:                   0.000
REMARK UNBOUND:                 0.000
REMARK SMILES Oc1cccc(O)c1O
REMARK SMILES IDX 4 1 5 2 6 3 8 4 2 5 3 6 7 7 1 9 9 11
REMARK H PARENT 7 8 1 10 9 12
REMARK Flexibility Score: inf
ROOT
ATOM      1  C   UNL     1     -12.932 -63.937 -24.841  1.00  0.00     0.008 A 
ATOM      2  C   UNL     1     -13.973 -64.688 -25.388  1.00  0.00     0.050 A 
ATOM      3  C   UNL     1     -14.361 -65.900 -24.806  1.00  0.00     0.161 A 
ATOM      4  C   UNL     1     -13.685 -66.367 -23.650  1.00  0.00     0.200 A 
ATOM      5  C   UNL     1     -12.635 -65.602 -23.107  1.00  0.00     0.161 A 
ATOM      6  C   UNL     1     -12.265 -64.393 -23.704  1.00  0.00     0.050 A 
ENDROOT
BRANCH   3   7
ATOM      7  O   UNL     1     -15.411 -66.601 -25.403  1.00  0.00    -0.504 OA
ATOM      8  H   UNL     1     -15.621 -66.574 -26.391  1.00  0.00     0.293 HD
ENDBRANCH   3   7
BRANCH   5   9
ATOM      9  O   UNL     1     -11.946 -66.027 -21.970  1.00  0.00    -0.504 OA
ATOM     10  H   UNL     1     -11.234 -65.461 -21.526  1.00  0.00     0.293 HD
ENDBRANCH   5   9
BRANCH   4  11
ATOM     11  O   UNL     1     -14.025 -67.569 -23.024  1.00  0.00    -0.502 OA
ATOM     12  H   UNL     1     -13.446 -68.396 -23.030  1.00  0.00     0.293 HD
ENDBRANCH   4  11
TORSDOF 3
ENDMDL
MODEL 7
REMARK VINA RESULT:    -4.700      1.325      2.817
REMARK INTER + INTRA:          -5.112
REMARK INTER:                  -5.112
REMARK INTRA:                   0.000
REMARK UNBOUND:                 0.000
REMARK SMILES Oc1cccc(O)c1O
REMARK SMILES IDX 4 1 5 2 6 3 8 4 2 5 3 6 7 7 1 9 9 11
REMARK H PARENT 7 8 1 10 9 12
REMARK Flexibility Score: inf
ROOT
ATOM      1  C   UNL     1     -13.107 -65.421 -25.043  1.00  0.00     0.008 A 
ATOM      2  C   UNL     1     -11.766 -65.789 -24.929  1.00  0.00     0.050 A 
ATOM      3  C   UNL     1     -11.244 -66.217 -23.704  1.00  0.00     0.161 A 
ATOM      4  C   UNL     1     -12.089 -66.274 -22.567  1.00  0.00     0.200 A 
ATOM      5  C   UNL     1     -13.441 -65.899 -22.691  1.00  0.00     0.161 A 
ATOM      6  C   UNL     1     -13.942 -65.476 -23.926  1.00  0.00     0.050 A 
ENDROOT
BRANCH   3   7
ATOM      7  O   UNL     1      -9.894 -66.572 -23.660  1.00  0.00    -0.504 OA
ATOM      8  H   UNL     1      -9.499 -67.358 -24.155  1.00  0.00     0.293 HD
ENDBRANCH   3   7
BRANCH   5   9
ATOM      9  O   UNL     1     -14.305 -65.941 -21.596  1.00  0.00    -0.504 OA
ATOM     10  H   UNL     1     -15.311 -65.880 -21.698  1.00  0.00     0.293 HD
ENDBRANCH   5   9
BRANCH   4  11
ATOM     11  O   UNL     1     -11.628 -66.691 -21.315  1.00  0.00    -0.502 OA
ATOM     12  H   UNL     1     -10.739 -67.143 -21.160  1.00  0.00     0.293 HD
ENDBRANCH   4  11
TORSDOF 3
ENDMDL
MODEL 8
REMARK VINA RESULT:    -4.656      1.247      2.328
REMARK INTER + INTRA:          -5.064
REMARK INTER:                  -5.064
REMARK INTRA:                   0.000
REMARK UNBOUND:                 0.000
REMARK SMILES Oc1cccc(O)c1O
REMARK SMILES IDX 4 1 5 2 6 3 8 4 2 5 3 6 7 7 1 9 9 11
REMARK H PARENT 7 8 1 10 9 12
REMARK Flexibility Score: inf
ROOT
ATOM      1  C   UNL     1     -13.185 -65.340 -25.053  1.00  0.00     0.008 A 
ATOM      2  C   UNL     1     -14.039 -65.322 -23.950  1.00  0.00     0.050 A 
ATOM      3  C   UNL     1     -13.586 -65.733 -22.691  1.00  0.00     0.161 A 
ATOM      4  C   UNL     1     -12.247 -66.173 -22.540  1.00  0.00     0.200 A 
ATOM      5  C   UNL     1     -11.394 -66.188 -23.661  1.00  0.00     0.161 A 
ATOM      6  C   UNL     1     -11.867 -65.772 -24.909  1.00  0.00     0.050 A 
ENDROOT
BRANCH   3   7
ATOM      7  O   UNL     1     -14.492 -65.690 -21.629  1.00  0.00    -0.504 OA
ATOM      8  H   UNL     1     -15.256 -66.339 -21.509  1.00  0.00     0.293 HD
ENDBRANCH   3   7
BRANCH   5   9
ATOM      9  O   UNL     1     -10.069 -66.614 -23.553  1.00  0.00    -0.504 OA
ATOM     10  H   UNL     1      -9.455 -66.676 -24.356  1.00  0.00     0.293 HD
ENDBRANCH   5   9
BRANCH   4  11
ATOM     11  O   UNL     1     -11.737 -66.597 -21.310  1.00  0.00    -0.502 OA
ATOM     12  H   UNL     1     -12.192 -66.443 -20.423  1.00  0.00     0.293 HD
ENDBRANCH   4  11
TORSDOF 3
ENDMDL
MODEL 9
REMARK VINA RESULT:    -4.474      9.645     10.821
REMARK INTER + INTRA:          -4.866
REMARK INTER:                  -4.866
REMARK INTRA:                   0.000
REMARK UNBOUND:                 0.000
REMARK SMILES Oc1cccc(O)c1O
REMARK SMILES IDX 4 1 5 2 6 3 8 4 2 5 3 6 7 7 1 9 9 11
REMARK H PARENT 7 8 1 10 9 12
REMARK Flexibility Score: inf
ROOT
ATOM      1  C   UNL     1     -10.287 -66.892 -32.153  1.00  0.00     0.008 A 
ATOM      2  C   UNL     1      -9.143 -67.136 -31.394  1.00  0.00     0.050 A 
ATOM      3  C   UNL     1      -7.997 -66.348 -31.555  1.00  0.00     0.161 A 
ATOM      4  C   UNL     1      -8.004 -65.294 -32.503  1.00  0.00     0.200 A 
ATOM      5  C   UNL     1      -9.164 -65.056 -33.265  1.00  0.00     0.161 A 
ATOM      6  C   UNL     1     -10.297 -65.856 -33.087  1.00  0.00     0.050 A 
ENDROOT
BRANCH   3   7
ATOM      7  O   UNL     1      -6.887 -66.646 -30.762  1.00  0.00    -0.504 OA
ATOM      8  H   UNL     1      -6.182 -67.327 -31.007  1.00  0.00     0.293 HD
ENDBRANCH   3   7
BRANCH   5   9
ATOM      9  O   UNL     1      -9.210 -64.028 -34.208  1.00  0.00    -0.504 OA
ATOM     10  H   UNL     1      -8.713 -64.079 -35.088  1.00  0.00     0.293 HD
ENDBRANCH   5   9
BRANCH   4  11
ATOM     11  O   UNL     1      -6.892 -64.473 -32.711  1.00  0.00    -0.502 OA
ATOM     12  H   UNL     1      -6.768 -63.566 -32.286  1.00  0.00     0.293 HD
ENDBRANCH   4  11
TORSDOF 3
ENDMDL
