MODEL 1
REMARK VINA RESULT:    -7.083      0.000      0.000
REMARK INTER + INTRA:          -7.083
REMARK INTER:                  -7.083
REMARK INTRA:                   0.000
REMARK UNBOUND:                 0.000
REMARK SMILES C=C1CCC[C@@]2(C)CC(=O)C(=C(C)C)C[C@H]12
REMARK SMILES IDX 13 1 12 2 11 3 15 4 16 5 2 6 1 7 3 8 4 9 5 10 6 11 8 12 9 13
REMARK SMILES IDX 10 14 7 15 14 16
REMARK H PARENT
REMARK Flexibility Score: inf
ROOT
ATOM      1  C   UNL     1     -18.407  37.267  17.164  1.00  0.00     0.039 C 
ATOM      2  C   UNL     1     -17.937  38.299  16.164  1.00  0.00    -0.070 C 
ATOM      3  C   UNL     1     -17.719  37.970  14.855  1.00  0.00    -0.006 C 
ATOM      4  C   UNL     1     -17.967  36.556  14.350  1.00  0.00     0.047 C 
ATOM      5  C   UNL     1     -18.345  36.493  12.847  1.00  0.00     0.025 C 
ATOM      6  C   UNL     1     -18.485  35.076  12.281  1.00  0.00    -0.073 C 
ATOM      7  C   UNL     1     -18.453  33.961  13.036  1.00  0.00     0.008 C 
ATOM      8  C   UNL     1     -18.698  34.922  10.792  1.00  0.00     0.031 C 
ATOM      9  C   UNL     1     -18.944  36.273  10.117  1.00  0.00     0.005 C 
ATOM     10  C   UNL     1     -17.828  37.283  10.428  1.00  0.00     0.008 C 
ATOM     11  C   UNL     1     -17.381  37.331  11.940  1.00  0.00    -0.018 C 
ATOM     12  C   UNL     1     -17.417  38.802  12.421  1.00  0.00     0.088 C 
ATOM     13  C   UNL     1     -17.117  38.928  13.885  1.00  0.00     0.159 C 
ATOM     14  O   UNL     1     -16.336  39.842  14.265  1.00  0.00    -0.295 OA
ATOM     15  C   UNL     1     -15.924  36.797  12.037  1.00  0.00     0.012 C 
ATOM     16  C   UNL     1     -17.756  39.711  16.672  1.00  0.00     0.039 C 
ENDROOT
TORSDOF 0
ENDMDL
MODEL 2
REMARK VINA RESULT:    -6.907     16.417     18.966
REMARK INTER + INTRA:          -6.907
REMARK INTER:                  -6.907
REMARK INTRA:                   0.000
REMARK UNBOUND:                 0.000
REMARK SMILES C=C1CCC[C@@]2(C)CC(=O)C(=C(C)C)C[C@H]12
REMARK SMILES IDX 13 1 12 2 11 3 15 4 16 5 2 6 1 7 3 8 4 9 5 10 6 11 8 12 9 13
REMARK SMILES IDX 10 14 7 15 14 16
REMARK H PARENT
REMARK Flexibility Score: inf
ROOT
ATOM      1  C   UNL     1     -28.248  22.235  17.186  1.00  0.00     0.039 C 
ATOM      2  C   UNL     1     -28.862  21.255  16.212  1.00  0.00    -0.070 C 
ATOM      3  C   UNL     1     -29.074  21.594  14.905  1.00  0.00    -0.006 C 
ATOM      4  C   UNL     1     -28.676  22.964  14.376  1.00  0.00     0.047 C 
ATOM      5  C   UNL     1     -28.334  22.968  12.863  1.00  0.00     0.025 C 
ATOM      6  C   UNL     1     -28.043  24.353  12.275  1.00  0.00    -0.073 C 
ATOM      7  C   UNL     1     -27.925  25.471  13.016  1.00  0.00     0.008 C 
ATOM      8  C   UNL     1     -27.853  24.466  10.780  1.00  0.00     0.031 C 
ATOM      9  C   UNL     1     -27.784  23.088  10.116  1.00  0.00     0.005 C 
ATOM     10  C   UNL     1     -29.003  22.219  10.468  1.00  0.00     0.008 C 
ATOM     11  C   UNL     1     -29.412  22.239  11.991  1.00  0.00    -0.018 C 
ATOM     12  C   UNL     1     -29.535  20.778  12.490  1.00  0.00     0.088 C 
ATOM     13  C   UNL     1     -29.809  20.703  13.963  1.00  0.00     0.159 C 
ATOM     14  O   UNL     1     -30.681  19.891  14.374  1.00  0.00    -0.295 OA
ATOM     15  C   UNL     1     -30.793  22.940  12.117  1.00  0.00     0.012 C 
ATOM     16  C   UNL     1     -29.193  19.879  16.743  1.00  0.00     0.039 C 
ENDROOT
TORSDOF 0
ENDMDL
MODEL 3
REMARK VINA RESULT:    -5.754     16.500     19.205
REMARK INTER + INTRA:          -5.754
REMARK INTER:                  -5.754
REMARK INTRA:                   0.000
REMARK UNBOUND:                 0.000
REMARK SMILES C=C1CCC[C@@]2(C)CC(=O)C(=C(C)C)C[C@H]12
REMARK SMILES IDX 13 1 12 2 11 3 15 4 16 5 2 6 1 7 3 8 4 9 5 10 6 11 8 12 9 13
REMARK SMILES IDX 10 14 7 15 14 16
REMARK H PARENT
REMARK Flexibility Score: inf
ROOT
ATOM      1  C   UNL     1     -27.871  25.848  12.317  1.00  0.00     0.039 C 
ATOM      2  C   UNL     1     -29.153  25.095  12.044  1.00  0.00    -0.070 C 
ATOM      3  C   UNL     1     -29.413  23.895  12.645  1.00  0.00    -0.006 C 
ATOM      4  C   UNL     1     -28.428  23.282  13.631  1.00  0.00     0.047 C 
ATOM      5  C   UNL     1     -29.100  22.369  14.689  1.00  0.00     0.025 C 
ATOM      6  C   UNL     1     -28.124  21.646  15.623  1.00  0.00    -0.073 C 
ATOM      7  C   UNL     1     -26.800  21.888  15.656  1.00  0.00     0.008 C 
ATOM      8  C   UNL     1     -28.683  20.619  16.581  1.00  0.00     0.031 C 
ATOM      9  C   UNL     1     -30.214  20.630  16.585  1.00  0.00     0.005 C 
ATOM     10  C   UNL     1     -30.794  20.461  15.171  1.00  0.00     0.008 C 
ATOM     11  C   UNL     1     -30.094  21.335  14.061  1.00  0.00    -0.018 C 
ATOM     12  C   UNL     1     -31.183  22.117  13.285  1.00  0.00     0.088 C 
ATOM     13  C   UNL     1     -30.596  23.065  12.283  1.00  0.00     0.159 C 
ATOM     14  O   UNL     1     -31.113  23.125  11.135  1.00  0.00    -0.295 OA
ATOM     15  C   UNL     1     -29.356  20.381  13.080  1.00  0.00     0.012 C 
ATOM     16  C   UNL     1     -30.145  25.750  11.109  1.00  0.00     0.039 C 
ENDROOT
TORSDOF 0
ENDMDL
MODEL 4
REMARK VINA RESULT:    -5.699      2.057      3.474
REMARK INTER + INTRA:          -5.699
REMARK INTER:                  -5.699
REMARK INTRA:                   0.000
REMARK UNBOUND:                 0.000
REMARK SMILES C=C1CCC[C@@]2(C)CC(=O)C(=C(C)C)C[C@H]12
REMARK SMILES IDX 13 1 12 2 11 3 15 4 16 5 2 6 1 7 3 8 4 9 5 10 6 11 8 12 9 13
REMARK SMILES IDX 10 14 7 15 14 16
REMARK H PARENT
REMARK Flexibility Score: inf
ROOT
ATOM      1  C   UNL     1     -14.943  40.125  14.643  1.00  0.00     0.039 C 
ATOM      2  C   UNL     1     -14.976  39.305  13.374  1.00  0.00    -0.070 C 
ATOM      3  C   UNL     1     -15.911  38.327  13.186  1.00  0.00    -0.006 C 
ATOM      4  C   UNL     1     -16.972  38.042  14.240  1.00  0.00     0.047 C 
ATOM      5  C   UNL     1     -18.287  37.464  13.654  1.00  0.00     0.025 C 
ATOM      6  C   UNL     1     -19.330  37.059  14.701  1.00  0.00    -0.073 C 
ATOM      7  C   UNL     1     -19.212  37.322  16.016  1.00  0.00     0.008 C 
ATOM      8  C   UNL     1     -20.575  36.345  14.226  1.00  0.00     0.031 C 
ATOM      9  C   UNL     1     -20.667  36.332  12.698  1.00  0.00     0.005 C 
ATOM     10  C   UNL     1     -19.399  35.751  12.051  1.00  0.00     0.008 C 
ATOM     11  C   UNL     1     -18.044  36.276  12.663  1.00  0.00    -0.018 C 
ATOM     12  C   UNL     1     -17.142  36.782  11.510  1.00  0.00     0.088 C 
ATOM     13  C   UNL     1     -15.875  37.408  12.012  1.00  0.00     0.159 C 
ATOM     14  O   UNL     1     -14.791  37.124  11.435  1.00  0.00    -0.295 OA
ATOM     15  C   UNL     1     -17.339  35.091  13.381  1.00  0.00     0.012 C 
ATOM     16  C   UNL     1     -13.952  39.644  12.314  1.00  0.00     0.039 C 
ENDROOT
TORSDOF 0
ENDMDL
MODEL 5
REMARK VINA RESULT:    -5.521      1.848      4.886
REMARK INTER + INTRA:          -5.521
REMARK INTER:                  -5.521
REMARK INTRA:                   0.000
REMARK UNBOUND:                 0.000
REMARK SMILES C=C1CCC[C@@]2(C)CC(=O)C(=C(C)C)C[C@H]12
REMARK SMILES IDX 13 1 12 2 11 3 15 4 16 5 2 6 1 7 3 8 4 9 5 10 6 11 8 12 9 13
REMARK SMILES IDX 10 14 7 15 14 16
REMARK H PARENT
REMARK Flexibility Score: inf
ROOT
ATOM      1  C   UNL     1     -18.733  33.643  12.312  1.00  0.00     0.039 C 
ATOM      2  C   UNL     1     -17.460  34.415  12.048  1.00  0.00    -0.070 C 
ATOM      3  C   UNL     1     -17.214  35.608  12.666  1.00  0.00    -0.006 C 
ATOM      4  C   UNL     1     -18.204  36.195  13.663  1.00  0.00     0.047 C 
ATOM      5  C   UNL     1     -17.541  37.100  14.734  1.00  0.00     0.025 C 
ATOM      6  C   UNL     1     -18.525  37.798  15.679  1.00  0.00    -0.073 C 
ATOM      7  C   UNL     1     -19.846  37.539  15.710  1.00  0.00     0.008 C 
ATOM      8  C   UNL     1     -17.976  38.817  16.651  1.00  0.00     0.031 C 
ATOM      9  C   UNL     1     -16.445  38.824  16.653  1.00  0.00     0.005 C 
ATOM     10  C   UNL     1     -15.869  39.021  15.241  1.00  0.00     0.008 C 
ATOM     11  C   UNL     1     -16.560  38.155  14.119  1.00  0.00    -0.018 C 
ATOM     12  C   UNL     1     -15.463  37.398  13.330  1.00  0.00     0.088 C 
ATOM     13  C   UNL     1     -16.041  36.458  12.315  1.00  0.00     0.159 C 
ATOM     14  O   UNL     1     -15.526  36.421  11.165  1.00  0.00    -0.295 OA
ATOM     15  C   UNL     1     -17.312  39.115  13.154  1.00  0.00     0.012 C 
ATOM     16  C   UNL     1     -16.462  33.786  11.102  1.00  0.00     0.039 C 
ENDROOT
TORSDOF 0
ENDMDL
MODEL 6
REMARK VINA RESULT:    -5.413     16.044     18.450
REMARK INTER + INTRA:          -5.413
REMARK INTER:                  -5.413
REMARK INTRA:                   0.000
REMARK UNBOUND:                 0.000
REMARK SMILES C=C1CCC[C@@]2(C)CC(=O)C(=C(C)C)C[C@H]12
REMARK SMILES IDX 13 1 12 2 11 3 15 4 16 5 2 6 1 7 3 8 4 9 5 10 6 11 8 12 9 13
REMARK SMILES IDX 10 14 7 15 14 16
REMARK H PARENT
REMARK Flexibility Score: inf
ROOT
ATOM      1  C   UNL     1     -30.658  19.928  15.645  1.00  0.00     0.039 C 
ATOM      2  C   UNL     1     -29.389  20.715  15.882  1.00  0.00    -0.070 C 
ATOM      3  C   UNL     1     -28.958  21.652  14.986  1.00  0.00    -0.006 C 
ATOM      4  C   UNL     1     -29.754  21.955  13.724  1.00  0.00     0.047 C 
ATOM      5  C   UNL     1     -29.562  23.404  13.204  1.00  0.00     0.025 C 
ATOM      6  C   UNL     1     -30.258  23.703  11.872  1.00  0.00    -0.073 C 
ATOM      7  C   UNL     1     -31.106  22.853  11.263  1.00  0.00     0.008 C 
ATOM      8  C   UNL     1     -29.996  25.040  11.218  1.00  0.00     0.031 C 
ATOM      9  C   UNL     1     -29.207  25.973  12.140  1.00  0.00     0.005 C 
ATOM     10  C   UNL     1     -27.907  25.322  12.640  1.00  0.00     0.008 C 
ATOM     11  C   UNL     1     -28.057  23.829  13.122  1.00  0.00    -0.018 C 
ATOM     12  C   UNL     1     -27.437  23.700  14.535  1.00  0.00     0.088 C 
ATOM     13  C   UNL     1     -27.640  22.334  15.121  1.00  0.00     0.159 C 
ATOM     14  O   UNL     1     -26.672  21.779  15.707  1.00  0.00    -0.295 OA
ATOM     15  C   UNL     1     -27.276  22.915  12.137  1.00  0.00     0.012 C 
ATOM     16  C   UNL     1     -28.646  20.443  17.171  1.00  0.00     0.039 C 
ENDROOT
TORSDOF 0
ENDMDL
MODEL 7
REMARK VINA RESULT:    -4.912      1.833      5.380
REMARK INTER + INTRA:          -4.912
REMARK INTER:                  -4.912
REMARK INTRA:                   0.000
REMARK UNBOUND:                 0.000
REMARK SMILES C=C1CCC[C@@]2(C)CC(=O)C(=C(C)C)C[C@H]12
REMARK SMILES IDX 13 1 12 2 11 3 15 4 16 5 2 6 1 7 3 8 4 9 5 10 6 11 8 12 9 13
REMARK SMILES IDX 10 14 7 15 14 16
REMARK H PARENT
REMARK Flexibility Score: inf
ROOT
ATOM      1  C   UNL     1     -18.455  37.288   9.703  1.00  0.00     0.039 C 
ATOM      2  C   UNL     1     -18.862  36.392  10.851  1.00  0.00    -0.070 C 
ATOM      3  C   UNL     1     -18.422  36.626  12.123  1.00  0.00    -0.006 C 
ATOM      4  C   UNL     1     -17.523  37.814  12.436  1.00  0.00     0.047 C 
ATOM      5  C   UNL     1     -17.672  38.337  13.889  1.00  0.00     0.025 C 
ATOM      6  C   UNL     1     -16.697  39.456  14.269  1.00  0.00    -0.073 C 
ATOM      7  C   UNL     1     -15.882  40.070  13.391  1.00  0.00     0.008 C 
ATOM      8  C   UNL     1     -16.668  39.916  15.709  1.00  0.00     0.031 C 
ATOM      9  C   UNL     1     -17.806  39.293  16.521  1.00  0.00     0.005 C 
ATOM     10  C   UNL     1     -17.814  37.758  16.416  1.00  0.00     0.008 C 
ATOM     11  C   UNL     1     -17.608  37.194  14.958  1.00  0.00    -0.018 C 
ATOM     12  C   UNL     1     -18.739  36.180  14.655  1.00  0.00     0.088 C 
ATOM     13  C   UNL     1     -18.687  35.679  13.243  1.00  0.00     0.159 C 
ATOM     14  O   UNL     1     -18.852  34.447  13.033  1.00  0.00    -0.295 OA
ATOM     15  C   UNL     1     -16.238  36.462  14.906  1.00  0.00     0.012 C 
ATOM     16  C   UNL     1     -19.804  35.254  10.529  1.00  0.00     0.039 C 
ENDROOT
TORSDOF 0
ENDMDL
MODEL 8
REMARK VINA RESULT:    -4.645     16.633     19.146
REMARK INTER + INTRA:          -4.645
REMARK INTER:                  -4.645
REMARK INTRA:                   0.000
REMARK UNBOUND:                 0.000
REMARK SMILES C=C1CCC[C@@]2(C)CC(=O)C(=C(C)C)C[C@H]12
REMARK SMILES IDX 13 1 12 2 11 3 15 4 16 5 2 6 1 7 3 8 4 9 5 10 6 11 8 12 9 13
REMARK SMILES IDX 10 14 7 15 14 16
REMARK H PARENT
REMARK Flexibility Score: inf
ROOT
ATOM      1  C   UNL     1     -31.631  19.875  14.727  1.00  0.00     0.039 C 
ATOM      2  C   UNL     1     -31.491  20.552  13.382  1.00  0.00    -0.070 C 
ATOM      3  C   UNL     1     -30.482  21.439  13.137  1.00  0.00    -0.006 C 
ATOM      4  C   UNL     1     -29.445  21.763  14.204  1.00  0.00     0.047 C 
ATOM      5  C   UNL     1     -28.070  22.186  13.622  1.00  0.00     0.025 C 
ATOM      6  C   UNL     1     -27.043  22.630  14.668  1.00  0.00    -0.073 C 
ATOM      7  C   UNL     1     -27.229  22.517  15.997  1.00  0.00     0.008 C 
ATOM      8  C   UNL     1     -25.733  23.205  14.180  1.00  0.00     0.031 C 
ATOM      9  C   UNL     1     -25.581  23.049  12.665  1.00  0.00     0.005 C 
ATOM     10  C   UNL     1     -26.779  23.641  11.903  1.00  0.00     0.008 C 
ATOM     11  C   UNL     1     -28.190  23.275  12.503  1.00  0.00    -0.018 C 
ATOM     12  C   UNL     1     -29.080  22.711  11.369  1.00  0.00     0.088 C 
ATOM     13  C   UNL     1     -30.407  22.228  11.875  1.00  0.00     0.159 C 
ATOM     14  O   UNL     1     -31.445  22.521  11.222  1.00  0.00    -0.295 OA
ATOM     15  C   UNL     1     -28.836  24.575  13.061  1.00  0.00     0.012 C 
ATOM     16  C   UNL     1     -32.494  20.170  12.317  1.00  0.00     0.039 C 
ENDROOT
TORSDOF 0
ENDMDL
MODEL 9
REMARK VINA RESULT:    -4.486      1.499      3.054
REMARK INTER + INTRA:          -4.486
REMARK INTER:                  -4.486
REMARK INTRA:                   0.000
REMARK UNBOUND:                 0.000
REMARK SMILES C=C1CCC[C@@]2(C)CC(=O)C(=C(C)C)C[C@H]12
REMARK SMILES IDX 13 1 12 2 11 3 15 4 16 5 2 6 1 7 3 8 4 9 5 10 6 11 8 12 9 13
REMARK SMILES IDX 10 14 7 15 14 16
REMARK H PARENT
REMARK Flexibility Score: inf
ROOT
ATOM      1  C   UNL     1     -15.879  40.125  13.976  1.00  0.00     0.039 C 
ATOM      2  C   UNL     1     -16.444  39.070  14.901  1.00  0.00    -0.070 C 
ATOM      3  C   UNL     1     -17.208  38.044  14.422  1.00  0.00    -0.006 C 
ATOM      4  C   UNL     1     -17.500  37.910  12.934  1.00  0.00     0.047 C 
ATOM      5  C   UNL     1     -17.743  36.447  12.480  1.00  0.00     0.025 C 
ATOM      6  C   UNL     1     -18.154  36.293  11.012  1.00  0.00    -0.073 C 
ATOM      7  C   UNL     1     -18.152  37.304  10.124  1.00  0.00     0.008 C 
ATOM      8  C   UNL     1     -18.561  34.920  10.528  1.00  0.00     0.031 C 
ATOM      9  C   UNL     1     -18.287  33.847  11.585  1.00  0.00     0.005 C 
ATOM     10  C   UNL     1     -18.941  34.189  12.934  1.00  0.00     0.008 C 
ATOM     11  C   UNL     1     -18.759  35.685  13.397  1.00  0.00    -0.018 C 
ATOM     12  C   UNL     1     -18.209  35.693  14.844  1.00  0.00     0.088 C 
ATOM     13  C   UNL     1     -17.896  37.078  15.325  1.00  0.00     0.159 C 
ATOM     14  O   UNL     1     -18.244  37.406  16.492  1.00  0.00    -0.295 OA
ATOM     15  C   UNL     1     -20.152  36.376  13.376  1.00  0.00     0.012 C 
ATOM     16  C   UNL     1     -16.091  39.187  16.367  1.00  0.00     0.039 C 
ENDROOT
TORSDOF 0
ENDMDL
