MODEL 1
REMARK VINA RESULT:    -6.534      0.000      0.000
REMARK INTER + INTRA:          -8.170
REMARK INTER:                  -7.870
REMARK INTRA:                  -0.299
REMARK UNBOUND:                -0.299
REMARK SMILES O=c1c(O)c(-c2ccc(O)c(O)c2)oc2cc(O)cc(O)c12
REMARK SMILES IDX 5 1 3 2 2 3 1 4 22 5 20 6 19 7 17 8 16 9 15 10 14 11 6 12
REMARK SMILES IDX 7 13 8 14 9 15 13 16 11 17 10 18 12 20 4 22 21 24 18 26
REMARK H PARENT 10 19 12 21 4 23 21 25 18 27
REMARK Flexibility Score: inf
ROOT
ATOM      1  C   UNL     1       3.954  51.905   7.758  1.00  0.00     0.180 A 
ATOM      2  C   UNL     1       2.691  52.503   7.582  1.00  0.00     0.208 A 
ATOM      3  C   UNL     1       2.513  53.417   6.531  1.00  0.00     0.238 A 
ATOM      4  O   UNL     1       1.384  53.949   6.357  1.00  0.00    -0.285 OA
ATOM      5  C   UNL     1       3.600  53.733   5.692  1.00  0.00     0.111 A 
ATOM      6  C   UNL     1       3.506  54.646   4.614  1.00  0.00     0.134 A 
ATOM      7  C   UNL     1       4.637  54.913   3.828  1.00  0.00     0.093 A 
ATOM      8  C   UNL     1       5.859  54.287   4.101  1.00  0.00     0.123 A 
ATOM      9  C   UNL     1       5.956  53.387   5.163  1.00  0.00     0.094 A 
ATOM     10  C   UNL     1       4.840  53.105   5.956  1.00  0.00     0.146 A 
ATOM     11  O   UNL     1       4.960  52.239   6.955  1.00  0.00    -0.452 OA
ENDROOT
BRANCH   1  12
ATOM     12  C   UNL     1       4.214  50.919   8.832  1.00  0.00     0.025 A 
ATOM     13  C   UNL     1       4.254  49.541   8.565  1.00  0.00     0.016 A 
ATOM     14  C   UNL     1       4.525  48.632   9.589  1.00  0.00     0.051 A 
ATOM     15  C   UNL     1       4.775  49.077  10.891  1.00  0.00     0.157 A 
ATOM     16  C   UNL     1       4.486  51.369  10.132  1.00  0.00     0.062 A 
ATOM     17  C   UNL     1       4.760  50.464  11.167  1.00  0.00     0.158 A 
BRANCH  15  18
ATOM     18  O   UNL     1       5.036  48.116  11.871  1.00  0.00    -0.504 OA
ATOM     19  H   UNL     1       5.712  48.233  12.612  1.00  0.00     0.293 HD
ENDBRANCH  15  18
BRANCH  17  20
ATOM     20  O   UNL     1       5.009  50.984  12.438  1.00  0.00    -0.504 OA
ATOM     21  H   UNL     1       5.933  51.112  12.825  1.00  0.00     0.293 HD
ENDBRANCH  17  20
ENDBRANCH   1  12
BRANCH   2  22
ATOM     22  O   UNL     1       1.642  52.210   8.459  1.00  0.00    -0.502 OA
ATOM     23  H   UNL     1       1.525  52.689   9.345  1.00  0.00     0.293 HD
ENDBRANCH   2  22
BRANCH   6  24
ATOM     24  O   UNL     1       2.302  55.286   4.317  1.00  0.00    -0.507 OA
ATOM     25  H   UNL     1       1.412  54.918   4.628  1.00  0.00     0.293 HD
ENDBRANCH   6  24
BRANCH   8  26
ATOM     26  O   UNL     1       6.983  54.555   3.322  1.00  0.00    -0.508 OA
ATOM     27  H   UNL     1       7.504  53.813   2.871  1.00  0.00     0.293 HD
ENDBRANCH   8  26
TORSDOF 6
ENDMDL
MODEL 2
REMARK VINA RESULT:    -6.133     14.725     17.648
REMARK INTER + INTRA:          -7.687
REMARK INTER:                  -8.210
REMARK INTRA:                   0.523
REMARK UNBOUND:                -0.299
REMARK SMILES O=c1c(O)c(-c2ccc(O)c(O)c2)oc2cc(O)cc(O)c12
REMARK SMILES IDX 5 1 3 2 2 3 1 4 22 5 20 6 19 7 17 8 16 9 15 10 14 11 6 12
REMARK SMILES IDX 7 13 8 14 9 15 13 16 11 17 10 18 12 20 4 22 21 24 18 26
REMARK H PARENT 10 19 12 21 4 23 21 25 18 27
REMARK Flexibility Score: inf
ROOT
ATOM      1  C   UNL     1      -7.757  63.628   4.311  1.00  0.00     0.180 A 
ATOM      2  C   UNL     1      -9.031  63.987   3.832  1.00  0.00     0.208 A 
ATOM      3  C   UNL     1      -9.642  65.148   4.333  1.00  0.00     0.238 A 
ATOM      4  O   UNL     1     -10.778  65.486   3.903  1.00  0.00    -0.285 OA
ATOM      5  C   UNL     1      -8.983  65.913   5.316  1.00  0.00     0.111 A 
ATOM      6  C   UNL     1      -9.531  67.092   5.876  1.00  0.00     0.134 A 
ATOM      7  C   UNL     1      -8.815  67.795   6.856  1.00  0.00     0.093 A 
ATOM      8  C   UNL     1      -7.564  67.340   7.287  1.00  0.00     0.123 A 
ATOM      9  C   UNL     1      -7.019  66.178   6.738  1.00  0.00     0.094 A 
ATOM     10  C   UNL     1      -7.716  65.465   5.759  1.00  0.00     0.146 A 
ATOM     11  O   UNL     1      -7.171  64.367   5.249  1.00  0.00    -0.452 OA
ENDROOT
BRANCH   1  12
ATOM     12  C   UNL     1      -7.040  62.430   3.817  1.00  0.00     0.025 A 
ATOM     13  C   UNL     1      -5.722  62.152   4.210  1.00  0.00     0.016 A 
ATOM     14  C   UNL     1      -5.075  61.003   3.750  1.00  0.00     0.051 A 
ATOM     15  C   UNL     1      -5.733  60.103   2.905  1.00  0.00     0.157 A 
ATOM     16  C   UNL     1      -7.710  61.517   2.988  1.00  0.00     0.062 A 
ATOM     17  C   UNL     1      -7.070  60.361   2.522  1.00  0.00     0.158 A 
BRANCH  15  18
ATOM     18  O   UNL     1      -5.030  58.976   2.478  1.00  0.00    -0.504 OA
ATOM     19  H   UNL     1      -4.146  58.680   2.866  1.00  0.00     0.293 HD
ENDBRANCH  15  18
BRANCH  17  20
ATOM     20  O   UNL     1      -7.794  59.506   1.689  1.00  0.00    -0.504 OA
ATOM     21  H   UNL     1      -7.814  59.582   0.682  1.00  0.00     0.293 HD
ENDBRANCH  17  20
ENDBRANCH   1  12
BRANCH   2  22
ATOM     22  O   UNL     1      -9.685  63.184   2.894  1.00  0.00    -0.502 OA
ATOM     23  H   UNL     1      -9.836  62.192   3.039  1.00  0.00     0.293 HD
ENDBRANCH   2  22
BRANCH   6  24
ATOM     24  O   UNL     1     -10.777  67.571   5.466  1.00  0.00    -0.507 OA
ATOM     25  H   UNL     1     -11.619  67.018   5.567  1.00  0.00     0.293 HD
ENDBRANCH   6  24
BRANCH   8  26
ATOM     26  O   UNL     1      -6.853  68.037   8.263  1.00  0.00    -0.508 OA
ATOM     27  H   UNL     1      -7.034  69.016   8.453  1.00  0.00     0.293 HD
ENDBRANCH   8  26
TORSDOF 6
ENDMDL
MODEL 3
REMARK VINA RESULT:    -6.072      3.255      5.347
REMARK INTER + INTRA:          -7.614
REMARK INTER:                  -7.282
REMARK INTRA:                  -0.331
REMARK UNBOUND:                -0.299
REMARK SMILES O=c1c(O)c(-c2ccc(O)c(O)c2)oc2cc(O)cc(O)c12
REMARK SMILES IDX 5 1 3 2 2 3 1 4 22 5 20 6 19 7 17 8 16 9 15 10 14 11 6 12
REMARK SMILES IDX 7 13 8 14 9 15 13 16 11 17 10 18 12 20 4 22 21 24 18 26
REMARK H PARENT 10 19 12 21 4 23 21 25 18 27
REMARK Flexibility Score: inf
ROOT
ATOM      1  C   UNL     1       2.021  53.769   8.841  1.00  0.00     0.180 A 
ATOM      2  C   UNL     1       2.978  52.909   9.413  1.00  0.00     0.208 A 
ATOM      3  C   UNL     1       4.112  52.562   8.662  1.00  0.00     0.238 A 
ATOM      4  O   UNL     1       4.982  51.802   9.167  1.00  0.00    -0.285 OA
ATOM      5  C   UNL     1       4.259  53.059   7.350  1.00  0.00     0.111 A 
ATOM      6  C   UNL     1       5.368  52.754   6.526  1.00  0.00     0.134 A 
ATOM      7  C   UNL     1       5.437  53.282   5.228  1.00  0.00     0.093 A 
ATOM      8  C   UNL     1       4.417  54.107   4.740  1.00  0.00     0.123 A 
ATOM      9  C   UNL     1       3.321  54.411   5.549  1.00  0.00     0.094 A 
ATOM     10  C   UNL     1       3.236  53.896   6.846  1.00  0.00     0.146 A 
ATOM     11  O   UNL     1       2.185  54.206   7.596  1.00  0.00    -0.452 OA
ENDROOT
BRANCH   1  12
ATOM     12  C   UNL     1       0.808  54.195   9.577  1.00  0.00     0.025 A 
ATOM     13  C   UNL     1       0.827  55.304  10.437  1.00  0.00     0.016 A 
ATOM     14  C   UNL     1      -0.335  55.701  11.102  1.00  0.00     0.051 A 
ATOM     15  C   UNL     1      -1.537  55.013  10.911  1.00  0.00     0.157 A 
ATOM     16  C   UNL     1      -0.402  53.517   9.368  1.00  0.00     0.062 A 
ATOM     17  C   UNL     1      -1.573  53.908  10.029  1.00  0.00     0.158 A 
BRANCH  15  18
ATOM     18  O   UNL     1      -2.662  55.459  11.609  1.00  0.00    -0.504 OA
ATOM     19  H   UNL     1      -3.426  55.964  11.185  1.00  0.00     0.293 HD
ENDBRANCH  15  18
BRANCH  17  20
ATOM     20  O   UNL     1      -2.737  53.178   9.781  1.00  0.00    -0.504 OA
ATOM     21  H   UNL     1      -2.927  52.268  10.176  1.00  0.00     0.293 HD
ENDBRANCH  17  20
ENDBRANCH   1  12
BRANCH   2  22
ATOM     22  O   UNL     1       2.786  52.390  10.696  1.00  0.00    -0.502 OA
ATOM     23  H   UNL     1       2.890  52.955  11.531  1.00  0.00     0.293 HD
ENDBRANCH   2  22
BRANCH   6  24
ATOM     24  O   UNL     1       6.400  51.933   6.984  1.00  0.00    -0.507 OA
ATOM     25  H   UNL     1       7.243  52.316   7.395  1.00  0.00     0.293 HD
ENDBRANCH   6  24
BRANCH   8  26
ATOM     26  O   UNL     1       4.484  54.630   3.450  1.00  0.00    -0.508 OA
ATOM     27  H   UNL     1       5.269  54.436   2.839  1.00  0.00     0.293 HD
ENDBRANCH   8  26
TORSDOF 6
ENDMDL
MODEL 4
REMARK VINA RESULT:    -5.927     14.061     16.304
REMARK INTER + INTRA:          -7.439
REMARK INTER:                  -7.106
REMARK INTRA:                  -0.332
REMARK UNBOUND:                -0.299
REMARK SMILES O=c1c(O)c(-c2ccc(O)c(O)c2)oc2cc(O)cc(O)c12
REMARK SMILES IDX 5 1 3 2 2 3 1 4 22 5 20 6 19 7 17 8 16 9 15 10 14 11 6 12
REMARK SMILES IDX 7 13 8 14 9 15 13 16 11 17 10 18 12 20 4 22 21 24 18 26
REMARK H PARENT 10 19 12 21 4 23 21 25 18 27
REMARK Flexibility Score: inf
ROOT
ATOM      1  C   UNL     1      -5.767  64.546   5.801  1.00  0.00     0.180 A 
ATOM      2  C   UNL     1      -7.031  65.026   5.405  1.00  0.00     0.208 A 
ATOM      3  C   UNL     1      -7.785  64.274   4.490  1.00  0.00     0.238 A 
ATOM      4  O   UNL     1      -8.922  64.687   4.136  1.00  0.00    -0.285 OA
ATOM      5  C   UNL     1      -7.257  63.073   3.972  1.00  0.00     0.111 A 
ATOM      6  C   UNL     1      -7.949  62.260   3.043  1.00  0.00     0.134 A 
ATOM      7  C   UNL     1      -7.352  61.083   2.569  1.00  0.00     0.093 A 
ATOM      8  C   UNL     1      -6.077  60.705   3.004  1.00  0.00     0.123 A 
ATOM      9  C   UNL     1      -5.390  61.504   3.919  1.00  0.00     0.094 A 
ATOM     10  C   UNL     1      -5.969  62.680   4.405  1.00  0.00     0.146 A 
ATOM     11  O   UNL     1      -5.295  63.417   5.281  1.00  0.00    -0.452 OA
ENDROOT
BRANCH   1  12
ATOM     12  C   UNL     1      -4.921  65.273   6.776  1.00  0.00     0.025 A 
ATOM     13  C   UNL     1      -5.020  65.029   8.154  1.00  0.00     0.016 A 
ATOM     14  C   UNL     1      -4.195  65.709   9.052  1.00  0.00     0.051 A 
ATOM     15  C   UNL     1      -3.248  66.632   8.594  1.00  0.00     0.157 A 
ATOM     16  C   UNL     1      -3.958  66.181   6.312  1.00  0.00     0.062 A 
ATOM     17  C   UNL     1      -3.124  66.868   7.205  1.00  0.00     0.158 A 
BRANCH  15  18
ATOM     18  O   UNL     1      -2.457  67.281   9.544  1.00  0.00    -0.504 OA
ATOM     19  H   UNL     1      -2.720  68.138  10.008  1.00  0.00     0.293 HD
ENDBRANCH  15  18
BRANCH  17  20
ATOM     20  O   UNL     1      -2.198  67.767   6.673  1.00  0.00    -0.504 OA
ATOM     21  H   UNL     1      -2.355  68.310   5.836  1.00  0.00     0.293 HD
ENDBRANCH  17  20
ENDBRANCH   1  12
BRANCH   2  22
ATOM     22  O   UNL     1      -7.510  66.244   5.895  1.00  0.00    -0.502 OA
ATOM     23  H   UNL     1      -7.375  67.118   5.401  1.00  0.00     0.293 HD
ENDBRANCH   2  22
BRANCH   6  24
ATOM     24  O   UNL     1      -9.222  62.610   2.590  1.00  0.00    -0.507 OA
ATOM     25  H   UNL     1      -9.604  63.537   2.735  1.00  0.00     0.293 HD
ENDBRANCH   6  24
BRANCH   8  26
ATOM     26  O   UNL     1      -5.483  59.537   2.530  1.00  0.00    -0.508 OA
ATOM     27  H   UNL     1      -6.029  58.708   2.328  1.00  0.00     0.293 HD
ENDBRANCH   8  26
TORSDOF 6
ENDMDL
MODEL 5
REMARK VINA RESULT:    -5.881     12.351     14.471
REMARK INTER + INTRA:          -7.383
REMARK INTER:                  -7.082
REMARK INTRA:                  -0.301
REMARK UNBOUND:                -0.299
REMARK SMILES O=c1c(O)c(-c2ccc(O)c(O)c2)oc2cc(O)cc(O)c12
REMARK SMILES IDX 5 1 3 2 2 3 1 4 22 5 20 6 19 7 17 8 16 9 15 10 14 11 6 12
REMARK SMILES IDX 7 13 8 14 9 15 13 16 11 17 10 18 12 20 4 22 21 24 18 26
REMARK H PARENT 10 19 12 21 4 23 21 25 18 27
REMARK Flexibility Score: inf
ROOT
ATOM      1  C   UNL     1      -5.486  62.401   6.296  1.00  0.00     0.180 A 
ATOM      2  C   UNL     1      -6.236  63.580   6.124  1.00  0.00     0.208 A 
ATOM      3  C   UNL     1      -7.128  63.664   5.043  1.00  0.00     0.238 A 
ATOM      4  O   UNL     1      -7.814  64.710   4.885  1.00  0.00    -0.285 OA
ATOM      5  C   UNL     1      -7.238  62.584   4.144  1.00  0.00     0.111 A 
ATOM      6  C   UNL     1      -8.109  62.591   3.028  1.00  0.00     0.134 A 
ATOM      7  C   UNL     1      -8.155  61.478   2.175  1.00  0.00     0.093 A 
ATOM      8  C   UNL     1      -7.347  60.361   2.416  1.00  0.00     0.123 A 
ATOM      9  C   UNL     1      -6.486  60.350   3.515  1.00  0.00     0.094 A 
ATOM     10  C   UNL     1      -6.428  61.448   4.378  1.00  0.00     0.146 A 
ATOM     11  O   UNL     1      -5.605  61.407   5.420  1.00  0.00    -0.452 OA
ENDROOT
BRANCH   1  12
ATOM     12  C   UNL     1      -4.539  62.229   7.422  1.00  0.00     0.025 A 
ATOM     13  C   UNL     1      -4.884  61.485   8.561  1.00  0.00     0.016 A 
ATOM     14  C   UNL     1      -3.966  61.317   9.599  1.00  0.00     0.051 A 
ATOM     15  C   UNL     1      -2.684  61.872   9.516  1.00  0.00     0.157 A 
ATOM     16  C   UNL     1      -3.247  62.768   7.327  1.00  0.00     0.062 A 
ATOM     17  C   UNL     1      -2.318  62.604   8.363  1.00  0.00     0.158 A 
BRANCH  15  18
ATOM     18  O   UNL     1      -1.815  61.671  10.590  1.00  0.00    -0.504 OA
ATOM     19  H   UNL     1      -1.842  62.203  11.447  1.00  0.00     0.293 HD
ENDBRANCH  15  18
BRANCH  17  20
ATOM     20  O   UNL     1      -1.056  63.180   8.204  1.00  0.00    -0.504 OA
ATOM     21  H   UNL     1      -0.411  62.932   7.467  1.00  0.00     0.293 HD
ENDBRANCH  17  20
ENDBRANCH   1  12
BRANCH   2  22
ATOM     22  O   UNL     1      -6.072  64.656   7.000  1.00  0.00    -0.502 OA
ATOM     23  H   UNL     1      -5.365  64.662   7.726  1.00  0.00     0.293 HD
ENDBRANCH   2  22
BRANCH   6  24
ATOM     24  O   UNL     1      -8.926  63.690   2.761  1.00  0.00    -0.507 OA
ATOM     25  H   UNL     1      -9.827  63.587   2.309  1.00  0.00     0.293 HD
ENDBRANCH   6  24
BRANCH   8  26
ATOM     26  O   UNL     1      -7.391  59.257   1.567  1.00  0.00    -0.508 OA
ATOM     27  H   UNL     1      -8.066  58.513   1.700  1.00  0.00     0.293 HD
ENDBRANCH   8  26
TORSDOF 6
ENDMDL
MODEL 6
REMARK VINA RESULT:    -5.855     14.970     17.000
REMARK INTER + INTRA:          -7.352
REMARK INTER:                  -7.065
REMARK INTRA:                  -0.287
REMARK UNBOUND:                -0.299
REMARK SMILES O=c1c(O)c(-c2ccc(O)c(O)c2)oc2cc(O)cc(O)c12
REMARK SMILES IDX 5 1 3 2 2 3 1 4 22 5 20 6 19 7 17 8 16 9 15 10 14 11 6 12
REMARK SMILES IDX 7 13 8 14 9 15 13 16 11 17 10 18 12 20 4 22 21 24 18 26
REMARK H PARENT 10 19 12 21 4 23 21 25 18 27
REMARK Flexibility Score: inf
ROOT
ATOM      1  C   UNL     1      -5.395  65.050   5.963  1.00  0.00     0.180 A 
ATOM      2  C   UNL     1      -5.206  63.666   5.789  1.00  0.00     0.208 A 
ATOM      3  C   UNL     1      -6.016  62.981   4.869  1.00  0.00     0.238 A 
ATOM      4  O   UNL     1      -5.848  61.744   4.696  1.00  0.00    -0.285 OA
ATOM      5  C   UNL     1      -7.011  63.684   4.159  1.00  0.00     0.111 A 
ATOM      6  C   UNL     1      -7.871  63.068   3.218  1.00  0.00     0.134 A 
ATOM      7  C   UNL     1      -8.842  63.835   2.557  1.00  0.00     0.093 A 
ATOM      8  C   UNL     1      -8.970  65.204   2.821  1.00  0.00     0.123 A 
ATOM      9  C   UNL     1      -8.124  65.815   3.748  1.00  0.00     0.094 A 
ATOM     10  C   UNL     1      -7.148  65.068   4.415  1.00  0.00     0.146 A 
ATOM     11  O   UNL     1      -6.353  65.677   5.287  1.00  0.00    -0.452 OA
ENDROOT
BRANCH   1  12
ATOM     12  C   UNL     1      -4.568  65.845   6.901  1.00  0.00     0.025 A 
ATOM     13  C   UNL     1      -4.798  65.815   8.285  1.00  0.00     0.016 A 
ATOM     14  C   UNL     1      -3.990  66.553   9.151  1.00  0.00     0.051 A 
ATOM     15  C   UNL     1      -2.931  67.322   8.658  1.00  0.00     0.157 A 
ATOM     16  C   UNL     1      -3.493  66.598   6.406  1.00  0.00     0.062 A 
ATOM     17  C   UNL     1      -2.676  67.343   7.267  1.00  0.00     0.158 A 
BRANCH  15  18
ATOM     18  O   UNL     1      -2.163  68.041   9.576  1.00  0.00    -0.504 OA
ATOM     19  H   UNL     1      -1.889  67.689  10.482  1.00  0.00     0.293 HD
ENDBRANCH  15  18
BRANCH  17  20
ATOM     20  O   UNL     1      -1.633  68.079   6.701  1.00  0.00    -0.504 OA
ATOM     21  H   UNL     1      -1.719  68.618   5.852  1.00  0.00     0.293 HD
ENDBRANCH  17  20
ENDBRANCH   1  12
BRANCH   2  22
ATOM     22  O   UNL     1      -4.246  62.984   6.542  1.00  0.00    -0.502 OA
ATOM     23  H   UNL     1      -4.433  62.640   7.476  1.00  0.00     0.293 HD
ENDBRANCH   2  22
BRANCH   6  24
ATOM     24  O   UNL     1      -7.768  61.706   2.934  1.00  0.00    -0.507 OA
ATOM     25  H   UNL     1      -7.496  61.371   2.018  1.00  0.00     0.293 HD
ENDBRANCH   6  24
BRANCH   8  26
ATOM     26  O   UNL     1      -9.936  65.965   2.166  1.00  0.00    -0.508 OA
ATOM     27  H   UNL     1     -10.908  65.682   2.143  1.00  0.00     0.293 HD
ENDBRANCH   8  26
TORSDOF 6
ENDMDL
MODEL 7
REMARK VINA RESULT:    -5.794      2.252      7.066
REMARK INTER + INTRA:          -7.279
REMARK INTER:                  -7.013
REMARK INTRA:                  -0.266
REMARK UNBOUND:                -0.299
REMARK SMILES O=c1c(O)c(-c2ccc(O)c(O)c2)oc2cc(O)cc(O)c12
REMARK SMILES IDX 5 1 3 2 2 3 1 4 22 5 20 6 19 7 17 8 16 9 15 10 14 11 6 12
REMARK SMILES IDX 7 13 8 14 9 15 13 16 11 17 10 18 12 20 4 22 21 24 18 26
REMARK H PARENT 10 19 12 21 4 23 21 25 18 27
REMARK Flexibility Score: inf
ROOT
ATOM      1  C   UNL     1       3.576  52.602   8.208  1.00  0.00     0.180 A 
ATOM      2  C   UNL     1       4.106  53.035   9.439  1.00  0.00     0.208 A 
ATOM      3  C   UNL     1       3.633  52.450  10.625  1.00  0.00     0.238 A 
ATOM      4  O   UNL     1       4.108  52.821  11.732  1.00  0.00    -0.285 OA
ATOM      5  C   UNL     1       2.628  51.463  10.562  1.00  0.00     0.111 A 
ATOM      6  C   UNL     1       2.095  50.827  11.709  1.00  0.00     0.134 A 
ATOM      7  C   UNL     1       1.090  49.859  11.563  1.00  0.00     0.093 A 
ATOM      8  C   UNL     1       0.609  49.517  10.295  1.00  0.00     0.123 A 
ATOM      9  C   UNL     1       1.131  50.141   9.161  1.00  0.00     0.094 A 
ATOM     10  C   UNL     1       2.135  51.106   9.285  1.00  0.00     0.146 A 
ATOM     11  O   UNL     1       2.619  51.679   8.189  1.00  0.00    -0.452 OA
ENDROOT
BRANCH   1  12
ATOM     12  C   UNL     1       4.036  53.158   6.915  1.00  0.00     0.025 A 
ATOM     13  C   UNL     1       5.292  52.827   6.382  1.00  0.00     0.016 A 
ATOM     14  C   UNL     1       5.694  53.344   5.150  1.00  0.00     0.051 A 
ATOM     15  C   UNL     1       4.850  54.187   4.419  1.00  0.00     0.157 A 
ATOM     16  C   UNL     1       3.179  53.986   6.174  1.00  0.00     0.062 A 
ATOM     17  C   UNL     1       3.573  54.510   4.936  1.00  0.00     0.158 A 
BRANCH  15  18
ATOM     18  O   UNL     1       5.314  54.674   3.195  1.00  0.00    -0.504 OA
ATOM     19  H   UNL     1       5.772  55.566   3.079  1.00  0.00     0.293 HD
ENDBRANCH  15  18
BRANCH  17  20
ATOM     20  O   UNL     1       2.673  55.336   4.261  1.00  0.00    -0.504 OA
ATOM     21  H   UNL     1       1.991  55.003   3.595  1.00  0.00     0.293 HD
ENDBRANCH  17  20
ENDBRANCH   1  12
BRANCH   2  22
ATOM     22  O   UNL     1       5.065  54.051   9.477  1.00  0.00    -0.502 OA
ATOM     23  H   UNL     1       4.848  55.012   9.242  1.00  0.00     0.293 HD
ENDBRANCH   2  22
BRANCH   6  24
ATOM     24  O   UNL     1       2.554  51.148  12.987  1.00  0.00    -0.507 OA
ATOM     25  H   UNL     1       3.383  50.718  13.379  1.00  0.00     0.293 HD
ENDBRANCH   6  24
BRANCH   8  26
ATOM     26  O   UNL     1      -0.391  48.557  10.151  1.00  0.00    -0.508 OA
ATOM     27  H   UNL     1      -0.499  47.800  10.815  1.00  0.00     0.293 HD
ENDBRANCH   8  26
TORSDOF 6
ENDMDL
MODEL 8
REMARK VINA RESULT:    -5.791      2.501      3.748
REMARK INTER + INTRA:          -7.276
REMARK INTER:                  -6.973
REMARK INTRA:                  -0.303
REMARK UNBOUND:                -0.299
REMARK SMILES O=c1c(O)c(-c2ccc(O)c(O)c2)oc2cc(O)cc(O)c12
REMARK SMILES IDX 5 1 3 2 2 3 1 4 22 5 20 6 19 7 17 8 16 9 15 10 14 11 6 12
REMARK SMILES IDX 7 13 8 14 9 15 13 16 11 17 10 18 12 20 4 22 21 24 18 26
REMARK H PARENT 10 19 12 21 4 23 21 25 18 27
REMARK Flexibility Score: inf
ROOT
ATOM      1  C   UNL     1       2.878  51.754   8.368  1.00  0.00     0.180 A 
ATOM      2  C   UNL     1       4.206  51.367   8.104  1.00  0.00     0.208 A 
ATOM      3  C   UNL     1       4.903  52.000   7.063  1.00  0.00     0.238 A 
ATOM      4  O   UNL     1       6.096  51.669   6.824  1.00  0.00    -0.285 OA
ATOM      5  C   UNL     1       4.258  52.989   6.292  1.00  0.00     0.111 A 
ATOM      6  C   UNL     1       4.887  53.671   5.224  1.00  0.00     0.134 A 
ATOM      7  C   UNL     1       4.174  54.638   4.500  1.00  0.00     0.093 A 
ATOM      8  C   UNL     1       2.845  54.933   4.823  1.00  0.00     0.123 A 
ATOM      9  C   UNL     1       2.220  54.263   5.875  1.00  0.00     0.094 A 
ATOM     10  C   UNL     1       2.914  53.298   6.611  1.00  0.00     0.146 A 
ATOM     11  O   UNL     1       2.297  52.681   7.611  1.00  0.00    -0.452 OA
ENDROOT
BRANCH   1  12
ATOM     12  C   UNL     1       2.084  51.146   9.461  1.00  0.00     0.025 A 
ATOM     13  C   UNL     1       2.265  51.532  10.798  1.00  0.00     0.016 A 
ATOM     14  C   UNL     1       1.488  50.962  11.808  1.00  0.00     0.051 A 
ATOM     15  C   UNL     1       0.509  50.011  11.505  1.00  0.00     0.157 A 
ATOM     16  C   UNL     1       1.088  50.208   9.151  1.00  0.00     0.062 A 
ATOM     17  C   UNL     1       0.302  49.631  10.158  1.00  0.00     0.158 A 
BRANCH  15  18
ATOM     18  O   UNL     1      -0.232  49.476  12.561  1.00  0.00    -0.504 OA
ATOM     19  H   UNL     1       0.042  49.538  13.531  1.00  0.00     0.293 HD
ENDBRANCH  15  18
BRANCH  17  20
ATOM     20  O   UNL     1      -0.661  48.696   9.776  1.00  0.00    -0.504 OA
ATOM     21  H   UNL     1      -1.333  48.847   9.038  1.00  0.00     0.293 HD
ENDBRANCH  17  20
ENDBRANCH   1  12
BRANCH   2  22
ATOM     22  O   UNL     1       4.807  50.349   8.850  1.00  0.00    -0.502 OA
ATOM     23  H   UNL     1       4.862  50.377   9.861  1.00  0.00     0.293 HD
ENDBRANCH   2  22
BRANCH   6  24
ATOM     24  O   UNL     1       6.212  53.398   4.877  1.00  0.00    -0.507 OA
ATOM     25  H   UNL     1       6.529  53.431   3.916  1.00  0.00     0.293 HD
ENDBRANCH   6  24
BRANCH   8  26
ATOM     26  O   UNL     1       2.136  55.892   4.102  1.00  0.00    -0.508 OA
ATOM     27  H   UNL     1       2.607  56.648   3.619  1.00  0.00     0.293 HD
ENDBRANCH   8  26
TORSDOF 6
ENDMDL
MODEL 9
REMARK VINA RESULT:    -5.673     12.721     15.130
REMARK INTER + INTRA:          -7.134
REMARK INTER:                  -7.297
REMARK INTRA:                   0.163
REMARK UNBOUND:                -0.299
REMARK SMILES O=c1c(O)c(-c2ccc(O)c(O)c2)oc2cc(O)cc(O)c12
REMARK SMILES IDX 5 1 3 2 2 3 1 4 22 5 20 6 19 7 17 8 16 9 15 10 14 11 6 12
REMARK SMILES IDX 7 13 8 14 9 15 13 16 11 17 10 18 12 20 4 22 21 24 18 26
REMARK H PARENT 10 19 12 21 4 23 21 25 18 27
REMARK Flexibility Score: inf
ROOT
ATOM      1  C   UNL     1      -5.044  63.076   5.495  1.00  0.00     0.180 A 
ATOM      2  C   UNL     1      -5.105  64.482   5.442  1.00  0.00     0.208 A 
ATOM      3  C   UNL     1      -4.373  65.229   6.378  1.00  0.00     0.238 A 
ATOM      4  O   UNL     1      -4.410  66.488   6.332  1.00  0.00    -0.285 OA
ATOM      5  C   UNL     1      -3.614  64.562   7.361  1.00  0.00     0.111 A 
ATOM      6  C   UNL     1      -2.852  65.240   8.343  1.00  0.00     0.134 A 
ATOM      7  C   UNL     1      -2.128  64.503   9.293  1.00  0.00     0.093 A 
ATOM      8  C   UNL     1      -2.154  63.104   9.280  1.00  0.00     0.123 A 
ATOM      9  C   UNL     1      -2.904  62.431   8.314  1.00  0.00     0.094 A 
ATOM     10  C   UNL     1      -3.630  63.147   7.357  1.00  0.00     0.146 A 
ATOM     11  O   UNL     1      -4.329  62.481   6.446  1.00  0.00    -0.452 OA
ENDROOT
BRANCH   1  12
ATOM     12  C   UNL     1      -5.773  62.220   4.531  1.00  0.00     0.025 A 
ATOM     13  C   UNL     1      -7.062  62.554   4.085  1.00  0.00     0.016 A 
ATOM     14  C   UNL     1      -7.719  61.745   3.157  1.00  0.00     0.051 A 
ATOM     15  C   UNL     1      -7.102  60.598   2.646  1.00  0.00     0.157 A 
ATOM     16  C   UNL     1      -5.144  61.083   4.003  1.00  0.00     0.062 A 
ATOM     17  C   UNL     1      -5.795  60.264   3.071  1.00  0.00     0.158 A 
BRANCH  15  18
ATOM     18  O   UNL     1      -7.815  59.829   1.724  1.00  0.00    -0.504 OA
ATOM     19  H   UNL     1      -7.571  59.745   0.748  1.00  0.00     0.293 HD
ENDBRANCH  15  18
BRANCH  17  20
ATOM     20  O   UNL     1      -5.112  59.142   2.600  1.00  0.00    -0.504 OA
ATOM     21  H   UNL     1      -4.347  58.700   3.089  1.00  0.00     0.293 HD
ENDBRANCH  17  20
ENDBRANCH   1  12
BRANCH   2  22
ATOM     22  O   UNL     1      -5.905  65.119   4.488  1.00  0.00    -0.502 OA
ATOM     23  H   UNL     1      -6.363  66.004   4.668  1.00  0.00     0.293 HD
ENDBRANCH   2  22
BRANCH   6  24
ATOM     24  O   UNL     1      -2.806  66.634   8.382  1.00  0.00    -0.507 OA
ATOM     25  H   UNL     1      -3.268  67.162   9.112  1.00  0.00     0.293 HD
ENDBRANCH   6  24
BRANCH   8  26
ATOM     26  O   UNL     1      -1.437  62.373  10.225  1.00  0.00    -0.508 OA
ATOM     27  H   UNL     1      -0.424  62.382  10.246  1.00  0.00     0.293 HD
ENDBRANCH   8  26
TORSDOF 6
ENDMDL
