MODEL 1
REMARK VINA RESULT:    -1.235      0.000      0.000
REMARK INTER + INTRA:          -7.893
REMARK INTER:                  -2.824
REMARK INTRA:                  -5.069
REMARK UNBOUND:                -5.069
REMARK SMILES CCCCCCCCCCCCCCCCCCCCCCCC(=O)[O-]
REMARK SMILES IDX 13 1 14 2 15 3 16 4 17 5 18 6 19 7 20 8 21 9 22 10 23 11
REMARK SMILES IDX 24 12 25 13 26 14 12 15 11 16 10 17 9 18 8 19 7 20 6 21 5 22
REMARK SMILES IDX 4 23 3 24 2 25 1 26
REMARK H PARENT
REMARK Flexibility Score: inf
ROOT
ATOM      1  C   UNL     1      20.191 -26.774   3.143  1.00  0.00     0.000 C 
ENDROOT
BRANCH   1   2
ATOM      2  C   UNL     1      20.802 -27.314   4.453  1.00  0.00     0.000 C 
BRANCH   2   3
ATOM      3  C   UNL     1      20.197 -28.662   4.870  1.00  0.00     0.000 C 
BRANCH   3   4
ATOM      4  C   UNL     1      18.731 -28.761   4.434  1.00  0.00     0.000 C 
BRANCH   4   5
ATOM      5  C   UNL     1      18.298 -30.226   4.273  1.00  0.00     0.000 C 
BRANCH   5   6
ATOM      6  C   UNL     1      17.151 -30.391   3.263  1.00  0.00     0.000 C 
BRANCH   6   7
ATOM      7  C   UNL     1      17.063 -31.821   2.700  1.00  0.00     0.000 C 
BRANCH   7   8
ATOM      8  C   UNL     1      18.377 -32.600   2.866  1.00  0.00     0.000 C 
BRANCH   8   9
ATOM      9  C   UNL     1      18.842 -33.252   1.554  1.00  0.00     0.000 C 
BRANCH   9  10
ATOM     10  C   UNL     1      20.325 -33.631   1.622  1.00  0.00     0.006 C 
BRANCH  10  11
ATOM     11  C   UNL     1      20.781 -33.804   3.073  1.00  0.00     0.053 C 
BRANCH  11  12
ATOM     12  C   UNL     1      21.981 -32.954   3.350  1.00  0.00     0.041 C 
ATOM     13  O   UNL     1      23.044 -33.127   2.700  1.00  0.00    -0.550 OA
ATOM     14  O   UNL     1      21.938 -32.000   4.359  1.00  0.00    -0.550 OA
ENDBRANCH  11  12
ENDBRANCH  10  11
ENDBRANCH   9  10
ENDBRANCH   8   9
ENDBRANCH   7   8
ENDBRANCH   6   7
ENDBRANCH   5   6
ENDBRANCH   4   5
ENDBRANCH   3   4
ENDBRANCH   2   3
ENDBRANCH   1   2
BRANCH   1  15
ATOM     15  C   UNL     1      21.217 -26.110   2.210  1.00  0.00     0.000 C 
BRANCH  15  16
ATOM     16  C   UNL     1      20.750 -26.063   0.745  1.00  0.00     0.000 C 
BRANCH  16  17
ATOM     17  C   UNL     1      21.936 -26.055  -0.244  1.00  0.00     0.000 C 
BRANCH  17  18
ATOM     18  C   UNL     1      21.774 -27.045  -1.410  1.00  0.00    -0.000 C 
BRANCH  18  19
ATOM     19  C   UNL     1      20.438 -27.807  -1.366  1.00  0.00    -0.000 C 
BRANCH  19  20
ATOM     20  C   UNL     1      20.602 -29.270  -0.923  1.00  0.00    -0.000 C 
BRANCH  20  21
ATOM     21  C   UNL     1      19.805 -29.594   0.353  1.00  0.00    -0.000 C 
BRANCH  21  22
ATOM     22  C   UNL     1      20.711 -30.004   1.525  1.00  0.00    -0.000 C 
BRANCH  22  23
ATOM     23  C   UNL     1      22.205 -29.983   1.153  1.00  0.00    -0.000 C 
BRANCH  23  24
ATOM     24  C   UNL     1      23.074 -29.332   2.241  1.00  0.00    -0.000 C 
BRANCH  24  25
ATOM     25  C   UNL     1      24.153 -28.408   1.660  1.00  0.00    -0.003 C 
ATOM     26  C   UNL     1      24.506 -28.809   0.230  1.00  0.00     0.004 C 
ENDBRANCH  24  25
ENDBRANCH  23  24
ENDBRANCH  22  23
ENDBRANCH  21  22
ENDBRANCH  20  21
ENDBRANCH  19  20
ENDBRANCH  18  19
ENDBRANCH  17  18
ENDBRANCH  16  17
ENDBRANCH  15  16
ENDBRANCH   1  15
TORSDOF 22
ENDMDL
MODEL 2
REMARK VINA RESULT:    -1.219      3.360      7.655
REMARK INTER + INTRA:          -7.857
REMARK INTER:                  -3.049
REMARK INTRA:                  -4.808
REMARK UNBOUND:                -5.069
REMARK SMILES CCCCCCCCCCCCCCCCCCCCCCCC(=O)[O-]
REMARK SMILES IDX 13 1 14 2 15 3 16 4 17 5 18 6 19 7 20 8 21 9 22 10 23 11
REMARK SMILES IDX 24 12 25 13 26 14 12 15 11 16 10 17 9 18 8 19 7 20 6 21 5 22
REMARK SMILES IDX 4 23 3 24 2 25 1 26
REMARK H PARENT
REMARK Flexibility Score: inf
ROOT
ATOM      1  C   UNL     1      13.942 -32.435   1.982  1.00  0.00     0.000 C 
ENDROOT
BRANCH   1   2
ATOM      2  C   UNL     1      12.889 -33.500   1.612  1.00  0.00     0.000 C 
BRANCH   2   3
ATOM      3  C   UNL     1      13.436 -34.552   0.636  1.00  0.00     0.000 C 
BRANCH   3   4
ATOM      4  C   UNL     1      14.750 -34.079   0.005  1.00  0.00     0.000 C 
BRANCH   4   5
ATOM      5  C   UNL     1      15.710 -35.256  -0.227  1.00  0.00     0.000 C 
BRANCH   5   6
ATOM      6  C   UNL     1      17.138 -34.951   0.253  1.00  0.00     0.000 C 
BRANCH   6   7
ATOM      7  C   UNL     1      17.177 -33.842   1.320  1.00  0.00     0.000 C 
BRANCH   7   8
ATOM      8  C   UNL     1      18.506 -33.817   2.093  1.00  0.00     0.000 C 
BRANCH   8   9
ATOM      9  C   UNL     1      19.480 -32.761   1.549  1.00  0.00     0.000 C 
BRANCH   9  10
ATOM     10  C   UNL     1      19.558 -31.549   2.484  1.00  0.00     0.006 C 
BRANCH  10  11
ATOM     11  C   UNL     1      19.350 -30.244   1.709  1.00  0.00     0.053 C 
BRANCH  11  12
ATOM     12  C   UNL     1      20.534 -29.344   1.872  1.00  0.00     0.041 C 
ATOM     13  O   UNL     1      20.371 -28.131   2.165  1.00  0.00    -0.550 OA
ATOM     14  O   UNL     1      21.815 -29.835   1.656  1.00  0.00    -0.550 OA
ENDBRANCH  11  12
ENDBRANCH  10  11
ENDBRANCH   9  10
ENDBRANCH   8   9
ENDBRANCH   7   8
ENDBRANCH   6   7
ENDBRANCH   5   6
ENDBRANCH   4   5
ENDBRANCH   3   4
ENDBRANCH   2   3
ENDBRANCH   1   2
BRANCH   1  15
ATOM     15  C   UNL     1      13.349 -31.189   2.661  1.00  0.00     0.000 C 
BRANCH  15  16
ATOM     16  C   UNL     1      14.318 -29.995   2.671  1.00  0.00     0.000 C 
BRANCH  16  17
ATOM     17  C   UNL     1      15.788 -30.438   2.832  1.00  0.00     0.000 C 
BRANCH  17  18
ATOM     18  C   UNL     1      16.506 -29.778   4.021  1.00  0.00    -0.000 C 
BRANCH  18  19
ATOM     19  C   UNL     1      16.919 -30.789   5.105  1.00  0.00    -0.000 C 
BRANCH  19  20
ATOM     20  C   UNL     1      16.470 -32.223   4.782  1.00  0.00    -0.000 C 
BRANCH  20  21
ATOM     21  C   UNL     1      15.393 -32.739   5.753  1.00  0.00    -0.000 C 
BRANCH  21  22
ATOM     22  C   UNL     1      14.606 -33.929   5.182  1.00  0.00    -0.000 C 
BRANCH  22  23
ATOM     23  C   UNL     1      15.490 -34.880   4.354  1.00  0.00    -0.000 C 
BRANCH  23  24
ATOM     24  C   UNL     1      14.694 -36.050   3.751  1.00  0.00    -0.000 C 
BRANCH  24  25
ATOM     25  C   UNL     1      15.583 -37.027   2.970  1.00  0.00    -0.003 C 
ATOM     26  C   UNL     1      17.024 -36.979   3.472  1.00  0.00     0.004 C 
ENDBRANCH  24  25
ENDBRANCH  23  24
ENDBRANCH  22  23
ENDBRANCH  21  22
ENDBRANCH  20  21
ENDBRANCH  19  20
ENDBRANCH  18  19
ENDBRANCH  17  18
ENDBRANCH  16  17
ENDBRANCH  15  16
ENDBRANCH   1  15
TORSDOF 22
ENDMDL
MODEL 3
REMARK VINA RESULT:    -1.180      3.404      7.598
REMARK INTER + INTRA:          -7.767
REMARK INTER:                  -3.913
REMARK INTRA:                  -3.854
REMARK UNBOUND:                -5.069
REMARK SMILES CCCCCCCCCCCCCCCCCCCCCCCC(=O)[O-]
REMARK SMILES IDX 13 1 14 2 15 3 16 4 17 5 18 6 19 7 20 8 21 9 22 10 23 11
REMARK SMILES IDX 24 12 25 13 26 14 12 15 11 16 10 17 9 18 8 19 7 20 6 21 5 22
REMARK SMILES IDX 4 23 3 24 2 25 1 26
REMARK H PARENT
REMARK Flexibility Score: inf
ROOT
ATOM      1  C   UNL     1      14.192 -32.369   2.279  1.00  0.00     0.000 C 
ENDROOT
BRANCH   1   2
ATOM      2  C   UNL     1      13.992 -30.946   2.840  1.00  0.00     0.000 C 
BRANCH   2   3
ATOM      3  C   UNL     1      15.313 -30.172   2.962  1.00  0.00     0.000 C 
BRANCH   3   4
ATOM      4  C   UNL     1      16.511 -31.097   2.726  1.00  0.00     0.000 C 
BRANCH   4   5
ATOM      5  C   UNL     1      17.806 -30.480   3.276  1.00  0.00     0.000 C 
BRANCH   5   6
ATOM      6  C   UNL     1      19.008 -31.432   3.155  1.00  0.00     0.000 C 
BRANCH   6   7
ATOM      7  C   UNL     1      19.686 -31.350   1.775  1.00  0.00     0.000 C 
BRANCH   7   8
ATOM      8  C   UNL     1      19.803 -29.906   1.263  1.00  0.00     0.000 C 
BRANCH   8   9
ATOM      9  C   UNL     1      20.566 -29.817  -0.069  1.00  0.00     0.000 C 
BRANCH   9  10
ATOM     10  C   UNL     1      19.999 -28.703  -0.956  1.00  0.00     0.006 C 
BRANCH  10  11
ATOM     11  C   UNL     1      21.121 -27.830  -1.525  1.00  0.00     0.053 C 
BRANCH  11  12
ATOM     12  C   UNL     1      21.102 -26.474  -0.893  1.00  0.00     0.041 C 
ATOM     13  O   UNL     1      21.557 -25.479  -1.515  1.00  0.00    -0.550 OA
ATOM     14  O   UNL     1      20.621 -26.317   0.401  1.00  0.00    -0.550 OA
ENDBRANCH  11  12
ENDBRANCH  10  11
ENDBRANCH   9  10
ENDBRANCH   8   9
ENDBRANCH   7   8
ENDBRANCH   6   7
ENDBRANCH   5   6
ENDBRANCH   4   5
ENDBRANCH   3   4
ENDBRANCH   2   3
ENDBRANCH   1   2
BRANCH   1  15
ATOM     15  C   UNL     1      13.266 -32.704   1.098  1.00  0.00     0.000 C 
BRANCH  15  16
ATOM     16  C   UNL     1      13.798 -33.856   0.229  1.00  0.00     0.000 C 
BRANCH  16  17
ATOM     17  C   UNL     1      14.538 -34.922   1.064  1.00  0.00     0.000 C 
BRANCH  17  18
ATOM     18  C   UNL     1      15.538 -35.761   0.249  1.00  0.00    -0.000 C 
BRANCH  18  19
ATOM     19  C   UNL     1      16.861 -35.023  -0.014  1.00  0.00    -0.000 C 
BRANCH  19  20
ATOM     20  C   UNL     1      17.365 -34.250   1.216  1.00  0.00    -0.000 C 
BRANCH  20  21
ATOM     21  C   UNL     1      18.517 -34.973   1.937  1.00  0.00    -0.000 C 
BRANCH  21  22
ATOM     22  C   UNL     1      18.259 -35.135   3.444  1.00  0.00    -0.000 C 
BRANCH  22  23
ATOM     23  C   UNL     1      16.878 -34.603   3.868  1.00  0.00    -0.000 C 
BRANCH  23  24
ATOM     24  C   UNL     1      16.929 -33.814   5.187  1.00  0.00    -0.000 C 
BRANCH  24  25
ATOM     25  C   UNL     1      15.548 -33.307   5.625  1.00  0.00    -0.003 C 
ATOM     26  C   UNL     1      15.651 -31.932   6.278  1.00  0.00     0.004 C 
ENDBRANCH  24  25
ENDBRANCH  23  24
ENDBRANCH  22  23
ENDBRANCH  21  22
ENDBRANCH  20  21
ENDBRANCH  19  20
ENDBRANCH  18  19
ENDBRANCH  17  18
ENDBRANCH  16  17
ENDBRANCH  15  16
ENDBRANCH   1  15
TORSDOF 22
ENDMDL
MODEL 4
REMARK VINA RESULT:    -1.068      3.072      7.223
REMARK INTER + INTRA:          -7.510
REMARK INTER:                  -3.769
REMARK INTRA:                  -3.741
REMARK UNBOUND:                -5.069
REMARK SMILES CCCCCCCCCCCCCCCCCCCCCCCC(=O)[O-]
REMARK SMILES IDX 13 1 14 2 15 3 16 4 17 5 18 6 19 7 20 8 21 9 22 10 23 11
REMARK SMILES IDX 24 12 25 13 26 14 12 15 11 16 10 17 9 18 8 19 7 20 6 21 5 22
REMARK SMILES IDX 4 23 3 24 2 25 1 26
REMARK H PARENT
REMARK Flexibility Score: inf
ROOT
ATOM      1  C   UNL     1      16.624 -31.672   2.745  1.00  0.00     0.000 C 
ENDROOT
BRANCH   1   2
ATOM      2  C   UNL     1      17.585 -30.521   3.109  1.00  0.00     0.000 C 
BRANCH   2   3
ATOM      3  C   UNL     1      18.825 -30.483   2.204  1.00  0.00     0.000 C 
BRANCH   3   4
ATOM      4  C   UNL     1      20.106 -30.657   3.026  1.00  0.00     0.000 C 
BRANCH   4   5
ATOM      5  C   UNL     1      21.298 -31.020   2.126  1.00  0.00     0.000 C 
BRANCH   5   6
ATOM      6  C   UNL     1      20.871 -31.319   0.680  1.00  0.00     0.000 C 
BRANCH   6   7
ATOM      7  C   UNL     1      21.970 -30.973  -0.341  1.00  0.00     0.000 C 
BRANCH   7   8
ATOM      8  C   UNL     1      21.517 -29.910  -1.355  1.00  0.00     0.000 C 
BRANCH   8   9
ATOM      9  C   UNL     1      20.260 -29.156  -0.891  1.00  0.00     0.000 C 
BRANCH   9  10
ATOM     10  C   UNL     1      20.572 -27.680  -0.621  1.00  0.00     0.006 C 
BRANCH  10  11
ATOM     11  C   UNL     1      21.355 -27.515   0.684  1.00  0.00     0.053 C 
BRANCH  11  12
ATOM     12  C   UNL     1      20.584 -26.677   1.656  1.00  0.00     0.041 C 
ATOM     13  O   UNL     1      20.209 -27.164   2.754  1.00  0.00    -0.550 OA
ATOM     14  O   UNL     1      20.241 -25.371   1.328  1.00  0.00    -0.550 OA
ENDBRANCH  11  12
ENDBRANCH  10  11
ENDBRANCH   9  10
ENDBRANCH   8   9
ENDBRANCH   7   8
ENDBRANCH   6   7
ENDBRANCH   5   6
ENDBRANCH   4   5
ENDBRANCH   3   4
ENDBRANCH   2   3
ENDBRANCH   1   2
BRANCH   1  15
ATOM     15  C   UNL     1      15.894 -32.276   3.956  1.00  0.00     0.000 C 
BRANCH  15  16
ATOM     16  C   UNL     1      14.386 -31.974   3.957  1.00  0.00     0.000 C 
BRANCH  16  17
ATOM     17  C   UNL     1      13.960 -31.131   2.737  1.00  0.00     0.000 C 
BRANCH  17  18
ATOM     18  C   UNL     1      13.028 -31.875   1.765  1.00  0.00    -0.000 C 
BRANCH  18  19
ATOM     19  C   UNL     1      12.678 -33.295   2.244  1.00  0.00    -0.000 C 
BRANCH  19  20
ATOM     20  C   UNL     1      13.276 -34.389   1.345  1.00  0.00    -0.000 C 
BRANCH  20  21
ATOM     21  C   UNL     1      14.126 -33.814   0.198  1.00  0.00    -0.000 C 
BRANCH  21  22
ATOM     22  C   UNL     1      15.506 -34.481   0.095  1.00  0.00    -0.000 C 
BRANCH  22  23
ATOM     23  C   UNL     1      15.963 -35.103   1.428  1.00  0.00    -0.000 C 
BRANCH  23  24
ATOM     24  C   UNL     1      17.426 -35.574   1.389  1.00  0.00    -0.000 C 
BRANCH  24  25
ATOM     25  C   UNL     1      18.412 -34.420   1.162  1.00  0.00    -0.003 C 
ATOM     26  C   UNL     1      19.336 -34.244   2.363  1.00  0.00     0.004 C 
ENDBRANCH  24  25
ENDBRANCH  23  24
ENDBRANCH  22  23
ENDBRANCH  21  22
ENDBRANCH  20  21
ENDBRANCH  19  20
ENDBRANCH  18  19
ENDBRANCH  17  18
ENDBRANCH  16  17
ENDBRANCH  15  16
ENDBRANCH   1  15
TORSDOF 22
ENDMDL
MODEL 5
REMARK VINA RESULT:    -1.064      1.770      6.234
REMARK INTER + INTRA:          -7.501
REMARK INTER:                  -2.844
REMARK INTRA:                  -4.656
REMARK UNBOUND:                -5.069
REMARK SMILES CCCCCCCCCCCCCCCCCCCCCCCC(=O)[O-]
REMARK SMILES IDX 13 1 14 2 15 3 16 4 17 5 18 6 19 7 20 8 21 9 22 10 23 11
REMARK SMILES IDX 24 12 25 13 26 14 12 15 11 16 10 17 9 18 8 19 7 20 6 21 5 22
REMARK SMILES IDX 4 23 3 24 2 25 1 26
REMARK H PARENT
REMARK Flexibility Score: inf
ROOT
ATOM      1  C   UNL     1      19.626 -32.964   2.608  1.00  0.00     0.000 C 
ENDROOT
BRANCH   1   2
ATOM      2  C   UNL     1      20.584 -31.775   2.388  1.00  0.00     0.000 C 
BRANCH   2   3
ATOM      3  C   UNL     1      20.472 -31.185   0.975  1.00  0.00     0.000 C 
BRANCH   3   4
ATOM      4  C   UNL     1      19.712 -29.855   0.997  1.00  0.00     0.000 C 
BRANCH   4   5
ATOM      5  C   UNL     1      20.242 -28.894  -0.077  1.00  0.00     0.000 C 
BRANCH   5   6
ATOM      6  C   UNL     1      20.724 -27.559   0.516  1.00  0.00     0.000 C 
BRANCH   6   7
ATOM      7  C   UNL     1      20.524 -27.486   2.041  1.00  0.00     0.000 C 
BRANCH   7   8
ATOM      8  C   UNL     1      21.855 -27.473   2.808  1.00  0.00     0.000 C 
BRANCH   8   9
ATOM      9  C   UNL     1      21.979 -28.650   3.788  1.00  0.00     0.000 C 
BRANCH   9  10
ATOM     10  C   UNL     1      23.265 -29.445   3.535  1.00  0.00     0.006 C 
BRANCH  10  11
ATOM     11  C   UNL     1      23.638 -29.426   2.049  1.00  0.00     0.053 C 
BRANCH  11  12
ATOM     12  C   UNL     1      24.153 -30.764   1.621  1.00  0.00     0.041 C 
ATOM     13  O   UNL     1      24.591 -30.930   0.453  1.00  0.00    -0.550 OA
ATOM     14  O   UNL     1      24.107 -31.839   2.500  1.00  0.00    -0.550 OA
ENDBRANCH  11  12
ENDBRANCH  10  11
ENDBRANCH   9  10
ENDBRANCH   8   9
ENDBRANCH   7   8
ENDBRANCH   6   7
ENDBRANCH   5   6
ENDBRANCH   4   5
ENDBRANCH   3   4
ENDBRANCH   2   3
ENDBRANCH   1   2
BRANCH   1  15
ATOM     15  C   UNL     1      19.078 -33.567   1.304  1.00  0.00     0.000 C 
BRANCH  15  16
ATOM     16  C   UNL     1      17.613 -34.019   1.422  1.00  0.00     0.000 C 
BRANCH  16  17
ATOM     17  C   UNL     1      16.923 -33.437   2.674  1.00  0.00     0.000 C 
BRANCH  17  18
ATOM     18  C   UNL     1      15.518 -32.873   2.400  1.00  0.00    -0.000 C 
BRANCH  18  19
ATOM     19  C   UNL     1      15.369 -31.405   2.837  1.00  0.00    -0.000 C 
BRANCH  19  20
ATOM     20  C   UNL     1      16.698 -30.634   2.795  1.00  0.00    -0.000 C 
BRANCH  20  21
ATOM     21  C   UNL     1      16.913 -29.759   4.042  1.00  0.00    -0.000 C 
BRANCH  21  22
ATOM     22  C   UNL     1      18.401 -29.548   4.364  1.00  0.00    -0.000 C 
BRANCH  22  23
ATOM     23  C   UNL     1      18.756 -29.948   5.808  1.00  0.00    -0.000 C 
BRANCH  23  24
ATOM     24  C   UNL     1      19.308 -31.380   5.905  1.00  0.00    -0.000 C 
BRANCH  24  25
ATOM     25  C   UNL     1      18.199 -32.429   6.069  1.00  0.00    -0.003 C 
ATOM     26  C   UNL     1      18.780 -33.840   6.101  1.00  0.00     0.004 C 
ENDBRANCH  24  25
ENDBRANCH  23  24
ENDBRANCH  22  23
ENDBRANCH  21  22
ENDBRANCH  20  21
ENDBRANCH  19  20
ENDBRANCH  18  19
ENDBRANCH  17  18
ENDBRANCH  16  17
ENDBRANCH  15  16
ENDBRANCH   1  15
TORSDOF 22
ENDMDL
MODEL 6
REMARK VINA RESULT:    -1.061      4.539      8.103
REMARK INTER + INTRA:          -7.494
REMARK INTER:                  -3.578
REMARK INTRA:                  -3.916
REMARK UNBOUND:                -5.069
REMARK SMILES CCCCCCCCCCCCCCCCCCCCCCCC(=O)[O-]
REMARK SMILES IDX 13 1 14 2 15 3 16 4 17 5 18 6 19 7 20 8 21 9 22 10 23 11
REMARK SMILES IDX 24 12 25 13 26 14 12 15 11 16 10 17 9 18 8 19 7 20 6 21 5 22
REMARK SMILES IDX 4 23 3 24 2 25 1 26
REMARK H PARENT
REMARK Flexibility Score: inf
ROOT
ATOM      1  C   UNL     1      16.431 -35.336   0.958  1.00  0.00     0.000 C 
ENDROOT
BRANCH   1   2
ATOM      2  C   UNL     1      16.159 -35.065  -0.536  1.00  0.00     0.000 C 
BRANCH   2   3
ATOM      3  C   UNL     1      15.158 -36.061  -1.140  1.00  0.00     0.000 C 
BRANCH   3   4
ATOM      4  C   UNL     1      13.758 -35.442  -1.228  1.00  0.00     0.000 C 
BRANCH   4   5
ATOM      5  C   UNL     1      13.832 -33.909  -1.289  1.00  0.00     0.000 C 
BRANCH   5   6
ATOM      6  C   UNL     1      12.938 -33.237  -0.235  1.00  0.00     0.000 C 
BRANCH   6   7
ATOM      7  C   UNL     1      12.827 -34.064   1.059  1.00  0.00     0.000 C 
BRANCH   7   8
ATOM      8  C   UNL     1      13.054 -33.217   2.320  1.00  0.00     0.000 C 
BRANCH   8   9
ATOM      9  C   UNL     1      14.174 -32.180   2.137  1.00  0.00     0.000 C 
BRANCH   9  10
ATOM     10  C   UNL     1      13.806 -30.847   2.799  1.00  0.00     0.006 C 
BRANCH  10  11
ATOM     11  C   UNL     1      12.487 -30.305   2.242  1.00  0.00     0.053 C 
BRANCH  11  12
ATOM     12  C   UNL     1      12.741 -29.422   1.061  1.00  0.00     0.041 C 
ATOM     13  O   UNL     1      12.173 -29.653  -0.038  1.00  0.00    -0.550 OA
ATOM     14  O   UNL     1      13.641 -28.368   1.163  1.00  0.00    -0.550 OA
ENDBRANCH  11  12
ENDBRANCH  10  11
ENDBRANCH   9  10
ENDBRANCH   8   9
ENDBRANCH   7   8
ENDBRANCH   6   7
ENDBRANCH   5   6
ENDBRANCH   4   5
ENDBRANCH   3   4
ENDBRANCH   2   3
ENDBRANCH   1   2
BRANCH   1  15
ATOM     15  C   UNL     1      17.095 -34.158   1.689  1.00  0.00     0.000 C 
BRANCH  15  16
ATOM     16  C   UNL     1      18.542 -33.908   1.231  1.00  0.00     0.000 C 
BRANCH  16  17
ATOM     17  C   UNL     1      19.302 -32.966   2.189  1.00  0.00     0.000 C 
BRANCH  17  18
ATOM     18  C   UNL     1      19.658 -31.606   1.565  1.00  0.00    -0.000 C 
BRANCH  18  19
ATOM     19  C   UNL     1      19.048 -30.420   2.332  1.00  0.00    -0.000 C 
BRANCH  19  20
ATOM     20  C   UNL     1      17.570 -30.641   2.691  1.00  0.00    -0.000 C 
BRANCH  20  21
ATOM     21  C   UNL     1      17.276 -30.377   4.178  1.00  0.00    -0.000 C 
BRANCH  21  22
ATOM     22  C   UNL     1      17.165 -31.674   4.996  1.00  0.00    -0.000 C 
BRANCH  22  23
ATOM     23  C   UNL     1      18.476 -32.029   5.722  1.00  0.00    -0.000 C 
BRANCH  23  24
ATOM     24  C   UNL     1      18.722 -33.545   5.788  1.00  0.00    -0.000 C 
BRANCH  24  25
ATOM     25  C   UNL     1      17.551 -34.358   5.218  1.00  0.00    -0.003 C 
ATOM     26  C   UNL     1      17.674 -35.833   5.590  1.00  0.00     0.004 C 
ENDBRANCH  24  25
ENDBRANCH  23  24
ENDBRANCH  22  23
ENDBRANCH  21  22
ENDBRANCH  20  21
ENDBRANCH  19  20
ENDBRANCH  18  19
ENDBRANCH  17  18
ENDBRANCH  16  17
ENDBRANCH  15  16
ENDBRANCH   1  15
TORSDOF 22
ENDMDL
MODEL 7
REMARK VINA RESULT:    -1.057      3.042      7.546
REMARK INTER + INTRA:          -7.486
REMARK INTER:                  -2.669
REMARK INTRA:                  -4.817
REMARK UNBOUND:                -5.069
REMARK SMILES CCCCCCCCCCCCCCCCCCCCCCCC(=O)[O-]
REMARK SMILES IDX 13 1 14 2 15 3 16 4 17 5 18 6 19 7 20 8 21 9 22 10 23 11
REMARK SMILES IDX 24 12 25 13 26 14 12 15 11 16 10 17 9 18 8 19 7 20 6 21 5 22
REMARK SMILES IDX 4 23 3 24 2 25 1 26
REMARK H PARENT
REMARK Flexibility Score: inf
ROOT
ATOM      1  C   UNL     1      17.712 -34.003   1.252  1.00  0.00     0.000 C 
ENDROOT
BRANCH   1   2
ATOM      2  C   UNL     1      16.226 -34.311   0.976  1.00  0.00     0.000 C 
BRANCH   2   3
ATOM      3  C   UNL     1      15.281 -33.328   1.683  1.00  0.00     0.000 C 
BRANCH   3   4
ATOM      4  C   UNL     1      15.973 -32.675   2.885  1.00  0.00     0.000 C 
BRANCH   4   5
ATOM      5  C   UNL     1      15.955 -31.144   2.772  1.00  0.00     0.000 C 
BRANCH   5   6
ATOM      6  C   UNL     1      17.257 -30.502   3.278  1.00  0.00     0.000 C 
BRANCH   6   7
ATOM      7  C   UNL     1      18.107 -31.476   4.114  1.00  0.00     0.000 C 
BRANCH   7   8
ATOM      8  C   UNL     1      19.595 -31.090   4.133  1.00  0.00     0.000 C 
BRANCH   8   9
ATOM      9  C   UNL     1      20.444 -31.985   3.216  1.00  0.00     0.000 C 
BRANCH   9  10
ATOM     10  C   UNL     1      21.114 -31.162   2.109  1.00  0.00     0.006 C 
BRANCH  10  11
ATOM     11  C   UNL     1      20.130 -30.869   0.973  1.00  0.00     0.053 C 
BRANCH  11  12
ATOM     12  C   UNL     1      20.012 -29.394   0.750  1.00  0.00     0.041 C 
ATOM     13  O   UNL     1      19.686 -28.948  -0.380  1.00  0.00    -0.550 OA
ATOM     14  O   UNL     1      20.305 -28.510   1.781  1.00  0.00    -0.550 OA
ENDBRANCH  11  12
ENDBRANCH  10  11
ENDBRANCH   9  10
ENDBRANCH   8   9
ENDBRANCH   7   8
ENDBRANCH   6   7
ENDBRANCH   5   6
ENDBRANCH   4   5
ENDBRANCH   3   4
ENDBRANCH   2   3
ENDBRANCH   1   2
BRANCH   1  15
ATOM     15  C   UNL     1      18.674 -35.084   0.734  1.00  0.00     0.000 C 
BRANCH  15  16
ATOM     16  C   UNL     1      20.114 -34.571   0.563  1.00  0.00     0.000 C 
BRANCH  16  17
ATOM     17  C   UNL     1      21.160 -35.596   1.051  1.00  0.00     0.000 C 
BRANCH  17  18
ATOM     18  C   UNL     1      21.539 -35.434   2.533  1.00  0.00    -0.000 C 
BRANCH  18  19
ATOM     19  C   UNL     1      21.267 -36.702   3.360  1.00  0.00    -0.000 C 
BRANCH  19  20
ATOM     20  C   UNL     1      19.907 -36.665   4.076  1.00  0.00    -0.000 C 
BRANCH  20  21
ATOM     21  C   UNL     1      19.463 -35.234   4.428  1.00  0.00    -0.000 C 
BRANCH  21  22
ATOM     22  C   UNL     1      17.970 -35.152   4.785  1.00  0.00    -0.000 C 
BRANCH  22  23
ATOM     23  C   UNL     1      17.142 -36.270   4.126  1.00  0.00    -0.000 C 
BRANCH  23  24
ATOM     24  C   UNL     1      15.694 -36.316   4.643  1.00  0.00    -0.000 C 
BRANCH  24  25
ATOM     25  C   UNL     1      14.671 -36.508   3.516  1.00  0.00    -0.003 C 
ATOM     26  C   UNL     1      15.160 -37.537   2.501  1.00  0.00     0.004 C 
ENDBRANCH  24  25
ENDBRANCH  23  24
ENDBRANCH  22  23
ENDBRANCH  21  22
ENDBRANCH  20  21
ENDBRANCH  19  20
ENDBRANCH  18  19
ENDBRANCH  17  18
ENDBRANCH  16  17
ENDBRANCH  15  16
ENDBRANCH   1  15
TORSDOF 22
ENDMDL
MODEL 8
REMARK VINA RESULT:    -1.042      3.459      6.304
REMARK INTER + INTRA:          -7.451
REMARK INTER:                  -2.996
REMARK INTRA:                  -4.454
REMARK UNBOUND:                -5.069
REMARK SMILES CCCCCCCCCCCCCCCCCCCCCCCC(=O)[O-]
REMARK SMILES IDX 13 1 14 2 15 3 16 4 17 5 18 6 19 7 20 8 21 9 22 10 23 11
REMARK SMILES IDX 24 12 25 13 26 14 12 15 11 16 10 17 9 18 8 19 7 20 6 21 5 22
REMARK SMILES IDX 4 23 3 24 2 25 1 26
REMARK H PARENT
REMARK Flexibility Score: inf
ROOT
ATOM      1  C   UNL     1      14.502 -31.713   2.977  1.00  0.00     0.000 C 
ENDROOT
BRANCH   1   2
ATOM      2  C   UNL     1      13.238 -31.384   2.155  1.00  0.00     0.000 C 
BRANCH   2   3
ATOM      3  C   UNL     1      13.013 -32.374   1.004  1.00  0.00     0.000 C 
BRANCH   3   4
ATOM      4  C   UNL     1      13.892 -33.618   1.173  1.00  0.00     0.000 C 
BRANCH   4   5
ATOM      5  C   UNL     1      14.369 -34.150  -0.186  1.00  0.00     0.000 C 
BRANCH   5   6
ATOM      6  C   UNL     1      15.729 -34.862  -0.093  1.00  0.00     0.000 C 
BRANCH   6   7
ATOM      7  C   UNL     1      16.620 -34.287   1.023  1.00  0.00     0.000 C 
BRANCH   7   8
ATOM      8  C   UNL     1      17.420 -35.375   1.755  1.00  0.00     0.000 C 
BRANCH   8   9
ATOM      9  C   UNL     1      17.485 -35.134   3.272  1.00  0.00     0.000 C 
BRANCH   9  10
ATOM     10  C   UNL     1      16.090 -34.867   3.848  1.00  0.00     0.006 C 
BRANCH  10  11
ATOM     11  C   UNL     1      16.184 -34.173   5.210  1.00  0.00     0.053 C 
BRANCH  11  12
ATOM     12  C   UNL     1      14.881 -34.273   5.940  1.00  0.00     0.041 C 
ATOM     13  O   UNL     1      14.863 -34.369   7.194  1.00  0.00    -0.550 OA
ATOM     14  O   UNL     1      13.688 -34.305   5.229  1.00  0.00    -0.550 OA
ENDBRANCH  11  12
ENDBRANCH  10  11
ENDBRANCH   9  10
ENDBRANCH   8   9
ENDBRANCH   7   8
ENDBRANCH   6   7
ENDBRANCH   5   6
ENDBRANCH   4   5
ENDBRANCH   3   4
ENDBRANCH   2   3
ENDBRANCH   1   2
BRANCH   1  15
ATOM     15  C   UNL     1      15.622 -30.670   2.833  1.00  0.00     0.000 C 
BRANCH  15  16
ATOM     16  C   UNL     1      17.027 -31.298   2.831  1.00  0.00     0.000 C 
BRANCH  16  17
ATOM     17  C   UNL     1      17.825 -30.941   4.103  1.00  0.00     0.000 C 
BRANCH  17  18
ATOM     18  C   UNL     1      18.331 -29.489   4.129  1.00  0.00    -0.000 C 
BRANCH  18  19
ATOM     19  C   UNL     1      19.825 -29.383   4.480  1.00  0.00    -0.000 C 
BRANCH  19  20
ATOM     20  C   UNL     1      20.736 -29.536   3.251  1.00  0.00    -0.000 C 
BRANCH  20  21
ATOM     21  C   UNL     1      20.057 -29.076   1.949  1.00  0.00    -0.000 C 
BRANCH  21  22
ATOM     22  C   UNL     1      20.008 -30.185   0.887  1.00  0.00    -0.000 C 
BRANCH  22  23
ATOM     23  C   UNL     1      20.886 -31.395   1.254  1.00  0.00    -0.000 C 
BRANCH  23  24
ATOM     24  C   UNL     1      20.080 -32.702   1.349  1.00  0.00    -0.000 C 
BRANCH  24  25
ATOM     25  C   UNL     1      20.729 -33.727   2.288  1.00  0.00    -0.003 C 
ATOM     26  C   UNL     1      20.699 -33.241   3.735  1.00  0.00     0.004 C 
ENDBRANCH  24  25
ENDBRANCH  23  24
ENDBRANCH  22  23
ENDBRANCH  21  22
ENDBRANCH  20  21
ENDBRANCH  19  20
ENDBRANCH  18  19
ENDBRANCH  17  18
ENDBRANCH  16  17
ENDBRANCH  15  16
ENDBRANCH   1  15
TORSDOF 22
ENDMDL
MODEL 9
REMARK VINA RESULT:    -1.027      3.406      6.666
REMARK INTER + INTRA:          -7.417
REMARK INTER:                  -2.540
REMARK INTRA:                  -4.877
REMARK UNBOUND:                -5.069
REMARK SMILES CCCCCCCCCCCCCCCCCCCCCCCC(=O)[O-]
REMARK SMILES IDX 13 1 14 2 15 3 16 4 17 5 18 6 19 7 20 8 21 9 22 10 23 11
REMARK SMILES IDX 24 12 25 13 26 14 12 15 11 16 10 17 9 18 8 19 7 20 6 21 5 22
REMARK SMILES IDX 4 23 3 24 2 25 1 26
REMARK H PARENT
REMARK Flexibility Score: inf
ROOT
ATOM      1  C   UNL     1      17.410 -31.913   5.815  1.00  0.00     0.000 C 
ENDROOT
BRANCH   1   2
ATOM      2  C   UNL     1      18.000 -30.554   6.246  1.00  0.00     0.000 C 
BRANCH   2   3
ATOM      3  C   UNL     1      19.456 -30.376   5.794  1.00  0.00     0.000 C 
BRANCH   3   4
ATOM      4  C   UNL     1      19.612 -29.114   4.939  1.00  0.00     0.000 C 
BRANCH   4   5
ATOM      5  C   UNL     1      19.487 -29.438   3.443  1.00  0.00     0.000 C 
BRANCH   5   6
ATOM      6  C   UNL     1      20.039 -30.830   3.096  1.00  0.00     0.000 C 
BRANCH   6   7
ATOM      7  C   UNL     1      19.451 -31.387   1.787  1.00  0.00     0.000 C 
BRANCH   7   8
ATOM      8  C   UNL     1      18.458 -32.534   2.030  1.00  0.00     0.000 C 
BRANCH   8   9
ATOM      9  C   UNL     1      19.032 -33.622   2.951  1.00  0.00     0.000 C 
BRANCH   9  10
ATOM     10  C   UNL     1      18.888 -35.011   2.321  1.00  0.00     0.006 C 
BRANCH  10  11
ATOM     11  C   UNL     1      18.682 -34.907   0.807  1.00  0.00     0.053 C 
BRANCH  11  12
ATOM     12  C   UNL     1      19.953 -35.223   0.083  1.00  0.00     0.041 C 
ATOM     13  O   UNL     1      20.105 -36.342  -0.471  1.00  0.00    -0.550 OA
ATOM     14  O   UNL     1      20.988 -34.296   0.059  1.00  0.00    -0.550 OA
ENDBRANCH  11  12
ENDBRANCH  10  11
ENDBRANCH   9  10
ENDBRANCH   8   9
ENDBRANCH   7   8
ENDBRANCH   6   7
ENDBRANCH   5   6
ENDBRANCH   4   5
ENDBRANCH   3   4
ENDBRANCH   2   3
ENDBRANCH   1   2
BRANCH   1  15
ATOM     15  C   UNL     1      16.197 -31.791   4.877  1.00  0.00     0.000 C 
BRANCH  15  16
ATOM     16  C   UNL     1      15.965 -30.354   4.382  1.00  0.00     0.000 C 
BRANCH  16  17
ATOM     17  C   UNL     1      15.702 -30.296   2.863  1.00  0.00     0.000 C 
BRANCH  17  18
ATOM     18  C   UNL     1      14.416 -29.540   2.487  1.00  0.00    -0.000 C 
BRANCH  18  19
ATOM     19  C   UNL     1      13.246 -30.481   2.152  1.00  0.00    -0.000 C 
BRANCH  19  20
ATOM     20  C   UNL     1      12.353 -30.775   3.368  1.00  0.00    -0.000 C 
BRANCH  20  21
ATOM     21  C   UNL     1      12.604 -32.172   3.963  1.00  0.00    -0.000 C 
BRANCH  21  22
ATOM     22  C   UNL     1      12.948 -33.216   2.888  1.00  0.00    -0.000 C 
BRANCH  22  23
ATOM     23  C   UNL     1      13.930 -34.287   3.397  1.00  0.00    -0.000 C 
BRANCH  23  24
ATOM     24  C   UNL     1      15.160 -34.441   2.487  1.00  0.00    -0.000 C 
BRANCH  24  25
ATOM     25  C   UNL     1      15.058 -33.596   1.210  1.00  0.00    -0.003 C 
ATOM     26  C   UNL     1      15.052 -34.481  -0.034  1.00  0.00     0.004 C 
ENDBRANCH  24  25
ENDBRANCH  23  24
ENDBRANCH  22  23
ENDBRANCH  21  22
ENDBRANCH  20  21
ENDBRANCH  19  20
ENDBRANCH  18  19
ENDBRANCH  17  18
ENDBRANCH  16  17
ENDBRANCH  15  16
ENDBRANCH   1  15
TORSDOF 22
ENDMDL
