MODEL 1
REMARK VINA RESULT:    -4.374      0.000      0.000
REMARK INTER + INTRA:          -6.367
REMARK INTER:                  -5.908
REMARK INTRA:                  -0.459
REMARK UNBOUND:                -0.459
REMARK SMILES O=C[C@@H](O)[C@H](O)[C@@H](O)CO
REMARK SMILES IDX 7 1 9 2 10 3 5 5 3 6 2 7 1 8 4 9 6 11 8 13
REMARK H PARENT 10 4 4 10 6 12 8 14
REMARK Flexibility Score: inf
ROOT
ATOM      1  C   UNL     1      16.739  20.051  79.261  1.00  0.00     0.171 C 
ENDROOT
BRANCH   1   2
ATOM      2  C   UNL     1      16.074  18.876  79.999  1.00  0.00     0.190 C 
BRANCH   2   3
ATOM      3  O   UNL     1      14.680  19.013  79.987  1.00  0.00    -0.394 OA
ATOM      4  H   UNL     1      14.486  19.819  79.441  1.00  0.00     0.210 HD
ENDBRANCH   2   3
ENDBRANCH   1   2
BRANCH   1   5
ATOM      5  C   UNL     1      18.293  20.048  79.344  1.00  0.00     0.181 C 
BRANCH   5   6
ATOM      6  C   UNL     1      18.953  21.404  79.699  1.00  0.00     0.209 C 
BRANCH   6   7
ATOM      7  C   UNL     1      19.280  22.237  78.485  1.00  0.00     0.258 C 
ATOM      8  O   UNL     1      18.466  22.386  77.587  1.00  0.00    -0.300 OA
ENDBRANCH   6   7
BRANCH   6   9
ATOM      9  O   UNL     1      18.154  22.128  80.598  1.00  0.00    -0.383 OA
ATOM     10  H   UNL     1      18.622  22.985  80.777  1.00  0.00     0.211 HD
ENDBRANCH   6   9
ENDBRANCH   5   6
BRANCH   5  11
ATOM     11  O   UNL     1      18.814  19.620  78.109  1.00  0.00    -0.387 OA
ATOM     12  H   UNL     1      19.663  19.139  78.296  1.00  0.00     0.211 HD
ENDBRANCH   5  11
ENDBRANCH   1   5
BRANCH   1  13
ATOM     13  O   UNL     1      16.362  20.009  77.908  1.00  0.00    -0.388 OA
ATOM     14  H   UNL     1      15.416  19.706  77.878  1.00  0.00     0.211 HD
ENDBRANCH   1  13
TORSDOF 8
ENDMDL
MODEL 2
REMARK VINA RESULT:    -4.310      1.079      1.385
REMARK INTER + INTRA:          -6.281
REMARK INTER:                  -5.801
REMARK INTRA:                  -0.479
REMARK UNBOUND:                -0.459
REMARK SMILES O=C[C@@H](O)[C@H](O)[C@@H](O)CO
REMARK SMILES IDX 7 1 9 2 10 3 5 5 3 6 2 7 1 8 4 9 6 11 8 13
REMARK H PARENT 10 4 4 10 6 12 8 14
REMARK Flexibility Score: inf
ROOT
ATOM      1  C   UNL     1      16.651  20.132  79.164  1.00  0.00     0.171 C 
ENDROOT
BRANCH   1   2
ATOM      2  C   UNL     1      16.166  18.931  79.995  1.00  0.00     0.190 C 
BRANCH   2   3
ATOM      3  O   UNL     1      14.766  18.877  80.009  1.00  0.00    -0.394 OA
ATOM      4  H   UNL     1      14.454  19.655  79.476  1.00  0.00     0.210 HD
ENDBRANCH   2   3
ENDBRANCH   1   2
BRANCH   1   5
ATOM      5  C   UNL     1      18.178  20.408  79.289  1.00  0.00     0.181 C 
BRANCH   5   6
ATOM      6  C   UNL     1      18.618  21.877  79.077  1.00  0.00     0.209 C 
BRANCH   6   7
ATOM      7  C   UNL     1      20.097  22.019  78.817  1.00  0.00     0.258 C 
ATOM      8  O   UNL     1      20.916  21.458  79.528  1.00  0.00    -0.300 OA
ENDBRANCH   6   7
BRANCH   6   9
ATOM      9  O   UNL     1      17.873  22.479  78.050  1.00  0.00    -0.383 OA
ATOM     10  H   UNL     1      16.915  22.355  78.276  1.00  0.00     0.211 HD
ENDBRANCH   6   9
ENDBRANCH   5   6
BRANCH   5  11
ATOM     11  O   UNL     1      18.863  19.608  78.355  1.00  0.00    -0.387 OA
ATOM     12  H   UNL     1      19.077  20.183  77.573  1.00  0.00     0.211 HD
ENDBRANCH   5  11
ENDBRANCH   1   5
BRANCH   1  13
ATOM     13  O   UNL     1      16.347  19.901  77.812  1.00  0.00    -0.388 OA
ATOM     14  H   UNL     1      16.565  20.733  77.316  1.00  0.00     0.211 HD
ENDBRANCH   1  13
TORSDOF 8
ENDMDL
MODEL 3
REMARK VINA RESULT:    -3.986      1.439      1.949
REMARK INTER + INTRA:          -5.843
REMARK INTER:                  -5.678
REMARK INTRA:                  -0.165
REMARK UNBOUND:                -0.459
REMARK SMILES O=C[C@@H](O)[C@H](O)[C@@H](O)CO
REMARK SMILES IDX 7 1 9 2 10 3 5 5 3 6 2 7 1 8 4 9 6 11 8 13
REMARK H PARENT 10 4 4 10 6 12 8 14
REMARK Flexibility Score: inf
ROOT
ATOM      1  C   UNL     1      16.614  20.386  79.716  1.00  0.00     0.171 C 
ENDROOT
BRANCH   1   2
ATOM      2  C   UNL     1      16.147  18.948  80.003  1.00  0.00     0.190 C 
BRANCH   2   3
ATOM      3  O   UNL     1      14.747  18.875  80.000  1.00  0.00    -0.394 OA
ATOM      4  H   UNL     1      14.424  19.783  80.238  1.00  0.00     0.210 HD
ENDBRANCH   2   3
ENDBRANCH   1   2
BRANCH   1   5
ATOM      5  C   UNL     1      17.920  20.467  78.874  1.00  0.00     0.181 C 
BRANCH   5   6
ATOM      6  C   UNL     1      17.734  20.762  77.365  1.00  0.00     0.209 C 
BRANCH   6   7
ATOM      7  C   UNL     1      18.536  21.948  76.892  1.00  0.00     0.258 C 
ATOM      8  O   UNL     1      18.749  22.897  77.630  1.00  0.00    -0.300 OA
ENDBRANCH   6   7
BRANCH   6   9
ATOM      9  O   UNL     1      18.025  19.625  76.594  1.00  0.00    -0.383 OA
ATOM     10  H   UNL     1      19.013  19.559  76.536  1.00  0.00     0.211 HD
ENDBRANCH   6   9
ENDBRANCH   5   6
BRANCH   5  11
ATOM     11  O   UNL     1      18.618  19.251  78.998  1.00  0.00    -0.387 OA
ATOM     12  H   UNL     1      19.412  19.302  78.403  1.00  0.00     0.211 HD
ENDBRANCH   5  11
ENDBRANCH   1   5
BRANCH   1  13
ATOM     13  O   UNL     1      15.594  21.064  79.027  1.00  0.00    -0.388 OA
ATOM     14  H   UNL     1      15.119  21.630  79.691  1.00  0.00     0.211 HD
ENDBRANCH   1  13
TORSDOF 8
ENDMDL
MODEL 4
REMARK VINA RESULT:    -3.937      1.556      3.903
REMARK INTER + INTRA:          -5.777
REMARK INTER:                  -5.060
REMARK INTRA:                  -0.717
REMARK UNBOUND:                -0.459
REMARK SMILES O=C[C@@H](O)[C@H](O)[C@@H](O)CO
REMARK SMILES IDX 7 1 9 2 10 3 5 5 3 6 2 7 1 8 4 9 6 11 8 13
REMARK H PARENT 10 4 4 10 6 12 8 14
REMARK Flexibility Score: inf
ROOT
ATOM      1  C   UNL     1      17.939  21.916  77.941  1.00  0.00     0.171 C 
ENDROOT
BRANCH   1   2
ATOM      2  C   UNL     1      18.927  22.350  76.843  1.00  0.00     0.190 C 
BRANCH   2   3
ATOM      3  O   UNL     1      18.881  23.739  76.662  1.00  0.00    -0.394 OA
ATOM      4  H   UNL     1      19.761  24.086  76.961  1.00  0.00     0.210 HD
ENDBRANCH   2   3
ENDBRANCH   1   2
BRANCH   1   5
ATOM      5  C   UNL     1      17.608  20.396  77.923  1.00  0.00     0.181 C 
BRANCH   5   6
ATOM      6  C   UNL     1      16.561  19.921  78.961  1.00  0.00     0.209 C 
BRANCH   6   7
ATOM      7  C   UNL     1      17.180  19.240  80.156  1.00  0.00     0.258 C 
ATOM      8  O   UNL     1      18.028  19.803  80.830  1.00  0.00    -0.300 OA
ENDBRANCH   6   7
BRANCH   6   9
ATOM      9  O   UNL     1      15.740  20.986  79.365  1.00  0.00    -0.383 OA
ATOM     10  H   UNL     1      15.178  20.652  80.112  1.00  0.00     0.211 HD
ENDBRANCH   6   9
ENDBRANCH   5   6
BRANCH   5  11
ATOM     11  O   UNL     1      18.793  19.668  78.136  1.00  0.00    -0.387 OA
ATOM     12  H   UNL     1      18.777  18.888  77.521  1.00  0.00     0.211 HD
ENDBRANCH   5  11
ENDBRANCH   1   5
BRANCH   1  13
ATOM     13  O   UNL     1      18.483  22.242  79.195  1.00  0.00    -0.388 OA
ATOM     14  H   UNL     1      17.888  21.846  79.884  1.00  0.00     0.211 HD
ENDBRANCH   1  13
TORSDOF 8
ENDMDL
MODEL 5
REMARK VINA RESULT:    -3.852     14.538     17.054
REMARK INTER + INTRA:          -5.662
REMARK INTER:                  -4.737
REMARK INTRA:                  -0.925
REMARK UNBOUND:                -0.459
REMARK SMILES O=C[C@@H](O)[C@H](O)[C@@H](O)CO
REMARK SMILES IDX 7 1 9 2 10 3 5 5 3 6 2 7 1 8 4 9 6 11 8 13
REMARK H PARENT 10 4 4 10 6 12 8 14
REMARK Flexibility Score: inf
ROOT
ATOM      1  C   UNL     1      23.659  36.011  73.052  1.00  0.00     0.171 C 
ENDROOT
BRANCH   1   2
ATOM      2  C   UNL     1      23.782  37.377  73.750  1.00  0.00     0.190 C 
BRANCH   2   3
ATOM      3  O   UNL     1      25.123  37.661  74.040  1.00  0.00    -0.394 OA
ATOM      4  H   UNL     1      25.636  37.435  73.222  1.00  0.00     0.210 HD
ENDBRANCH   2   3
ENDBRANCH   1   2
BRANCH   1   5
ATOM      5  C   UNL     1      24.764  34.994  73.458  1.00  0.00     0.181 C 
BRANCH   5   6
ATOM      6  C   UNL     1      24.640  33.579  72.843  1.00  0.00     0.209 C 
BRANCH   6   7
ATOM      7  C   UNL     1      24.155  32.547  73.829  1.00  0.00     0.258 C 
ATOM      8  O   UNL     1      23.117  32.711  74.452  1.00  0.00    -0.300 OA
ENDBRANCH   6   7
BRANCH   6   9
ATOM      9  O   UNL     1      23.822  33.601  71.702  1.00  0.00    -0.383 OA
ATOM     10  H   UNL     1      23.612  32.657  71.478  1.00  0.00     0.211 HD
ENDBRANCH   6   9
ENDBRANCH   5   6
BRANCH   5  11
ATOM     11  O   UNL     1      24.768  34.862  74.859  1.00  0.00    -0.387 OA
ATOM     12  H   UNL     1      25.023  33.925  75.068  1.00  0.00     0.211 HD
ENDBRANCH   5  11
ENDBRANCH   1   5
BRANCH   1  13
ATOM     13  O   UNL     1      22.405  35.456  73.359  1.00  0.00    -0.388 OA
ATOM     14  H   UNL     1      21.918  36.122  73.913  1.00  0.00     0.211 HD
ENDBRANCH   1  13
TORSDOF 8
ENDMDL
MODEL 6
REMARK VINA RESULT:    -3.824      1.472      3.468
REMARK INTER + INTRA:          -5.625
REMARK INTER:                  -5.241
REMARK INTRA:                  -0.383
REMARK UNBOUND:                -0.459
REMARK SMILES O=C[C@@H](O)[C@H](O)[C@@H](O)CO
REMARK SMILES IDX 7 1 9 2 10 3 5 5 3 6 2 7 1 8 4 9 6 11 8 13
REMARK H PARENT 10 4 4 10 6 12 8 14
REMARK Flexibility Score: inf
ROOT
ATOM      1  C   UNL     1      18.500  20.550  77.164  1.00  0.00     0.171 C 
ENDROOT
BRANCH   1   2
ATOM      2  C   UNL     1      18.654  21.937  76.514  1.00  0.00     0.190 C 
BRANCH   2   3
ATOM      3  O   UNL     1      18.525  22.948  77.476  1.00  0.00    -0.394 OA
ATOM      4  H   UNL     1      19.274  22.818  78.115  1.00  0.00     0.210 HD
ENDBRANCH   2   3
ENDBRANCH   1   2
BRANCH   1   5
ATOM      5  C   UNL     1      17.338  20.465  78.197  1.00  0.00     0.181 C 
BRANCH   5   6
ATOM      6  C   UNL     1      17.690  19.813  79.556  1.00  0.00     0.209 C 
BRANCH   6   7
ATOM      7  C   UNL     1      18.171  20.808  80.582  1.00  0.00     0.258 C 
ATOM      8  O   UNL     1      18.130  22.008  80.360  1.00  0.00    -0.300 OA
ENDBRANCH   6   7
BRANCH   6   9
ATOM      9  O   UNL     1      16.604  19.074  80.052  1.00  0.00    -0.383 OA
ATOM     10  H   UNL     1      16.731  18.136  79.754  1.00  0.00     0.211 HD
ENDBRANCH   6   9
ENDBRANCH   5   6
BRANCH   5  11
ATOM     11  O   UNL     1      16.275  19.740  77.627  1.00  0.00    -0.387 OA
ATOM     12  H   UNL     1      16.660  19.150  76.926  1.00  0.00     0.211 HD
ENDBRANCH   5  11
ENDBRANCH   1   5
BRANCH   1  13
ATOM     13  O   UNL     1      18.274  19.599  76.155  1.00  0.00    -0.388 OA
ATOM     14  H   UNL     1      17.560  18.991  76.482  1.00  0.00     0.211 HD
ENDBRANCH   1  13
TORSDOF 8
ENDMDL
MODEL 7
REMARK VINA RESULT:    -3.791      1.920      3.264
REMARK INTER + INTRA:          -5.579
REMARK INTER:                  -5.179
REMARK INTRA:                  -0.400
REMARK UNBOUND:                -0.459
REMARK SMILES O=C[C@@H](O)[C@H](O)[C@@H](O)CO
REMARK SMILES IDX 7 1 9 2 10 3 5 5 3 6 2 7 1 8 4 9 6 11 8 13
REMARK H PARENT 10 4 4 10 6 12 8 14
REMARK Flexibility Score: inf
ROOT
ATOM      1  C   UNL     1      17.038  21.547  78.999  1.00  0.00     0.171 C 
ENDROOT
BRANCH   1   2
ATOM      2  C   UNL     1      17.846  21.811  80.282  1.00  0.00     0.190 C 
BRANCH   2   3
ATOM      3  O   UNL     1      19.036  22.489  79.982  1.00  0.00    -0.394 OA
ATOM      4  H   UNL     1      19.617  22.392  80.781  1.00  0.00     0.210 HD
ENDBRANCH   2   3
ENDBRANCH   1   2
BRANCH   1   5
ATOM      5  C   UNL     1      17.423  20.224  78.275  1.00  0.00     0.181 C 
BRANCH   5   6
ATOM      6  C   UNL     1      18.523  20.344  77.191  1.00  0.00     0.209 C 
BRANCH   6   7
ATOM      7  C   UNL     1      19.900  20.009  77.707  1.00  0.00     0.258 C 
ATOM      8  O   UNL     1      20.643  20.883  78.126  1.00  0.00    -0.300 OA
ENDBRANCH   6   7
BRANCH   6   9
ATOM      9  O   UNL     1      18.207  19.559  76.070  1.00  0.00    -0.383 OA
ATOM     10  H   UNL     1      17.621  18.823  76.387  1.00  0.00     0.211 HD
ENDBRANCH   6   9
ENDBRANCH   5   6
BRANCH   5  11
ATOM     11  O   UNL     1      16.273  19.684  77.671  1.00  0.00    -0.387 OA
ATOM     12  H   UNL     1      15.496  20.222  77.978  1.00  0.00     0.211 HD
ENDBRANCH   5  11
ENDBRANCH   1   5
BRANCH   1  13
ATOM     13  O   UNL     1      15.672  21.498  79.325  1.00  0.00    -0.388 OA
ATOM     14  H   UNL     1      15.165  21.586  78.475  1.00  0.00     0.211 HD
ENDBRANCH   1  13
TORSDOF 8
ENDMDL
MODEL 8
REMARK VINA RESULT:    -3.710      1.733      4.013
REMARK INTER + INTRA:          -5.470
REMARK INTER:                  -4.522
REMARK INTRA:                  -0.948
REMARK UNBOUND:                -0.459
REMARK SMILES O=C[C@@H](O)[C@H](O)[C@@H](O)CO
REMARK SMILES IDX 7 1 9 2 10 3 5 5 3 6 2 7 1 8 4 9 6 11 8 13
REMARK H PARENT 10 4 4 10 6 12 8 14
REMARK Flexibility Score: inf
ROOT
ATOM      1  C   UNL     1      20.193  21.040  79.009  1.00  0.00     0.171 C 
ENDROOT
BRANCH   1   2
ATOM      2  C   UNL     1      21.424  21.605  78.280  1.00  0.00     0.190 C 
BRANCH   2   3
ATOM      3  O   UNL     1      21.547  22.981  78.515  1.00  0.00    -0.394 OA
ATOM      4  H   UNL     1      20.719  23.397  78.159  1.00  0.00     0.210 HD
ENDBRANCH   2   3
ENDBRANCH   1   2
BRANCH   1   5
ATOM      5  C   UNL     1      19.115  22.111  79.346  1.00  0.00     0.181 C 
BRANCH   5   6
ATOM      6  C   UNL     1      17.841  21.587  80.054  1.00  0.00     0.209 C 
BRANCH   6   7
ATOM      7  C   UNL     1      16.653  21.485  79.132  1.00  0.00     0.258 C 
ATOM      8  O   UNL     1      16.674  20.748  78.158  1.00  0.00    -0.300 OA
ENDBRANCH   6   7
BRANCH   6   9
ATOM      9  O   UNL     1      18.089  20.357  80.683  1.00  0.00    -0.383 OA
ATOM     10  H   UNL     1      18.589  20.553  81.518  1.00  0.00     0.211 HD
ENDBRANCH   6   9
ENDBRANCH   5   6
BRANCH   5  11
ATOM     11  O   UNL     1      18.721  22.751  78.157  1.00  0.00    -0.387 OA
ATOM     12  H   UNL     1      19.519  22.799  77.567  1.00  0.00     0.211 HD
ENDBRANCH   5  11
ENDBRANCH   1   5
BRANCH   1  13
ATOM     13  O   UNL     1      19.605  20.049  78.205  1.00  0.00    -0.388 OA
ATOM     14  H   UNL     1      18.913  20.496  77.650  1.00  0.00     0.211 HD
ENDBRANCH   1  13
TORSDOF 8
ENDMDL
MODEL 9
REMARK VINA RESULT:    -3.584     14.030     16.366
REMARK INTER + INTRA:          -5.300
REMARK INTER:                  -4.401
REMARK INTRA:                  -0.899
REMARK UNBOUND:                -0.459
REMARK SMILES O=C[C@@H](O)[C@H](O)[C@@H](O)CO
REMARK SMILES IDX 7 1 9 2 10 3 5 5 3 6 2 7 1 8 4 9 6 11 8 13
REMARK H PARENT 10 4 4 10 6 12 8 14
REMARK Flexibility Score: inf
ROOT
ATOM      1  C   UNL     1      24.523  33.356  73.829  1.00  0.00     0.171 C 
ENDROOT
BRANCH   1   2
ATOM      2  C   UNL     1      24.175  31.955  74.362  1.00  0.00     0.190 C 
BRANCH   2   3
ATOM      3  O   UNL     1      22.968  31.985  75.073  1.00  0.00    -0.394 OA
ATOM      4  H   UNL     1      23.170  32.418  75.942  1.00  0.00     0.210 HD
ENDBRANCH   2   3
ENDBRANCH   1   2
BRANCH   1   5
ATOM      5  C   UNL     1      23.403  34.411  74.056  1.00  0.00     0.181 C 
BRANCH   5   6
ATOM      6  C   UNL     1      23.551  35.734  73.265  1.00  0.00     0.209 C 
BRANCH   6   7
ATOM      7  C   UNL     1      24.025  36.883  74.119  1.00  0.00     0.258 C 
ATOM      8  O   UNL     1      25.109  36.843  74.680  1.00  0.00    -0.300 OA
ENDBRANCH   6   7
BRANCH   6   9
ATOM      9  O   UNL     1      24.392  35.561  72.154  1.00  0.00    -0.383 OA
ATOM     10  H   UNL     1      24.638  36.466  71.832  1.00  0.00     0.211 HD
ENDBRANCH   6   9
ENDBRANCH   5   6
BRANCH   5  11
ATOM     11  O   UNL     1      23.344  34.726  75.426  1.00  0.00    -0.387 OA
ATOM     12  H   UNL     1      24.099  34.257  75.870  1.00  0.00     0.211 HD
ENDBRANCH   5  11
ENDBRANCH   1   5
BRANCH   1  13
ATOM     13  O   UNL     1      25.696  33.803  74.461  1.00  0.00    -0.388 OA
ATOM     14  H   UNL     1      26.238  32.999  74.674  1.00  0.00     0.211 HD
ENDBRANCH   1  13
TORSDOF 8
ENDMDL
