MODEL 1
REMARK VINA RESULT:    -3.833      0.000      0.000
REMARK INTER + INTRA:          -4.416
REMARK INTER:                  -4.282
REMARK INTRA:                  -0.135
REMARK UNBOUND:                -0.135
REMARK SMILES O=C([O-])c1ccccc1C(=O)[O-]
REMARK SMILES IDX 4 1 9 2 5 3 8 4 6 5 7 6 2 7 1 8 3 9 10 10 11 11 12 12
REMARK H PARENT
REMARK Flexibility Score: inf
ROOT
ATOM      1  C   UNL     1     -11.190   7.245   1.566  1.00  0.00     0.006 A 
ATOM      2  C   UNL     1     -11.863   7.429   0.327  1.00  0.00     0.006 A 
ATOM      3  C   UNL     1     -11.175   8.297   2.502  1.00  0.00     0.010 A 
ATOM      4  C   UNL     1     -12.550   8.635   0.095  1.00  0.00     0.010 A 
ATOM      5  C   UNL     1     -11.847   9.491   2.241  1.00  0.00     0.001 A 
ATOM      6  C   UNL     1     -12.543   9.656   1.046  1.00  0.00     0.001 A 
ENDROOT
BRANCH   1   7
ATOM      7  C   UNL     1     -10.560   5.960   1.949  1.00  0.00     0.072 C 
ATOM      8  O   UNL     1      -9.315   5.891   2.124  1.00  0.00    -0.545 OA
ATOM      9  O   UNL     1     -11.338   4.832   2.184  1.00  0.00    -0.545 OA
ENDBRANCH   1   7
BRANCH   2  10
ATOM     10  C   UNL     1     -11.809   6.433  -0.767  1.00  0.00     0.072 C 
ATOM     11  O   UNL     1     -10.964   6.554  -1.693  1.00  0.00    -0.545 OA
ATOM     12  O   UNL     1     -12.642   5.321  -0.755  1.00  0.00    -0.545 OA
ENDBRANCH   2  10
TORSDOF 2
ENDMDL
MODEL 2
REMARK VINA RESULT:    -3.821      0.147      2.866
REMARK INTER + INTRA:          -4.403
REMARK INTER:                  -4.258
REMARK INTRA:                  -0.144
REMARK UNBOUND:                -0.135
REMARK SMILES O=C([O-])c1ccccc1C(=O)[O-]
REMARK SMILES IDX 4 1 9 2 5 3 8 4 6 5 7 6 2 7 1 8 3 9 10 10 11 11 12 12
REMARK H PARENT
REMARK Flexibility Score: inf
ROOT
ATOM      1  C   UNL     1     -11.958   7.435   0.446  1.00  0.00     0.006 A 
ATOM      2  C   UNL     1     -11.229   7.236   1.650  1.00  0.00     0.006 A 
ATOM      3  C   UNL     1     -12.680   8.631   0.271  1.00  0.00     0.010 A 
ATOM      4  C   UNL     1     -11.196   8.266   2.608  1.00  0.00     0.010 A 
ATOM      5  C   UNL     1     -12.649   9.630   1.244  1.00  0.00     0.001 A 
ATOM      6  C   UNL     1     -11.900   9.454   2.405  1.00  0.00     0.001 A 
ENDROOT
BRANCH   1   7
ATOM      7  C   UNL     1     -11.933   6.464  -0.673  1.00  0.00     0.072 C 
ATOM      8  O   UNL     1     -11.104   6.598  -1.611  1.00  0.00    -0.545 OA
ATOM      9  O   UNL     1     -12.776   5.358  -0.670  1.00  0.00    -0.545 OA
ENDBRANCH   1   7
BRANCH   2  10
ATOM     10  C   UNL     1     -10.560   5.956   1.976  1.00  0.00     0.072 C 
ATOM     11  O   UNL     1      -9.308   5.911   2.112  1.00  0.00    -0.545 OA
ATOM     12  O   UNL     1     -11.304   4.804   2.201  1.00  0.00    -0.545 OA
ENDBRANCH   2  10
TORSDOF 2
ENDMDL
MODEL 3
REMARK VINA RESULT:    -3.683      1.749      2.354
REMARK INTER + INTRA:          -4.248
REMARK INTER:                  -4.808
REMARK INTRA:                   0.560
REMARK UNBOUND:                -0.135
REMARK SMILES O=C([O-])c1ccccc1C(=O)[O-]
REMARK SMILES IDX 4 1 9 2 5 3 8 4 6 5 7 6 2 7 1 8 3 9 10 10 11 11 12 12
REMARK H PARENT
REMARK Flexibility Score: inf
ROOT
ATOM      1  C   UNL     1     -10.998   6.799   1.275  1.00  0.00     0.006 A 
ATOM      2  C   UNL     1     -12.050   5.977   0.788  1.00  0.00     0.006 A 
ATOM      3  C   UNL     1     -10.851   8.102   0.761  1.00  0.00     0.010 A 
ATOM      4  C   UNL     1     -12.956   6.509  -0.149  1.00  0.00     0.010 A 
ATOM      5  C   UNL     1     -11.748   8.601  -0.183  1.00  0.00     0.001 A 
ATOM      6  C   UNL     1     -12.806   7.811  -0.629  1.00  0.00     0.001 A 
ENDROOT
BRANCH   1   7
ATOM      7  C   UNL     1     -10.086   6.369   2.361  1.00  0.00     0.072 C 
ATOM      8  O   UNL     1      -9.069   5.674   2.098  1.00  0.00    -0.545 OA
ATOM      9  O   UNL     1     -10.302   6.780   3.672  1.00  0.00    -0.545 OA
ENDBRANCH   1   7
BRANCH   2  10
ATOM     10  C   UNL     1     -12.193   4.553   1.168  1.00  0.00     0.072 C 
ATOM     11  O   UNL     1     -12.788   3.749   0.401  1.00  0.00    -0.545 OA
ATOM     12  O   UNL     1     -11.619   4.071   2.338  1.00  0.00    -0.545 OA
ENDBRANCH   2  10
TORSDOF 2
ENDMDL
MODEL 4
REMARK VINA RESULT:    -3.674      1.749      3.179
REMARK INTER + INTRA:          -4.239
REMARK INTER:                  -4.804
REMARK INTRA:                   0.566
REMARK UNBOUND:                -0.135
REMARK SMILES O=C([O-])c1ccccc1C(=O)[O-]
REMARK SMILES IDX 4 1 9 2 5 3 8 4 6 5 7 6 2 7 1 8 3 9 10 10 11 11 12 12
REMARK H PARENT
REMARK Flexibility Score: inf
ROOT
ATOM      1  C   UNL     1     -12.048   5.982   0.793  1.00  0.00     0.006 A 
ATOM      2  C   UNL     1     -10.987   6.795   1.277  1.00  0.00     0.006 A 
ATOM      3  C   UNL     1     -12.959   6.522  -0.135  1.00  0.00     0.010 A 
ATOM      4  C   UNL     1     -10.838   8.099   0.767  1.00  0.00     0.010 A 
ATOM      5  C   UNL     1     -12.803   7.824  -0.610  1.00  0.00     0.001 A 
ATOM      6  C   UNL     1     -11.738   8.607  -0.170  1.00  0.00     0.001 A 
ENDROOT
BRANCH   1   7
ATOM      7  C   UNL     1     -12.197   4.557   1.169  1.00  0.00     0.072 C 
ATOM      8  O   UNL     1     -12.795   3.757   0.402  1.00  0.00    -0.545 OA
ATOM      9  O   UNL     1     -11.624   4.069   2.339  1.00  0.00    -0.545 OA
ENDBRANCH   1   7
BRANCH   2  10
ATOM     10  C   UNL     1     -10.071   6.356   2.354  1.00  0.00     0.072 C 
ATOM     11  O   UNL     1      -9.066   5.647   2.082  1.00  0.00    -0.545 OA
ATOM     12  O   UNL     1     -10.268   6.772   3.665  1.00  0.00    -0.545 OA
ENDBRANCH   2  10
TORSDOF 2
ENDMDL
MODEL 5
REMARK VINA RESULT:    -3.387      2.408      4.389
REMARK INTER + INTRA:          -3.918
REMARK INTER:                  -4.061
REMARK INTRA:                   0.142
REMARK UNBOUND:                -0.135
REMARK SMILES O=C([O-])c1ccccc1C(=O)[O-]
REMARK SMILES IDX 4 1 9 2 5 3 8 4 6 5 7 6 2 7 1 8 3 9 10 10 11 11 12 12
REMARK H PARENT
REMARK Flexibility Score: inf
ROOT
ATOM      1  C   UNL     1     -11.525   6.916  -1.518  1.00  0.00     0.006 A 
ATOM      2  C   UNL     1     -12.239   5.830  -0.940  1.00  0.00     0.006 A 
ATOM      3  C   UNL     1     -11.124   6.835  -2.865  1.00  0.00     0.010 A 
ATOM      4  C   UNL     1     -12.580   4.729  -1.749  1.00  0.00     0.010 A 
ATOM      5  C   UNL     1     -11.456   5.725  -3.641  1.00  0.00     0.001 A 
ATOM      6  C   UNL     1     -12.192   4.679  -3.088  1.00  0.00     0.001 A 
ENDROOT
BRANCH   1   7
ATOM      7  C   UNL     1     -11.247   8.170  -0.780  1.00  0.00     0.072 C 
ATOM      8  O   UNL     1     -11.990   9.176  -0.935  1.00  0.00    -0.545 OA
ATOM      9  O   UNL     1     -10.206   8.235   0.140  1.00  0.00    -0.545 OA
ENDBRANCH   1   7
BRANCH   2  10
ATOM     10  C   UNL     1     -12.575   5.770   0.500  1.00  0.00     0.072 C 
ATOM     11  O   UNL     1     -13.125   6.754   1.064  1.00  0.00    -0.545 OA
ATOM     12  O   UNL     1     -12.351   4.611   1.233  1.00  0.00    -0.545 OA
ENDBRANCH   2  10
TORSDOF 2
ENDMDL
MODEL 6
REMARK VINA RESULT:    -3.291      2.421      4.100
REMARK INTER + INTRA:          -3.810
REMARK INTER:                  -3.935
REMARK INTRA:                   0.125
REMARK UNBOUND:                -0.135
REMARK SMILES O=C([O-])c1ccccc1C(=O)[O-]
REMARK SMILES IDX 4 1 9 2 5 3 8 4 6 5 7 6 2 7 1 8 3 9 10 10 11 11 12 12
REMARK H PARENT
REMARK Flexibility Score: inf
ROOT
ATOM      1  C   UNL     1     -12.329   5.684  -0.839  1.00  0.00     0.006 A 
ATOM      2  C   UNL     1     -11.590   6.716  -1.480  1.00  0.00     0.006 A 
ATOM      3  C   UNL     1     -12.750   4.572  -1.592  1.00  0.00     0.010 A 
ATOM      4  C   UNL     1     -11.245   6.567  -2.836  1.00  0.00     0.010 A 
ATOM      5  C   UNL     1     -12.413   4.456  -2.941  1.00  0.00     0.001 A 
ATOM      6  C   UNL     1     -11.652   5.446  -3.559  1.00  0.00     0.001 A 
ENDROOT
BRANCH   1   7
ATOM      7  C   UNL     1     -12.616   5.692   0.615  1.00  0.00     0.072 C 
ATOM      8  O   UNL     1     -13.125   6.709   1.155  1.00  0.00    -0.545 OA
ATOM      9  O   UNL     1     -12.389   4.559   1.388  1.00  0.00    -0.545 OA
ENDBRANCH   1   7
BRANCH   2  10
ATOM     10  C   UNL     1     -11.231   7.981  -0.801  1.00  0.00     0.072 C 
ATOM     11  O   UNL     1     -11.917   9.020  -0.992  1.00  0.00    -0.545 OA
ATOM     12  O   UNL     1     -10.177   8.026   0.103  1.00  0.00    -0.545 OA
ENDBRANCH   2  10
TORSDOF 2
ENDMDL
MODEL 7
REMARK VINA RESULT:    -3.275      1.346      3.392
REMARK INTER + INTRA:          -3.793
REMARK INTER:                  -3.703
REMARK INTRA:                  -0.089
REMARK UNBOUND:                -0.135
REMARK SMILES O=C([O-])c1ccccc1C(=O)[O-]
REMARK SMILES IDX 4 1 9 2 5 3 8 4 6 5 7 6 2 7 1 8 3 9 10 10 11 11 12 12
REMARK H PARENT
REMARK Flexibility Score: inf
ROOT
ATOM      1  C   UNL     1     -12.014   7.726  -1.214  1.00  0.00     0.006 A 
ATOM      2  C   UNL     1     -11.593   7.777   0.143  1.00  0.00     0.006 A 
ATOM      3  C   UNL     1     -12.494   8.899  -1.828  1.00  0.00     0.010 A 
ATOM      4  C   UNL     1     -11.607   9.012   0.817  1.00  0.00     0.010 A 
ATOM      5  C   UNL     1     -12.518  10.108  -1.133  1.00  0.00     0.001 A 
ATOM      6  C   UNL     1     -12.064  10.168   0.183  1.00  0.00     0.001 A 
ENDROOT
BRANCH   1   7
ATOM      7  C   UNL     1     -11.902   6.501  -2.039  1.00  0.00     0.072 C 
ATOM      8  O   UNL     1     -12.860   5.685  -2.098  1.00  0.00    -0.545 OA
ATOM      9  O   UNL     1     -10.769   6.267  -2.810  1.00  0.00    -0.545 OA
ENDBRANCH   1   7
BRANCH   2  10
ATOM     10  C   UNL     1     -11.209   6.568   0.906  1.00  0.00     0.072 C 
ATOM     11  O   UNL     1     -10.078   6.497   1.456  1.00  0.00    -0.545 OA
ATOM     12  O   UNL     1     -12.111   5.525   1.083  1.00  0.00    -0.545 OA
ENDBRANCH   2  10
TORSDOF 2
ENDMDL
MODEL 8
REMARK VINA RESULT:    -3.254     20.346     22.487
REMARK INTER + INTRA:          -3.769
REMARK INTER:                  -3.662
REMARK INTRA:                  -0.107
REMARK UNBOUND:                -0.135
REMARK SMILES O=C([O-])c1ccccc1C(=O)[O-]
REMARK SMILES IDX 4 1 9 2 5 3 8 4 6 5 7 6 2 7 1 8 3 9 10 10 11 11 12 12
REMARK H PARENT
REMARK Flexibility Score: inf
ROOT
ATOM      1  C   UNL     1       3.786  -5.306   9.841  1.00  0.00     0.006 A 
ATOM      2  C   UNL     1       5.157  -5.197  10.205  1.00  0.00     0.006 A 
ATOM      3  C   UNL     1       3.370  -6.399   9.056  1.00  0.00     0.010 A 
ATOM      4  C   UNL     1       6.048  -6.217   9.824  1.00  0.00     0.010 A 
ATOM      5  C   UNL     1       4.276  -7.387   8.673  1.00  0.00     0.001 A 
ATOM      6  C   UNL     1       5.610  -7.303   9.065  1.00  0.00     0.001 A 
ENDROOT
BRANCH   1   7
ATOM      7  C   UNL     1       2.756  -4.354  10.316  1.00  0.00     0.072 C 
ATOM      8  O   UNL     1       2.297  -3.476   9.538  1.00  0.00    -0.545 OA
ATOM      9  O   UNL     1       2.235  -4.456  11.601  1.00  0.00    -0.545 OA
ENDBRANCH   1   7
BRANCH   2  10
ATOM     10  C   UNL     1       5.705  -4.014  10.906  1.00  0.00     0.072 C 
ATOM     11  O   UNL     1       5.450  -3.824  12.125  1.00  0.00    -0.545 OA
ATOM     12  O   UNL     1       6.559  -3.135  10.251  1.00  0.00    -0.545 OA
ENDBRANCH   2  10
TORSDOF 2
ENDMDL
