MODEL 1
REMARK VINA RESULT:    -3.498      0.000      0.000
REMARK INTER + INTRA:          -6.382
REMARK INTER:                  -5.644
REMARK INTRA:                  -0.738
REMARK UNBOUND:                -0.738
REMARK SMILES CCCCCCCCCCCCO
REMARK SMILES IDX 7 1 6 2 5 3 4 4 3 5 2 6 1 7 8 8 9 9 10 10 11 11 12 12 13 13
REMARK H PARENT 13 14
REMARK Flexibility Score: inf
ROOT
ATOM      1  C   UNL     1     162.665 164.775 164.875  1.00  0.00     0.000 C 
ENDROOT
BRANCH   1   2
ATOM      2  C   UNL     1     163.522 163.518 165.082  1.00  0.00    -0.000 C 
BRANCH   2   3
ATOM      3  C   UNL     1     164.976 163.848 165.453  1.00  0.00    -0.000 C 
BRANCH   3   4
ATOM      4  C   UNL     1     165.239 163.742 166.966  1.00  0.00    -0.000 C 
BRANCH   4   5
ATOM      5  C   UNL     1     164.733 164.971 167.740  1.00  0.00    -0.000 C 
BRANCH   5   6
ATOM      6  C   UNL     1     164.213 164.613 169.140  1.00  0.00    -0.003 C 
ATOM      7  C   UNL     1     165.066 163.522 169.780  1.00  0.00     0.004 C 
ENDBRANCH   5   6
ENDBRANCH   4   5
ENDBRANCH   3   4
ENDBRANCH   2   3
ENDBRANCH   1   2
BRANCH   1   8
ATOM      8  C   UNL     1     161.215 164.529 165.309  1.00  0.00     0.000 C 
BRANCH   8   9
ATOM      9  C   UNL     1     161.137 164.180 166.800  1.00  0.00     0.000 C 
BRANCH   9  10
ATOM     10  C   UNL     1     159.696 163.858 167.215  1.00  0.00     0.002 C 
BRANCH  10  11
ATOM     11  C   UNL     1     159.656 163.210 168.604  1.00  0.00     0.028 C 
BRANCH  11  12
ATOM     12  C   UNL     1     158.226 163.137 169.138  1.00  0.00     0.156 C 
BRANCH  12  13
ATOM     13  O   UNL     1     157.897 164.349 169.757  1.00  0.00    -0.396 OA
ATOM     14  H   UNL     1     157.950 165.043 169.048  1.00  0.00     0.210 HD
ENDBRANCH  12  13
ENDBRANCH  11  12
ENDBRANCH  10  11
ENDBRANCH   9  10
ENDBRANCH   8   9
ENDBRANCH   1   8
TORSDOF 11
ENDMDL
MODEL 2
REMARK VINA RESULT:    -3.475      4.976      7.048
REMARK INTER + INTRA:          -6.345
REMARK INTER:                  -5.129
REMARK INTRA:                  -1.217
REMARK UNBOUND:                -0.738
REMARK SMILES CCCCCCCCCCCCO
REMARK SMILES IDX 7 1 6 2 5 3 4 4 3 5 2 6 1 7 8 8 9 9 10 10 11 11 12 12 13 13
REMARK H PARENT 13 14
REMARK Flexibility Score: inf
ROOT
ATOM      1  C   UNL     1     164.714 165.092 167.167  1.00  0.00     0.000 C 
ENDROOT
BRANCH   1   2
ATOM      2  C   UNL     1     165.231 163.767 167.747  1.00  0.00    -0.000 C 
BRANCH   2   3
ATOM      3  C   UNL     1     165.366 163.805 169.278  1.00  0.00    -0.000 C 
BRANCH   3   4
ATOM      4  C   UNL     1     165.340 165.239 169.838  1.00  0.00    -0.000 C 
BRANCH   4   5
ATOM      5  C   UNL     1     166.691 165.662 170.437  1.00  0.00    -0.000 C 
BRANCH   5   6
ATOM      6  C   UNL     1     166.907 167.182 170.389  1.00  0.00    -0.003 C 
ATOM      7  C   UNL     1     165.695 167.890 169.791  1.00  0.00     0.004 C 
ENDBRANCH   5   6
ENDBRANCH   4   5
ENDBRANCH   3   4
ENDBRANCH   2   3
ENDBRANCH   1   2
BRANCH   1   8
ATOM      8  C   UNL     1     165.572 165.543 165.979  1.00  0.00     0.000 C 
BRANCH   8   9
ATOM      9  C   UNL     1     166.235 166.896 166.259  1.00  0.00     0.000 C 
BRANCH   9  10
ATOM     10  C   UNL     1     167.677 166.713 166.748  1.00  0.00     0.002 C 
BRANCH  10  11
ATOM     11  C   UNL     1     168.677 166.911 165.603  1.00  0.00     0.028 C 
BRANCH  11  12
ATOM     12  C   UNL     1     170.116 166.842 166.108  1.00  0.00     0.156 C 
BRANCH  12  13
ATOM     13  O   UNL     1     170.115 166.678 167.499  1.00  0.00    -0.396 OA
ATOM     14  H   UNL     1     170.619 167.449 167.868  1.00  0.00     0.210 HD
ENDBRANCH  12  13
ENDBRANCH  11  12
ENDBRANCH  10  11
ENDBRANCH   9  10
ENDBRANCH   8   9
ENDBRANCH   1   8
TORSDOF 11
ENDMDL
MODEL 3
REMARK VINA RESULT:    -3.454      1.915      2.620
REMARK INTER + INTRA:          -6.312
REMARK INTER:                  -5.790
REMARK INTRA:                  -0.523
REMARK UNBOUND:                -0.738
REMARK SMILES CCCCCCCCCCCCO
REMARK SMILES IDX 7 1 6 2 5 3 4 4 3 5 2 6 1 7 8 8 9 9 10 10 11 11 12 12 13 13
REMARK H PARENT 13 14
REMARK Flexibility Score: inf
ROOT
ATOM      1  C   UNL     1     162.811 164.763 164.936  1.00  0.00     0.000 C 
ENDROOT
BRANCH   1   2
ATOM      2  C   UNL     1     163.724 163.989 165.898  1.00  0.00    -0.000 C 
BRANCH   2   3
ATOM      3  C   UNL     1     165.179 164.482 165.858  1.00  0.00    -0.000 C 
BRANCH   3   4
ATOM      4  C   UNL     1     165.529 165.389 167.052  1.00  0.00    -0.000 C 
BRANCH   4   5
ATOM      5  C   UNL     1     166.356 166.616 166.637  1.00  0.00    -0.000 C 
BRANCH   5   6
ATOM      6  C   UNL     1     166.081 167.051 165.190  1.00  0.00    -0.003 C 
ATOM      7  C   UNL     1     166.766 168.377 164.875  1.00  0.00     0.004 C 
ENDBRANCH   5   6
ENDBRANCH   4   5
ENDBRANCH   3   4
ENDBRANCH   2   3
ENDBRANCH   1   2
BRANCH   1   8
ATOM      8  C   UNL     1     161.333 164.505 165.254  1.00  0.00     0.000 C 
BRANCH   8   9
ATOM      9  C   UNL     1     161.125 164.267 166.754  1.00  0.00     0.000 C 
BRANCH   9  10
ATOM     10  C   UNL     1     159.660 163.930 167.060  1.00  0.00     0.002 C 
BRANCH  10  11
ATOM     11  C   UNL     1     159.528 163.238 168.422  1.00  0.00     0.028 C 
BRANCH  11  12
ATOM     12  C   UNL     1     158.117 163.396 168.986  1.00  0.00     0.156 C 
BRANCH  12  13
ATOM     13  O   UNL     1     158.063 162.838 170.269  1.00  0.00    -0.396 OA
ATOM     14  H   UNL     1     158.618 162.016 170.235  1.00  0.00     0.210 HD
ENDBRANCH  12  13
ENDBRANCH  11  12
ENDBRANCH  10  11
ENDBRANCH   9  10
ENDBRANCH   8   9
ENDBRANCH   1   8
TORSDOF 11
ENDMDL
MODEL 4
REMARK VINA RESULT:    -3.325      3.844      5.572
REMARK INTER + INTRA:          -6.103
REMARK INTER:                  -4.751
REMARK INTRA:                  -1.352
REMARK UNBOUND:                -0.738
REMARK SMILES CCCCCCCCCCCCO
REMARK SMILES IDX 7 1 6 2 5 3 4 4 3 5 2 6 1 7 8 8 9 9 10 10 11 11 12 12 13 13
REMARK H PARENT 13 14
REMARK Flexibility Score: inf
ROOT
ATOM      1  C   UNL     1     166.018 166.796 166.035  1.00  0.00     0.000 C 
ENDROOT
BRANCH   1   2
ATOM      2  C   UNL     1     165.758 165.661 165.035  1.00  0.00    -0.000 C 
BRANCH   2   3
ATOM      3  C   UNL     1     164.608 164.740 165.472  1.00  0.00    -0.000 C 
BRANCH   3   4
ATOM      4  C   UNL     1     165.107 163.455 166.157  1.00  0.00    -0.000 C 
BRANCH   4   5
ATOM      5  C   UNL     1     165.206 163.601 167.684  1.00  0.00    -0.000 C 
BRANCH   5   6
ATOM      6  C   UNL     1     164.103 164.500 168.263  1.00  0.00    -0.003 C 
ATOM      7  C   UNL     1     164.074 164.421 169.786  1.00  0.00     0.004 C 
ENDBRANCH   5   6
ENDBRANCH   4   5
ENDBRANCH   3   4
ENDBRANCH   2   3
ENDBRANCH   1   2
BRANCH   1   8
ATOM      8  C   UNL     1     167.311 166.549 166.823  1.00  0.00     0.000 C 
BRANCH   8   9
ATOM      9  C   UNL     1     167.094 166.775 168.323  1.00  0.00     0.000 C 
BRANCH   9  10
ATOM     10  C   UNL     1     165.897 167.700 168.574  1.00  0.00     0.002 C 
BRANCH  10  11
ATOM     11  C   UNL     1     165.608 167.832 170.074  1.00  0.00     0.028 C 
BRANCH  11  12
ATOM     12  C   UNL     1     165.304 169.280 170.453  1.00  0.00     0.156 C 
BRANCH  12  13
ATOM     13  O   UNL     1     164.806 169.959 169.335  1.00  0.00    -0.396 OA
ATOM     14  H   UNL     1     165.595 170.341 168.870  1.00  0.00     0.210 HD
ENDBRANCH  12  13
ENDBRANCH  11  12
ENDBRANCH  10  11
ENDBRANCH   9  10
ENDBRANCH   8   9
ENDBRANCH   1   8
TORSDOF 11
ENDMDL
MODEL 5
REMARK VINA RESULT:    -3.180      6.928      9.903
REMARK INTER + INTRA:          -5.870
REMARK INTER:                  -5.182
REMARK INTRA:                  -0.687
REMARK UNBOUND:                -0.738
REMARK SMILES CCCCCCCCCCCCO
REMARK SMILES IDX 7 1 6 2 5 3 4 4 3 5 2 6 1 7 8 8 9 9 10 10 11 11 12 12 13 13
REMARK H PARENT 13 14
REMARK Flexibility Score: inf
ROOT
ATOM      1  C   UNL     1     167.782 167.434 170.991  1.00  0.00     0.000 C 
ENDROOT
BRANCH   1   2
ATOM      2  C   UNL     1     167.344 166.742 169.692  1.00  0.00    -0.000 C 
BRANCH   2   3
ATOM      3  C   UNL     1     165.994 167.262 169.172  1.00  0.00    -0.000 C 
BRANCH   3   4
ATOM      4  C   UNL     1     165.945 167.346 167.636  1.00  0.00    -0.000 C 
BRANCH   4   5
ATOM      5  C   UNL     1     167.156 166.673 166.970  1.00  0.00    -0.000 C 
BRANCH   5   6
ATOM      6  C   UNL     1     167.397 167.177 165.539  1.00  0.00    -0.003 C 
ATOM      7  C   UNL     1     168.822 166.876 165.084  1.00  0.00     0.004 C 
ENDBRANCH   5   6
ENDBRANCH   4   5
ENDBRANCH   3   4
ENDBRANCH   2   3
ENDBRANCH   1   2
BRANCH   1   8
ATOM      8  C   UNL     1     169.311 167.496 171.091  1.00  0.00     0.000 C 
BRANCH   8   9
ATOM      9  C   UNL     1     169.967 167.121 169.757  1.00  0.00     0.000 C 
BRANCH   9  10
ATOM     10  C   UNL     1     171.300 167.855 169.572  1.00  0.00     0.002 C 
BRANCH  10  11
ATOM     11  C   UNL     1     171.751 167.818 168.107  1.00  0.00     0.028 C 
BRANCH  11  12
ATOM     12  C   UNL     1     173.270 167.697 168.000  1.00  0.00     0.156 C 
BRANCH  12  13
ATOM     13  O   UNL     1     173.611 166.383 167.659  1.00  0.00    -0.396 OA
ATOM     14  H   UNL     1     173.700 166.370 166.671  1.00  0.00     0.210 HD
ENDBRANCH  12  13
ENDBRANCH  11  12
ENDBRANCH  10  11
ENDBRANCH   9  10
ENDBRANCH   8   9
ENDBRANCH   1   8
TORSDOF 11
ENDMDL
MODEL 6
REMARK VINA RESULT:    -3.155      5.643      7.710
REMARK INTER + INTRA:          -5.829
REMARK INTER:                  -4.903
REMARK INTRA:                  -0.926
REMARK UNBOUND:                -0.738
REMARK SMILES CCCCCCCCCCCCO
REMARK SMILES IDX 7 1 6 2 5 3 4 4 3 5 2 6 1 7 8 8 9 9 10 10 11 11 12 12 13 13
REMARK H PARENT 13 14
REMARK Flexibility Score: inf
ROOT
ATOM      1  C   UNL     1     165.603 165.573 167.796  1.00  0.00     0.000 C 
ENDROOT
BRANCH   1   2
ATOM      2  C   UNL     1     165.877 165.968 166.337  1.00  0.00    -0.000 C 
BRANCH   2   3
ATOM      3  C   UNL     1     166.886 167.121 166.216  1.00  0.00    -0.000 C 
BRANCH   3   4
ATOM      4  C   UNL     1     167.740 167.027 164.939  1.00  0.00    -0.000 C 
BRANCH   4   5
ATOM      5  C   UNL     1     169.227 166.780 165.241  1.00  0.00    -0.000 C 
BRANCH   5   6
ATOM      6  C   UNL     1     169.536 166.810 166.745  1.00  0.00    -0.003 C 
ATOM      7  C   UNL     1     170.971 167.261 167.001  1.00  0.00     0.004 C 
ENDBRANCH   5   6
ENDBRANCH   4   5
ENDBRANCH   3   4
ENDBRANCH   2   3
ENDBRANCH   1   2
BRANCH   1   8
ATOM      8  C   UNL     1     166.376 166.478 168.764  1.00  0.00     0.000 C 
BRANCH   8   9
ATOM      9  C   UNL     1     166.158 166.044 170.218  1.00  0.00     0.000 C 
BRANCH   9  10
ATOM     10  C   UNL     1     167.468 166.103 171.013  1.00  0.00     0.002 C 
BRANCH  10  11
ATOM     11  C   UNL     1     168.571 166.798 170.207  1.00  0.00     0.028 C 
BRANCH  11  12
ATOM     12  C   UNL     1     169.389 167.740 171.088  1.00  0.00     0.156 C 
BRANCH  12  13
ATOM     13  O   UNL     1     170.468 168.246 170.353  1.00  0.00    -0.396 OA
ATOM     14  H   UNL     1     171.288 167.929 170.815  1.00  0.00     0.210 HD
ENDBRANCH  12  13
ENDBRANCH  11  12
ENDBRANCH  10  11
ENDBRANCH   9  10
ENDBRANCH   8   9
ENDBRANCH   1   8
TORSDOF 11
ENDMDL
MODEL 7
REMARK VINA RESULT:    -3.150      2.943      5.224
REMARK INTER + INTRA:          -5.821
REMARK INTER:                  -4.660
REMARK INTRA:                  -1.161
REMARK UNBOUND:                -0.738
REMARK SMILES CCCCCCCCCCCCO
REMARK SMILES IDX 7 1 6 2 5 3 4 4 3 5 2 6 1 7 8 8 9 9 10 10 11 11 12 12 13 13
REMARK H PARENT 13 14
REMARK Flexibility Score: inf
ROOT
ATOM      1  C   UNL     1     166.439 166.307 168.612  1.00  0.00     0.000 C 
ENDROOT
BRANCH   1   2
ATOM      2  C   UNL     1     165.817 167.065 169.794  1.00  0.00    -0.000 C 
BRANCH   2   3
ATOM      3  C   UNL     1     164.863 166.189 170.622  1.00  0.00    -0.000 C 
BRANCH   3   4
ATOM      4  C   UNL     1     165.310 164.717 170.678  1.00  0.00    -0.000 C 
BRANCH   4   5
ATOM      5  C   UNL     1     164.182 163.743 170.304  1.00  0.00    -0.000 C 
BRANCH   5   6
ATOM      6  C   UNL     1     162.848 164.099 170.977  1.00  0.00    -0.003 C 
ATOM      7  C   UNL     1     161.730 164.227 169.947  1.00  0.00     0.004 C 
ENDBRANCH   5   6
ENDBRANCH   4   5
ENDBRANCH   3   4
ENDBRANCH   2   3
ENDBRANCH   1   2
BRANCH   1   8
ATOM      8  C   UNL     1     166.006 166.922 167.276  1.00  0.00     0.000 C 
BRANCH   8   9
ATOM      9  C   UNL     1     165.756 165.835 166.224  1.00  0.00     0.000 C 
BRANCH   9  10
ATOM     10  C   UNL     1     165.201 164.560 166.870  1.00  0.00     0.002 C 
BRANCH  10  11
ATOM     11  C   UNL     1     163.687 164.449 166.659  1.00  0.00     0.028 C 
BRANCH  11  12
ATOM     12  C   UNL     1     163.353 164.173 165.194  1.00  0.00     0.156 C 
BRANCH  12  13
ATOM     13  O   UNL     1     163.667 162.843 164.887  1.00  0.00    -0.396 OA
ATOM     14  H   UNL     1     164.006 162.440 165.728  1.00  0.00     0.210 HD
ENDBRANCH  12  13
ENDBRANCH  11  12
ENDBRANCH  10  11
ENDBRANCH   9  10
ENDBRANCH   8   9
ENDBRANCH   1   8
TORSDOF 11
ENDMDL
MODEL 8
REMARK VINA RESULT:    -3.131      2.489      3.750
REMARK INTER + INTRA:          -5.791
REMARK INTER:                  -5.230
REMARK INTRA:                  -0.561
REMARK UNBOUND:                -0.738
REMARK SMILES CCCCCCCCCCCCO
REMARK SMILES IDX 7 1 6 2 5 3 4 4 3 5 2 6 1 7 8 8 9 9 10 10 11 11 12 12 13 13
REMARK H PARENT 13 14
REMARK Flexibility Score: inf
ROOT
ATOM      1  C   UNL     1     165.159 165.517 165.323  1.00  0.00     0.000 C 
ENDROOT
BRANCH   1   2
ATOM      2  C   UNL     1     166.504 166.124 165.749  1.00  0.00    -0.000 C 
BRANCH   2   3
ATOM      3  C   UNL     1     166.366 167.094 166.934  1.00  0.00    -0.000 C 
BRANCH   3   4
ATOM      4  C   UNL     1     166.588 166.403 168.291  1.00  0.00    -0.000 C 
BRANCH   4   5
ATOM      5  C   UNL     1     165.609 166.894 169.369  1.00  0.00    -0.000 C 
BRANCH   5   6
ATOM      6  C   UNL     1     165.932 168.314 169.857  1.00  0.00    -0.003 C 
ATOM      7  C   UNL     1     165.008 168.727 170.999  1.00  0.00     0.004 C 
ENDBRANCH   5   6
ENDBRANCH   4   5
ENDBRANCH   3   4
ENDBRANCH   2   3
ENDBRANCH   1   2
BRANCH   1   8
ATOM      8  C   UNL     1     165.173 163.991 165.473  1.00  0.00     0.000 C 
BRANCH   8   9
ATOM      9  C   UNL     1     163.761 163.410 165.337  1.00  0.00     0.000 C 
BRANCH   9  10
ATOM     10  C   UNL     1     162.764 164.486 164.890  1.00  0.00     0.002 C 
BRANCH  10  11
ATOM     11  C   UNL     1     161.413 164.311 165.594  1.00  0.00     0.028 C 
BRANCH  11  12
ATOM     12  C   UNL     1     161.561 164.427 167.109  1.00  0.00     0.156 C 
BRANCH  12  13
ATOM     13  O   UNL     1     160.382 163.992 167.728  1.00  0.00    -0.396 OA
ATOM     14  H   UNL     1     159.784 164.783 167.766  1.00  0.00     0.210 HD
ENDBRANCH  12  13
ENDBRANCH  11  12
ENDBRANCH  10  11
ENDBRANCH   9  10
ENDBRANCH   8   9
ENDBRANCH   1   8
TORSDOF 11
ENDMDL
MODEL 9
REMARK VINA RESULT:    -3.108      4.476      6.513
REMARK INTER + INTRA:          -5.753
REMARK INTER:                  -4.535
REMARK INTRA:                  -1.218
REMARK UNBOUND:                -0.738
REMARK SMILES CCCCCCCCCCCCO
REMARK SMILES IDX 7 1 6 2 5 3 4 4 3 5 2 6 1 7 8 8 9 9 10 10 11 11 12 12 13 13
REMARK H PARENT 13 14
REMARK Flexibility Score: inf
ROOT
ATOM      1  C   UNL     1     166.745 166.940 166.033  1.00  0.00     0.000 C 
ENDROOT
BRANCH   1   2
ATOM      2  C   UNL     1     165.863 166.448 164.876  1.00  0.00    -0.000 C 
BRANCH   2   3
ATOM      3  C   UNL     1     165.625 164.930 164.919  1.00  0.00    -0.000 C 
BRANCH   3   4
ATOM      4  C   UNL     1     164.455 164.540 165.840  1.00  0.00    -0.000 C 
BRANCH   4   5
ATOM      5  C   UNL     1     164.930 163.967 167.184  1.00  0.00    -0.000 C 
BRANCH   5   6
ATOM      6  C   UNL     1     164.117 164.501 168.373  1.00  0.00    -0.003 C 
ATOM      7  C   UNL     1     164.712 164.035 169.698  1.00  0.00     0.004 C 
ENDBRANCH   5   6
ENDBRANCH   4   5
ENDBRANCH   3   4
ENDBRANCH   2   3
ENDBRANCH   1   2
BRANCH   1   8
ATOM      8  C   UNL     1     165.976 167.911 166.937  1.00  0.00     0.000 C 
BRANCH   8   9
ATOM      9  C   UNL     1     166.035 167.464 168.402  1.00  0.00     0.000 C 
BRANCH   9  10
ATOM     10  C   UNL     1     167.256 166.572 168.657  1.00  0.00     0.002 C 
BRANCH  10  11
ATOM     11  C   UNL     1     167.780 166.751 170.087  1.00  0.00     0.028 C 
BRANCH  11  12
ATOM     12  C   UNL     1     169.289 166.989 170.096  1.00  0.00     0.156 C 
BRANCH  12  13
ATOM     13  O   UNL     1     169.911 166.007 170.877  1.00  0.00    -0.396 OA
ATOM     14  H   UNL     1     169.613 166.168 171.810  1.00  0.00     0.210 HD
ENDBRANCH  12  13
ENDBRANCH  11  12
ENDBRANCH  10  11
ENDBRANCH   9  10
ENDBRANCH   8   9
ENDBRANCH   1   8
TORSDOF 11
ENDMDL
