MODEL 1
REMARK VINA RESULT:    98.157      0.000      0.000
REMARK INTER + INTRA:         101.027
REMARK INTER:                 101.027
REMARK INTRA:                   0.000
REMARK UNBOUND:                 0.000
REMARK SMILES CC1(C)CC[C@]2(C)CC[C@]3(C)C(=CC[C@@H]4[C@@]5(C)CC[C@@H](O)C(C)(C)[C@H]5CC[C@]43C)[C@H]2C1
REMARK SMILES IDX 1 1 2 2 4 3 5 4 6 5 8 6 9 7 10 8 12 9 13 10 14 11 15 12
REMARK SMILES IDX 28 13 27 14 26 15 25 16 16 17 18 18 19 19 20 20 22 21 23 22
REMARK SMILES IDX 24 23 17 24 29 25 30 26 31 27 11 28 7 29 3 30 21 31
REMARK H PARENT 21 32
REMARK Flexibility Score: inf
ROOT
ATOM      1  C   UNL     1     -27.780  26.478   5.723  1.00  0.00     0.011 C 
ATOM      2  C   UNL     1     -27.934  25.497   6.912  1.00  0.00    -0.035 C 
ATOM      3  C   UNL     1     -27.262  24.133   6.573  1.00  0.00     0.007 C 
ATOM      4  C   UNL     1     -28.077  23.252   5.597  1.00  0.00     0.008 C 
ATOM      5  C   UNL     1     -29.552  23.045   6.040  1.00  0.00    -0.026 C 
ATOM      6  C   UNL     1     -30.343  22.240   4.939  1.00  0.00     0.008 C 
ATOM      7  C   UNL     1     -31.485  23.012   4.217  1.00  0.00     0.012 C 
ATOM      8  C   UNL     1     -32.451  23.864   5.142  1.00  0.00    -0.006 C 
ATOM      9  C   UNL     1     -31.690  24.294   6.402  1.00  0.00    -0.064 C 
ATOM     10  C   UNL     1     -32.318  24.532   7.576  1.00  0.00    -0.027 C 
ATOM     11  C   UNL     1     -33.759  24.189   7.845  1.00  0.00     0.032 C 
ATOM     12  C   UNL     1     -34.605  23.930   6.570  1.00  0.00     0.006 C 
ATOM     13  C   UNL     1     -33.797  23.064   5.520  1.00  0.00    -0.020 C 
ATOM     14  C   UNL     1     -34.661  22.772   4.239  1.00  0.00     0.008 C 
ATOM     15  C   UNL     1     -36.092  23.308   4.303  1.00  0.00     0.005 C 
ATOM     16  C   UNL     1     -36.796  22.816   5.601  1.00  0.00     0.003 C 
ATOM     17  C   UNL     1     -36.140  23.540   6.857  1.00  0.00    -0.025 C 
ATOM     18  C   UNL     1     -36.900  24.875   7.163  1.00  0.00     0.010 C 
ATOM     19  C   UNL     1     -38.420  24.742   7.253  1.00  0.00     0.033 C 
ATOM     20  C   UNL     1     -39.032  24.179   5.961  1.00  0.00     0.120 C 
ATOM     21  C   UNL     1     -38.403  22.812   5.531  1.00  0.00    -0.006 C 
ATOM     22  C   UNL     1     -38.922  22.460   4.106  1.00  0.00     0.014 C 
ATOM     23  C   UNL     1     -38.988  21.688   6.450  1.00  0.00     0.014 C 
ATOM     24  C   UNL     1     -36.241  22.634   8.122  1.00  0.00     0.012 C 
ATOM     25  C   UNL     1     -33.446  21.679   6.143  1.00  0.00     0.012 C 
ATOM     26  C   UNL     1     -30.185  24.445   6.238  1.00  0.00     0.022 C 
ATOM     27  C   UNL     1     -29.435  25.304   7.283  1.00  0.00     0.015 C 
ATOM     28  C   UNL     1     -32.754  25.209   4.391  1.00  0.00     0.017 C 
ATOM     29  C   UNL     1     -29.585  22.210   7.354  1.00  0.00     0.012 C 
ATOM     30  C   UNL     1     -27.209  26.118   8.125  1.00  0.00     0.011 C 
ENDROOT
BRANCH  20  31
ATOM     31  O   UNL     1     -39.008  25.146   4.937  1.00  0.00    -0.393 OA
ATOM     32  H   UNL     1     -39.847  25.073   4.422  1.00  0.00     0.210 HD
ENDBRANCH  20  31
TORSDOF 1
ENDMDL
