MODEL 1
REMARK VINA RESULT:    -3.519      0.000      0.000
REMARK INTER + INTRA:          -3.571
REMARK INTER:                  -4.341
REMARK INTRA:                   0.771
REMARK UNBOUND:                 0.771
REMARK SMILES CC1=CC=CC(C)(C)CC1=O
REMARK SMILES IDX 1 1 2 2 3 3 10 4 11 5 9 6 4 8 5 9 6 10 7 11 8 12
REMARK H PARENT
REMARK Flexibility Score: 80.00
ROOT
ATOM      1  C   UNL     1      29.477  14.599  22.021  1.00  0.00     0.048 C 
ATOM      2  C   UNL     1      29.328  13.600  23.144  1.00  0.00    -0.008 C 
ATOM      3  C   UNL     1      30.072  13.791  24.255  1.00  0.00     0.007 C 
ENDROOT
BRANCH   2   4
ATOM      4  C   UNL     1      28.316  12.528  22.966  1.00  0.00     0.159 C 
ATOM      5  O   UNL     1      27.495  12.619  22.012  1.00  0.00    -0.295 OA
BRANCH   4   6
ATOM      6  C   UNL     1      28.223  11.325  23.852  1.00  0.00     0.091 CG0
ATOM      7  G   UNL     1      27.958  11.678  25.333  1.00  0.00     0.000 G0
ENDBRANCH   4   6
ENDBRANCH   2   4
BRANCH   3   8
ATOM      8  C   UNL     1      30.123  13.009  25.511  1.00  0.00    -0.003 C 
ATOM      9  C   UNL     1      29.242  12.122  25.992  1.00  0.00    -0.020 C 
BRANCH   9  10
ATOM     10  C   UNL     1      27.960  11.681  25.325  1.00  0.00    -0.010 CG0
ATOM     11  C   UNL     1      27.453  10.409  26.043  1.00  0.00     0.016 C 
ATOM     12  C   UNL     1      26.880  12.777  25.477  1.00  0.00     0.016 C 
ATOM     13  G   UNL     1      28.239  11.320  23.848  1.00  0.00     0.000 G0
ENDBRANCH   9  10
ENDBRANCH   3   8
TORSDOF 0
ENDMDL
MODEL 2
REMARK VINA RESULT:    -3.512      1.675      2.277
REMARK INTER + INTRA:          -3.563
REMARK INTER:                  -4.305
REMARK INTRA:                   0.742
REMARK UNBOUND:                 0.771
REMARK SMILES CC1=CC=CC(C)(C)CC1=O
REMARK SMILES IDX 1 1 2 2 3 3 10 4 11 5 9 6 4 8 5 9 6 10 7 11 8 12
REMARK H PARENT
REMARK Flexibility Score: 80.00
ROOT
ATOM      1  C   UNL     1      28.072  13.591  22.273  1.00  0.00     0.048 C 
ATOM      2  C   UNL     1      28.296  12.696  23.469  1.00  0.00    -0.008 C 
ATOM      3  C   UNL     1      27.472  12.848  24.528  1.00  0.00     0.007 C 
ENDROOT
BRANCH   2   4
ATOM      4  C   UNL     1      29.362  11.669  23.354  1.00  0.00     0.159 C 
ATOM      5  O   UNL     1      29.874  11.447  22.222  1.00  0.00    -0.295 OA
BRANCH   4   6
ATOM      6  C   UNL     1      29.880  10.882  24.518  1.00  0.00     0.091 CG0
ATOM      7  G   UNL     1      28.791  10.036  25.215  1.00  0.00     0.000 G0
ENDBRANCH   4   6
ENDBRANCH   2   4
BRANCH   3   8
ATOM      8  C   UNL     1      27.429  12.111  25.812  1.00  0.00    -0.003 C 
ATOM      9  C   UNL     1      27.967  10.925  26.125  1.00  0.00    -0.020 C 
BRANCH   9  10
ATOM     10  C   UNL     1      28.793  10.047  25.215  1.00  0.00    -0.010 CG0
ATOM     11  C   UNL     1      29.511   8.989  26.083  1.00  0.00     0.016 C 
ATOM     12  C   UNL     1      27.873   9.303  24.219  1.00  0.00     0.016 C 
ATOM     13  G   UNL     1      29.870  10.900  24.508  1.00  0.00     0.000 G0
ENDBRANCH   9  10
ENDBRANCH   3   8
TORSDOF 0
ENDMDL
MODEL 3
REMARK VINA RESULT:    -3.477      1.379      3.400
REMARK INTER + INTRA:          -3.519
REMARK INTER:                  -4.283
REMARK INTRA:                   0.764
REMARK UNBOUND:                 0.771
REMARK SMILES CC1=CC=CC(C)(C)CC1=O
REMARK SMILES IDX 1 1 2 2 3 3 10 4 11 5 9 6 4 8 5 9 6 10 7 11 8 12
REMARK H PARENT
REMARK Flexibility Score: 80.00
ROOT
ATOM      1  C   UNL     1      27.658   9.430  24.854  1.00  0.00     0.048 C 
ATOM      2  C   UNL     1      28.221  10.821  24.679  1.00  0.00    -0.008 C 
ATOM      3  C   UNL     1      29.291  11.162  25.428  1.00  0.00     0.007 C 
ENDROOT
BRANCH   2   4
ATOM      4  C   UNL     1      27.595  11.678  23.640  1.00  0.00     0.159 C 
ATOM      5  O   UNL     1      26.776  11.156  22.834  1.00  0.00    -0.295 OA
BRANCH   4   6
ATOM      6  C   UNL     1      27.871  13.143  23.501  1.00  0.00     0.091 CG0
ATOM      7  G   UNL     1      29.359  13.459  23.229  1.00  0.00     0.000 G0
ENDBRANCH   4   6
ENDBRANCH   2   4
BRANCH   3   8
ATOM      8  C   UNL     1      30.067  12.424  25.458  1.00  0.00    -0.003 C 
ATOM      9  C   UNL     1      30.125  13.403  24.546  1.00  0.00    -0.020 C 
BRANCH   9  10
ATOM     10  C   UNL     1      29.364  13.461  23.242  1.00  0.00    -0.010 CG0
ATOM     11  C   UNL     1      29.460  14.900  22.688  1.00  0.00     0.016 C 
ATOM     12  C   UNL     1      30.009  12.507  22.210  1.00  0.00     0.016 C 
ATOM     13  G   UNL     1      27.873  13.141  23.496  1.00  0.00     0.000 G0
ENDBRANCH   9  10
ENDBRANCH   3   8
TORSDOF 0
ENDMDL
MODEL 4
REMARK VINA RESULT:    -3.120      1.769      3.728
REMARK INTER + INTRA:          -3.079
REMARK INTER:                  -4.121
REMARK INTRA:                   1.042
REMARK UNBOUND:                 0.771
REMARK SMILES CC1=CC=CC(C)(C)CC1=O
REMARK SMILES IDX 1 1 2 2 3 3 10 4 11 5 9 6 4 8 5 9 6 10 7 11 8 12
REMARK H PARENT
REMARK Flexibility Score: 80.00
ROOT
ATOM      1  C   UNL     1      27.602   9.762  24.608  1.00  0.00     0.048 C 
ATOM      2  C   UNL     1      28.147  10.893  23.767  1.00  0.00    -0.008 C 
ATOM      3  C   UNL     1      29.002  10.576  22.771  1.00  0.00     0.007 C 
ENDROOT
BRANCH   2   4
ATOM      4  C   UNL     1      27.636  12.257  24.056  1.00  0.00     0.159 C 
ATOM      5  O   UNL     1      27.024  12.460  25.141  1.00  0.00    -0.295 OA
BRANCH   4   6
ATOM      6  C   UNL     1      27.821  13.421  23.133  1.00  0.00     0.091 CG0
ATOM      7  G   UNL     1      29.305  13.732  22.833  1.00  0.00     0.000 G0
ENDBRANCH   4   6
ENDBRANCH   2   4
BRANCH   3   8
ATOM      8  C   UNL     1      29.670  11.450  21.778  1.00  0.00    -0.003 C 
ATOM      9  C   UNL     1      29.798  12.783  21.776  1.00  0.00    -0.020 C 
BRANCH   9  10
ATOM     10  C   UNL     1      29.297  13.734  22.837  1.00  0.00    -0.010 CG0
ATOM     11  C   UNL     1      30.122  13.503  24.124  1.00  0.00     0.016 C 
ATOM     12  C   UNL     1      29.518  15.196  22.384  1.00  0.00     0.016 C 
ATOM     13  G   UNL     1      27.816  13.427  23.153  1.00  0.00     0.000 G0
ENDBRANCH   9  10
ENDBRANCH   3   8
TORSDOF 0
ENDMDL
MODEL 5
REMARK VINA RESULT:    -3.042      1.561      2.490
REMARK INTER + INTRA:          -2.983
REMARK INTER:                  -4.009
REMARK INTRA:                   1.026
REMARK UNBOUND:                 0.771
REMARK SMILES CC1=CC=CC(C)(C)CC1=O
REMARK SMILES IDX 1 1 2 2 3 3 10 4 11 5 9 6 4 8 5 9 6 10 7 11 8 12
REMARK H PARENT
REMARK Flexibility Score: 80.00
ROOT
ATOM      1  C   UNL     1      29.724  15.085  22.376  1.00  0.00     0.048 C 
ATOM      2  C   UNL     1      29.402  13.710  22.911  1.00  0.00    -0.008 C 
ATOM      3  C   UNL     1      28.830  12.827  22.064  1.00  0.00     0.007 C 
ENDROOT
BRANCH   2   4
ATOM      4  C   UNL     1      29.809  13.416  24.308  1.00  0.00     0.159 C 
ATOM      5  O   UNL     1      30.124  14.375  25.065  1.00  0.00    -0.295 OA
BRANCH   4   6
ATOM      6  C   UNL     1      29.855  12.033  24.881  1.00  0.00     0.091 CG0
ATOM      7  G   UNL     1      28.491  11.309  24.835  1.00  0.00     0.000 G0
ENDBRANCH   4   6
ENDBRANCH   2   4
BRANCH   3   8
ATOM      8  C   UNL     1      28.430  11.418  22.287  1.00  0.00    -0.003 C 
ATOM      9  C   UNL     1      28.296  10.750  23.440  1.00  0.00    -0.020 C 
BRANCH   9  10
ATOM     10  C   UNL     1      28.504  11.307  24.829  1.00  0.00    -0.010 CG0
ATOM     11  C   UNL     1      27.376  12.324  25.117  1.00  0.00     0.016 C 
ATOM     12  C   UNL     1      28.401  10.173  25.875  1.00  0.00     0.016 C 
ATOM     13  G   UNL     1      29.854  12.055  24.892  1.00  0.00     0.000 G0
ENDBRANCH   9  10
ENDBRANCH   3   8
TORSDOF 0
ENDMDL
MODEL 6
REMARK VINA RESULT:    -2.794      2.229      3.525
REMARK INTER + INTRA:          -2.677
REMARK INTER:                  -3.418
REMARK INTRA:                   0.742
REMARK UNBOUND:                 0.771
REMARK SMILES CC1=CC=CC(C)(C)CC1=O
REMARK SMILES IDX 1 1 2 2 3 3 10 4 11 5 9 6 4 8 5 9 6 10 7 11 8 12
REMARK H PARENT
REMARK Flexibility Score: 80.00
ROOT
ATOM      1  C   UNL     1      29.503   7.849  24.687  1.00  0.00     0.048 C 
ATOM      2  C   UNL     1      29.098   9.210  25.201  1.00  0.00    -0.008 C 
ATOM      3  C   UNL     1      30.064  10.144  25.329  1.00  0.00     0.007 C 
ENDROOT
BRANCH   2   4
ATOM      4  C   UNL     1      27.652   9.435  25.453  1.00  0.00     0.159 C 
ATOM      5  O   UNL     1      26.827   8.547  25.097  1.00  0.00    -0.295 OA
BRANCH   4   6
ATOM      6  C   UNL     1      27.110  10.659  26.124  1.00  0.00     0.091 CG0
ATOM      7  G   UNL     1      27.497  11.970  25.404  1.00  0.00     0.000 G0
ENDBRANCH   4   6
ENDBRANCH   2   4
BRANCH   3   8
ATOM      8  C   UNL     1      29.971  11.554  25.775  1.00  0.00    -0.003 C 
ATOM      9  C   UNL     1      28.901  12.359  25.816  1.00  0.00    -0.020 C 
BRANCH   9  10
ATOM     10  C   UNL     1      27.488  11.993  25.427  1.00  0.00    -0.010 CG0
ATOM     11  C   UNL     1      26.538  13.087  25.966  1.00  0.00     0.016 C 
ATOM     12  C   UNL     1      27.354  11.961  23.887  1.00  0.00     0.016 C 
ATOM     13  G   UNL     1      27.099  10.650  26.086  1.00  0.00     0.000 G0
ENDBRANCH   9  10
ENDBRANCH   3   8
TORSDOF 0
ENDMDL
MODEL 7
REMARK VINA RESULT:    -1.827      1.618      3.143
REMARK INTER + INTRA:          -1.483
REMARK INTER:                  -2.243
REMARK INTRA:                   0.760
REMARK UNBOUND:                 0.771
REMARK SMILES CC1=CC=CC(C)(C)CC1=O
REMARK SMILES IDX 1 1 2 2 3 3 10 4 11 5 9 6 4 8 5 9 6 10 7 11 8 12
REMARK H PARENT
REMARK Flexibility Score: 80.00
ROOT
ATOM      1  C   UNL     1      26.388  13.097  26.124  1.00  0.00     0.048 C 
ATOM      2  C   UNL     1      27.558  12.699  25.255  1.00  0.00    -0.008 C 
ATOM      3  C   UNL     1      28.533  11.956  25.819  1.00  0.00     0.007 C 
ENDROOT
BRANCH   2   4
ATOM      4  C   UNL     1      27.502  13.096  23.825  1.00  0.00     0.159 C 
ATOM      5  O   UNL     1      26.407  13.508  23.350  1.00  0.00    -0.295 OA
BRANCH   4   6
ATOM      6  C   UNL     1      28.685  13.048  22.908  1.00  0.00     0.091 CG0
ATOM      7  G   UNL     1      29.258  11.625  22.725  1.00  0.00     0.000 G0
ENDBRANCH   4   6
ENDBRANCH   2   4
BRANCH   3   8
ATOM      8  C   UNL     1      29.771  11.400  25.222  1.00  0.00    -0.003 C 
ATOM      9  C   UNL     1      30.086  11.234  23.932  1.00  0.00    -0.020 C 
BRANCH   9  10
ATOM     10  C   UNL     1      29.233  11.613  22.744  1.00  0.00    -0.010 CG0
ATOM     11  C   UNL     1      30.124  11.592  21.481  1.00  0.00     0.016 C 
ATOM     12  C   UNL     1      28.105  10.572  22.550  1.00  0.00     0.016 C 
ATOM     13  G   UNL     1      28.693  13.049  22.929  1.00  0.00     0.000 G0
ENDBRANCH   9  10
ENDBRANCH   3   8
TORSDOF 0
ENDMDL
