MODEL 1
REMARK VINA RESULT:    -2.884      0.000      0.000
REMARK INTER + INTRA:          -3.710
REMARK INTER:                  -3.559
REMARK INTRA:                  -0.151
REMARK UNBOUND:                -0.151
REMARK SMILES CCCCCC(=O)[O-]
REMARK SMILES IDX 4 1 5 2 6 3 7 4 8 5 3 6 2 7 1 8
REMARK H PARENT
REMARK Flexibility Score: inf
ROOT
ATOM      1  C   UNL     1       6.725  10.537   7.828  1.00  0.00     0.006 C 
ENDROOT
BRANCH   1   2
ATOM      2  C   UNL     1       8.134  10.511   7.221  1.00  0.00     0.053 C 
BRANCH   2   3
ATOM      3  C   UNL     1       9.012  11.571   7.811  1.00  0.00     0.041 C 
ATOM      4  O   UNL     1       9.327  11.529   9.029  1.00  0.00    -0.550 OA
ATOM      5  O   UNL     1       9.455  12.625   7.022  1.00  0.00    -0.550 OA
ENDBRANCH   2   3
ENDBRANCH   1   2
BRANCH   1   6
ATOM      6  C   UNL     1       6.054  11.910   7.684  1.00  0.00     0.000 C 
BRANCH   6   7
ATOM      7  C   UNL     1       4.531  11.795   7.818  1.00  0.00    -0.003 C 
ATOM      8  C   UNL     1       4.070  10.351   7.642  1.00  0.00     0.004 C 
ENDBRANCH   6   7
ENDBRANCH   1   6
TORSDOF 4
ENDMDL
MODEL 2
REMARK VINA RESULT:    -2.841      2.013      3.955
REMARK INTER + INTRA:          -3.657
REMARK INTER:                  -3.440
REMARK INTRA:                  -0.217
REMARK UNBOUND:                -0.151
REMARK SMILES CCCCCC(=O)[O-]
REMARK SMILES IDX 4 1 5 2 6 3 7 4 8 5 3 6 2 7 1 8
REMARK H PARENT
REMARK Flexibility Score: inf
ROOT
ATOM      1  C   UNL     1       8.399   9.449   6.728  1.00  0.00     0.006 C 
ENDROOT
BRANCH   1   2
ATOM      2  C   UNL     1       7.785  10.704   7.360  1.00  0.00     0.053 C 
BRANCH   2   3
ATOM      3  C   UNL     1       8.836  11.628   7.894  1.00  0.00     0.041 C 
ATOM      4  O   UNL     1       9.468  11.331   8.942  1.00  0.00    -0.550 OA
ATOM      5  O   UNL     1       9.095  12.833   7.253  1.00  0.00    -0.550 OA
ENDBRANCH   2   3
ENDBRANCH   1   2
BRANCH   1   6
ATOM      6  C   UNL     1       9.507   9.787   5.720  1.00  0.00     0.000 C 
BRANCH   6   7
ATOM      7  C   UNL     1      10.680   8.809   5.844  1.00  0.00    -0.003 C 
ATOM      8  C   UNL     1      10.629   8.051   7.168  1.00  0.00     0.004 C 
ENDBRANCH   6   7
ENDBRANCH   1   6
TORSDOF 4
ENDMDL
MODEL 3
REMARK VINA RESULT:    -2.825      2.257      3.629
REMARK INTER + INTRA:          -3.637
REMARK INTER:                  -3.492
REMARK INTRA:                  -0.145
REMARK UNBOUND:                -0.151
REMARK SMILES CCCCCC(=O)[O-]
REMARK SMILES IDX 4 1 5 2 6 3 7 4 8 5 3 6 2 7 1 8
REMARK H PARENT
REMARK Flexibility Score: inf
ROOT
ATOM      1  C   UNL     1       7.735  10.690   7.483  1.00  0.00     0.006 C 
ENDROOT
BRANCH   1   2
ATOM      2  C   UNL     1       7.702  11.910   8.412  1.00  0.00     0.053 C 
BRANCH   2   3
ATOM      3  C   UNL     1       7.711  13.194   7.642  1.00  0.00     0.041 C 
ATOM      4  O   UNL     1       6.645  13.843   7.477  1.00  0.00    -0.550 OA
ATOM      5  O   UNL     1       8.893  13.657   7.077  1.00  0.00    -0.550 OA
ENDBRANCH   2   3
ENDBRANCH   1   2
BRANCH   1   6
ATOM      6  C   UNL     1       9.135  10.064   7.394  1.00  0.00     0.000 C 
BRANCH   6   7
ATOM      7  C   UNL     1       9.699  10.181   5.973  1.00  0.00    -0.003 C 
ATOM      8  C   UNL     1       9.167   9.067   5.075  1.00  0.00     0.004 C 
ENDBRANCH   6   7
ENDBRANCH   1   6
TORSDOF 4
ENDMDL
MODEL 4
REMARK VINA RESULT:    -2.818      0.829      1.865
REMARK INTER + INTRA:          -3.629
REMARK INTER:                  -3.412
REMARK INTRA:                  -0.216
REMARK UNBOUND:                -0.151
REMARK SMILES CCCCCC(=O)[O-]
REMARK SMILES IDX 4 1 5 2 6 3 7 4 8 5 3 6 2 7 1 8
REMARK H PARENT
REMARK Flexibility Score: inf
ROOT
ATOM      1  C   UNL     1       6.759  10.405   8.195  1.00  0.00     0.006 C 
ENDROOT
BRANCH   1   2
ATOM      2  C   UNL     1       7.990  10.538   7.290  1.00  0.00     0.053 C 
BRANCH   2   3
ATOM      3  C   UNL     1       8.965  11.543   7.824  1.00  0.00     0.041 C 
ATOM      4  O   UNL     1       9.412  12.452   7.076  1.00  0.00    -0.550 OA
ATOM      5  O   UNL     1       9.406  11.454   9.138  1.00  0.00    -0.550 OA
ENDBRANCH   2   3
ENDBRANCH   1   2
BRANCH   1   6
ATOM      6  C   UNL     1       5.558  11.201   7.666  1.00  0.00     0.000 C 
BRANCH   6   7
ATOM      7  C   UNL     1       5.435  12.551   8.382  1.00  0.00    -0.003 C 
ATOM      8  C   UNL     1       5.931  13.692   7.498  1.00  0.00     0.004 C 
ENDBRANCH   6   7
ENDBRANCH   1   6
TORSDOF 4
ENDMDL
MODEL 5
REMARK VINA RESULT:    -2.810      1.488      2.378
REMARK INTER + INTRA:          -3.618
REMARK INTER:                  -3.371
REMARK INTRA:                  -0.247
REMARK UNBOUND:                -0.151
REMARK SMILES CCCCCC(=O)[O-]
REMARK SMILES IDX 4 1 5 2 6 3 7 4 8 5 3 6 2 7 1 8
REMARK H PARENT
REMARK Flexibility Score: inf
ROOT
ATOM      1  C   UNL     1       5.292  12.733   8.288  1.00  0.00     0.006 C 
ENDROOT
BRANCH   1   2
ATOM      2  C   UNL     1       6.258  13.607   7.479  1.00  0.00     0.053 C 
BRANCH   2   3
ATOM      3  C   UNL     1       7.680  13.405   7.907  1.00  0.00     0.041 C 
ATOM      4  O   UNL     1       7.939  12.938   9.047  1.00  0.00    -0.550 OA
ATOM      5  O   UNL     1       8.719  13.765   7.058  1.00  0.00    -0.550 OA
ENDBRANCH   2   3
ENDBRANCH   1   2
BRANCH   1   6
ATOM      6  C   UNL     1       5.003  11.391   7.599  1.00  0.00     0.000 C 
BRANCH   6   7
ATOM      7  C   UNL     1       5.752  10.246   8.291  1.00  0.00    -0.003 C 
ATOM      8  C   UNL     1       6.934   9.773   7.450  1.00  0.00     0.004 C 
ENDBRANCH   6   7
ENDBRANCH   1   6
TORSDOF 4
ENDMDL
MODEL 6
REMARK VINA RESULT:    -2.760      1.749      3.471
REMARK INTER + INTRA:          -3.556
REMARK INTER:                  -3.441
REMARK INTRA:                  -0.116
REMARK UNBOUND:                -0.151
REMARK SMILES CCCCCC(=O)[O-]
REMARK SMILES IDX 4 1 5 2 6 3 7 4 8 5 3 6 2 7 1 8
REMARK H PARENT
REMARK Flexibility Score: inf
ROOT
ATOM      1  C   UNL     1       6.963  10.495   8.171  1.00  0.00     0.006 C 
ENDROOT
BRANCH   1   2
ATOM      2  C   UNL     1       6.625  11.935   7.765  1.00  0.00     0.053 C 
BRANCH   2   3
ATOM      3  C   UNL     1       7.667  12.904   8.234  1.00  0.00     0.041 C 
ATOM      4  O   UNL     1       8.268  13.639   7.408  1.00  0.00    -0.550 OA
ATOM      5  O   UNL     1       7.997  12.970   9.582  1.00  0.00    -0.550 OA
ENDBRANCH   2   3
ENDBRANCH   1   2
BRANCH   1   6
ATOM      6  C   UNL     1       7.679   9.727   7.051  1.00  0.00     0.000 C 
BRANCH   6   7
ATOM      7  C   UNL     1       9.200   9.884   7.162  1.00  0.00    -0.003 C 
ATOM      8  C   UNL     1       9.855   9.890   5.784  1.00  0.00     0.004 C 
ENDBRANCH   6   7
ENDBRANCH   1   6
TORSDOF 4
ENDMDL
MODEL 7
REMARK VINA RESULT:    -2.759      0.785      1.618
REMARK INTER + INTRA:          -3.556
REMARK INTER:                  -3.453
REMARK INTRA:                  -0.102
REMARK UNBOUND:                -0.151
REMARK SMILES CCCCCC(=O)[O-]
REMARK SMILES IDX 4 1 5 2 6 3 7 4 8 5 3 6 2 7 1 8
REMARK H PARENT
REMARK Flexibility Score: inf
ROOT
ATOM      1  C   UNL     1       6.287  12.670   7.745  1.00  0.00     0.006 C 
ENDROOT
BRANCH   1   2
ATOM      2  C   UNL     1       7.250  11.476   7.723  1.00  0.00     0.053 C 
BRANCH   2   3
ATOM      3  C   UNL     1       8.672  11.907   7.914  1.00  0.00     0.041 C 
ATOM      4  O   UNL     1       9.198  12.730   7.120  1.00  0.00    -0.550 OA
ATOM      5  O   UNL     1       9.427  11.372   8.950  1.00  0.00    -0.550 OA
ENDBRANCH   2   3
ENDBRANCH   1   2
BRANCH   1   6
ATOM      6  C   UNL     1       4.816  12.232   7.773  1.00  0.00     0.000 C 
BRANCH   6   7
ATOM      7  C   UNL     1       4.695  10.707   7.668  1.00  0.00    -0.003 C 
ATOM      8  C   UNL     1       3.234  10.276   7.566  1.00  0.00     0.004 C 
ENDBRANCH   6   7
ENDBRANCH   1   6
TORSDOF 4
ENDMDL
MODEL 8
REMARK VINA RESULT:    -2.666      2.735      3.563
REMARK INTER + INTRA:          -3.441
REMARK INTER:                  -3.330
REMARK INTRA:                  -0.111
REMARK UNBOUND:                -0.151
REMARK SMILES CCCCCC(=O)[O-]
REMARK SMILES IDX 4 1 5 2 6 3 7 4 8 5 3 6 2 7 1 8
REMARK H PARENT
REMARK Flexibility Score: inf
ROOT
ATOM      1  C   UNL     1       9.782  10.051   5.961  1.00  0.00     0.006 C 
ENDROOT
BRANCH   1   2
ATOM      2  C   UNL     1       8.952  10.258   7.235  1.00  0.00     0.053 C 
BRANCH   2   3
ATOM      3  C   UNL     1       9.007  11.678   7.709  1.00  0.00     0.041 C 
ATOM      4  O   UNL     1       8.565  11.984   8.847  1.00  0.00    -0.550 OA
ATOM      5  O   UNL     1       9.516  12.669   6.878  1.00  0.00    -0.550 OA
ENDBRANCH   2   3
ENDBRANCH   1   2
BRANCH   1   6
ATOM      6  C   UNL     1       9.127   9.055   4.994  1.00  0.00     0.000 C 
BRANCH   6   7
ATOM      7  C   UNL     1       8.181   8.107   5.740  1.00  0.00    -0.003 C 
ATOM      8  C   UNL     1       7.545   7.099   4.786  1.00  0.00     0.004 C 
ENDBRANCH   6   7
ENDBRANCH   1   6
TORSDOF 4
ENDMDL
MODEL 9
REMARK VINA RESULT:    -2.597      1.866      2.276
REMARK INTER + INTRA:          -3.356
REMARK INTER:                  -3.093
REMARK INTRA:                  -0.263
REMARK UNBOUND:                -0.151
REMARK SMILES CCCCCC(=O)[O-]
REMARK SMILES IDX 4 1 5 2 6 3 7 4 8 5 3 6 2 7 1 8
REMARK H PARENT
REMARK Flexibility Score: inf
ROOT
ATOM      1  C   UNL     1       8.006  11.349   7.699  1.00  0.00     0.006 C 
ENDROOT
BRANCH   1   2
ATOM      2  C   UNL     1       9.069  11.046   8.762  1.00  0.00     0.053 C 
BRANCH   2   3
ATOM      3  C   UNL     1       8.580  11.364  10.142  1.00  0.00     0.041 C 
ATOM      4  O   UNL     1       7.614  10.724  10.636  1.00  0.00    -0.550 OA
ATOM      5  O   UNL     1       9.169  12.390  10.870  1.00  0.00    -0.550 OA
ENDBRANCH   2   3
ENDBRANCH   1   2
BRANCH   1   6
ATOM      6  C   UNL     1       7.491  12.793   7.785  1.00  0.00     0.000 C 
BRANCH   6   7
ATOM      7  C   UNL     1       5.958  12.833   7.750  1.00  0.00    -0.003 C 
ATOM      8  C   UNL     1       5.370  11.425   7.744  1.00  0.00     0.004 C 
ENDBRANCH   6   7
ENDBRANCH   1   6
TORSDOF 4
ENDMDL
