MODEL 1
REMARK VINA RESULT:    -4.607      0.000      0.000
REMARK INTER + INTRA:          -5.870
REMARK INTER:                  -5.550
REMARK INTRA:                  -0.320
REMARK UNBOUND:                -0.320
REMARK SMILES O=c1c(O)c(-c2ccc(O)c(O)c2)oc2cc(O)cc(O)c12
REMARK SMILES IDX 5 1 3 2 2 3 1 4 22 5 20 6 19 7 17 8 16 9 15 10 14 11 6 12
REMARK SMILES IDX 7 13 8 14 9 15 13 16 11 17 10 18 12 20 4 22 21 24 18 26
REMARK H PARENT 10 19 12 21 4 23 21 25 18 27
REMARK Flexibility Score: inf
ROOT
ATOM      1  C   UNL     1     -31.427 -20.738 -33.887  1.00  0.00     0.180 A 
ATOM      2  C   UNL     1     -32.507 -19.979 -34.372  1.00  0.00     0.208 A 
ATOM      3  C   UNL     1     -33.126 -20.365 -35.572  1.00  0.00     0.238 A 
ATOM      4  O   UNL     1     -34.125 -19.713 -35.973  1.00  0.00    -0.285 OA
ATOM      5  C   UNL     1     -32.649 -21.495 -36.279  1.00  0.00     0.111 A 
ATOM      6  C   UNL     1     -33.175 -21.953 -37.524  1.00  0.00     0.134 A 
ATOM      7  C   UNL     1     -32.713 -23.158 -38.068  1.00  0.00     0.093 A 
ATOM      8  C   UNL     1     -31.697 -23.887 -37.444  1.00  0.00     0.123 A 
ATOM      9  C   UNL     1     -31.136 -23.416 -36.259  1.00  0.00     0.094 A 
ATOM     10  C   UNL     1     -31.601 -22.237 -35.673  1.00  0.00     0.146 A 
ATOM     11  O   UNL     1     -31.046 -21.830 -34.538  1.00  0.00    -0.452 OA
ENDROOT
BRANCH   1  12
ATOM     12  C   UNL     1     -30.708 -20.379 -32.643  1.00  0.00     0.025 A 
ATOM     13  C   UNL     1     -29.668 -19.437 -32.693  1.00  0.00     0.016 A 
ATOM     14  C   UNL     1     -28.990 -19.068 -31.528  1.00  0.00     0.051 A 
ATOM     15  C   UNL     1     -29.353 -19.624 -30.295  1.00  0.00     0.157 A 
ATOM     16  C   UNL     1     -31.082 -20.919 -31.399  1.00  0.00     0.062 A 
ATOM     17  C   UNL     1     -30.403 -20.547 -30.229  1.00  0.00     0.158 A 
BRANCH  15  18
ATOM     18  O   UNL     1     -28.678 -19.259 -29.132  1.00  0.00    -0.504 OA
ATOM     19  H   UNL     1     -29.103 -18.655 -28.438  1.00  0.00     0.293 HD
ENDBRANCH  15  18
BRANCH  17  20
ATOM     20  O   UNL     1     -30.770 -21.088 -28.999  1.00  0.00    -0.504 OA
ATOM     21  H   UNL     1     -30.434 -21.996 -28.697  1.00  0.00     0.293 HD
ENDBRANCH  17  20
ENDBRANCH   1  12
BRANCH   2  22
ATOM     22  O   UNL     1     -32.976 -18.879 -33.647  1.00  0.00    -0.502 OA
ATOM     23  H   UNL     1     -32.392 -18.367 -32.996  1.00  0.00     0.293 HD
ENDBRANCH   2  22
BRANCH   6  24
ATOM     24  O   UNL     1     -34.125 -21.254 -38.274  1.00  0.00    -0.507 OA
ATOM     25  H   UNL     1     -35.035 -20.981 -37.938  1.00  0.00     0.293 HD
ENDBRANCH   6  24
BRANCH   8  26
ATOM     26  O   UNL     1     -31.230 -25.076 -38.000  1.00  0.00    -0.508 OA
ATOM     27  H   UNL     1     -31.312 -25.265 -38.993  1.00  0.00     0.293 HD
ENDBRANCH   8  26
TORSDOF 6
ENDMDL
MODEL 2
REMARK VINA RESULT:    -2.801      0.931      1.579
REMARK INTER + INTRA:          -3.694
REMARK INTER:                  -3.554
REMARK INTRA:                  -0.140
REMARK UNBOUND:                -0.320
REMARK SMILES O=c1c(O)c(-c2ccc(O)c(O)c2)oc2cc(O)cc(O)c12
REMARK SMILES IDX 5 1 3 2 2 3 1 4 22 5 20 6 19 7 17 8 16 9 15 10 14 11 6 12
REMARK SMILES IDX 7 13 8 14 9 15 13 16 11 17 10 18 12 20 4 22 21 24 18 26
REMARK H PARENT 10 19 12 21 4 23 21 25 18 27
REMARK Flexibility Score: inf
ROOT
ATOM      1  C   UNL     1     -31.872 -21.360 -34.228  1.00  0.00     0.180 A 
ATOM      2  C   UNL     1     -32.784 -20.428 -34.752  1.00  0.00     0.208 A 
ATOM      3  C   UNL     1     -33.268 -20.608 -36.058  1.00  0.00     0.238 A 
ATOM      4  O   UNL     1     -34.125 -19.800 -36.501  1.00  0.00    -0.285 OA
ATOM      5  C   UNL     1     -32.822 -21.710 -36.828  1.00  0.00     0.111 A 
ATOM      6  C   UNL     1     -33.216 -21.968 -38.175  1.00  0.00     0.134 A 
ATOM      7  C   UNL     1     -32.816 -23.158 -38.795  1.00  0.00     0.093 A 
ATOM      8  C   UNL     1     -31.982 -24.067 -38.139  1.00  0.00     0.123 A 
ATOM      9  C   UNL     1     -31.544 -23.795 -36.845  1.00  0.00     0.094 A 
ATOM     10  C   UNL     1     -31.956 -22.634 -36.187  1.00  0.00     0.146 A 
ATOM     11  O   UNL     1     -31.524 -22.418 -34.950  1.00  0.00    -0.452 OA
ENDROOT
BRANCH   1  12
ATOM     12  C   UNL     1     -31.299 -21.223 -32.870  1.00  0.00     0.025 A 
ATOM     13  C   UNL     1     -31.463 -22.265 -31.941  1.00  0.00     0.016 A 
ATOM     14  C   UNL     1     -30.912 -22.165 -30.661  1.00  0.00     0.051 A 
ATOM     15  C   UNL     1     -30.176 -21.031 -30.295  1.00  0.00     0.157 A 
ATOM     16  C   UNL     1     -30.541 -20.095 -32.504  1.00  0.00     0.062 A 
ATOM     17  C   UNL     1     -29.987 -19.996 -31.219  1.00  0.00     0.158 A 
BRANCH  15  18
ATOM     18  O   UNL     1     -29.627 -20.928 -29.019  1.00  0.00    -0.504 OA
ATOM     19  H   UNL     1     -28.629 -20.829 -28.877  1.00  0.00     0.293 HD
ENDBRANCH  15  18
BRANCH  17  20
ATOM     20  O   UNL     1     -29.244 -18.875 -30.857  1.00  0.00    -0.504 OA
ATOM     21  H   UNL     1     -29.297 -18.009 -31.382  1.00  0.00     0.293 HD
ENDBRANCH  17  20
ENDBRANCH   1  12
BRANCH   2  22
ATOM     22  O   UNL     1     -33.227 -19.360 -33.966  1.00  0.00    -0.502 OA
ATOM     23  H   UNL     1     -34.204 -19.224 -33.732  1.00  0.00     0.293 HD
ENDBRANCH   2  22
BRANCH   6  24
ATOM     24  O   UNL     1     -33.970 -21.084 -38.951  1.00  0.00    -0.507 OA
ATOM     25  H   UNL     1     -33.983 -21.071 -39.959  1.00  0.00     0.293 HD
ENDBRANCH   6  24
BRANCH   8  26
ATOM     26  O   UNL     1     -31.574 -25.242 -38.770  1.00  0.00    -0.508 OA
ATOM     27  H   UNL     1     -30.913 -25.874 -38.334  1.00  0.00     0.293 HD
ENDBRANCH   8  26
TORSDOF 6
ENDMDL
MODEL 3
REMARK VINA RESULT:    -2.333      1.674      7.251
REMARK INTER + INTRA:          -3.131
REMARK INTER:                  -3.429
REMARK INTRA:                   0.298
REMARK UNBOUND:                -0.320
REMARK SMILES O=c1c(O)c(-c2ccc(O)c(O)c2)oc2cc(O)cc(O)c12
REMARK SMILES IDX 5 1 3 2 2 3 1 4 22 5 20 6 19 7 17 8 16 9 15 10 14 11 6 12
REMARK SMILES IDX 7 13 8 14 9 15 13 16 11 17 10 18 12 20 4 22 21 24 18 26
REMARK H PARENT 10 19 12 21 4 23 21 25 18 27
REMARK Flexibility Score: inf
ROOT
ATOM      1  C   UNL     1     -31.495 -20.631 -33.812  1.00  0.00     0.180 A 
ATOM      2  C   UNL     1     -30.097 -20.569 -33.676  1.00  0.00     0.208 A 
ATOM      3  C   UNL     1     -29.550 -20.112 -32.467  1.00  0.00     0.238 A 
ATOM      4  O   UNL     1     -28.299 -20.109 -32.332  1.00  0.00    -0.285 OA
ATOM      5  C   UNL     1     -30.407 -19.707 -31.414  1.00  0.00     0.111 A 
ATOM      6  C   UNL     1     -29.962 -19.190 -30.161  1.00  0.00     0.134 A 
ATOM      7  C   UNL     1     -30.895 -18.945 -29.145  1.00  0.00     0.093 A 
ATOM      8  C   UNL     1     -32.262 -19.137 -29.361  1.00  0.00     0.123 A 
ATOM      9  C   UNL     1     -32.710 -19.585 -30.601  1.00  0.00     0.094 A 
ATOM     10  C   UNL     1     -31.802 -19.872 -31.622  1.00  0.00     0.146 A 
ATOM     11  O   UNL     1     -32.271 -20.308 -32.785  1.00  0.00    -0.452 OA
ENDROOT
BRANCH   1  12
ATOM     12  C   UNL     1     -32.145 -21.079 -35.065  1.00  0.00     0.025 A 
ATOM     13  C   UNL     1     -33.389 -20.538 -35.431  1.00  0.00     0.016 A 
ATOM     14  C   UNL     1     -34.010 -20.931 -36.619  1.00  0.00     0.051 A 
ATOM     15  C   UNL     1     -33.389 -21.857 -37.467  1.00  0.00     0.157 A 
ATOM     16  C   UNL     1     -31.517 -21.994 -35.931  1.00  0.00     0.062 A 
ATOM     17  C   UNL     1     -32.140 -22.386 -37.124  1.00  0.00     0.158 A 
BRANCH  15  18
ATOM     18  O   UNL     1     -34.007 -22.252 -38.652  1.00  0.00    -0.504 OA
ATOM     19  H   UNL     1     -34.901 -22.730 -38.651  1.00  0.00     0.293 HD
ENDBRANCH  15  18
BRANCH  17  20
ATOM     20  O   UNL     1     -31.519 -23.298 -37.976  1.00  0.00    -0.504 OA
ATOM     21  H   UNL     1     -31.918 -23.539 -38.877  1.00  0.00     0.293 HD
ENDBRANCH  17  20
ENDBRANCH   1  12
BRANCH   2  22
ATOM     22  O   UNL     1     -29.269 -20.994 -34.720  1.00  0.00    -0.502 OA
ATOM     23  H   UNL     1     -29.630 -21.436 -35.556  1.00  0.00     0.293 HD
ENDBRANCH   2  22
BRANCH   6  24
ATOM     24  O   UNL     1     -28.631 -18.876 -29.874  1.00  0.00    -0.507 OA
ATOM     25  H   UNL     1     -28.077 -18.204 -30.383  1.00  0.00     0.293 HD
ENDBRANCH   6  24
BRANCH   8  26
ATOM     26  O   UNL     1     -33.185 -18.875 -28.350  1.00  0.00    -0.508 OA
ATOM     27  H   UNL     1     -33.385 -19.556 -27.626  1.00  0.00     0.293 HD
ENDBRANCH   8  26
TORSDOF 6
ENDMDL
MODEL 4
REMARK VINA RESULT:    -2.243      1.518      7.083
REMARK INTER + INTRA:          -3.021
REMARK INTER:                  -2.802
REMARK INTRA:                  -0.220
REMARK UNBOUND:                -0.320
REMARK SMILES O=c1c(O)c(-c2ccc(O)c(O)c2)oc2cc(O)cc(O)c12
REMARK SMILES IDX 5 1 3 2 2 3 1 4 22 5 20 6 19 7 17 8 16 9 15 10 14 11 6 12
REMARK SMILES IDX 7 13 8 14 9 15 13 16 11 17 10 18 12 20 4 22 21 24 18 26
REMARK H PARENT 10 19 12 21 4 23 21 25 18 27
REMARK Flexibility Score: inf
ROOT
ATOM      1  C   UNL     1     -30.849 -21.020 -33.796  1.00  0.00     0.180 A 
ATOM      2  C   UNL     1     -29.720 -20.191 -33.908  1.00  0.00     0.208 A 
ATOM      3  C   UNL     1     -29.050 -19.789 -32.741  1.00  0.00     0.238 A 
ATOM      4  O   UNL     1     -28.009 -19.092 -32.851  1.00  0.00    -0.285 OA
ATOM      5  C   UNL     1     -29.529 -20.208 -31.475  1.00  0.00     0.111 A 
ATOM      6  C   UNL     1     -28.953 -19.829 -30.226  1.00  0.00     0.134 A 
ATOM      7  C   UNL     1     -29.428 -20.408 -29.043  1.00  0.00     0.093 A 
ATOM      8  C   UNL     1     -30.501 -21.302 -29.059  1.00  0.00     0.123 A 
ATOM      9  C   UNL     1     -31.108 -21.633 -30.269  1.00  0.00     0.094 A 
ATOM     10  C   UNL     1     -30.633 -21.099 -31.469  1.00  0.00     0.146 A 
ATOM     11  O   UNL     1     -31.233 -21.450 -32.600  1.00  0.00    -0.452 OA
ENDROOT
BRANCH   1  12
ATOM     12  C   UNL     1     -31.621 -21.464 -34.979  1.00  0.00     0.025 A 
ATOM     13  C   UNL     1     -32.883 -20.902 -35.232  1.00  0.00     0.016 A 
ATOM     14  C   UNL     1     -33.620 -21.291 -36.354  1.00  0.00     0.051 A 
ATOM     15  C   UNL     1     -33.098 -22.236 -37.247  1.00  0.00     0.157 A 
ATOM     16  C   UNL     1     -31.093 -22.397 -35.890  1.00  0.00     0.062 A 
ATOM     17  C   UNL     1     -31.832 -22.786 -37.018  1.00  0.00     0.158 A 
BRANCH  15  18
ATOM     18  O   UNL     1     -33.830 -22.627 -38.367  1.00  0.00    -0.504 OA
ATOM     19  H   UNL     1     -33.825 -22.083 -39.222  1.00  0.00     0.293 HD
ENDBRANCH  15  18
BRANCH  17  20
ATOM     20  O   UNL     1     -31.310 -23.715 -37.915  1.00  0.00    -0.504 OA
ATOM     21  H   UNL     1     -30.310 -23.827 -38.043  1.00  0.00     0.293 HD
ENDBRANCH  17  20
ENDBRANCH   1  12
BRANCH   2  22
ATOM     22  O   UNL     1     -29.252 -19.807 -35.169  1.00  0.00    -0.502 OA
ATOM     23  H   UNL     1     -29.317 -18.854 -35.506  1.00  0.00     0.293 HD
ENDBRANCH   2  22
BRANCH   6  24
ATOM     24  O   UNL     1     -27.940 -18.875 -30.091  1.00  0.00    -0.507 OA
ATOM     25  H   UNL     1     -27.373 -18.752 -29.266  1.00  0.00     0.293 HD
ENDBRANCH   6  24
BRANCH   8  26
ATOM     26  O   UNL     1     -30.978 -21.862 -27.875  1.00  0.00    -0.508 OA
ATOM     27  H   UNL     1     -30.760 -21.457 -26.972  1.00  0.00     0.293 HD
ENDBRANCH   8  26
TORSDOF 6
ENDMDL
