MODEL 1
REMARK VINA RESULT:    -3.985      0.000      0.000
REMARK INTER + INTRA:          -4.536
REMARK INTER:                  -4.451
REMARK INTRA:                  -0.085
REMARK UNBOUND:                -0.085
REMARK SMILES CCc1ccc(O)cc1O
REMARK SMILES IDX 3 1 9 2 8 3 6 4 5 5 4 6 2 7 1 8 10 9 7 11
REMARK H PARENT 10 10 7 12
REMARK Flexibility Score: inf
ROOT
ATOM      1  C   UNL     1     175.762 178.076 184.663  1.00  0.00    -0.006 A 
ATOM      2  C   UNL     1     176.427 177.461 185.744  1.00  0.00     0.122 A 
ATOM      3  C   UNL     1     176.300 177.992 187.036  1.00  0.00     0.092 A 
ATOM      4  C   UNL     1     175.508 179.122 187.262  1.00  0.00     0.119 A 
ATOM      5  C   UNL     1     174.836 179.726 186.193  1.00  0.00     0.047 A 
ATOM      6  C   UNL     1     174.959 179.203 184.902  1.00  0.00     0.011 A 
ENDROOT
BRANCH   1   7
ATOM      7  C   UNL     1     175.858 177.508 183.269  1.00  0.00     0.036 C 
ATOM      8  C   UNL     1     175.594 178.589 182.227  1.00  0.00     0.009 C 
ENDBRANCH   1   7
BRANCH   2   9
ATOM      9  O   UNL     1     177.208 176.325 185.533  1.00  0.00    -0.508 OA
ATOM     10  H   UNL     1     177.913 176.292 184.806  1.00  0.00     0.293 HD
ENDBRANCH   2   9
BRANCH   4  11
ATOM     11  O   UNL     1     175.394 179.635 188.552  1.00  0.00    -0.508 OA
ATOM     12  H   UNL     1     174.489 179.815 188.972  1.00  0.00     0.293 HD
ENDBRANCH   4  11
TORSDOF 3
ENDMDL
MODEL 2
REMARK VINA RESULT:    -3.933     12.164     12.800
REMARK INTER + INTRA:          -4.478
REMARK INTER:                  -4.393
REMARK INTRA:                  -0.085
REMARK UNBOUND:                -0.085
REMARK SMILES CCc1ccc(O)cc1O
REMARK SMILES IDX 3 1 9 2 8 3 6 4 5 5 4 6 2 7 1 8 10 9 7 11
REMARK H PARENT 10 10 7 12
REMARK Flexibility Score: inf
ROOT
ATOM      1  C   UNL     1     163.326 177.925 184.667  1.00  0.00    -0.006 A 
ATOM      2  C   UNL     1     164.134 178.341 185.744  1.00  0.00     0.122 A 
ATOM      3  C   UNL     1     163.611 178.352 187.046  1.00  0.00     0.092 A 
ATOM      4  C   UNL     1     162.296 177.942 187.285  1.00  0.00     0.119 A 
ATOM      5  C   UNL     1     161.497 177.514 186.218  1.00  0.00     0.047 A 
ATOM      6  C   UNL     1     162.010 177.501 184.918  1.00  0.00     0.011 A 
ENDROOT
BRANCH   1   7
ATOM      7  C   UNL     1     163.871 177.875 183.262  1.00  0.00     0.036 C 
ATOM      8  C   UNL     1     162.738 177.815 182.244  1.00  0.00     0.009 C 
ENDBRANCH   1   7
BRANCH   2   9
ATOM      9  O   UNL     1     165.452 178.740 185.520  1.00  0.00    -0.508 OA
ATOM     10  H   UNL     1     165.817 179.606 185.900  1.00  0.00     0.293 HD
ENDBRANCH   2   9
BRANCH   4  11
ATOM     11  O   UNL     1     161.796 177.959 188.584  1.00  0.00    -0.508 OA
ATOM     12  H   UNL     1     161.225 177.202 188.942  1.00  0.00     0.293 HD
ENDBRANCH   4  11
TORSDOF 3
ENDMDL
MODEL 3
REMARK VINA RESULT:    -3.907     13.484     14.287
REMARK INTER + INTRA:          -4.448
REMARK INTER:                  -4.341
REMARK INTRA:                  -0.108
REMARK UNBOUND:                -0.085
REMARK SMILES CCc1ccc(O)cc1O
REMARK SMILES IDX 3 1 9 2 8 3 6 4 5 5 4 6 2 7 1 8 10 9 7 11
REMARK H PARENT 10 10 7 12
REMARK Flexibility Score: inf
ROOT
ATOM      1  C   UNL     1     161.383 176.395 187.078  1.00  0.00    -0.006 A 
ATOM      2  C   UNL     1     161.352 176.935 185.776  1.00  0.00     0.122 A 
ATOM      3  C   UNL     1     162.363 177.814 185.361  1.00  0.00     0.092 A 
ATOM      4  C   UNL     1     163.410 178.149 186.225  1.00  0.00     0.119 A 
ATOM      5  C   UNL     1     163.449 177.603 187.513  1.00  0.00     0.047 A 
ATOM      6  C   UNL     1     162.445 176.728 187.936  1.00  0.00     0.011 A 
ENDROOT
BRANCH   1   7
ATOM      7  C   UNL     1     160.325 175.425 187.541  1.00  0.00     0.036 C 
ATOM      8  C   UNL     1     160.788 173.986 187.343  1.00  0.00     0.009 C 
ENDBRANCH   1   7
BRANCH   2   9
ATOM      9  O   UNL     1     160.321 176.596 184.900  1.00  0.00    -0.508 OA
ATOM     10  H   UNL     1     159.982 175.644 184.821  1.00  0.00     0.293 HD
ENDBRANCH   2   9
BRANCH   4  11
ATOM     11  O   UNL     1     164.405 179.023 185.794  1.00  0.00    -0.508 OA
ATOM     12  H   UNL     1     164.377 180.010 186.021  1.00  0.00     0.293 HD
ENDBRANCH   4  11
TORSDOF 3
ENDMDL
MODEL 4
REMARK VINA RESULT:    -3.891     12.537     13.439
REMARK INTER + INTRA:          -4.431
REMARK INTER:                  -4.323
REMARK INTRA:                  -0.108
REMARK UNBOUND:                -0.085
REMARK SMILES CCc1ccc(O)cc1O
REMARK SMILES IDX 3 1 9 2 8 3 6 4 5 5 4 6 2 7 1 8 10 9 7 11
REMARK H PARENT 10 10 7 12
REMARK Flexibility Score: inf
ROOT
ATOM      1  C   UNL     1     162.035 177.755 186.652  1.00  0.00    -0.006 A 
ATOM      2  C   UNL     1     162.316 177.709 185.271  1.00  0.00     0.122 A 
ATOM      3  C   UNL     1     163.610 177.997 184.811  1.00  0.00     0.092 A 
ATOM      4  C   UNL     1     164.628 178.318 185.715  1.00  0.00     0.119 A 
ATOM      5  C   UNL     1     164.354 178.350 187.087  1.00  0.00     0.047 A 
ATOM      6  C   UNL     1     163.067 178.067 187.553  1.00  0.00     0.011 A 
ENDROOT
BRANCH   1   7
ATOM      7  C   UNL     1     160.661 177.422 187.175  1.00  0.00     0.036 C 
ATOM      8  C   UNL     1     160.577 175.952 187.572  1.00  0.00     0.009 C 
ENDBRANCH   1   7
BRANCH   2   9
ATOM      9  O   UNL     1     161.313 177.376 184.361  1.00  0.00    -0.508 OA
ATOM     10  H   UNL     1     161.526 177.132 183.401  1.00  0.00     0.293 HD
ENDBRANCH   2   9
BRANCH   4  11
ATOM     11  O   UNL     1     165.906 178.600 185.239  1.00  0.00    -0.508 OA
ATOM     12  H   UNL     1     166.103 179.451 184.726  1.00  0.00     0.293 HD
ENDBRANCH   4  11
TORSDOF 3
ENDMDL
MODEL 5
REMARK VINA RESULT:    -3.878     14.982     15.272
REMARK INTER + INTRA:          -4.416
REMARK INTER:                  -4.331
REMARK INTRA:                  -0.085
REMARK UNBOUND:                -0.085
REMARK SMILES CCc1ccc(O)cc1O
REMARK SMILES IDX 3 1 9 2 8 3 6 4 5 5 4 6 2 7 1 8 10 9 7 11
REMARK H PARENT 10 10 7 12
REMARK Flexibility Score: inf
ROOT
ATOM      1  C   UNL     1     160.723 176.374 185.095  1.00  0.00    -0.006 A 
ATOM      2  C   UNL     1     160.493 177.744 185.334  1.00  0.00     0.122 A 
ATOM      3  C   UNL     1     160.635 178.260 186.630  1.00  0.00     0.092 A 
ATOM      4  C   UNL     1     161.014 177.427 187.687  1.00  0.00     0.119 A 
ATOM      5  C   UNL     1     161.256 176.069 187.449  1.00  0.00     0.047 A 
ATOM      6  C   UNL     1     161.116 175.547 186.160  1.00  0.00     0.011 A 
ENDROOT
BRANCH   1   7
ATOM      7  C   UNL     1     160.607 175.799 183.706  1.00  0.00     0.036 C 
ATOM      8  C   UNL     1     160.649 174.275 183.746  1.00  0.00     0.009 C 
ENDBRANCH   1   7
BRANCH   2   9
ATOM      9  O   UNL     1     160.128 178.588 184.285  1.00  0.00    -0.508 OA
ATOM     10  H   UNL     1     159.192 178.968 184.210  1.00  0.00     0.293 HD
ENDBRANCH   2   9
BRANCH   4  11
ATOM     11  O   UNL     1     161.150 177.958 188.967  1.00  0.00    -0.508 OA
ATOM     12  H   UNL     1     161.666 178.814 189.133  1.00  0.00     0.293 HD
ENDBRANCH   4  11
TORSDOF 3
ENDMDL
MODEL 6
REMARK VINA RESULT:    -3.837      2.277      4.165
REMARK INTER + INTRA:          -4.370
REMARK INTER:                  -4.263
REMARK INTRA:                  -0.108
REMARK UNBOUND:                -0.085
REMARK SMILES CCc1ccc(O)cc1O
REMARK SMILES IDX 3 1 9 2 8 3 6 4 5 5 4 6 2 7 1 8 10 9 7 11
REMARK H PARENT 10 10 7 12
REMARK Flexibility Score: inf
ROOT
ATOM      1  C   UNL     1     173.610 179.453 187.107  1.00  0.00    -0.006 A 
ATOM      2  C   UNL     1     174.049 179.486 185.768  1.00  0.00     0.122 A 
ATOM      3  C   UNL     1     175.260 178.871 185.415  1.00  0.00     0.092 A 
ATOM      4  C   UNL     1     176.029 178.215 186.381  1.00  0.00     0.119 A 
ATOM      5  C   UNL     1     175.587 178.170 187.709  1.00  0.00     0.047 A 
ATOM      6  C   UNL     1     174.383 178.781 188.069  1.00  0.00     0.011 A 
ENDROOT
BRANCH   1   7
ATOM      7  C   UNL     1     172.298 180.080 187.509  1.00  0.00     0.036 C 
ATOM      8  C   UNL     1     171.178 179.046 187.492  1.00  0.00     0.009 C 
ENDBRANCH   1   7
BRANCH   2   9
ATOM      9  O   UNL     1     173.283 180.125 184.793  1.00  0.00    -0.508 OA
ATOM     10  H   UNL     1     173.339 179.862 183.816  1.00  0.00     0.293 HD
ENDBRANCH   2   9
BRANCH   4  11
ATOM     11  O   UNL     1     177.228 177.611 186.011  1.00  0.00    -0.508 OA
ATOM     12  H   UNL     1     177.521 176.728 186.413  1.00  0.00     0.293 HD
ENDBRANCH   4  11
TORSDOF 3
ENDMDL
MODEL 7
REMARK VINA RESULT:    -3.790      3.855      5.177
REMARK INTER + INTRA:          -4.318
REMARK INTER:                  -4.215
REMARK INTRA:                  -0.103
REMARK UNBOUND:                -0.085
REMARK SMILES CCc1ccc(O)cc1O
REMARK SMILES IDX 3 1 9 2 8 3 6 4 5 5 4 6 2 7 1 8 10 9 7 11
REMARK H PARENT 10 10 7 12
REMARK Flexibility Score: inf
ROOT
ATOM      1  C   UNL     1     172.841 179.753 186.982  1.00  0.00    -0.006 A 
ATOM      2  C   UNL     1     172.673 179.288 185.662  1.00  0.00     0.122 A 
ATOM      3  C   UNL     1     171.381 179.104 185.146  1.00  0.00     0.092 A 
ATOM      4  C   UNL     1     170.258 179.389 185.928  1.00  0.00     0.119 A 
ATOM      5  C   UNL     1     170.424 179.865 187.234  1.00  0.00     0.047 A 
ATOM      6  C   UNL     1     171.707 180.050 187.756  1.00  0.00     0.011 A 
ENDROOT
BRANCH   1   7
ATOM      7  C   UNL     1     174.217 179.988 187.552  1.00  0.00     0.036 C 
ATOM      8  C   UNL     1     174.710 178.755 188.300  1.00  0.00     0.009 C 
ENDBRANCH   1   7
BRANCH   2   9
ATOM      9  O   UNL     1     173.785 179.013 184.867  1.00  0.00    -0.508 OA
ATOM     10  H   UNL     1     174.723 178.998 185.252  1.00  0.00     0.293 HD
ENDBRANCH   2   9
BRANCH   4  11
ATOM     11  O   UNL     1     168.985 179.201 185.398  1.00  0.00    -0.508 OA
ATOM     12  H   UNL     1     168.676 179.700 184.572  1.00  0.00     0.293 HD
ENDBRANCH   4  11
TORSDOF 3
ENDMDL
MODEL 8
REMARK VINA RESULT:    -3.788     12.439     13.360
REMARK INTER + INTRA:          -4.316
REMARK INTER:                  -4.222
REMARK INTRA:                  -0.093
REMARK UNBOUND:                -0.085
REMARK SMILES CCc1ccc(O)cc1O
REMARK SMILES IDX 3 1 9 2 8 3 6 4 5 5 4 6 2 7 1 8 10 9 7 11
REMARK H PARENT 10 10 7 12
REMARK Flexibility Score: inf
ROOT
ATOM      1  C   UNL     1     161.950 177.418 186.335  1.00  0.00    -0.006 A 
ATOM      2  C   UNL     1     162.809 177.859 187.363  1.00  0.00     0.122 A 
ATOM      3  C   UNL     1     164.104 178.299 187.050  1.00  0.00     0.092 A 
ATOM      4  C   UNL     1     164.546 178.314 185.724  1.00  0.00     0.119 A 
ATOM      5  C   UNL     1     163.690 177.889 184.701  1.00  0.00     0.047 A 
ATOM      6  C   UNL     1     162.399 177.448 185.004  1.00  0.00     0.011 A 
ENDROOT
BRANCH   1   7
ATOM      7  C   UNL     1     160.543 176.968 186.640  1.00  0.00     0.036 C 
ATOM      8  C   UNL     1     160.507 175.474 186.943  1.00  0.00     0.009 C 
ENDBRANCH   1   7
BRANCH   2   9
ATOM      9  O   UNL     1     162.374 177.863 188.688  1.00  0.00    -0.508 OA
ATOM     10  H   UNL     1     162.288 177.005 189.221  1.00  0.00     0.293 HD
ENDBRANCH   2   9
BRANCH   4  11
ATOM     11  O   UNL     1     165.835 178.755 185.434  1.00  0.00    -0.508 OA
ATOM     12  H   UNL     1     166.138 179.694 185.666  1.00  0.00     0.293 HD
ENDBRANCH   4  11
TORSDOF 3
ENDMDL
MODEL 9
REMARK VINA RESULT:    -3.787      1.528      3.840
REMARK INTER + INTRA:          -4.315
REMARK INTER:                  -4.227
REMARK INTRA:                  -0.088
REMARK UNBOUND:                -0.085
REMARK SMILES CCc1ccc(O)cc1O
REMARK SMILES IDX 3 1 9 2 8 3 6 4 5 5 4 6 2 7 1 8 10 9 7 11
REMARK H PARENT 10 10 7 12
REMARK Flexibility Score: inf
ROOT
ATOM      1  C   UNL     1     174.024 179.014 186.966  1.00  0.00    -0.006 A 
ATOM      2  C   UNL     1     175.140 178.749 187.787  1.00  0.00     0.122 A 
ATOM      3  C   UNL     1     176.206 177.986 187.289  1.00  0.00     0.092 A 
ATOM      4  C   UNL     1     176.176 177.494 185.980  1.00  0.00     0.119 A 
ATOM      5  C   UNL     1     175.075 177.769 185.160  1.00  0.00     0.047 A 
ATOM      6  C   UNL     1     174.008 178.528 185.649  1.00  0.00     0.011 A 
ENDROOT
BRANCH   1   7
ATOM      7  C   UNL     1     172.878 179.858 187.466  1.00  0.00     0.036 C 
ATOM      8  C   UNL     1     171.541 179.212 187.118  1.00  0.00     0.009 C 
ENDBRANCH   1   7
BRANCH   2   9
ATOM      9  O   UNL     1     175.188 179.246 189.089  1.00  0.00    -0.508 OA
ATOM     10  H   UNL     1     174.453 179.838 189.459  1.00  0.00     0.293 HD
ENDBRANCH   2   9
BRANCH   4  11
ATOM     11  O   UNL     1     177.245 176.739 185.505  1.00  0.00    -0.508 OA
ATOM     12  H   UNL     1     177.841 176.212 186.132  1.00  0.00     0.293 HD
ENDBRANCH   4  11
TORSDOF 3
ENDMDL
