MODEL 1
REMARK VINA RESULT:    12.383      0.000      0.000
REMARK INTER + INTRA:          20.435
REMARK INTER:                  16.726
REMARK INTRA:                   3.709
REMARK UNBOUND:                 3.709
REMARK SMILES CC[C@@H](CC[C@@H](C)[C@H]1CC[C@H]2[C@@H]3CC(=O)C4=CC(=O)CC[C@@]4(C)[C@@H]3CC[C@@]12C)C(C)C
REMARK SMILES IDX 4 1 3 2 2 3 1 4 29 5 30 6 31 7 5 8 6 9 7 10 8 11 9 12 27 13
REMARK SMILES IDX 10 14 11 15 26 16 28 17 12 18 25 19 24 20 13 21 22 22 14 23
REMARK SMILES IDX 16 24 21 25 23 26 15 27 17 28 20 29 18 30 19 31
REMARK H PARENT
REMARK Flexibility Score: inf
ROOT
ATOM      1  C   UNL     1     -15.320  38.435  15.463  1.00  0.00     0.004 C 
ENDROOT
BRANCH   1   2
ATOM      2  C   UNL     1     -14.894  39.267  14.216  1.00  0.00    -0.009 C 
BRANCH   2   3
ATOM      3  C   UNL     1     -16.024  40.124  13.570  1.00  0.00     0.000 C 
ATOM      4  C   UNL     1     -16.638  39.589  12.275  1.00  0.00     0.004 C 
ENDBRANCH   2   3
BRANCH   2   5
ATOM      5  C   UNL     1     -13.923  38.542  13.220  1.00  0.00    -0.014 C 
ATOM      6  C   UNL     1     -13.476  39.485  12.088  1.00  0.00     0.007 C 
ATOM      7  C   UNL     1     -14.472  37.248  12.599  1.00  0.00     0.007 C 
ENDBRANCH   2   5
ENDBRANCH   1   2
BRANCH   1   8
ATOM      8  C   UNL     1     -15.199  39.104  16.855  1.00  0.00     0.004 C 
BRANCH   8   9
ATOM      9  C   UNL     1     -16.467  38.979  17.738  1.00  0.00    -0.011 C 
ATOM     10  C   UNL     1     -16.470  40.040  18.865  1.00  0.00     0.008 C 
BRANCH   9  11
ATOM     11  C   UNL     1     -17.781  38.874  16.879  1.00  0.00    -0.002 C 
ATOM     12  C   UNL     1     -18.050  40.123  16.019  1.00  0.00     0.005 C 
ATOM     13  C   UNL     1     -18.080  37.626  15.973  1.00  0.00    -0.026 C 
ATOM     14  C   UNL     1     -18.709  39.639  14.736  1.00  0.00     0.005 C 
ATOM     15  C   UNL     1     -19.137  38.190  14.985  1.00  0.00    -0.001 C 
ATOM     16  C   UNL     1     -16.831  37.134  15.199  1.00  0.00     0.007 C 
ATOM     17  C   UNL     1     -18.685  36.473  16.819  1.00  0.00     0.012 C 
ATOM     18  C   UNL     1     -19.366  37.419  13.643  1.00  0.00     0.004 C 
ATOM     19  C   UNL     1     -17.172  36.166  14.065  1.00  0.00     0.005 C 
ATOM     20  C   UNL     1     -18.080  36.821  13.000  1.00  0.00     0.003 C 
ATOM     21  C   UNL     1     -20.485  36.367  13.726  1.00  0.00     0.085 C 
ATOM     22  C   UNL     1     -18.360  35.896  11.717  1.00  0.00    -0.000 C 
ATOM     23  C   UNL     1     -20.871  35.975  12.337  1.00  0.00     0.159 C 
ATOM     24  C   UNL     1     -19.832  35.953  11.281  1.00  0.00     0.005 C 
ATOM     25  C   UNL     1     -17.444  36.396  10.554  1.00  0.00     0.020 C 
ATOM     26  C   UNL     1     -18.060  34.393  11.983  1.00  0.00     0.017 C 
ATOM     27  O   UNL     1     -22.065  35.652  12.086  1.00  0.00    -0.295 OA
ATOM     28  C   UNL     1     -20.193  35.853   9.987  1.00  0.00     0.055 C 
ATOM     29  C   UNL     1     -17.734  35.716   9.212  1.00  0.00     0.081 C 
ATOM     30  C   UNL     1     -19.199  35.754   8.907  1.00  0.00     0.156 C 
ATOM     31  O   UNL     1     -19.588  35.656   7.713  1.00  0.00    -0.295 OA
ENDBRANCH   9  11
ENDBRANCH   8   9
ENDBRANCH   1   8
TORSDOF 6
ENDMDL
MODEL 2
REMARK VINA RESULT:    12.815      3.292      8.355
REMARK INTER + INTRA:          21.019
REMARK INTER:                  21.309
REMARK INTRA:                  -0.290
REMARK UNBOUND:                 3.709
REMARK SMILES CC[C@@H](CC[C@@H](C)[C@H]1CC[C@H]2[C@@H]3CC(=O)C4=CC(=O)CC[C@@]4(C)[C@@H]3CC[C@@]12C)C(C)C
REMARK SMILES IDX 4 1 3 2 2 3 1 4 29 5 30 6 31 7 5 8 6 9 7 10 8 11 9 12 27 13
REMARK SMILES IDX 10 14 11 15 26 16 28 17 12 18 25 19 24 20 13 21 22 22 14 23
REMARK SMILES IDX 16 24 21 25 23 26 15 27 17 28 20 29 18 30 19 31
REMARK H PARENT
REMARK Flexibility Score: inf
ROOT
ATOM      1  C   UNL     1     -20.082  35.213   6.125  1.00  0.00     0.004 C 
ENDROOT
BRANCH   1   2
ATOM      2  C   UNL     1     -21.050  34.066   5.704  1.00  0.00    -0.009 C 
BRANCH   2   3
ATOM      3  C   UNL     1     -20.626  33.270   4.434  1.00  0.00     0.000 C 
ATOM      4  C   UNL     1     -19.126  33.189   4.142  1.00  0.00     0.004 C 
ENDBRANCH   2   3
BRANCH   2   5
ATOM      5  C   UNL     1     -22.580  34.392   5.836  1.00  0.00    -0.014 C 
ATOM      6  C   UNL     1     -23.291  33.376   6.749  1.00  0.00     0.007 C 
ATOM      7  C   UNL     1     -23.344  34.483   4.505  1.00  0.00     0.007 C 
ENDBRANCH   2   5
ENDBRANCH   1   2
BRANCH   1   8
ATOM      8  C   UNL     1     -18.988  34.887   7.172  1.00  0.00     0.004 C 
BRANCH   8   9
ATOM      9  C   UNL     1     -18.682  36.044   8.158  1.00  0.00    -0.011 C 
ATOM     10  C   UNL     1     -19.549  37.287   7.847  1.00  0.00     0.008 C 
BRANCH   9  11
ATOM     11  C   UNL     1     -18.674  35.561   9.656  1.00  0.00    -0.002 C 
ATOM     12  C   UNL     1     -17.440  34.713  10.018  1.00  0.00     0.005 C 
ATOM     13  C   UNL     1     -18.906  36.557  10.848  1.00  0.00    -0.026 C 
ATOM     14  C   UNL     1     -17.100  35.029  11.467  1.00  0.00     0.005 C 
ATOM     15  C   UNL     1     -18.307  35.772  12.046  1.00  0.00    -0.001 C 
ATOM     16  C   UNL     1     -18.157  37.901  10.660  1.00  0.00     0.007 C 
ATOM     17  C   UNL     1     -20.423  36.805  11.063  1.00  0.00     0.012 C 
ATOM     18  C   UNL     1     -17.923  36.580  13.330  1.00  0.00     0.004 C 
ATOM     19  C   UNL     1     -18.081  38.729  11.944  1.00  0.00     0.005 C 
ATOM     20  C   UNL     1     -17.314  37.989  13.063  1.00  0.00     0.003 C 
ATOM     21  C   UNL     1     -19.056  36.654  14.367  1.00  0.00     0.085 C 
ATOM     22  C   UNL     1     -17.083  38.864  14.390  1.00  0.00    -0.000 C 
ATOM     23  C   UNL     1     -18.477  37.099  15.672  1.00  0.00     0.159 C 
ATOM     24  C   UNL     1     -17.337  38.045  15.666  1.00  0.00     0.005 C 
ATOM     25  C   UNL     1     -15.608  39.377  14.377  1.00  0.00     0.020 C 
ATOM     26  C   UNL     1     -18.042  40.084  14.479  1.00  0.00     0.017 C 
ATOM     27  O   UNL     1     -18.973  36.680  16.753  1.00  0.00    -0.295 OA
ATOM     28  C   UNL     1     -16.640  38.263  16.798  1.00  0.00     0.055 C 
ATOM     29  C   UNL     1     -15.194  40.082  15.674  1.00  0.00     0.081 C 
ATOM     30  C   UNL     1     -15.548  39.245  16.864  1.00  0.00     0.156 C 
ATOM     31  O   UNL     1     -14.931  39.415  17.949  1.00  0.00    -0.295 OA
ENDBRANCH   9  11
ENDBRANCH   8   9
ENDBRANCH   1   8
TORSDOF 6
ENDMDL
MODEL 3
REMARK VINA RESULT:    14.154      3.425      8.345
REMARK INTER + INTRA:          22.828
REMARK INTER:                  22.947
REMARK INTRA:                  -0.119
REMARK UNBOUND:                 3.709
REMARK SMILES CC[C@@H](CC[C@@H](C)[C@H]1CC[C@H]2[C@@H]3CC(=O)C4=CC(=O)CC[C@@]4(C)[C@@H]3CC[C@@]12C)C(C)C
REMARK SMILES IDX 4 1 3 2 2 3 1 4 29 5 30 6 31 7 5 8 6 9 7 10 8 11 9 12 27 13
REMARK SMILES IDX 10 14 11 15 26 16 28 17 12 18 25 19 24 20 13 21 22 22 14 23
REMARK SMILES IDX 16 24 21 25 23 26 15 27 17 28 20 29 18 30 19 31
REMARK H PARENT
REMARK Flexibility Score: inf
ROOT
ATOM      1  C   UNL     1     -19.529  35.254   6.011  1.00  0.00     0.004 C 
ENDROOT
BRANCH   1   2
ATOM      2  C   UNL     1     -20.065  33.879   5.509  1.00  0.00    -0.009 C 
BRANCH   2   3
ATOM      3  C   UNL     1     -19.283  33.257   4.313  1.00  0.00     0.000 C 
ATOM      4  C   UNL     1     -17.756  33.343   4.370  1.00  0.00     0.004 C 
ENDBRANCH   2   3
BRANCH   2   5
ATOM      5  C   UNL     1     -21.627  33.741   5.458  1.00  0.00    -0.014 C 
ATOM      6  C   UNL     1     -22.083  33.015   4.179  1.00  0.00     0.007 C 
ATOM      7  C   UNL     1     -22.403  35.062   5.582  1.00  0.00     0.007 C 
ENDBRANCH   2   5
ENDBRANCH   1   2
BRANCH   1   8
ATOM      8  C   UNL     1     -18.579  35.256   7.235  1.00  0.00     0.004 C 
BRANCH   8   9
ATOM      9  C   UNL     1     -19.246  35.704   8.561  1.00  0.00    -0.011 C 
ATOM     10  C   UNL     1     -19.505  34.495   9.492  1.00  0.00     0.008 C 
BRANCH   9  11
ATOM     11  C   UNL     1     -18.511  36.935   9.209  1.00  0.00    -0.002 C 
ATOM     12  C   UNL     1     -19.403  38.185   9.331  1.00  0.00     0.005 C 
ATOM     13  C   UNL     1     -17.720  36.809  10.561  1.00  0.00    -0.026 C 
ATOM     14  C   UNL     1     -18.982  38.903  10.604  1.00  0.00     0.005 C 
ATOM     15  C   UNL     1     -17.646  38.286  11.031  1.00  0.00    -0.001 C 
ATOM     16  C   UNL     1     -18.464  35.948  11.613  1.00  0.00     0.007 C 
ATOM     17  C   UNL     1     -16.296  36.246  10.307  1.00  0.00     0.012 C 
ATOM     18  C   UNL     1     -17.345  38.557  12.543  1.00  0.00     0.004 C 
ATOM     19  C   UNL     1     -17.896  36.102  13.024  1.00  0.00     0.005 C 
ATOM     20  C   UNL     1     -18.007  37.557  13.535  1.00  0.00     0.003 C 
ATOM     21  C   UNL     1     -15.846  38.729  12.845  1.00  0.00     0.085 C 
ATOM     22  C   UNL     1     -17.551  37.753  15.063  1.00  0.00    -0.000 C 
ATOM     23  C   UNL     1     -15.704  39.347  14.199  1.00  0.00     0.159 C 
ATOM     24  C   UNL     1     -16.698  39.018  15.247  1.00  0.00     0.005 C 
ATOM     25  C   UNL     1     -18.840  37.852  15.941  1.00  0.00     0.020 C 
ATOM     26  C   UNL     1     -16.676  36.578  15.583  1.00  0.00     0.017 C 
ATOM     27  O   UNL     1     -14.737  40.121  14.435  1.00  0.00    -0.295 OA
ATOM     28  C   UNL     1     -16.743  39.743  16.381  1.00  0.00     0.055 C 
ATOM     29  C   UNL     1     -18.558  38.217  17.402  1.00  0.00     0.081 C 
ATOM     30  C   UNL     1     -17.661  39.413  17.482  1.00  0.00     0.156 C 
ATOM     31  O   UNL     1     -17.659  40.120  18.524  1.00  0.00    -0.295 OA
ENDBRANCH   9  11
ENDBRANCH   8   9
ENDBRANCH   1   8
TORSDOF 6
ENDMDL
MODEL 4
REMARK VINA RESULT:    14.868      2.807      7.137
REMARK INTER + INTRA:          23.792
REMARK INTER:                  17.135
REMARK INTRA:                   6.656
REMARK UNBOUND:                 3.709
REMARK SMILES CC[C@@H](CC[C@@H](C)[C@H]1CC[C@H]2[C@@H]3CC(=O)C4=CC(=O)CC[C@@]4(C)[C@@H]3CC[C@@]12C)C(C)C
REMARK SMILES IDX 4 1 3 2 2 3 1 4 29 5 30 6 31 7 5 8 6 9 7 10 8 11 9 12 27 13
REMARK SMILES IDX 10 14 11 15 26 16 28 17 12 18 25 19 24 20 13 21 22 22 14 23
REMARK SMILES IDX 16 24 21 25 23 26 15 27 17 28 20 29 18 30 19 31
REMARK H PARENT
REMARK Flexibility Score: inf
ROOT
ATOM      1  C   UNL     1     -18.982  33.934  10.457  1.00  0.00     0.004 C 
ENDROOT
BRANCH   1   2
ATOM      2  C   UNL     1     -19.289  33.855  11.983  1.00  0.00    -0.009 C 
BRANCH   2   3
ATOM      3  C   UNL     1     -19.535  35.225  12.684  1.00  0.00     0.000 C 
ATOM      4  C   UNL     1     -20.724  36.050  12.185  1.00  0.00     0.004 C 
ENDBRANCH   2   3
BRANCH   2   5
ATOM      5  C   UNL     1     -18.440  32.810  12.790  1.00  0.00    -0.014 C 
ATOM      6  C   UNL     1     -18.821  32.814  14.282  1.00  0.00     0.007 C 
ATOM      7  C   UNL     1     -16.917  32.972  12.666  1.00  0.00     0.007 C 
ENDBRANCH   2   5
ENDBRANCH   1   2
BRANCH   1   8
ATOM      8  C   UNL     1     -19.434  35.204   9.693  1.00  0.00     0.004 C 
BRANCH   8   9
ATOM      9  C   UNL     1     -18.315  35.879   8.858  1.00  0.00    -0.011 C 
ATOM     10  C   UNL     1     -18.789  36.158   7.412  1.00  0.00     0.008 C 
BRANCH   9  11
ATOM     11  C   UNL     1     -17.656  37.089   9.618  1.00  0.00    -0.002 C 
ATOM     12  C   UNL     1     -18.552  38.341   9.669  1.00  0.00     0.005 C 
ATOM     13  C   UNL     1     -17.024  36.924  11.047  1.00  0.00    -0.026 C 
ATOM     14  C   UNL     1     -18.276  39.024  11.000  1.00  0.00     0.005 C 
ATOM     15  C   UNL     1     -17.000  38.389  11.560  1.00  0.00    -0.001 C 
ATOM     16  C   UNL     1     -17.885  36.041  11.985  1.00  0.00     0.007 C 
ATOM     17  C   UNL     1     -15.581  36.359  10.942  1.00  0.00     0.012 C 
ATOM     18  C   UNL     1     -16.872  38.620  13.103  1.00  0.00     0.004 C 
ATOM     19  C   UNL     1     -17.481  36.156  13.455  1.00  0.00     0.005 C 
ATOM     20  C   UNL     1     -17.646  37.598  13.988  1.00  0.00     0.003 C 
ATOM     21  C   UNL     1     -15.417  38.775  13.578  1.00  0.00     0.085 C 
ATOM     22  C   UNL     1     -17.366  37.753  15.562  1.00  0.00    -0.000 C 
ATOM     23  C   UNL     1     -15.428  39.358  14.955  1.00  0.00     0.159 C 
ATOM     24  C   UNL     1     -16.536  39.008  15.874  1.00  0.00     0.005 C 
ATOM     25  C   UNL     1     -18.746  37.837  16.290  1.00  0.00     0.020 C 
ATOM     26  C   UNL     1     -16.559  36.560  16.148  1.00  0.00     0.017 C 
ATOM     27  O   UNL     1     -14.492  40.120  15.320  1.00  0.00    -0.295 OA
ATOM     28  C   UNL     1     -16.707  39.705  17.014  1.00  0.00     0.055 C 
ATOM     29  C   UNL     1     -18.631  38.164  17.782  1.00  0.00     0.081 C 
ATOM     30  C   UNL     1     -17.745  39.352  17.995  1.00  0.00     0.156 C 
ATOM     31  O   UNL     1     -17.860  40.032  19.048  1.00  0.00    -0.295 OA
ENDBRANCH   9  11
ENDBRANCH   8   9
ENDBRANCH   1   8
TORSDOF 6
ENDMDL
MODEL 5
REMARK VINA RESULT:    15.225     15.852     19.192
REMARK INTER + INTRA:          24.275
REMARK INTER:                  15.669
REMARK INTRA:                   8.606
REMARK UNBOUND:                 3.709
REMARK SMILES CC[C@@H](CC[C@@H](C)[C@H]1CC[C@H]2[C@@H]3CC(=O)C4=CC(=O)CC[C@@]4(C)[C@@H]3CC[C@@]12C)C(C)C
REMARK SMILES IDX 4 1 3 2 2 3 1 4 29 5 30 6 31 7 5 8 6 9 7 10 8 11 9 12 27 13
REMARK SMILES IDX 10 14 11 15 26 16 28 17 12 18 25 19 24 20 13 21 22 22 14 23
REMARK SMILES IDX 16 24 21 25 23 26 15 27 17 28 20 29 18 30 19 31
REMARK H PARENT
REMARK Flexibility Score: inf
ROOT
ATOM      1  C   UNL     1     -30.903  19.891  15.735  1.00  0.00     0.004 C 
ENDROOT
BRANCH   1   2
ATOM      2  C   UNL     1     -30.962  19.877  14.178  1.00  0.00    -0.009 C 
BRANCH   2   3
ATOM      3  C   UNL     1     -29.597  20.097  13.458  1.00  0.00     0.000 C 
ATOM      4  C   UNL     1     -29.653  20.468  11.975  1.00  0.00     0.004 C 
ENDBRANCH   2   3
BRANCH   2   5
ATOM      5  C   UNL     1     -32.202  20.600  13.543  1.00  0.00    -0.014 C 
ATOM      6  C   UNL     1     -32.508  20.053  12.136  1.00  0.00     0.007 C 
ATOM      7  C   UNL     1     -32.095  22.131  13.467  1.00  0.00     0.007 C 
ENDBRANCH   2   5
ENDBRANCH   1   2
BRANCH   1   8
ATOM      8  C   UNL     1     -30.567  21.232  16.435  1.00  0.00     0.004 C 
BRANCH   8   9
ATOM      9  C   UNL     1     -29.138  21.302  17.031  1.00  0.00    -0.011 C 
ATOM     10  C   UNL     1     -28.553  19.886  17.248  1.00  0.00     0.008 C 
BRANCH   9  11
ATOM     11  C   UNL     1     -28.221  22.321  16.257  1.00  0.00    -0.002 C 
ATOM     12  C   UNL     1     -26.854  21.733  15.860  1.00  0.00     0.005 C 
ATOM     13  C   UNL     1     -28.746  23.130  15.017  1.00  0.00    -0.026 C 
ATOM     14  C   UNL     1     -26.475  22.364  14.528  1.00  0.00     0.005 C 
ATOM     15  C   UNL     1     -27.423  23.550  14.322  1.00  0.00    -0.001 C 
ATOM     16  C   UNL     1     -29.604  22.267  14.057  1.00  0.00     0.007 C 
ATOM     17  C   UNL     1     -29.540  24.381  15.479  1.00  0.00     0.012 C 
ATOM     18  C   UNL     1     -27.491  23.977  12.818  1.00  0.00     0.004 C 
ATOM     19  C   UNL     1     -29.823  22.923  12.694  1.00  0.00     0.005 C 
ATOM     20  C   UNL     1     -28.490  23.160  11.947  1.00  0.00     0.003 C 
ATOM     21  C   UNL     1     -27.692  25.489  12.621  1.00  0.00     0.085 C 
ATOM     22  C   UNL     1     -28.666  23.721  10.452  1.00  0.00    -0.000 C 
ATOM     23  C   UNL     1     -27.365  25.830  11.202  1.00  0.00     0.159 C 
ATOM     24  C   UNL     1     -27.660  24.840  10.140  1.00  0.00     0.005 C 
ATOM     25  C   UNL     1     -28.457  22.530   9.463  1.00  0.00     0.020 C 
ATOM     26  C   UNL     1     -30.070  24.341  10.205  1.00  0.00     0.017 C 
ATOM     27  O   UNL     1     -26.864  26.954  10.928  1.00  0.00    -0.295 OA
ATOM     28  C   UNL     1     -27.152  25.011   8.904  1.00  0.00     0.055 C 
ATOM     29  C   UNL     1     -28.421  22.957   7.991  1.00  0.00     0.081 C 
ATOM     30  C   UNL     1     -27.472  24.098   7.797  1.00  0.00     0.156 C 
ATOM     31  O   UNL     1     -26.976  24.306   6.658  1.00  0.00    -0.295 OA
ENDBRANCH   9  11
ENDBRANCH   8   9
ENDBRANCH   1   8
TORSDOF 6
ENDMDL
