MODEL 1
REMARK VINA RESULT:    -4.321      0.000      0.000
REMARK INTER + INTRA:          -4.665
REMARK INTER:                  -4.573
REMARK INTRA:                  -0.091
REMARK UNBOUND:                -0.091
REMARK SMILES C=C(C)[C@@H]1CC=C(C)C(=O)C1
REMARK SMILES IDX 8 1 7 2 6 3 5 4 4 5 11 6 9 7 10 8 2 9 1 10 3 11
REMARK H PARENT
REMARK Flexibility Score: inf
ROOT
ATOM      1  C   UNL     1      14.748 -19.948  44.106  1.00  0.00     0.048 C 
ATOM      2  C   UNL     1      13.860 -20.733  43.179  1.00  0.00    -0.012 C 
ATOM      3  C   UNL     1      13.823 -20.436  41.867  1.00  0.00    -0.019 C 
ATOM      4  C   UNL     1      13.012 -21.243  40.889  1.00  0.00     0.036 C 
ATOM      5  C   UNL     1      11.762 -21.842  41.562  1.00  0.00     0.025 C 
ATOM      6  C   UNL     1      12.164 -22.662  42.803  1.00  0.00     0.089 C 
ATOM      7  C   UNL     1      13.043 -21.849  43.714  1.00  0.00     0.158 C 
ATOM      8  O   UNL     1      13.115 -22.157  44.934  1.00  0.00    -0.295 OA
ENDROOT
BRANCH   5   9
ATOM      9  C   UNL     1      10.939 -22.671  40.585  1.00  0.00    -0.077 C 
ATOM     10  C   UNL     1       9.596 -22.695  40.645  1.00  0.00     0.008 C 
ATOM     11  C   UNL     1      11.626 -23.487  39.520  1.00  0.00     0.039 C 
ENDBRANCH   5   9
TORSDOF 1
ENDMDL
MODEL 2
REMARK VINA RESULT:    -4.169      2.484      5.024
REMARK INTER + INTRA:          -4.504
REMARK INTER:                  -4.410
REMARK INTRA:                  -0.094
REMARK UNBOUND:                -0.091
REMARK SMILES C=C(C)[C@@H]1CC=C(C)C(=O)C1
REMARK SMILES IDX 8 1 7 2 6 3 5 4 4 5 11 6 9 7 10 8 2 9 1 10 3 11
REMARK H PARENT
REMARK Flexibility Score: inf
ROOT
ATOM      1  C   UNL     1       9.113 -25.053  39.235  1.00  0.00     0.048 C 
ATOM      2  C   UNL     1      10.143 -24.125  39.820  1.00  0.00    -0.012 C 
ATOM      3  C   UNL     1       9.771 -23.160  40.680  1.00  0.00    -0.019 C 
ATOM      4  C   UNL     1      10.773 -22.260  41.352  1.00  0.00     0.036 C 
ATOM      5  C   UNL     1      12.009 -22.039  40.461  1.00  0.00     0.025 C 
ATOM      6  C   UNL     1      12.622 -23.392  40.052  1.00  0.00     0.089 C 
ATOM      7  C   UNL     1      11.573 -24.294  39.463  1.00  0.00     0.158 C 
ATOM      8  O   UNL     1      11.926 -25.228  38.695  1.00  0.00    -0.295 OA
ENDROOT
BRANCH   5   9
ATOM      9  C   UNL     1      13.036 -21.139  41.135  1.00  0.00    -0.077 C 
ATOM     10  C   UNL     1      13.217 -21.159  42.467  1.00  0.00     0.008 C 
ATOM     11  C   UNL     1      13.875 -20.199  40.309  1.00  0.00     0.039 C 
ENDBRANCH   5   9
TORSDOF 1
ENDMDL
MODEL 3
REMARK VINA RESULT:    -4.131      2.508      3.597
REMARK INTER + INTRA:          -4.464
REMARK INTER:                  -4.375
REMARK INTRA:                  -0.088
REMARK UNBOUND:                -0.091
REMARK SMILES C=C(C)[C@@H]1CC=C(C)C(=O)C1
REMARK SMILES IDX 8 1 7 2 6 3 5 4 4 5 11 6 9 7 10 8 2 9 1 10 3 11
REMARK H PARENT
REMARK Flexibility Score: inf
ROOT
ATOM      1  C   UNL     1      12.910 -21.496  41.957  1.00  0.00     0.048 C 
ATOM      2  C   UNL     1      11.929 -22.518  41.451  1.00  0.00    -0.012 C 
ATOM      3  C   UNL     1      10.622 -22.213  41.360  1.00  0.00    -0.019 C 
ATOM      4  C   UNL     1       9.616 -23.174  40.785  1.00  0.00     0.036 C 
ATOM      5  C   UNL     1      10.033 -24.635  41.038  1.00  0.00     0.025 C 
ATOM      6  C   UNL     1      11.454 -24.887  40.500  1.00  0.00     0.089 C 
ATOM      7  C   UNL     1      12.413 -23.856  41.030  1.00  0.00     0.158 C 
ATOM      8  O   UNL     1      13.643 -24.124  41.069  1.00  0.00    -0.295 OA
ENDROOT
BRANCH   5   9
ATOM      9  C   UNL     1       9.028 -25.617  40.451  1.00  0.00    -0.077 C 
ATOM     10  C   UNL     1       8.174 -26.298  41.234  1.00  0.00     0.008 C 
ATOM     11  C   UNL     1       8.975 -25.843  38.962  1.00  0.00     0.039 C 
ENDBRANCH   5   9
TORSDOF 1
ENDMDL
MODEL 4
REMARK VINA RESULT:    -4.030     11.800     13.080
REMARK INTER + INTRA:          -4.357
REMARK INTER:                  -4.261
REMARK INTRA:                  -0.096
REMARK UNBOUND:                -0.091
REMARK SMILES C=C(C)[C@@H]1CC=C(C)C(=O)C1
REMARK SMILES IDX 8 1 7 2 6 3 5 4 4 5 11 6 9 7 10 8 2 9 1 10 3 11
REMARK H PARENT
REMARK Flexibility Score: inf
ROOT
ATOM      1  C   UNL     1       9.969 -32.841  51.199  1.00  0.00     0.048 C 
ATOM      2  C   UNL     1      10.845 -32.919  49.978  1.00  0.00    -0.012 C 
ATOM      3  C   UNL     1      12.184 -32.916  50.106  1.00  0.00    -0.019 C 
ATOM      4  C   UNL     1      13.100 -33.072  48.922  1.00  0.00     0.036 C 
ATOM      5  C   UNL     1      12.464 -32.492  47.644  1.00  0.00     0.025 C 
ATOM      6  C   UNL     1      11.081 -33.125  47.400  1.00  0.00     0.089 C 
ATOM      7  C   UNL     1      10.226 -33.024  48.634  1.00  0.00     0.158 C 
ATOM      8  O   UNL     1       8.972 -33.076  48.518  1.00  0.00    -0.295 OA
ENDROOT
BRANCH   5   9
ATOM      9  C   UNL     1      13.377 -32.655  46.437  1.00  0.00    -0.077 C 
ATOM     10  C   UNL     1      14.682 -32.944  46.579  1.00  0.00     0.008 C 
ATOM     11  C   UNL     1      12.824 -32.492  45.044  1.00  0.00     0.039 C 
ENDBRANCH   5   9
TORSDOF 1
ENDMDL
MODEL 5
REMARK VINA RESULT:    -4.004      3.210      5.300
REMARK INTER + INTRA:          -4.329
REMARK INTER:                  -4.240
REMARK INTRA:                  -0.088
REMARK UNBOUND:                -0.091
REMARK SMILES C=C(C)[C@@H]1CC=C(C)C(=O)C1
REMARK SMILES IDX 8 1 7 2 6 3 5 4 4 5 11 6 9 7 10 8 2 9 1 10 3 11
REMARK H PARENT
REMARK Flexibility Score: inf
ROOT
ATOM      1  C   UNL     1      14.399 -26.553  37.773  1.00  0.00     0.048 C 
ATOM      2  C   UNL     1      13.587 -25.570  38.571  1.00  0.00    -0.012 C 
ATOM      3  C   UNL     1      12.889 -25.984  39.644  1.00  0.00    -0.019 C 
ATOM      4  C   UNL     1      12.127 -25.025  40.519  1.00  0.00     0.036 C 
ATOM      5  C   UNL     1      11.620 -23.815  39.712  1.00  0.00     0.025 C 
ATOM      6  C   UNL     1      12.791 -23.132  38.979  1.00  0.00     0.089 C 
ATOM      7  C   UNL     1      13.578 -24.138  38.184  1.00  0.00     0.158 C 
ATOM      8  O   UNL     1      14.270 -23.742  37.208  1.00  0.00    -0.295 OA
ENDROOT
BRANCH   5   9
ATOM      9  C   UNL     1      10.858 -22.832  40.590  1.00  0.00    -0.077 C 
ATOM     10  C   UNL     1       9.513 -22.818  40.621  1.00  0.00     0.008 C 
ATOM     11  C   UNL     1      11.608 -21.846  41.448  1.00  0.00     0.039 C 
ENDBRANCH   5   9
TORSDOF 1
ENDMDL
MODEL 6
REMARK VINA RESULT:    -3.991      4.519      6.624
REMARK INTER + INTRA:          -4.315
REMARK INTER:                  -4.219
REMARK INTRA:                  -0.096
REMARK UNBOUND:                -0.091
REMARK SMILES C=C(C)[C@@H]1CC=C(C)C(=O)C1
REMARK SMILES IDX 8 1 7 2 6 3 5 4 4 5 11 6 9 7 10 8 2 9 1 10 3 11
REMARK H PARENT
REMARK Flexibility Score: inf
ROOT
ATOM      1  C   UNL     1       8.704 -29.324  42.181  1.00  0.00     0.048 C 
ATOM      2  C   UNL     1       9.179 -27.984  41.689  1.00  0.00    -0.012 C 
ATOM      3  C   UNL     1      10.490 -27.766  41.482  1.00  0.00    -0.019 C 
ATOM      4  C   UNL     1      11.004 -26.470  40.915  1.00  0.00     0.036 C 
ATOM      5  C   UNL     1      10.099 -25.289  41.314  1.00  0.00     0.025 C 
ATOM      6  C   UNL     1       8.641 -25.570  40.899  1.00  0.00     0.089 C 
ATOM      7  C   UNL     1       8.193 -26.911  41.412  1.00  0.00     0.158 C 
ATOM      8  O   UNL     1       6.961 -27.131  41.560  1.00  0.00    -0.295 OA
ENDROOT
BRANCH   5   9
ATOM      9  C   UNL     1      10.603 -23.973  40.736  1.00  0.00    -0.077 C 
ATOM     10  C   UNL     1      11.879 -23.827  40.338  1.00  0.00     0.008 C 
ATOM     11  C   UNL     1       9.668 -22.800  40.601  1.00  0.00     0.039 C 
ENDBRANCH   5   9
TORSDOF 1
ENDMDL
MODEL 7
REMARK VINA RESULT:    -3.862      2.760      4.236
REMARK INTER + INTRA:          -4.179
REMARK INTER:                  -4.084
REMARK INTRA:                  -0.094
REMARK UNBOUND:                -0.091
REMARK SMILES C=C(C)[C@@H]1CC=C(C)C(=O)C1
REMARK SMILES IDX 8 1 7 2 6 3 5 4 4 5 11 6 9 7 10 8 2 9 1 10 3 11
REMARK H PARENT
REMARK Flexibility Score: inf
ROOT
ATOM      1  C   UNL     1      14.983 -21.369  36.932  1.00  0.00     0.048 C 
ATOM      2  C   UNL     1      14.064 -21.725  38.069  1.00  0.00    -0.012 C 
ATOM      3  C   UNL     1      13.458 -22.925  38.097  1.00  0.00    -0.019 C 
ATOM      4  C   UNL     1      12.594 -23.357  39.252  1.00  0.00     0.036 C 
ATOM      5  C   UNL     1      11.905 -22.149  39.914  1.00  0.00     0.025 C 
ATOM      6  C   UNL     1      12.952 -21.098  40.329  1.00  0.00     0.089 C 
ATOM      7  C   UNL     1      13.849 -20.756  39.171  1.00  0.00     0.158 C 
ATOM      8  O   UNL     1      14.455 -19.651  39.169  1.00  0.00    -0.295 OA
ENDROOT
BRANCH   5   9
ATOM      9  C   UNL     1      11.037 -22.573  41.092  1.00  0.00    -0.077 C 
ATOM     10  C   UNL     1      11.518 -22.584  42.348  1.00  0.00     0.008 C 
ATOM     11  C   UNL     1       9.608 -22.991  40.865  1.00  0.00     0.039 C 
ENDBRANCH   5   9
TORSDOF 1
ENDMDL
MODEL 8
REMARK VINA RESULT:    -3.847     13.141     14.194
REMARK INTER + INTRA:          -4.163
REMARK INTER:                  -4.074
REMARK INTRA:                  -0.089
REMARK UNBOUND:                -0.091
REMARK SMILES C=C(C)[C@@H]1CC=C(C)C(=O)C1
REMARK SMILES IDX 8 1 7 2 6 3 5 4 4 5 11 6 9 7 10 8 2 9 1 10 3 11
REMARK H PARENT
REMARK Flexibility Score: inf
ROOT
ATOM      1  C   UNL     1      -0.325 -13.105  44.098  1.00  0.00     0.048 C 
ATOM      2  C   UNL     1      -0.027 -13.658  42.731  1.00  0.00    -0.012 C 
ATOM      3  C   UNL     1      -0.991 -13.697  41.794  1.00  0.00    -0.019 C 
ATOM      4  C   UNL     1      -0.720 -14.167  40.390  1.00  0.00     0.036 C 
ATOM      5  C   UNL     1       0.401 -15.223  40.361  1.00  0.00     0.025 C 
ATOM      6  C   UNL     1       1.667 -14.677  41.048  1.00  0.00     0.089 C 
ATOM      7  C   UNL     1       1.340 -14.139  42.415  1.00  0.00     0.158 C 
ATOM      8  O   UNL     1       2.255 -14.058  43.278  1.00  0.00    -0.295 OA
ENDROOT
BRANCH   5   9
ATOM      9  C   UNL     1       0.692 -15.698  38.944  1.00  0.00    -0.077 C 
ATOM     10  C   UNL     1      -0.014 -16.693  38.380  1.00  0.00     0.008 C 
ATOM     11  C   UNL     1       1.790 -15.050  38.141  1.00  0.00     0.039 C 
ENDBRANCH   5   9
TORSDOF 1
ENDMDL
MODEL 9
REMARK VINA RESULT:    -3.799      4.081      5.399
REMARK INTER + INTRA:          -4.112
REMARK INTER:                  -4.017
REMARK INTRA:                  -0.095
REMARK UNBOUND:                -0.091
REMARK SMILES C=C(C)[C@@H]1CC=C(C)C(=O)C1
REMARK SMILES IDX 8 1 7 2 6 3 5 4 4 5 11 6 9 7 10 8 2 9 1 10 3 11
REMARK H PARENT
REMARK Flexibility Score: inf
ROOT
ATOM      1  C   UNL     1      15.383 -19.262  35.804  1.00  0.00     0.048 C 
ATOM      2  C   UNL     1      14.695 -19.734  37.057  1.00  0.00    -0.012 C 
ATOM      3  C   UNL     1      14.607 -18.922  38.125  1.00  0.00    -0.019 C 
ATOM      4  C   UNL     1      13.860 -19.319  39.370  1.00  0.00     0.036 C 
ATOM      5  C   UNL     1      13.903 -20.844  39.584  1.00  0.00     0.025 C 
ATOM      6  C   UNL     1      13.381 -21.574  38.332  1.00  0.00     0.089 C 
ATOM      7  C   UNL     1      14.093 -21.089  37.099  1.00  0.00     0.158 C 
ATOM      8  O   UNL     1      14.133 -21.831  36.081  1.00  0.00    -0.295 OA
ENDROOT
BRANCH   5   9
ATOM      9  C   UNL     1      13.141 -21.259  40.835  1.00  0.00    -0.077 C 
ATOM     10  C   UNL     1      11.938 -21.856  40.756  1.00  0.00     0.008 C 
ATOM     11  C   UNL     1      13.729 -21.004  42.198  1.00  0.00     0.039 C 
ENDBRANCH   5   9
TORSDOF 1
ENDMDL
