MODEL 1
REMARK VINA RESULT:    -5.066      0.000      0.000
REMARK INTER + INTRA:          -6.665
REMARK INTER:                  -6.547
REMARK INTRA:                  -0.118
REMARK UNBOUND:                -0.118
REMARK SMILES CCO[C@@H]1O[C@@H](CO)[C@H](O)[C@@H](O)[C@@H]1O
REMARK SMILES IDX 4 1 13 2 11 3 9 4 6 5 5 6 3 7 2 8 1 9 14 10 12 12 7 14 8 15
REMARK SMILES IDX 10 17
REMARK H PARENT 14 11 12 13 8 16 10 18
REMARK Flexibility Score: inf
ROOT
ATOM      1  C   UNL     1      -5.358  37.036  26.158  1.00  0.00     0.281 C 
ATOM      2  C   UNL     1      -4.574  36.886  27.479  1.00  0.00     0.202 C 
ATOM      3  C   UNL     1      -3.795  38.178  27.798  1.00  0.00     0.179 C 
ATOM      4  C   UNL     1      -4.745  39.392  27.721  1.00  0.00     0.177 C 
ATOM      5  C   UNL     1      -5.515  39.377  26.377  1.00  0.00     0.178 C 
ATOM      6  O   UNL     1      -6.231  38.158  26.223  1.00  0.00    -0.341 OA
ENDROOT
BRANCH   1   7
ATOM      7  O   UNL     1      -4.467  37.135  25.058  1.00  0.00    -0.350 OA
BRANCH   7   8
ATOM      8  C   UNL     1      -4.627  36.025  24.199  1.00  0.00     0.160 C 
ATOM      9  C   UNL     1      -6.063  35.982  23.704  1.00  0.00     0.035 C 
ENDBRANCH   7   8
ENDBRANCH   1   7
BRANCH   2  10
ATOM     10  O   UNL     1      -3.721  35.768  27.441  1.00  0.00    -0.385 OA
ATOM     11  H   UNL     1      -2.813  36.084  27.193  1.00  0.00     0.211 HD
ENDBRANCH   2  10
BRANCH   3  12
ATOM     12  O   UNL     1      -3.181  38.098  29.060  1.00  0.00    -0.387 OA
ATOM     13  H   UNL     1      -2.357  38.651  29.031  1.00  0.00     0.211 HD
ENDBRANCH   3  12
BRANCH   5  14
ATOM     14  C   UNL     1      -6.516  40.536  26.312  1.00  0.00     0.191 C 
BRANCH  14  15
ATOM     15  O   UNL     1      -7.629  40.155  25.553  1.00  0.00    -0.394 OA
ATOM     16  H   UNL     1      -7.446  39.231  25.239  1.00  0.00     0.210 HD
ENDBRANCH  14  15
ENDBRANCH   5  14
BRANCH   4  17
ATOM     17  O   UNL     1      -4.025  40.589  27.889  1.00  0.00    -0.387 OA
ATOM     18  H   UNL     1      -4.561  41.322  27.487  1.00  0.00     0.211 HD
ENDBRANCH   4  17
TORSDOF 7
ENDMDL
MODEL 2
REMARK VINA RESULT:    -4.958      1.821      3.604
REMARK INTER + INTRA:          -6.525
REMARK INTER:                  -6.081
REMARK INTRA:                  -0.445
REMARK UNBOUND:                -0.118
REMARK SMILES CCO[C@@H]1O[C@@H](CO)[C@H](O)[C@@H](O)[C@@H]1O
REMARK SMILES IDX 4 1 13 2 11 3 9 4 6 5 5 6 3 7 2 8 1 9 14 10 12 12 7 14 8 15
REMARK SMILES IDX 10 17
REMARK H PARENT 14 11 12 13 8 16 10 18
REMARK Flexibility Score: inf
ROOT
ATOM      1  C   UNL     1      -2.815  36.949  26.874  1.00  0.00     0.281 C 
ATOM      2  C   UNL     1      -3.880  37.067  25.763  1.00  0.00     0.202 C 
ATOM      3  C   UNL     1      -5.176  37.692  26.319  1.00  0.00     0.179 C 
ATOM      4  C   UNL     1      -4.846  39.001  27.066  1.00  0.00     0.177 C 
ATOM      5  C   UNL     1      -3.715  38.750  28.096  1.00  0.00     0.178 C 
ATOM      6  O   UNL     1      -2.561  38.222  27.456  1.00  0.00    -0.341 OA
ENDROOT
BRANCH   1   7
ATOM      7  O   UNL     1      -3.215  36.002  27.851  1.00  0.00    -0.350 OA
BRANCH   7   8
ATOM      8  C   UNL     1      -2.105  35.243  28.280  1.00  0.00     0.160 C 
ATOM      9  C   UNL     1      -1.193  34.980  27.093  1.00  0.00     0.035 C 
ENDBRANCH   7   8
ENDBRANCH   1   7
BRANCH   2  10
ATOM     10  O   UNL     1      -4.128  35.820  25.161  1.00  0.00    -0.385 OA
ATOM     11  H   UNL     1      -4.219  35.965  24.183  1.00  0.00     0.211 HD
ENDBRANCH   2  10
BRANCH   3  12
ATOM     12  O   UNL     1      -6.107  37.920  25.290  1.00  0.00    -0.387 OA
ATOM     13  H   UNL     1      -6.831  37.248  25.382  1.00  0.00     0.211 HD
ENDBRANCH   3  12
BRANCH   5  14
ATOM     14  C   UNL     1      -3.324  40.055  28.799  1.00  0.00     0.191 C 
BRANCH  14  15
ATOM     15  O   UNL     1      -3.368  41.114  27.884  1.00  0.00    -0.394 OA
ATOM     16  H   UNL     1      -3.670  40.722  27.023  1.00  0.00     0.210 HD
ENDBRANCH  14  15
ENDBRANCH   5  14
BRANCH   4  17
ATOM     17  O   UNL     1      -5.999  39.518  27.683  1.00  0.00    -0.387 OA
ATOM     18  H   UNL     1      -6.656  38.778  27.764  1.00  0.00     0.211 HD
ENDBRANCH   4  17
TORSDOF 7
ENDMDL
MODEL 3
REMARK VINA RESULT:    -4.931      1.662      3.524
REMARK INTER + INTRA:          -6.490
REMARK INTER:                  -6.026
REMARK INTRA:                  -0.463
REMARK UNBOUND:                -0.118
REMARK SMILES CCO[C@@H]1O[C@@H](CO)[C@H](O)[C@@H](O)[C@@H]1O
REMARK SMILES IDX 4 1 13 2 11 3 9 4 6 5 5 6 3 7 2 8 1 9 14 10 12 12 7 14 8 15
REMARK SMILES IDX 10 17
REMARK H PARENT 14 11 12 13 8 16 10 18
REMARK Flexibility Score: inf
ROOT
ATOM      1  C   UNL     1      -4.126  37.245  26.179  1.00  0.00     0.281 C 
ATOM      2  C   UNL     1      -4.703  36.739  24.839  1.00  0.00     0.202 C 
ATOM      3  C   UNL     1      -6.223  36.986  24.776  1.00  0.00     0.179 C 
ATOM      4  C   UNL     1      -6.528  38.460  25.118  1.00  0.00     0.177 C 
ATOM      5  C   UNL     1      -5.830  38.849  26.446  1.00  0.00     0.178 C 
ATOM      6  O   UNL     1      -4.429  38.623  26.362  1.00  0.00    -0.341 OA
ENDROOT
BRANCH   1   7
ATOM      7  O   UNL     1      -4.608  36.459  27.257  1.00  0.00    -0.350 OA
BRANCH   7   8
ATOM      8  C   UNL     1      -3.597  36.289  28.228  1.00  0.00     0.160 C 
ATOM      9  C   UNL     1      -2.445  35.510  27.616  1.00  0.00     0.035 C 
ENDBRANCH   7   8
ENDBRANCH   1   7
BRANCH   2  10
ATOM     10  O   UNL     1      -4.394  35.383  24.631  1.00  0.00    -0.385 OA
ATOM     11  H   UNL     1      -3.679  35.334  23.944  1.00  0.00     0.211 HD
ENDBRANCH   2  10
BRANCH   3  12
ATOM     12  O   UNL     1      -6.738  36.647  23.512  1.00  0.00    -0.387 OA
ATOM     13  H   UNL     1      -6.583  35.676  23.373  1.00  0.00     0.211 HD
ENDBRANCH   3  12
BRANCH   5  14
ATOM     14  C   UNL     1      -6.061  40.330  26.766  1.00  0.00     0.191 C 
BRANCH  14  15
ATOM     15  O   UNL     1      -6.411  41.015  25.596  1.00  0.00    -0.394 OA
ATOM     16  H   UNL     1      -5.567  41.391  25.234  1.00  0.00     0.210 HD
ENDBRANCH  14  15
ENDBRANCH   5  14
BRANCH   4  17
ATOM     17  O   UNL     1      -7.916  38.672  25.184  1.00  0.00    -0.387 OA
ATOM     18  H   UNL     1      -8.174  38.686  26.143  1.00  0.00     0.211 HD
ENDBRANCH   4  17
TORSDOF 7
ENDMDL
MODEL 4
REMARK VINA RESULT:    -4.857      1.745      4.151
REMARK INTER + INTRA:          -6.394
REMARK INTER:                  -6.138
REMARK INTRA:                  -0.256
REMARK UNBOUND:                -0.118
REMARK SMILES CCO[C@@H]1O[C@@H](CO)[C@H](O)[C@@H](O)[C@@H]1O
REMARK SMILES IDX 4 1 13 2 11 3 9 4 6 5 5 6 3 7 2 8 1 9 14 10 12 12 7 14 8 15
REMARK SMILES IDX 10 17
REMARK H PARENT 14 11 12 13 8 16 10 18
REMARK Flexibility Score: inf
ROOT
ATOM      1  C   UNL     1      -5.323  40.687  27.481  1.00  0.00     0.281 C 
ATOM      2  C   UNL     1      -3.951  40.087  27.855  1.00  0.00     0.202 C 
ATOM      3  C   UNL     1      -4.044  38.552  27.972  1.00  0.00     0.179 C 
ATOM      4  C   UNL     1      -4.702  37.970  26.703  1.00  0.00     0.177 C 
ATOM      5  C   UNL     1      -6.031  38.712  26.410  1.00  0.00     0.178 C 
ATOM      6  O   UNL     1      -5.806  40.109  26.274  1.00  0.00    -0.341 OA
ENDROOT
BRANCH   1   7
ATOM      7  O   UNL     1      -6.247  40.518  28.544  1.00  0.00    -0.350 OA
BRANCH   7   8
ATOM      8  C   UNL     1      -7.178  41.579  28.556  1.00  0.00     0.160 C 
ATOM      9  C   UNL     1      -6.434  42.895  28.391  1.00  0.00     0.035 C 
ENDBRANCH   7   8
ENDBRANCH   1   7
BRANCH   2  10
ATOM     10  O   UNL     1      -3.448  40.663  29.035  1.00  0.00    -0.385 OA
ATOM     11  H   UNL     1      -2.988  39.950  29.552  1.00  0.00     0.211 HD
ENDBRANCH   2  10
BRANCH   3  12
ATOM     12  O   UNL     1      -2.775  37.985  28.187  1.00  0.00    -0.387 OA
ATOM     13  H   UNL     1      -2.427  37.680  27.309  1.00  0.00     0.211 HD
ENDBRANCH   3  12
BRANCH   5  14
ATOM     14  C   UNL     1      -6.663  38.196  25.113  1.00  0.00     0.191 C 
BRANCH  14  15
ATOM     15  O   UNL     1      -7.813  38.940  24.822  1.00  0.00    -0.394 OA
ATOM     16  H   UNL     1      -8.349  38.387  24.196  1.00  0.00     0.210 HD
ENDBRANCH  14  15
ENDBRANCH   5  14
BRANCH   4  17
ATOM     17  O   UNL     1      -4.905  36.586  26.846  1.00  0.00    -0.387 OA
ATOM     18  H   UNL     1      -5.776  36.455  27.305  1.00  0.00     0.211 HD
ENDBRANCH   4  17
TORSDOF 7
ENDMDL
MODEL 5
REMARK VINA RESULT:    -4.784     13.859     15.185
REMARK INTER + INTRA:          -6.301
REMARK INTER:                  -5.891
REMARK INTRA:                  -0.410
REMARK UNBOUND:                -0.118
REMARK SMILES CCO[C@@H]1O[C@@H](CO)[C@H](O)[C@@H](O)[C@@H]1O
REMARK SMILES IDX 4 1 13 2 11 3 9 4 6 5 5 6 3 7 2 8 1 9 14 10 12 12 7 14 8 15
REMARK SMILES IDX 10 17
REMARK H PARENT 14 11 12 13 8 16 10 18
REMARK Flexibility Score: inf
ROOT
ATOM      1  C   UNL     1     -14.194  42.957  36.349  1.00  0.00     0.281 C 
ATOM      2  C   UNL     1     -15.364  42.261  37.076  1.00  0.00     0.202 C 
ATOM      3  C   UNL     1     -14.907  41.727  38.449  1.00  0.00     0.179 C 
ATOM      4  C   UNL     1     -14.206  42.851  39.240  1.00  0.00     0.177 C 
ATOM      5  C   UNL     1     -13.107  43.506  38.365  1.00  0.00     0.178 C 
ATOM      6  O   UNL     1     -13.660  44.002  37.153  1.00  0.00    -0.341 OA
ENDROOT
BRANCH   1   7
ATOM      7  O   UNL     1     -13.196  42.014  35.993  1.00  0.00    -0.350 OA
BRANCH   7   8
ATOM      8  C   UNL     1     -12.870  42.140  34.624  1.00  0.00     0.160 C 
ATOM      9  C   UNL     1     -13.386  40.921  33.876  1.00  0.00     0.035 C 
ENDBRANCH   7   8
ENDBRANCH   1   7
BRANCH   2  10
ATOM     10  O   UNL     1     -15.919  41.238  36.286  1.00  0.00    -0.385 OA
ATOM     11  H   UNL     1     -16.314  41.657  35.477  1.00  0.00     0.211 HD
ENDBRANCH   2  10
BRANCH   3  12
ATOM     12  O   UNL     1     -15.993  41.204  39.174  1.00  0.00    -0.387 OA
ATOM     13  H   UNL     1     -16.125  41.773  39.975  1.00  0.00     0.211 HD
ENDBRANCH   3  12
BRANCH   5  14
ATOM     14  C   UNL     1     -12.447  44.673  39.108  1.00  0.00     0.191 C 
BRANCH  14  15
ATOM     15  O   UNL     1     -11.633  44.178  40.134  1.00  0.00    -0.394 OA
ATOM     16  H   UNL     1     -11.131  43.416  39.745  1.00  0.00     0.210 HD
ENDBRANCH  14  15
ENDBRANCH   5  14
BRANCH   4  17
ATOM     17  O   UNL     1     -13.676  42.349  40.442  1.00  0.00    -0.387 OA
ATOM     18  H   UNL     1     -12.711  42.583  40.467  1.00  0.00     0.211 HD
ENDBRANCH   4  17
TORSDOF 7
ENDMDL
MODEL 6
REMARK VINA RESULT:    -4.755      2.170      4.293
REMARK INTER + INTRA:          -6.263
REMARK INTER:                  -5.839
REMARK INTRA:                  -0.424
REMARK UNBOUND:                -0.118
REMARK SMILES CCO[C@@H]1O[C@@H](CO)[C@H](O)[C@@H](O)[C@@H]1O
REMARK SMILES IDX 4 1 13 2 11 3 9 4 6 5 5 6 3 7 2 8 1 9 14 10 12 12 7 14 8 15
REMARK SMILES IDX 10 17
REMARK H PARENT 14 11 12 13 8 16 10 18
REMARK Flexibility Score: inf
ROOT
ATOM      1  C   UNL     1      -5.636  40.055  26.548  1.00  0.00     0.281 C 
ATOM      2  C   UNL     1      -7.084  40.512  26.265  1.00  0.00     0.202 C 
ATOM      3  C   UNL     1      -7.894  40.589  27.575  1.00  0.00     0.179 C 
ATOM      4  C   UNL     1      -7.123  41.426  28.618  1.00  0.00     0.177 C 
ATOM      5  C   UNL     1      -5.670  40.901  28.746  1.00  0.00     0.178 C 
ATOM      6  O   UNL     1      -5.014  40.926  27.485  1.00  0.00    -0.341 OA
ENDROOT
BRANCH   1   7
ATOM      7  O   UNL     1      -5.618  38.710  26.997  1.00  0.00    -0.350 OA
BRANCH   7   8
ATOM      8  C   UNL     1      -4.700  37.953  26.237  1.00  0.00     0.160 C 
ATOM      9  C   UNL     1      -5.467  36.995  25.340  1.00  0.00     0.035 C 
ENDBRANCH   7   8
ENDBRANCH   1   7
BRANCH   2  10
ATOM     10  O   UNL     1      -7.708  39.675  25.323  1.00  0.00    -0.385 OA
ATOM     11  H   UNL     1      -7.476  38.736  25.548  1.00  0.00     0.211 HD
ENDBRANCH   2  10
BRANCH   3  12
ATOM     12  O   UNL     1      -9.173  41.125  27.346  1.00  0.00    -0.387 OA
ATOM     13  H   UNL     1      -9.693  40.458  26.827  1.00  0.00     0.211 HD
ENDBRANCH   3  12
BRANCH   5  14
ATOM     14  C   UNL     1      -4.867  41.765  29.725  1.00  0.00     0.191 C 
BRANCH  14  15
ATOM     15  O   UNL     1      -5.004  41.258  31.023  1.00  0.00    -0.394 OA
ATOM     16  H   UNL     1      -4.522  41.889  31.618  1.00  0.00     0.210 HD
ENDBRANCH  14  15
ENDBRANCH   5  14
BRANCH   4  17
ATOM     17  O   UNL     1      -7.790  41.403  29.855  1.00  0.00    -0.387 OA
ATOM     18  H   UNL     1      -7.814  40.461  30.168  1.00  0.00     0.211 HD
ENDBRANCH   4  17
TORSDOF 7
ENDMDL
MODEL 7
REMARK VINA RESULT:    -4.745     13.993     15.624
REMARK INTER + INTRA:          -6.250
REMARK INTER:                  -5.875
REMARK INTRA:                  -0.374
REMARK UNBOUND:                -0.118
REMARK SMILES CCO[C@@H]1O[C@@H](CO)[C@H](O)[C@@H](O)[C@@H]1O
REMARK SMILES IDX 4 1 13 2 11 3 9 4 6 5 5 6 3 7 2 8 1 9 14 10 12 12 7 14 8 15
REMARK SMILES IDX 10 17
REMARK H PARENT 14 11 12 13 8 16 10 18
REMARK Flexibility Score: inf
ROOT
ATOM      1  C   UNL     1     -12.964  44.159  37.760  1.00  0.00     0.281 C 
ATOM      2  C   UNL     1     -14.114  43.961  36.750  1.00  0.00     0.202 C 
ATOM      3  C   UNL     1     -14.698  42.538  36.865  1.00  0.00     0.179 C 
ATOM      4  C   UNL     1     -15.045  42.234  38.337  1.00  0.00     0.177 C 
ATOM      5  C   UNL     1     -13.826  42.544  39.243  1.00  0.00     0.178 C 
ATOM      6  O   UNL     1     -13.415  43.896  39.084  1.00  0.00    -0.341 OA
ENDROOT
BRANCH   1   7
ATOM      7  O   UNL     1     -11.854  43.345  37.418  1.00  0.00    -0.350 OA
BRANCH   7   8
ATOM      8  C   UNL     1     -10.690  44.134  37.292  1.00  0.00     0.160 C 
ATOM      9  C   UNL     1      -9.704  43.424  36.379  1.00  0.00     0.035 C 
ENDBRANCH   7   8
ENDBRANCH   1   7
BRANCH   2  10
ATOM     10  O   UNL     1     -13.692  44.238  35.437  1.00  0.00    -0.385 OA
ATOM     11  H   UNL     1     -14.305  43.769  34.813  1.00  0.00     0.211 HD
ENDBRANCH   2  10
BRANCH   3  12
ATOM     12  O   UNL     1     -15.827  42.388  36.040  1.00  0.00    -0.387 OA
ATOM     13  H   UNL     1     -16.400  41.682  36.437  1.00  0.00     0.211 HD
ENDBRANCH   3  12
BRANCH   5  14
ATOM     14  C   UNL     1     -14.175  42.316  40.718  1.00  0.00     0.191 C 
BRANCH  14  15
ATOM     15  O   UNL     1     -14.205  40.943  40.988  1.00  0.00    -0.394 OA
ATOM     16  H   UNL     1     -14.547  40.851  41.915  1.00  0.00     0.210 HD
ENDBRANCH  14  15
ENDBRANCH   5  14
BRANCH   4  17
ATOM     17  O   UNL     1     -15.464  40.899  38.477  1.00  0.00    -0.387 OA
ATOM     18  H   UNL     1     -15.222  40.601  39.393  1.00  0.00     0.211 HD
ENDBRANCH   4  17
TORSDOF 7
ENDMDL
MODEL 8
REMARK VINA RESULT:    -4.744      3.109      6.094
REMARK INTER + INTRA:          -6.248
REMARK INTER:                  -5.820
REMARK INTRA:                  -0.429
REMARK UNBOUND:                -0.118
REMARK SMILES CCO[C@@H]1O[C@@H](CO)[C@H](O)[C@@H](O)[C@@H]1O
REMARK SMILES IDX 4 1 13 2 11 3 9 4 6 5 5 6 3 7 2 8 1 9 14 10 12 12 7 14 8 15
REMARK SMILES IDX 10 17
REMARK H PARENT 14 11 12 13 8 16 10 18
REMARK Flexibility Score: inf
ROOT
ATOM      1  C   UNL     1      -7.535  41.826  28.892  1.00  0.00     0.281 C 
ATOM      2  C   UNL     1      -8.266  40.891  27.904  1.00  0.00     0.202 C 
ATOM      3  C   UNL     1      -7.366  40.569  26.695  1.00  0.00     0.179 C 
ATOM      4  C   UNL     1      -5.989  40.074  27.186  1.00  0.00     0.177 C 
ATOM      5  C   UNL     1      -5.408  41.070  28.221  1.00  0.00     0.178 C 
ATOM      6  O   UNL     1      -6.306  41.245  29.309  1.00  0.00    -0.341 OA
ENDROOT
BRANCH   1   7
ATOM      7  O   UNL     1      -7.335  43.105  28.311  1.00  0.00    -0.350 OA
BRANCH   7   8
ATOM      8  C   UNL     1      -7.329  44.101  29.312  1.00  0.00     0.160 C 
ATOM      9  C   UNL     1      -5.980  44.801  29.310  1.00  0.00     0.035 C 
ENDBRANCH   7   8
ENDBRANCH   1   7
BRANCH   2  10
ATOM     10  O   UNL     1      -9.495  41.441  27.497  1.00  0.00    -0.385 OA
ATOM     11  H   UNL     1     -10.117  40.691  27.304  1.00  0.00     0.211 HD
ENDBRANCH   2  10
BRANCH   3  12
ATOM     12  O   UNL     1      -7.971  39.619  25.854  1.00  0.00    -0.387 OA
ATOM     13  H   UNL     1      -7.958  39.980  24.930  1.00  0.00     0.211 HD
ENDBRANCH   3  12
BRANCH   5  14
ATOM     14  C   UNL     1      -4.073  40.559  28.774  1.00  0.00     0.191 C 
BRANCH  14  15
ATOM     15  O   UNL     1      -3.031  40.943  27.921  1.00  0.00    -0.394 OA
ATOM     16  H   UNL     1      -3.302  41.814  27.529  1.00  0.00     0.210 HD
ENDBRANCH  14  15
ENDBRANCH   5  14
BRANCH   4  17
ATOM     17  O   UNL     1      -5.116  39.892  26.099  1.00  0.00    -0.387 OA
ATOM     18  H   UNL     1      -4.983  38.915  25.978  1.00  0.00     0.211 HD
ENDBRANCH   4  17
TORSDOF 7
ENDMDL
MODEL 9
REMARK VINA RESULT:    -4.672     12.778     14.328
REMARK INTER + INTRA:          -6.156
REMARK INTER:                  -5.752
REMARK INTRA:                  -0.404
REMARK UNBOUND:                -0.118
REMARK SMILES CCO[C@@H]1O[C@@H](CO)[C@H](O)[C@@H](O)[C@@H]1O
REMARK SMILES IDX 4 1 13 2 11 3 9 4 6 5 5 6 3 7 2 8 1 9 14 10 12 12 7 14 8 15
REMARK SMILES IDX 10 17
REMARK H PARENT 14 11 12 13 8 16 10 18
REMARK Flexibility Score: inf
ROOT
ATOM      1  C   UNL     1     -14.040  43.445  35.582  1.00  0.00     0.281 C 
ATOM      2  C   UNL     1     -14.472  44.279  36.807  1.00  0.00     0.202 C 
ATOM      3  C   UNL     1     -13.517  44.035  37.993  1.00  0.00     0.179 C 
ATOM      4  C   UNL     1     -12.056  44.231  37.535  1.00  0.00     0.177 C 
ATOM      5  C   UNL     1     -11.785  43.393  36.260  1.00  0.00     0.178 C 
ATOM      6  O   UNL     1     -12.695  43.744  35.226  1.00  0.00    -0.341 OA
ENDROOT
BRANCH   1   7
ATOM      7  O   UNL     1     -14.215  42.061  35.834  1.00  0.00    -0.350 OA
BRANCH   7   8
ATOM      8  C   UNL     1     -14.686  41.408  34.674  1.00  0.00     0.160 C 
ATOM      9  C   UNL     1     -16.080  40.862  34.942  1.00  0.00     0.035 C 
ENDBRANCH   7   8
ENDBRANCH   1   7
BRANCH   2  10
ATOM     10  O   UNL     1     -15.807  44.012  37.160  1.00  0.00    -0.385 OA
ATOM     11  H   UNL     1     -16.386  44.661  36.679  1.00  0.00     0.211 HD
ENDBRANCH   2  10
BRANCH   3  12
ATOM     12  O   UNL     1     -13.824  44.883  39.071  1.00  0.00    -0.387 OA
ATOM     13  H   UNL     1     -13.519  45.797  38.835  1.00  0.00     0.211 HD
ENDBRANCH   3  12
BRANCH   5  14
ATOM     14  C   UNL     1     -10.360  43.630  35.749  1.00  0.00     0.191 C 
BRANCH  14  15
ATOM     15  O   UNL     1      -9.445  42.973  36.581  1.00  0.00    -0.394 OA
ATOM     16  H   UNL     1      -8.803  42.515  35.978  1.00  0.00     0.210 HD
ENDBRANCH  14  15
ENDBRANCH   5  14
BRANCH   4  17
ATOM     17  O   UNL     1     -11.167  43.893  38.572  1.00  0.00    -0.387 OA
ATOM     18  H   UNL     1     -10.680  43.073  38.296  1.00  0.00     0.211 HD
ENDBRANCH   4  17
TORSDOF 7
ENDMDL
