MODEL 1
REMARK VINA RESULT:    -2.621      0.000      0.000
REMARK INTER + INTRA:          -2.945
REMARK INTER:                  -2.927
REMARK INTRA:                  -0.018
REMARK UNBOUND:                -0.018
REMARK SMILES CCCC(=O)[O-]
REMARK SMILES IDX 3 1 4 2 5 3 6 4 2 5 1 6
REMARK H PARENT
REMARK Flexibility Score: inf
ROOT
ATOM      1  C   UNL     1     -12.056   7.054 -19.372  1.00  0.00     0.052 C 
ENDROOT
BRANCH   1   2
ATOM      2  C   UNL     1     -10.728   7.578 -18.924  1.00  0.00     0.041 C 
ATOM      3  O   UNL     1      -9.749   6.797 -18.796  1.00  0.00    -0.550 OA
ATOM      4  O   UNL     1     -10.560   8.938 -18.695  1.00  0.00    -0.550 OA
ENDBRANCH   1   2
BRANCH   1   5
ATOM      5  C   UNL     1     -12.794   8.104 -20.206  1.00  0.00     0.003 C 
ATOM      6  C   UNL     1     -13.103   7.579 -21.604  1.00  0.00     0.004 C 
ENDBRANCH   1   5
TORSDOF 2
ENDMDL
MODEL 2
REMARK VINA RESULT:    -2.615     10.662     11.602
REMARK INTER + INTRA:          -2.939
REMARK INTER:                  -2.907
REMARK INTRA:                  -0.031
REMARK UNBOUND:                -0.018
REMARK SMILES CCCC(=O)[O-]
REMARK SMILES IDX 3 1 4 2 5 3 6 4 2 5 1 6
REMARK H PARENT
REMARK Flexibility Score: inf
ROOT
ATOM      1  C   UNL     1      -2.204   2.084 -23.081  1.00  0.00     0.052 C 
ENDROOT
BRANCH   1   2
ATOM      2  C   UNL     1      -1.996   0.605 -23.008  1.00  0.00     0.041 C 
ATOM      3  O   UNL     1      -2.265  -0.021 -21.949  1.00  0.00    -0.550 OA
ATOM      4  O   UNL     1      -1.551  -0.090 -24.125  1.00  0.00    -0.550 OA
ENDBRANCH   1   2
BRANCH   1   5
ATOM      5  C   UNL     1      -3.002   2.574 -21.870  1.00  0.00     0.003 C 
ATOM      6  C   UNL     1      -4.327   3.198 -22.300  1.00  0.00     0.004 C 
ENDBRANCH   1   5
TORSDOF 2
ENDMDL
MODEL 3
REMARK VINA RESULT:    -2.593      2.547      3.154
REMARK INTER + INTRA:          -2.914
REMARK INTER:                  -2.876
REMARK INTRA:                  -0.038
REMARK UNBOUND:                -0.018
REMARK SMILES CCCC(=O)[O-]
REMARK SMILES IDX 3 1 4 2 5 3 6 4 2 5 1 6
REMARK H PARENT
REMARK Flexibility Score: inf
ROOT
ATOM      1  C   UNL     1     -13.010   7.386 -21.449  1.00  0.00     0.052 C 
ENDROOT
BRANCH   1   2
ATOM      2  C   UNL     1     -12.239   6.106 -21.385  1.00  0.00     0.041 C 
ATOM      3  O   UNL     1     -12.256   5.409 -20.337  1.00  0.00    -0.550 OA
ATOM      4  O   UNL     1     -11.542   5.659 -22.500  1.00  0.00    -0.550 OA
ENDBRANCH   1   2
BRANCH   1   5
ATOM      5  C   UNL     1     -12.331   8.465 -20.601  1.00  0.00     0.003 C 
ATOM      6  C   UNL     1     -13.113   8.732 -19.319  1.00  0.00     0.004 C 
ENDBRANCH   1   5
TORSDOF 2
ENDMDL
MODEL 4
REMARK VINA RESULT:    -2.592      1.451      1.989
REMARK INTER + INTRA:          -2.914
REMARK INTER:                  -2.901
REMARK INTRA:                  -0.013
REMARK UNBOUND:                -0.018
REMARK SMILES CCCC(=O)[O-]
REMARK SMILES IDX 3 1 4 2 5 3 6 4 2 5 1 6
REMARK H PARENT
REMARK Flexibility Score: inf
ROOT
ATOM      1  C   UNL     1     -11.147   7.286 -19.183  1.00  0.00     0.052 C 
ENDROOT
BRANCH   1   2
ATOM      2  C   UNL     1      -9.759   7.237 -18.628  1.00  0.00     0.041 C 
ATOM      3  O   UNL     1      -9.405   8.052 -17.736  1.00  0.00    -0.550 OA
ATOM      4  O   UNL     1      -8.872   6.260 -19.061  1.00  0.00    -0.550 OA
ENDBRANCH   1   2
BRANCH   1   5
ATOM      5  C   UNL     1     -11.653   8.730 -19.235  1.00  0.00     0.003 C 
ATOM      6  C   UNL     1     -13.163   8.777 -19.451  1.00  0.00     0.004 C 
ENDBRANCH   1   5
TORSDOF 2
ENDMDL
MODEL 5
REMARK VINA RESULT:    -2.561     10.886     11.793
REMARK INTER + INTRA:          -2.879
REMARK INTER:                  -2.821
REMARK INTRA:                  -0.058
REMARK UNBOUND:                -0.018
REMARK SMILES CCCC(=O)[O-]
REMARK SMILES IDX 3 1 4 2 5 3 6 4 2 5 1 6
REMARK H PARENT
REMARK Flexibility Score: inf
ROOT
ATOM      1  C   UNL     1      -2.334   1.034 -21.852  1.00  0.00     0.052 C 
ENDROOT
BRANCH   1   2
ATOM      2  C   UNL     1      -2.812   2.207 -22.648  1.00  0.00     0.041 C 
ATOM      3  O   UNL     1      -2.239   3.322 -22.538  1.00  0.00    -0.550 OA
ATOM      4  O   UNL     1      -3.860   2.056 -23.547  1.00  0.00    -0.550 OA
ENDBRANCH   1   2
BRANCH   1   5
ATOM      5  C   UNL     1      -2.282  -0.222 -22.727  1.00  0.00     0.003 C 
ATOM      6  C   UNL     1      -1.128  -0.151 -23.722  1.00  0.00     0.004 C 
ENDBRANCH   1   5
TORSDOF 2
ENDMDL
MODEL 6
REMARK VINA RESULT:    -2.533      1.565      1.849
REMARK INTER + INTRA:          -2.848
REMARK INTER:                  -2.810
REMARK INTRA:                  -0.038
REMARK UNBOUND:                -0.018
REMARK SMILES CCCC(=O)[O-]
REMARK SMILES IDX 3 1 4 2 5 3 6 4 2 5 1 6
REMARK H PARENT
REMARK Flexibility Score: inf
ROOT
ATOM      1  C   UNL     1     -12.657   8.479 -19.589  1.00  0.00     0.052 C 
ENDROOT
BRANCH   1   2
ATOM      2  C   UNL     1     -11.419   9.316 -19.512  1.00  0.00     0.041 C 
ATOM      3  O   UNL     1     -10.815   9.452 -18.416  1.00  0.00    -0.550 OA
ATOM      4  O   UNL     1     -10.905   9.904 -20.660  1.00  0.00    -0.550 OA
ENDBRANCH   1   2
BRANCH   1   5
ATOM      5  C   UNL     1     -12.435   7.278 -20.512  1.00  0.00     0.003 C 
ATOM      6  C   UNL     1     -13.210   7.436 -21.817  1.00  0.00     0.004 C 
ENDBRANCH   1   5
TORSDOF 2
ENDMDL
MODEL 7
REMARK VINA RESULT:    -2.532      2.574      3.078
REMARK INTER + INTRA:          -2.846
REMARK INTER:                  -2.823
REMARK INTRA:                  -0.023
REMARK UNBOUND:                -0.018
REMARK SMILES CCCC(=O)[O-]
REMARK SMILES IDX 3 1 4 2 5 3 6 4 2 5 1 6
REMARK H PARENT
REMARK Flexibility Score: inf
ROOT
ATOM      1  C   UNL     1     -12.052   7.046 -19.682  1.00  0.00     0.052 C 
ENDROOT
BRANCH   1   2
ATOM      2  C   UNL     1     -12.455   6.636 -21.063  1.00  0.00     0.041 C 
ATOM      3  O   UNL     1     -12.063   5.538 -21.538  1.00  0.00    -0.550 OA
ATOM      4  O   UNL     1     -13.304   7.445 -21.808  1.00  0.00    -0.550 OA
ENDBRANCH   1   2
BRANCH   1   5
ATOM      5  C   UNL     1     -12.411   8.513 -19.432  1.00  0.00     0.003 C 
ATOM      6  C   UNL     1     -11.186   9.313 -18.998  1.00  0.00     0.004 C 
ENDBRANCH   1   5
TORSDOF 2
ENDMDL
MODEL 8
REMARK VINA RESULT:    -2.478      2.164      3.505
REMARK INTER + INTRA:          -2.786
REMARK INTER:                  -2.741
REMARK INTRA:                  -0.045
REMARK UNBOUND:                -0.018
REMARK SMILES CCCC(=O)[O-]
REMARK SMILES IDX 3 1 4 2 5 3 6 4 2 5 1 6
REMARK H PARENT
REMARK Flexibility Score: inf
ROOT
ATOM      1  C   UNL     1     -11.055   9.128 -19.746  1.00  0.00     0.052 C 
ENDROOT
BRANCH   1   2
ATOM      2  C   UNL     1     -12.269   8.319 -19.416  1.00  0.00     0.041 C 
ATOM      3  O   UNL     1     -13.392   8.878 -19.303  1.00  0.00    -0.550 OA
ATOM      4  O   UNL     1     -12.169   6.940 -19.280  1.00  0.00    -0.550 OA
ENDBRANCH   1   2
BRANCH   1   5
ATOM      5  C   UNL     1     -10.471   9.761 -18.481  1.00  0.00     0.003 C 
ATOM      6  C   UNL     1      -9.446   8.839 -17.827  1.00  0.00     0.004 C 
ENDBRANCH   1   5
TORSDOF 2
ENDMDL
MODEL 9
REMARK VINA RESULT:    -2.385     13.487     14.107
REMARK INTER + INTRA:          -2.682
REMARK INTER:                  -2.669
REMARK INTRA:                  -0.013
REMARK UNBOUND:                -0.018
REMARK SMILES CCCC(=O)[O-]
REMARK SMILES IDX 3 1 4 2 5 3 6 4 2 5 1 6
REMARK H PARENT
REMARK Flexibility Score: inf
ROOT
ATOM      1  C   UNL     1     -13.865   8.039  -5.999  1.00  0.00     0.052 C 
ENDROOT
BRANCH   1   2
ATOM      2  C   UNL     1     -12.451   8.513  -6.120  1.00  0.00     0.041 C 
ATOM      3  O   UNL     1     -11.968   9.292  -5.257  1.00  0.00    -0.550 OA
ATOM      4  O   UNL     1     -11.651   8.055  -7.160  1.00  0.00    -0.550 OA
ENDBRANCH   1   2
BRANCH   1   5
ATOM      5  C   UNL     1     -14.627   8.882  -4.974  1.00  0.00     0.003 C 
ATOM      6  C   UNL     1     -16.125   8.881  -5.265  1.00  0.00     0.004 C 
ENDBRANCH   1   5
TORSDOF 2
ENDMDL
