MODEL 1
REMARK VINA RESULT:    -4.707      0.000      0.000
REMARK INTER + INTRA:          -4.509
REMARK INTER:                  -5.808
REMARK INTRA:                   1.299
REMARK UNBOUND:                 1.299
REMARK SMILES C=C1CC[C@@H]2[C@H]([C@@H]3[C@H](C)CC[C@@H]13)C2(C)C
REMARK SMILES IDX 3 1 2 2 1 3 12 4 9 5 8 6 10 7 7 8 11 9 4 11 5 12 6 13 13 14
REMARK SMILES IDX 14 16 15 17
REMARK H PARENT
REMARK Flexibility Score: 80.00
ROOT
ATOM      1  C   UNL     1     145.382 150.299 162.821  1.00  0.00     0.031 C 
ENDROOT
BRANCH   1   2
ATOM      2  C   UNL     1     146.197 149.698 163.957  1.00  0.00    -0.074 C 
ATOM      3  C   UNL     1     146.428 150.456 165.049  1.00  0.00     0.008 C 
BRANCH   2   4
ATOM      4  C   UNL     1     146.573 148.212 163.893  1.00  0.00     0.018 C 
ATOM      5  C   UNL     1     148.185 145.392 162.236  1.00  0.00     0.008 C 
ATOM      6  C   UNL     1     148.320 146.657 163.098  1.00  0.00    -0.010 C 
ATOM      7  C   UNL     1     147.973 146.374 164.563  1.00  0.00     0.004 C 
ATOM      8  C   UNL     1     147.454 147.879 162.678  1.00  0.00     0.003 CG0
ATOM      9  C   UNL     1     147.360 147.659 165.081  1.00  0.00     0.008 C 
ATOM     10  G   UNL     1     146.573 147.644 161.422  1.00  0.00     0.000 G0
ENDBRANCH   2   4
ENDBRANCH   1   2
BRANCH   1  11
ATOM     11  C   UNL     1     146.116 150.251 161.473  1.00  0.00     0.009 C 
BRANCH  11  12
ATOM     12  C   UNL     1     145.905 148.889 160.780  1.00  0.00    -0.001 C 
ATOM     13  C   UNL     1     146.582 147.662 161.414  1.00  0.00     0.002 CG0
ATOM     14  C   UNL     1     147.036 148.161 160.030  1.00  0.00    -0.029 C 
ATOM     15  G   UNL     1     147.468 147.906 162.665  1.00  0.00     0.000 G0
ATOM     16  C   UNL     1     148.444 148.767 159.872  1.00  0.00     0.011 C 
ATOM     17  C   UNL     1     146.579 147.264 158.873  1.00  0.00     0.011 C 
ENDBRANCH  11  12
ENDBRANCH   1  11
TORSDOF 0
ENDMDL
MODEL 2
REMARK VINA RESULT:    -4.555      5.645      7.193
REMARK INTER + INTRA:          -4.321
REMARK INTER:                  -5.600
REMARK INTRA:                   1.279
REMARK UNBOUND:                 1.299
REMARK SMILES C=C1CC[C@@H]2[C@H]([C@@H]3[C@H](C)CC[C@@H]13)C2(C)C
REMARK SMILES IDX 3 1 2 2 1 3 12 4 9 5 8 6 10 7 7 8 11 9 4 11 5 12 6 13 13 14
REMARK SMILES IDX 14 16 15 17
REMARK H PARENT
REMARK Flexibility Score: 80.00
ROOT
ATOM      1  C   UNL     1     142.366 145.565 163.452  1.00  0.00     0.031 C 
ENDROOT
BRANCH   1   2
ATOM      2  C   UNL     1     141.705 144.951 162.226  1.00  0.00    -0.074 C 
ATOM      3  C   UNL     1     140.467 145.370 161.890  1.00  0.00     0.008 C 
BRANCH   2   4
ATOM      4  C   UNL     1     142.529 144.017 161.331  1.00  0.00     0.018 C 
ATOM      5  C   UNL     1     144.528 141.007 160.834  1.00  0.00     0.008 C 
ATOM      6  C   UNL     1     143.140 141.646 160.994  1.00  0.00    -0.010 C 
ATOM      7  C   UNL     1     142.659 142.271 159.680  1.00  0.00     0.004 C 
ATOM      8  C   UNL     1     143.008 142.758 162.074  1.00  0.00     0.003 CG0
ATOM      9  C   UNL     1     141.823 143.466 160.092  1.00  0.00     0.008 C 
ATOM     10  G   UNL     1     144.315 143.058 162.855  1.00  0.00     0.000 G0
ENDBRANCH   2   4
ENDBRANCH   1   2
BRANCH   1  11
ATOM     11  C   UNL     1     142.815 144.512 164.475  1.00  0.00     0.009 C 
BRANCH  11  12
ATOM     12  C   UNL     1     144.212 143.961 164.121  1.00  0.00    -0.001 C 
ATOM     13  C   UNL     1     144.325 143.077 162.866  1.00  0.00     0.002 CG0
ATOM     14  C   UNL     1     144.571 142.471 164.260  1.00  0.00    -0.029 C 
ATOM     15  G   UNL     1     143.014 142.766 162.096  1.00  0.00     0.000 G0
ATOM     16  C   UNL     1     143.578 141.431 164.815  1.00  0.00     0.011 C 
ATOM     17  C   UNL     1     146.049 142.180 164.551  1.00  0.00     0.011 C 
ENDBRANCH  11  12
ENDBRANCH   1  11
TORSDOF 0
ENDMDL
MODEL 3
REMARK VINA RESULT:    -4.519      4.304      5.014
REMARK INTER + INTRA:          -4.277
REMARK INTER:                  -5.625
REMARK INTRA:                   1.348
REMARK UNBOUND:                 1.299
REMARK SMILES C=C1CC[C@@H]2[C@H]([C@@H]3[C@H](C)CC[C@@H]13)C2(C)C
REMARK SMILES IDX 3 1 2 2 1 3 12 4 9 5 8 6 10 7 7 8 11 9 4 11 5 12 6 13 13 14
REMARK SMILES IDX 14 16 15 17
REMARK H PARENT
REMARK Flexibility Score: 80.00
ROOT
ATOM      1  C   UNL     1     140.489 145.465 162.533  1.00  0.00     0.031 C 
ENDROOT
BRANCH   1   2
ATOM      2  C   UNL     1     141.064 146.184 163.745  1.00  0.00    -0.074 C 
ATOM      3  C   UNL     1     140.268 146.362 164.820  1.00  0.00     0.008 C 
BRANCH   2   4
ATOM      4  C   UNL     1     142.560 146.522 163.765  1.00  0.00     0.018 C 
ATOM      5  C   UNL     1     145.491 148.139 162.317  1.00  0.00     0.008 C 
ATOM      6  C   UNL     1     144.192 148.264 163.129  1.00  0.00    -0.010 C 
ATOM      7  C   UNL     1     144.402 147.835 164.585  1.00  0.00     0.004 C 
ATOM      8  C   UNL     1     142.969 147.454 162.612  1.00  0.00     0.003 CG0
ATOM      9  C   UNL     1     143.079 147.233 165.015  1.00  0.00     0.008 C 
ATOM     10  G   UNL     1     143.237 146.632 161.324  1.00  0.00     0.000 G0
ENDBRANCH   2   4
ENDBRANCH   1   2
BRANCH   1  11
ATOM     11  C   UNL     1     140.628 146.277 161.238  1.00  0.00     0.009 C 
BRANCH  11  12
ATOM     12  C   UNL     1     142.011 146.051 160.592  1.00  0.00    -0.001 C 
ATOM     13  C   UNL     1     143.233 146.641 161.316  1.00  0.00     0.002 CG0
ATOM     14  C   UNL     1     142.814 147.192 159.941  1.00  0.00    -0.029 C 
ATOM     15  G   UNL     1     142.967 147.464 162.604  1.00  0.00     0.000 G0
ATOM     16  C   UNL     1     142.269 148.631 159.840  1.00  0.00     0.011 C 
ATOM     17  C   UNL     1     143.744 146.765 158.799  1.00  0.00     0.011 C 
ENDBRANCH  11  12
ENDBRANCH   1  11
TORSDOF 0
ENDMDL
MODEL 4
REMARK VINA RESULT:    -4.496      5.654      7.308
REMARK INTER + INTRA:          -4.248
REMARK INTER:                  -5.575
REMARK INTRA:                   1.326
REMARK UNBOUND:                 1.299
REMARK SMILES C=C1CC[C@@H]2[C@H]([C@@H]3[C@H](C)CC[C@@H]13)C2(C)C
REMARK SMILES IDX 3 1 2 2 1 3 12 4 9 5 8 6 10 7 7 8 11 9 4 11 5 12 6 13 13 14
REMARK SMILES IDX 14 16 15 17
REMARK H PARENT
REMARK Flexibility Score: 80.00
ROOT
ATOM      1  C   UNL     1     144.996 140.302 163.205  1.00  0.00     0.031 C 
ENDROOT
BRANCH   1   2
ATOM      2  C   UNL     1     143.960 141.109 163.973  1.00  0.00    -0.074 C 
ATOM      3  C   UNL     1     143.340 140.524 165.019  1.00  0.00     0.008 C 
BRANCH   2   4
ATOM      4  C   UNL     1     143.786 142.597 163.643  1.00  0.00     0.018 C 
ATOM      5  C   UNL     1     143.061 145.284 161.286  1.00  0.00     0.008 C 
ATOM      6  C   UNL     1     142.537 144.158 162.191  1.00  0.00    -0.010 C 
ATOM      7  C   UNL     1     142.463 144.607 163.654  1.00  0.00     0.004 C 
ATOM      8  C   UNL     1     143.348 142.831 162.187  1.00  0.00     0.003 CG0
ATOM      9  C   UNL     1     142.748 143.359 164.466  1.00  0.00     0.008 C 
ATOM     10  G   UNL     1     144.583 142.831 161.247  1.00  0.00     0.000 G0
ENDBRANCH   2   4
ENDBRANCH   1   2
BRANCH   1  11
ATOM     11  C   UNL     1     144.701 140.235 161.699  1.00  0.00     0.009 C 
BRANCH  11  12
ATOM     12  C   UNL     1     145.270 141.470 160.972  1.00  0.00    -0.001 C 
ATOM     13  C   UNL     1     144.592 142.824 161.242  1.00  0.00     0.002 CG0
ATOM     14  C   UNL     1     144.508 142.187 159.843  1.00  0.00    -0.029 C 
ATOM     15  G   UNL     1     143.354 142.825 162.178  1.00  0.00     0.000 G0
ATOM     16  C   UNL     1     143.145 141.689 159.322  1.00  0.00     0.011 C 
ATOM     17  C   UNL     1     145.391 142.881 158.798  1.00  0.00     0.011 C 
ENDBRANCH  11  12
ENDBRANCH   1  11
TORSDOF 0
ENDMDL
MODEL 5
REMARK VINA RESULT:    -4.463      4.005      6.404
REMARK INTER + INTRA:          -4.208
REMARK INTER:                  -5.592
REMARK INTRA:                   1.384
REMARK UNBOUND:                 1.299
REMARK SMILES C=C1CC[C@@H]2[C@H]([C@@H]3[C@H](C)CC[C@@H]13)C2(C)C
REMARK SMILES IDX 3 1 2 2 1 3 12 4 9 5 8 6 10 7 7 8 11 9 4 11 5 12 6 13 13 14
REMARK SMILES IDX 14 16 15 17
REMARK H PARENT
REMARK Flexibility Score: 80.00
ROOT
ATOM      1  C   UNL     1     145.372 142.346 163.638  1.00  0.00     0.031 C 
ENDROOT
BRANCH   1   2
ATOM      2  C   UNL     1     145.889 141.709 162.357  1.00  0.00    -0.074 C 
ATOM      3  C   UNL     1     145.432 140.484 162.021  1.00  0.00     0.008 C 
BRANCH   2   4
ATOM      4  C   UNL     1     146.768 142.544 161.416  1.00  0.00     0.018 C 
ATOM      5  C   UNL     1     149.729 144.573 160.771  1.00  0.00     0.008 C 
ATOM      6  C   UNL     1     149.112 143.177 160.959  1.00  0.00    -0.010 C 
ATOM      7  C   UNL     1     148.425 142.695 159.678  1.00  0.00     0.004 C 
ATOM      8  C   UNL     1     148.059 143.032 162.095  1.00  0.00     0.003 CG0
ATOM      9  C   UNL     1     147.260 141.846 160.148  1.00  0.00     0.008 C 
ATOM     10  G   UNL     1     147.787 144.334 162.894  1.00  0.00     0.000 G0
ENDBRANCH   2   4
ENDBRANCH   1   2
BRANCH   1  11
ATOM     11  C   UNL     1     146.501 142.791 164.579  1.00  0.00     0.009 C 
BRANCH  11  12
ATOM     12  C   UNL     1     147.004 144.201 164.207  1.00  0.00    -0.001 C 
ATOM     13  C   UNL     1     147.797 144.345 162.896  1.00  0.00     0.002 CG0
ATOM     14  C   UNL     1     148.495 144.583 164.248  1.00  0.00    -0.029 C 
ATOM     15  G   UNL     1     148.075 143.050 162.088  1.00  0.00     0.000 G0
ATOM     16  C   UNL     1     149.585 143.599 164.716  1.00  0.00     0.011 C 
ATOM     17  C   UNL     1     148.781 146.061 164.539  1.00  0.00     0.011 C 
ENDBRANCH  11  12
ENDBRANCH   1  11
TORSDOF 0
ENDMDL
MODEL 6
REMARK VINA RESULT:    -4.451      3.703      4.986
REMARK INTER + INTRA:          -4.193
REMARK INTER:                  -5.507
REMARK INTRA:                   1.314
REMARK UNBOUND:                 1.299
REMARK SMILES C=C1CC[C@@H]2[C@H]([C@@H]3[C@H](C)CC[C@@H]13)C2(C)C
REMARK SMILES IDX 3 1 2 2 1 3 12 4 9 5 8 6 10 7 7 8 11 9 4 11 5 12 6 13 13 14
REMARK SMILES IDX 14 16 15 17
REMARK H PARENT
REMARK Flexibility Score: 80.00
ROOT
ATOM      1  C   UNL     1     150.695 144.806 163.504  1.00  0.00     0.031 C 
ENDROOT
BRANCH   1   2
ATOM      2  C   UNL     1     149.747 143.878 164.251  1.00  0.00    -0.074 C 
ATOM      3  C   UNL     1     150.266 143.041 165.174  1.00  0.00     0.008 C 
BRANCH   2   4
ATOM      4  C   UNL     1     148.235 144.048 164.053  1.00  0.00     0.018 C 
ATOM      5  C   UNL     1     145.283 144.147 161.914  1.00  0.00     0.008 C 
ATOM      6  C   UNL     1     146.338 143.309 162.653  1.00  0.00    -0.010 C 
ATOM      7  C   UNL     1     145.997 143.169 164.140  1.00  0.00     0.004 C 
ATOM      8  C   UNL     1     147.803 143.829 162.593  1.00  0.00     0.003 CG0
ATOM      9  C   UNL     1     147.335 143.103 164.849  1.00  0.00     0.008 C 
ATOM     10  G   UNL     1     147.993 145.132 161.773  1.00  0.00     0.000 G0
ENDBRANCH   2   4
ENDBRANCH   1   2
BRANCH   1  11
ATOM     11  C   UNL     1     150.586 144.665 161.979  1.00  0.00     0.009 C 
BRANCH  11  12
ATOM     12  C   UNL     1     149.449 145.548 161.425  1.00  0.00    -0.001 C 
ATOM     13  C   UNL     1     148.006 145.138 161.768  1.00  0.00     0.002 CG0
ATOM     14  C   UNL     1     148.500 145.068 160.311  1.00  0.00    -0.029 C 
ATOM     15  G   UNL     1     147.813 143.839 162.593  1.00  0.00     0.000 G0
ATOM     16  C   UNL     1     148.654 143.693 159.633  1.00  0.00     0.011 C 
ATOM     17  C   UNL     1     147.933 146.177 159.416  1.00  0.00     0.011 C 
ENDBRANCH  11  12
ENDBRANCH   1  11
TORSDOF 0
ENDMDL
MODEL 7
REMARK VINA RESULT:    -4.424      1.190      4.390
REMARK INTER + INTRA:          -4.159
REMARK INTER:                  -5.490
REMARK INTRA:                   1.331
REMARK UNBOUND:                 1.299
REMARK SMILES C=C1CC[C@@H]2[C@H]([C@@H]3[C@H](C)CC[C@@H]13)C2(C)C
REMARK SMILES IDX 3 1 2 2 1 3 12 4 9 5 8 6 10 7 7 8 11 9 4 11 5 12 6 13 13 14
REMARK SMILES IDX 14 16 15 17
REMARK H PARENT
REMARK Flexibility Score: 80.00
ROOT
ATOM      1  C   UNL     1     148.253 145.482 164.094  1.00  0.00     0.031 C 
ENDROOT
BRANCH   1   2
ATOM      2  C   UNL     1     148.982 145.834 162.805  1.00  0.00    -0.074 C 
ATOM      3  C   UNL     1     150.211 145.313 162.603  1.00  0.00     0.008 C 
BRANCH   2   4
ATOM      4  C   UNL     1     148.233 146.618 161.721  1.00  0.00     0.018 C 
ATOM      5  C   UNL     1     146.361 149.544 160.609  1.00  0.00     0.008 C 
ATOM      6  C   UNL     1     147.719 148.908 160.948  1.00  0.00    -0.010 C 
ATOM      7  C   UNL     1     148.238 148.052 159.789  1.00  0.00     0.004 C 
ATOM      8  C   UNL     1     147.763 147.998 162.209  1.00  0.00     0.003 CG0
ATOM      9  C   UNL     1     149.014 146.927 160.443  1.00  0.00     0.008 C 
ATOM     10  G   UNL     1     146.412 147.872 162.962  1.00  0.00     0.000 G0
ENDBRANCH   2   4
ENDBRANCH   1   2
BRANCH   1  11
ATOM     11  C   UNL     1     147.807 146.721 164.882  1.00  0.00     0.009 C 
BRANCH  11  12
ATOM     12  C   UNL     1     146.443 147.234 164.377  1.00  0.00    -0.001 C 
ATOM     13  C   UNL     1     146.402 147.867 162.976  1.00  0.00     0.002 CG0
ATOM     14  C   UNL     1     146.132 148.734 164.219  1.00  0.00    -0.029 C 
ATOM     15  G   UNL     1     147.747 147.991 162.211  1.00  0.00     0.000 G0
ATOM     16  C   UNL     1     147.143 149.831 164.607  1.00  0.00     0.011 C 
ATOM     17  C   UNL     1     144.656 149.115 164.393  1.00  0.00     0.011 C 
ENDBRANCH  11  12
ENDBRANCH   1  11
TORSDOF 0
ENDMDL
MODEL 8
REMARK VINA RESULT:    -4.410      4.432      5.851
REMARK INTER + INTRA:          -4.142
REMARK INTER:                  -5.452
REMARK INTRA:                   1.310
REMARK UNBOUND:                 1.299
REMARK SMILES C=C1CC[C@@H]2[C@H]([C@@H]3[C@H](C)CC[C@@H]13)C2(C)C
REMARK SMILES IDX 3 1 2 2 1 3 12 4 9 5 8 6 10 7 7 8 11 9 4 11 5 12 6 13 13 14
REMARK SMILES IDX 14 16 15 17
REMARK H PARENT
REMARK Flexibility Score: 80.00
ROOT
ATOM      1  C   UNL     1     141.059 147.618 160.346  1.00  0.00     0.031 C 
ENDROOT
BRANCH   1   2
ATOM      2  C   UNL     1     142.519 148.046 160.343  1.00  0.00    -0.074 C 
ATOM      3  C   UNL     1     143.121 148.256 159.154  1.00  0.00     0.008 C 
BRANCH   2   4
ATOM      4  C   UNL     1     143.194 148.386 161.677  1.00  0.00     0.018 C 
ATOM      5  C   UNL     1     144.218 147.489 165.061  1.00  0.00     0.008 C 
ATOM      6  C   UNL     1     144.468 147.394 163.547  1.00  0.00    -0.010 C 
ATOM      7  C   UNL     1     145.175 148.646 163.019  1.00  0.00     0.004 C 
ATOM      8  C   UNL     1     143.215 147.193 162.649  1.00  0.00     0.003 CG0
ATOM      9  C   UNL     1     144.656 148.827 161.607  1.00  0.00     0.008 C 
ATOM     10  G   UNL     1     141.873 147.106 163.423  1.00  0.00     0.000 G0
ENDBRANCH   2   4
ENDBRANCH   1   2
BRANCH   1  11
ATOM     11  C   UNL     1     140.821 146.319 161.129  1.00  0.00     0.009 C 
BRANCH  11  12
ATOM     12  C   UNL     1     140.629 146.610 162.632  1.00  0.00    -0.001 C 
ATOM     13  C   UNL     1     141.859 147.092 163.420  1.00  0.00     0.002 CG0
ATOM     14  C   UNL     1     141.238 145.718 163.729  1.00  0.00    -0.029 C 
ATOM     15  G   UNL     1     143.203 147.191 162.651  1.00  0.00     0.000 G0
ATOM     16  C   UNL     1     142.037 144.440 163.405  1.00  0.00     0.011 C 
ATOM     17  C   UNL     1     140.455 145.680 165.048  1.00  0.00     0.011 C 
ENDBRANCH  11  12
ENDBRANCH   1  11
TORSDOF 0
ENDMDL
MODEL 9
REMARK VINA RESULT:    -4.323      3.486      4.298
REMARK INTER + INTRA:          -4.035
REMARK INTER:                  -5.367
REMARK INTRA:                   1.332
REMARK UNBOUND:                 1.299
REMARK SMILES C=C1CC[C@@H]2[C@H]([C@@H]3[C@H](C)CC[C@@H]13)C2(C)C
REMARK SMILES IDX 3 1 2 2 1 3 12 4 9 5 8 6 10 7 7 8 11 9 4 11 5 12 6 13 13 14
REMARK SMILES IDX 14 16 15 17
REMARK H PARENT
REMARK Flexibility Score: 80.00
ROOT
ATOM      1  C   UNL     1     143.326 148.063 163.026  1.00  0.00     0.031 C 
ENDROOT
BRANCH   1   2
ATOM      2  C   UNL     1     142.640 146.968 163.830  1.00  0.00    -0.074 C 
ATOM      3  C   UNL     1     141.423 147.225 164.353  1.00  0.00     0.008 C 
BRANCH   2   4
ATOM      4  C   UNL     1     143.273 145.571 163.870  1.00  0.00     0.018 C 
ATOM      5  C   UNL     1     146.070 143.349 164.605  1.00  0.00     0.008 C 
ATOM      6  C   UNL     1     144.880 144.174 165.122  1.00  0.00    -0.010 C 
ATOM      7  C   UNL     1     143.557 143.427 164.925  1.00  0.00     0.004 C 
ATOM      8  C   UNL     1     144.682 145.579 164.486  1.00  0.00     0.003 CG0
ATOM      9  C   UNL     1     142.525 144.509 164.676  1.00  0.00     0.008 C 
ATOM     10  G   UNL     1     145.737 145.957 163.413  1.00  0.00     0.000 G0
ENDBRANCH   2   4
ENDBRANCH   1   2
BRANCH   1  11
ATOM     11  C   UNL     1     144.734 148.388 163.545  1.00  0.00     0.009 C 
BRANCH  11  12
ATOM     12  C   UNL     1     145.778 147.426 162.944  1.00  0.00    -0.001 C 
ATOM     13  C   UNL     1     145.742 145.961 163.413  1.00  0.00     0.002 CG0
ATOM     14  C   UNL     1     146.945 146.853 163.770  1.00  0.00    -0.029 C 
ATOM     15  G   UNL     1     144.695 145.587 164.495  1.00  0.00     0.000 G0
ATOM     16  C   UNL     1     147.183 147.244 165.241  1.00  0.00     0.011 C 
ATOM     17  C   UNL     1     148.211 146.525 162.969  1.00  0.00     0.011 C 
ENDBRANCH  11  12
ENDBRANCH   1  11
TORSDOF 0
ENDMDL
