MODEL 1
REMARK VINA RESULT:    -4.558      0.000      0.000
REMARK INTER + INTRA:          -8.946
REMARK INTER:                  -8.289
REMARK INTRA:                  -0.657
REMARK UNBOUND:                -0.657
REMARK SMILES CCCCCCCCCCCCCCCC(=O)[O-]
REMARK SMILES IDX 9 1 10 2 11 3 12 4 13 5 14 6 15 7 16 8 17 9 18 10 8 11 7 12
REMARK SMILES IDX 6 13 5 14 4 15 3 16 2 17 1 18
REMARK H PARENT
REMARK Flexibility Score: inf
ROOT
ATOM      1  C   UNL     1      -0.819  -6.795  -2.401  1.00  0.00     0.000 C 
ENDROOT
BRANCH   1   2
ATOM      2  C   UNL     1      -0.992  -8.316  -2.262  1.00  0.00     0.000 C 
BRANCH   2   3
ATOM      3  C   UNL     1      -0.727  -8.811  -0.829  1.00  0.00     0.000 C 
BRANCH   3   4
ATOM      4  C   UNL     1      -1.642  -9.979  -0.431  1.00  0.00     0.000 C 
BRANCH   4   5
ATOM      5  C   UNL     1      -1.114 -10.751   0.791  1.00  0.00     0.000 C 
BRANCH   5   6
ATOM      6  C   UNL     1      -2.046 -10.641   2.009  1.00  0.00     0.006 C 
BRANCH   6   7
ATOM      7  C   UNL     1      -2.195  -9.197   2.507  1.00  0.00     0.053 C 
BRANCH   7   8
ATOM      8  C   UNL     1      -2.545  -9.181   3.961  1.00  0.00     0.041 C 
ATOM      9  O   UNL     1      -2.909 -10.241   4.536  1.00  0.00    -0.550 OA
ATOM     10  O   UNL     1      -2.422  -8.008   4.694  1.00  0.00    -0.550 OA
ENDBRANCH   7   8
ENDBRANCH   6   7
ENDBRANCH   5   6
ENDBRANCH   4   5
ENDBRANCH   3   4
ENDBRANCH   2   3
ENDBRANCH   1   2
BRANCH   1  11
ATOM     11  C   UNL     1       0.431  -6.275  -1.668  1.00  0.00     0.000 C 
BRANCH  11  12
ATOM     12  C   UNL     1       0.780  -4.826  -2.046  1.00  0.00    -0.000 C 
BRANCH  12  13
ATOM     13  C   UNL     1       0.321  -3.812  -0.983  1.00  0.00    -0.000 C 
BRANCH  13  14
ATOM     14  C   UNL     1       0.699  -2.361  -1.335  1.00  0.00    -0.000 C 
BRANCH  14  15
ATOM     15  C   UNL     1       1.063  -2.123  -2.812  1.00  0.00    -0.000 C 
BRANCH  15  16
ATOM     16  C   UNL     1       2.533  -1.710  -3.008  1.00  0.00    -0.000 C 
BRANCH  16  17
ATOM     17  C   UNL     1       3.028  -0.760  -1.907  1.00  0.00    -0.003 C 
ATOM     18  C   UNL     1       4.544  -0.568  -1.931  1.00  0.00     0.004 C 
ENDBRANCH  16  17
ENDBRANCH  15  16
ENDBRANCH  14  15
ENDBRANCH  13  14
ENDBRANCH  12  13
ENDBRANCH  11  12
ENDBRANCH   1  11
TORSDOF 14
ENDMDL
MODEL 2
REMARK VINA RESULT:    -4.390      8.787     11.361
REMARK INTER + INTRA:          -8.640
REMARK INTER:                  -6.748
REMARK INTRA:                  -1.892
REMARK UNBOUND:                -0.657
REMARK SMILES CCCCCCCCCCCCCCCC(=O)[O-]
REMARK SMILES IDX 9 1 10 2 11 3 12 4 13 5 14 6 15 7 16 8 17 9 18 10 8 11 7 12
REMARK SMILES IDX 6 13 5 14 4 15 3 16 2 17 1 18
REMARK H PARENT
REMARK Flexibility Score: inf
ROOT
ATOM      1  C   UNL     1      -8.181  -5.165   5.192  1.00  0.00     0.000 C 
ENDROOT
BRANCH   1   2
ATOM      2  C   UNL     1      -9.428  -4.729   5.978  1.00  0.00     0.000 C 
BRANCH   2   3
ATOM      3  C   UNL     1      -9.311  -3.294   6.521  1.00  0.00     0.000 C 
BRANCH   3   4
ATOM      4  C   UNL     1      -8.481  -3.218   7.812  1.00  0.00     0.000 C 
BRANCH   4   5
ATOM      5  C   UNL     1      -7.274  -2.272   7.682  1.00  0.00     0.000 C 
BRANCH   5   6
ATOM      6  C   UNL     1      -7.491  -1.177   6.624  1.00  0.00     0.006 C 
BRANCH   6   7
ATOM      7  C   UNL     1      -6.190  -0.460   6.244  1.00  0.00     0.053 C 
BRANCH   7   8
ATOM      8  C   UNL     1      -6.027   0.788   7.052  1.00  0.00     0.041 C 
ATOM      9  O   UNL     1      -7.031   1.335   7.581  1.00  0.00    -0.550 OA
ATOM     10  O   UNL     1      -4.762   1.321   7.263  1.00  0.00    -0.550 OA
ENDBRANCH   7   8
ENDBRANCH   6   7
ENDBRANCH   5   6
ENDBRANCH   4   5
ENDBRANCH   3   4
ENDBRANCH   2   3
ENDBRANCH   1   2
BRANCH   1  11
ATOM     11  C   UNL     1      -7.611  -6.505   5.689  1.00  0.00     0.000 C 
BRANCH  11  12
ATOM     12  C   UNL     1      -7.295  -6.494   7.194  1.00  0.00    -0.000 C 
BRANCH  12  13
ATOM     13  C   UNL     1      -5.875  -5.985   7.494  1.00  0.00    -0.000 C 
BRANCH  13  14
ATOM     14  C   UNL     1      -4.855  -6.376   6.407  1.00  0.00    -0.000 C 
BRANCH  14  15
ATOM     15  C   UNL     1      -3.862  -5.267   6.017  1.00  0.00    -0.000 C 
BRANCH  15  16
ATOM     16  C   UNL     1      -4.556  -4.011   5.459  1.00  0.00    -0.000 C 
BRANCH  16  17
ATOM     17  C   UNL     1      -3.675  -2.757   5.564  1.00  0.00    -0.003 C 
ATOM     18  C   UNL     1      -2.249  -3.073   6.013  1.00  0.00     0.004 C 
ENDBRANCH  16  17
ENDBRANCH  15  16
ENDBRANCH  14  15
ENDBRANCH  13  14
ENDBRANCH  12  13
ENDBRANCH  11  12
ENDBRANCH   1  11
TORSDOF 14
ENDMDL
MODEL 3
REMARK VINA RESULT:    -4.252      9.144     11.773
REMARK INTER + INTRA:          -8.390
REMARK INTER:                  -6.454
REMARK INTRA:                  -1.936
REMARK UNBOUND:                -0.657
REMARK SMILES CCCCCCCCCCCCCCCC(=O)[O-]
REMARK SMILES IDX 9 1 10 2 11 3 12 4 13 5 14 6 15 7 16 8 17 9 18 10 8 11 7 12
REMARK SMILES IDX 6 13 5 14 4 15 3 16 2 17 1 18
REMARK H PARENT
REMARK Flexibility Score: inf
ROOT
ATOM      1  C   UNL     1      -3.012  -4.374   6.524  1.00  0.00     0.000 C 
ENDROOT
BRANCH   1   2
ATOM      2  C   UNL     1      -3.359  -3.063   5.800  1.00  0.00     0.000 C 
BRANCH   2   3
ATOM      3  C   UNL     1      -4.656  -3.168   4.979  1.00  0.00     0.000 C 
BRANCH   3   4
ATOM      4  C   UNL     1      -5.716  -2.146   5.415  1.00  0.00     0.000 C 
BRANCH   4   5
ATOM      5  C   UNL     1      -6.486  -2.594   6.670  1.00  0.00     0.000 C 
BRANCH   5   6
ATOM      6  C   UNL     1      -6.620  -1.473   7.713  1.00  0.00     0.006 C 
BRANCH   6   7
ATOM      7  C   UNL     1      -5.374  -0.581   7.782  1.00  0.00     0.053 C 
BRANCH   7   8
ATOM      8  C   UNL     1      -5.725   0.833   7.442  1.00  0.00     0.041 C 
ATOM      9  O   UNL     1      -6.920   1.223   7.515  1.00  0.00    -0.550 OA
ATOM     10  O   UNL     1      -4.727   1.734   7.093  1.00  0.00    -0.550 OA
ENDBRANCH   7   8
ENDBRANCH   6   7
ENDBRANCH   5   6
ENDBRANCH   4   5
ENDBRANCH   3   4
ENDBRANCH   2   3
ENDBRANCH   1   2
BRANCH   1  11
ATOM     11  C   UNL     1      -3.569  -4.420   7.958  1.00  0.00     0.000 C 
BRANCH  11  12
ATOM     12  C   UNL     1      -4.692  -5.457   8.125  1.00  0.00    -0.000 C 
BRANCH  12  13
ATOM     13  C   UNL     1      -5.002  -6.206   6.817  1.00  0.00    -0.000 C 
BRANCH  13  14
ATOM     14  C   UNL     1      -6.181  -7.188   6.954  1.00  0.00    -0.000 C 
BRANCH  14  15
ATOM     15  C   UNL     1      -7.234  -7.101   5.834  1.00  0.00    -0.000 C 
BRANCH  15  16
ATOM     16  C   UNL     1      -7.445  -5.666   5.320  1.00  0.00    -0.000 C 
BRANCH  16  17
ATOM     17  C   UNL     1      -8.878  -5.164   5.550  1.00  0.00    -0.003 C 
ATOM     18  C   UNL     1      -9.893  -6.302   5.651  1.00  0.00     0.004 C 
ENDBRANCH  16  17
ENDBRANCH  15  16
ENDBRANCH  14  15
ENDBRANCH  13  14
ENDBRANCH  12  13
ENDBRANCH  11  12
ENDBRANCH   1  11
TORSDOF 14
ENDMDL
MODEL 4
REMARK VINA RESULT:    -4.204      9.074     12.064
REMARK INTER + INTRA:          -8.302
REMARK INTER:                  -6.489
REMARK INTRA:                  -1.813
REMARK UNBOUND:                -0.657
REMARK SMILES CCCCCCCCCCCCCCCC(=O)[O-]
REMARK SMILES IDX 9 1 10 2 11 3 12 4 13 5 14 6 15 7 16 8 17 9 18 10 8 11 7 12
REMARK SMILES IDX 6 13 5 14 4 15 3 16 2 17 1 18
REMARK H PARENT
REMARK Flexibility Score: inf
ROOT
ATOM      1  C   UNL     1      -5.321  -5.118   7.456  1.00  0.00     0.000 C 
ENDROOT
BRANCH   1   2
ATOM      2  C   UNL     1      -5.599  -5.337   5.960  1.00  0.00     0.000 C 
BRANCH   2   3
ATOM      3  C   UNL     1      -5.666  -4.016   5.173  1.00  0.00     0.000 C 
BRANCH   3   4
ATOM      4  C   UNL     1      -4.286  -3.367   4.991  1.00  0.00     0.000 C 
BRANCH   4   5
ATOM      5  C   UNL     1      -4.076  -2.156   5.919  1.00  0.00     0.000 C 
BRANCH   5   6
ATOM      6  C   UNL     1      -5.320  -1.257   6.006  1.00  0.00     0.006 C 
BRANCH   6   7
ATOM      7  C   UNL     1      -5.509  -0.648   7.402  1.00  0.00     0.053 C 
BRANCH   7   8
ATOM      8  C   UNL     1      -5.775   0.820   7.299  1.00  0.00     0.041 C 
ATOM      9  O   UNL     1      -6.947   1.262   7.433  1.00  0.00    -0.550 OA
ATOM     10  O   UNL     1      -4.723   1.706   7.105  1.00  0.00    -0.550 OA
ENDBRANCH   7   8
ENDBRANCH   6   7
ENDBRANCH   5   6
ENDBRANCH   4   5
ENDBRANCH   3   4
ENDBRANCH   2   3
ENDBRANCH   1   2
BRANCH   1  11
ATOM     11  C   UNL     1      -6.371  -4.211   8.123  1.00  0.00     0.000 C 
BRANCH  11  12
ATOM     12  C   UNL     1      -7.802  -4.752   7.976  1.00  0.00    -0.000 C 
BRANCH  12  13
ATOM     13  C   UNL     1      -8.712  -3.803   7.177  1.00  0.00    -0.000 C 
BRANCH  13  14
ATOM     14  C   UNL     1      -9.713  -4.550   6.274  1.00  0.00    -0.000 C 
BRANCH  14  15
ATOM     15  C   UNL     1      -9.252  -5.942   5.804  1.00  0.00    -0.000 C 
BRANCH  15  16
ATOM     16  C   UNL     1      -8.762  -5.949   4.345  1.00  0.00    -0.000 C 
BRANCH  16  17
ATOM     17  C   UNL     1      -8.966  -7.311   3.663  1.00  0.00    -0.003 C 
ATOM     18  C   UNL     1      -8.375  -8.468   4.467  1.00  0.00     0.004 C 
ENDBRANCH  16  17
ENDBRANCH  15  16
ENDBRANCH  14  15
ENDBRANCH  13  14
ENDBRANCH  12  13
ENDBRANCH  11  12
ENDBRANCH   1  11
TORSDOF 14
ENDMDL
MODEL 5
REMARK VINA RESULT:    -4.114      8.164     10.273
REMARK INTER + INTRA:          -8.139
REMARK INTER:                  -5.876
REMARK INTRA:                  -2.263
REMARK UNBOUND:                -0.657
REMARK SMILES CCCCCCCCCCCCCCCC(=O)[O-]
REMARK SMILES IDX 9 1 10 2 11 3 12 4 13 5 14 6 15 7 16 8 17 9 18 10 8 11 7 12
REMARK SMILES IDX 6 13 5 14 4 15 3 16 2 17 1 18
REMARK H PARENT
REMARK Flexibility Score: inf
ROOT
ATOM      1  C   UNL     1      -3.642  -5.460   5.740  1.00  0.00     0.000 C 
ENDROOT
BRANCH   1   2
ATOM      2  C   UNL     1      -4.859  -6.222   6.289  1.00  0.00     0.000 C 
BRANCH   2   3
ATOM      3  C   UNL     1      -5.635  -5.415   7.344  1.00  0.00     0.000 C 
BRANCH   3   4
ATOM      4  C   UNL     1      -7.088  -5.143   6.927  1.00  0.00     0.000 C 
BRANCH   4   5
ATOM      5  C   UNL     1      -7.285  -5.196   5.402  1.00  0.00     0.000 C 
BRANCH   5   6
ATOM      6  C   UNL     1      -8.618  -5.848   5.000  1.00  0.00     0.006 C 
BRANCH   6   7
ATOM      7  C   UNL     1      -8.655  -7.350   5.311  1.00  0.00     0.053 C 
BRANCH   7   8
ATOM      8  C   UNL     1      -8.381  -8.146   4.075  1.00  0.00     0.041 C 
ATOM      9  O   UNL     1      -8.739  -7.711   2.949  1.00  0.00    -0.550 OA
ATOM     10  O   UNL     1      -7.684  -9.345   4.159  1.00  0.00    -0.550 OA
ENDBRANCH   7   8
ENDBRANCH   6   7
ENDBRANCH   5   6
ENDBRANCH   4   5
ENDBRANCH   3   4
ENDBRANCH   2   3
ENDBRANCH   1   2
BRANCH   1  11
ATOM     11  C   UNL     1      -3.243  -4.270   6.631  1.00  0.00     0.000 C 
BRANCH  11  12
ATOM     12  C   UNL     1      -3.216  -2.937   5.864  1.00  0.00    -0.000 C 
BRANCH  12  13
ATOM     13  C   UNL     1      -4.575  -2.594   5.230  1.00  0.00    -0.000 C 
BRANCH  13  14
ATOM     14  C   UNL     1      -5.498  -1.807   6.179  1.00  0.00    -0.000 C 
BRANCH  14  15
ATOM     15  C   UNL     1      -6.922  -1.560   5.646  1.00  0.00    -0.000 C 
BRANCH  15  16
ATOM     16  C   UNL     1      -7.985  -1.557   6.759  1.00  0.00    -0.000 C 
BRANCH  16  17
ATOM     17  C   UNL     1      -9.335  -2.116   6.284  1.00  0.00    -0.003 C 
ATOM     18  C   UNL     1     -10.030  -2.965   7.349  1.00  0.00     0.004 C 
ENDBRANCH  16  17
ENDBRANCH  15  16
ENDBRANCH  14  15
ENDBRANCH  13  14
ENDBRANCH  12  13
ENDBRANCH  11  12
ENDBRANCH   1  11
TORSDOF 14
ENDMDL
MODEL 6
REMARK VINA RESULT:    -4.105      8.446     11.605
REMARK INTER + INTRA:          -8.123
REMARK INTER:                  -5.879
REMARK INTRA:                  -2.244
REMARK UNBOUND:                -0.657
REMARK SMILES CCCCCCCCCCCCCCCC(=O)[O-]
REMARK SMILES IDX 9 1 10 2 11 3 12 4 13 5 14 6 15 7 16 8 17 9 18 10 8 11 7 12
REMARK SMILES IDX 6 13 5 14 4 15 3 16 2 17 1 18
REMARK H PARENT
REMARK Flexibility Score: inf
ROOT
ATOM      1  C   UNL     1      -7.529  -1.618   5.518  1.00  0.00     0.000 C 
ENDROOT
BRANCH   1   2
ATOM      2  C   UNL     1      -6.025  -1.899   5.660  1.00  0.00     0.000 C 
BRANCH   2   3
ATOM      3  C   UNL     1      -5.252  -0.696   6.229  1.00  0.00     0.000 C 
BRANCH   3   4
ATOM      4  C   UNL     1      -4.877  -0.882   7.707  1.00  0.00     0.000 C 
BRANCH   4   5
ATOM      5  C   UNL     1      -4.668  -2.359   8.082  1.00  0.00     0.000 C 
BRANCH   5   6
ATOM      6  C   UNL     1      -3.197  -2.795   7.969  1.00  0.00     0.006 C 
BRANCH   6   7
ATOM      7  C   UNL     1      -3.049  -4.262   7.546  1.00  0.00     0.053 C 
BRANCH   7   8
ATOM      8  C   UNL     1      -2.798  -4.357   6.074  1.00  0.00     0.041 C 
ATOM      9  O   UNL     1      -2.738  -5.484   5.514  1.00  0.00    -0.550 OA
ATOM     10  O   UNL     1      -2.680  -3.202   5.312  1.00  0.00    -0.550 OA
ENDBRANCH   7   8
ENDBRANCH   6   7
ENDBRANCH   5   6
ENDBRANCH   4   5
ENDBRANCH   3   4
ENDBRANCH   2   3
ENDBRANCH   1   2
BRANCH   1  11
ATOM     11  C   UNL     1      -8.289  -1.794   6.844  1.00  0.00     0.000 C 
BRANCH  11  12
ATOM     12  C   UNL     1      -9.723  -2.312   6.642  1.00  0.00    -0.000 C 
BRANCH  12  13
ATOM     13  C   UNL     1      -9.934  -3.712   7.243  1.00  0.00    -0.000 C 
BRANCH  13  14
ATOM     14  C   UNL     1     -10.125  -4.802   6.171  1.00  0.00    -0.000 C 
BRANCH  14  15
ATOM     15  C   UNL     1      -9.011  -5.863   6.116  1.00  0.00    -0.000 C 
BRANCH  15  16
ATOM     16  C   UNL     1      -7.881  -5.495   5.138  1.00  0.00    -0.000 C 
BRANCH  16  17
ATOM     17  C   UNL     1      -6.533  -5.291   5.847  1.00  0.00    -0.003 C 
ATOM     18  C   UNL     1      -6.628  -5.483   7.361  1.00  0.00     0.004 C 
ENDBRANCH  16  17
ENDBRANCH  15  16
ENDBRANCH  14  15
ENDBRANCH  13  14
ENDBRANCH  12  13
ENDBRANCH  11  12
ENDBRANCH   1  11
TORSDOF 14
ENDMDL
MODEL 7
REMARK VINA RESULT:    -4.097      8.808     11.643
REMARK INTER + INTRA:          -8.108
REMARK INTER:                  -6.672
REMARK INTRA:                  -1.436
REMARK UNBOUND:                -0.657
REMARK SMILES CCCCCCCCCCCCCCCC(=O)[O-]
REMARK SMILES IDX 9 1 10 2 11 3 12 4 13 5 14 6 15 7 16 8 17 9 18 10 8 11 7 12
REMARK SMILES IDX 6 13 5 14 4 15 3 16 2 17 1 18
REMARK H PARENT
REMARK Flexibility Score: inf
ROOT
ATOM      1  C   UNL     1      -5.288  -6.687   6.618  1.00  0.00     0.000 C 
ENDROOT
BRANCH   1   2
ATOM      2  C   UNL     1      -6.285  -5.682   7.217  1.00  0.00     0.000 C 
BRANCH   2   3
ATOM      3  C   UNL     1      -6.227  -4.309   6.526  1.00  0.00     0.000 C 
BRANCH   3   4
ATOM      4  C   UNL     1      -4.826  -3.979   5.988  1.00  0.00     0.000 C 
BRANCH   4   5
ATOM      5  C   UNL     1      -4.771  -2.609   5.289  1.00  0.00     0.000 C 
BRANCH   5   6
ATOM      6  C   UNL     1      -6.037  -1.771   5.530  1.00  0.00     0.006 C 
BRANCH   6   7
ATOM      7  C   UNL     1      -5.733  -0.424   6.199  1.00  0.00     0.053 C 
BRANCH   7   8
ATOM      8  C   UNL     1      -6.939   0.080   6.927  1.00  0.00     0.041 C 
ATOM      9  O   UNL     1      -7.933  -0.672   7.102  1.00  0.00    -0.550 OA
ATOM     10  O   UNL     1      -6.945   1.364   7.457  1.00  0.00    -0.550 OA
ENDBRANCH   7   8
ENDBRANCH   6   7
ENDBRANCH   5   6
ENDBRANCH   4   5
ENDBRANCH   3   4
ENDBRANCH   2   3
ENDBRANCH   1   2
BRANCH   1  11
ATOM     11  C   UNL     1      -5.763  -8.144   6.759  1.00  0.00     0.000 C 
BRANCH  11  12
ATOM     12  C   UNL     1      -5.324  -9.028   5.580  1.00  0.00    -0.000 C 
BRANCH  12  13
ATOM     13  C   UNL     1      -6.513  -9.697   4.869  1.00  0.00    -0.000 C 
BRANCH  13  14
ATOM     14  C   UNL     1      -7.797  -8.846   4.920  1.00  0.00    -0.000 C 
BRANCH  14  15
ATOM     15  C   UNL     1      -8.502  -8.651   3.565  1.00  0.00    -0.000 C 
BRANCH  15  16
ATOM     16  C   UNL     1      -9.227  -7.297   3.457  1.00  0.00    -0.000 C 
BRANCH  16  17
ATOM     17  C   UNL     1      -8.565  -6.206   4.312  1.00  0.00    -0.003 C 
ATOM     18  C   UNL     1      -9.547  -5.529   5.268  1.00  0.00     0.004 C 
ENDBRANCH  16  17
ENDBRANCH  15  16
ENDBRANCH  14  15
ENDBRANCH  13  14
ENDBRANCH  12  13
ENDBRANCH  11  12
ENDBRANCH   1  11
TORSDOF 14
ENDMDL
MODEL 8
REMARK VINA RESULT:    -4.065      6.889      9.397
REMARK INTER + INTRA:          -8.049
REMARK INTER:                  -6.210
REMARK INTRA:                  -1.839
REMARK UNBOUND:                -0.657
REMARK SMILES CCCCCCCCCCCCCCCC(=O)[O-]
REMARK SMILES IDX 9 1 10 2 11 3 12 4 13 5 14 6 15 7 16 8 17 9 18 10 8 11 7 12
REMARK SMILES IDX 6 13 5 14 4 15 3 16 2 17 1 18
REMARK H PARENT
REMARK Flexibility Score: inf
ROOT
ATOM      1  C   UNL     1      -4.495  -4.823   7.190  1.00  0.00     0.000 C 
ENDROOT
BRANCH   1   2
ATOM      2  C   UNL     1      -5.234  -6.031   7.790  1.00  0.00     0.000 C 
BRANCH   2   3
ATOM      3  C   UNL     1      -5.463  -7.152   6.762  1.00  0.00     0.000 C 
BRANCH   3   4
ATOM      4  C   UNL     1      -5.555  -8.540   7.413  1.00  0.00     0.000 C 
BRANCH   4   5
ATOM      5  C   UNL     1      -4.831  -9.625   6.596  1.00  0.00     0.000 C 
BRANCH   5   6
ATOM      6  C   UNL     1      -4.733  -9.273   5.102  1.00  0.00     0.006 C 
BRANCH   6   7
ATOM      7  C   UNL     1      -3.626 -10.056   4.385  1.00  0.00     0.053 C 
BRANCH   7   8
ATOM      8  C   UNL     1      -2.561  -9.126   3.897  1.00  0.00     0.041 C 
ATOM      9  O   UNL     1      -2.221  -8.133   4.593  1.00  0.00    -0.550 OA
ATOM     10  O   UNL     1      -1.909  -9.382   2.698  1.00  0.00    -0.550 OA
ENDBRANCH   7   8
ENDBRANCH   6   7
ENDBRANCH   5   6
ENDBRANCH   4   5
ENDBRANCH   3   4
ENDBRANCH   2   3
ENDBRANCH   1   2
BRANCH   1  11
ATOM     11  C   UNL     1      -4.212  -4.993   5.687  1.00  0.00     0.000 C 
BRANCH  11  12
ATOM     12  C   UNL     1      -4.432  -3.696   4.892  1.00  0.00    -0.000 C 
BRANCH  12  13
ATOM     13  C   UNL     1      -4.562  -2.462   5.800  1.00  0.00    -0.000 C 
BRANCH  13  14
ATOM     14  C   UNL     1      -5.828  -1.633   5.509  1.00  0.00    -0.000 C 
BRANCH  14  15
ATOM     15  C   UNL     1      -6.704  -1.329   6.738  1.00  0.00    -0.000 C 
BRANCH  15  16
ATOM     16  C   UNL     1      -7.455  -2.567   7.259  1.00  0.00    -0.000 C 
BRANCH  16  17
ATOM     17  C   UNL     1      -8.389  -3.177   6.202  1.00  0.00    -0.003 C 
ATOM     18  C   UNL     1      -8.001  -4.606   5.827  1.00  0.00     0.004 C 
ENDBRANCH  16  17
ENDBRANCH  15  16
ENDBRANCH  14  15
ENDBRANCH  13  14
ENDBRANCH  12  13
ENDBRANCH  11  12
ENDBRANCH   1  11
TORSDOF 14
ENDMDL
MODEL 9
REMARK VINA RESULT:    -4.029      8.007     11.146
REMARK INTER + INTRA:          -7.985
REMARK INTER:                  -6.221
REMARK INTRA:                  -1.763
REMARK UNBOUND:                -0.657
REMARK SMILES CCCCCCCCCCCCCCCC(=O)[O-]
REMARK SMILES IDX 9 1 10 2 11 3 12 4 13 5 14 6 15 7 16 8 17 9 18 10 8 11 7 12
REMARK SMILES IDX 6 13 5 14 4 15 3 16 2 17 1 18
REMARK H PARENT
REMARK Flexibility Score: inf
ROOT
ATOM      1  C   UNL     1      -7.821  -4.829   6.476  1.00  0.00     0.000 C 
ENDROOT
BRANCH   1   2
ATOM      2  C   UNL     1      -8.613  -3.514   6.408  1.00  0.00     0.000 C 
BRANCH   2   3
ATOM      3  C   UNL     1      -7.709  -2.293   6.168  1.00  0.00     0.000 C 
BRANCH   3   4
ATOM      4  C   UNL     1      -6.263  -2.530   6.628  1.00  0.00     0.000 C 
BRANCH   4   5
ATOM      5  C   UNL     1      -5.230  -1.892   5.683  1.00  0.00     0.000 C 
BRANCH   5   6
ATOM      6  C   UNL     1      -3.928  -2.705   5.593  1.00  0.00     0.006 C 
BRANCH   6   7
ATOM      7  C   UNL     1      -4.174  -4.168   5.202  1.00  0.00     0.053 C 
BRANCH   7   8
ATOM      8  C   UNL     1      -3.240  -5.070   5.946  1.00  0.00     0.041 C 
ATOM      9  O   UNL     1      -3.229  -5.070   7.205  1.00  0.00    -0.550 OA
ATOM     10  O   UNL     1      -2.418  -5.947   5.250  1.00  0.00    -0.550 OA
ENDBRANCH   7   8
ENDBRANCH   6   7
ENDBRANCH   5   6
ENDBRANCH   4   5
ENDBRANCH   3   4
ENDBRANCH   2   3
ENDBRANCH   1   2
BRANCH   1  11
ATOM     11  C   UNL     1      -7.733  -5.535   5.111  1.00  0.00     0.000 C 
BRANCH  11  12
ATOM     12  C   UNL     1      -9.113  -5.915   4.550  1.00  0.00    -0.000 C 
BRANCH  12  13
ATOM     13  C   UNL     1      -9.396  -7.424   4.652  1.00  0.00    -0.000 C 
BRANCH  13  14
ATOM     14  C   UNL     1      -8.620  -8.251   3.610  1.00  0.00    -0.000 C 
BRANCH  14  15
ATOM     15  C   UNL     1      -7.877  -9.476   4.173  1.00  0.00    -0.000 C 
BRANCH  15  16
ATOM     16  C   UNL     1      -7.366  -9.259   5.609  1.00  0.00    -0.000 C 
BRANCH  16  17
ATOM     17  C   UNL     1      -5.850  -9.014   5.663  1.00  0.00    -0.003 C 
ATOM     18  C   UNL     1      -5.461  -7.951   6.689  1.00  0.00     0.004 C 
ENDBRANCH  16  17
ENDBRANCH  15  16
ENDBRANCH  14  15
ENDBRANCH  13  14
ENDBRANCH  12  13
ENDBRANCH  11  12
ENDBRANCH   1  11
TORSDOF 14
ENDMDL
