MODEL 1
REMARK VINA RESULT:    -4.006      0.000      0.000
REMARK INTER + INTRA:          -6.580
REMARK INTER:                  -6.113
REMARK INTRA:                  -0.467
REMARK UNBOUND:                -0.467
REMARK SMILES CCCCCCCCCCC(=O)[O-]
REMARK SMILES IDX 7 1 8 2 9 3 10 4 11 5 12 6 13 7 6 8 5 9 4 10 3 11 2 12 1 13
REMARK H PARENT
REMARK Flexibility Score: inf
ROOT
ATOM      1  C   UNL     1      21.896 -15.175   4.194  1.00  0.00     0.000 C 
ENDROOT
BRANCH   1   2
ATOM      2  C   UNL     1      21.219 -16.182   5.134  1.00  0.00     0.000 C 
BRANCH   2   3
ATOM      3  C   UNL     1      21.394 -15.766   6.602  1.00  0.00     0.006 C 
BRANCH   3   4
ATOM      4  C   UNL     1      21.532 -14.246   6.763  1.00  0.00     0.053 C 
BRANCH   4   5
ATOM      5  C   UNL     1      21.588 -13.843   8.205  1.00  0.00     0.041 C 
ATOM      6  O   UNL     1      21.639 -14.722   9.106  1.00  0.00    -0.550 OA
ATOM      7  O   UNL     1      21.617 -12.499   8.553  1.00  0.00    -0.550 OA
ENDBRANCH   4   5
ENDBRANCH   3   4
ENDBRANCH   2   3
ENDBRANCH   1   2
BRANCH   1   8
ATOM      8  C   UNL     1      22.312 -15.798   2.849  1.00  0.00     0.000 C 
BRANCH   8   9
ATOM      9  C   UNL     1      21.508 -15.312   1.626  1.00  0.00    -0.000 C 
BRANCH   9  10
ATOM     10  C   UNL     1      21.757 -13.849   1.219  1.00  0.00    -0.000 C 
BRANCH  10  11
ATOM     11  C   UNL     1      23.243 -13.543   0.977  1.00  0.00    -0.000 C 
BRANCH  11  12
ATOM     12  C   UNL     1      23.509 -12.034   1.041  1.00  0.00    -0.003 C 
ATOM     13  C   UNL     1      24.349 -11.674   2.264  1.00  0.00     0.004 C 
ENDBRANCH  11  12
ENDBRANCH  10  11
ENDBRANCH   9  10
ENDBRANCH   8   9
ENDBRANCH   1   8
TORSDOF 9
ENDMDL
MODEL 2
REMARK VINA RESULT:    -3.911     13.480     15.397
REMARK INTER + INTRA:          -6.435
REMARK INTER:                  -5.470
REMARK INTRA:                  -0.964
REMARK UNBOUND:                -0.467
REMARK SMILES CCCCCCCCCCC(=O)[O-]
REMARK SMILES IDX 7 1 8 2 9 3 10 4 11 5 12 6 13 7 6 8 5 9 4 10 3 11 2 12 1 13
REMARK H PARENT
REMARK Flexibility Score: inf
ROOT
ATOM      1  C   UNL     1      26.776  -0.428  11.236  1.00  0.00     0.000 C 
ENDROOT
BRANCH   1   2
ATOM      2  C   UNL     1      26.552  -1.353  10.032  1.00  0.00     0.000 C 
BRANCH   2   3
ATOM      3  C   UNL     1      25.445  -2.377  10.324  1.00  0.00     0.006 C 
BRANCH   3   4
ATOM      4  C   UNL     1      24.129  -1.706  10.743  1.00  0.00     0.053 C 
BRANCH   4   5
ATOM      5  C   UNL     1      22.980  -2.165   9.899  1.00  0.00     0.041 C 
ATOM      6  O   UNL     1      22.138  -1.332   9.469  1.00  0.00    -0.550 OA
ATOM      7  O   UNL     1      22.855  -3.506   9.560  1.00  0.00    -0.550 OA
ENDBRANCH   4   5
ENDBRANCH   3   4
ENDBRANCH   2   3
ENDBRANCH   1   2
BRANCH   1   8
ATOM      8  C   UNL     1      28.228   0.071  11.346  1.00  0.00     0.000 C 
BRANCH   8   9
ATOM      9  C   UNL     1      29.045  -0.541  12.503  1.00  0.00    -0.000 C 
BRANCH   9  10
ATOM     10  C   UNL     1      30.024  -1.655  12.094  1.00  0.00    -0.000 C 
BRANCH  10  11
ATOM     11  C   UNL     1      29.378  -3.049  12.102  1.00  0.00    -0.000 C 
BRANCH  11  12
ATOM     12  C   UNL     1      29.381  -3.662  10.696  1.00  0.00    -0.003 C 
ATOM     13  C   UNL     1      30.119  -2.765   9.705  1.00  0.00     0.004 C 
ENDBRANCH  11  12
ENDBRANCH  10  11
ENDBRANCH   9  10
ENDBRANCH   8   9
ENDBRANCH   1   8
TORSDOF 9
ENDMDL
MODEL 3
REMARK VINA RESULT:    -3.888      1.472      2.705
REMARK INTER + INTRA:          -6.400
REMARK INTER:                  -5.398
REMARK INTRA:                  -1.002
REMARK UNBOUND:                -0.467
REMARK SMILES CCCCCCCCCCC(=O)[O-]
REMARK SMILES IDX 7 1 8 2 9 3 10 4 11 5 12 6 13 7 6 8 5 9 4 10 3 11 2 12 1 13
REMARK H PARENT
REMARK Flexibility Score: inf
ROOT
ATOM      1  C   UNL     1      23.524 -15.284   5.266  1.00  0.00     0.000 C 
ENDROOT
BRANCH   1   2
ATOM      2  C   UNL     1      22.445 -16.369   5.386  1.00  0.00     0.000 C 
BRANCH   2   3
ATOM      3  C   UNL     1      21.333 -15.934   6.352  1.00  0.00     0.006 C 
BRANCH   3   4
ATOM      4  C   UNL     1      21.399 -14.436   6.677  1.00  0.00     0.053 C 
BRANCH   4   5
ATOM      5  C   UNL     1      21.524 -14.192   8.150  1.00  0.00     0.041 C 
ATOM      6  O   UNL     1      21.482 -13.018   8.603  1.00  0.00    -0.550 OA
ATOM      7  O   UNL     1      21.656 -15.262   9.025  1.00  0.00    -0.550 OA
ENDBRANCH   4   5
ENDBRANCH   3   4
ENDBRANCH   2   3
ENDBRANCH   1   2
BRANCH   1   8
ATOM      8  C   UNL     1      24.025 -15.094   3.823  1.00  0.00     0.000 C 
BRANCH   8   9
ATOM      9  C   UNL     1      23.405 -13.902   3.066  1.00  0.00    -0.000 C 
BRANCH   9  10
ATOM     10  C   UNL     1      21.906 -14.039   2.746  1.00  0.00    -0.000 C 
BRANCH  10  11
ATOM     11  C   UNL     1      21.645 -14.787   1.430  1.00  0.00    -0.000 C 
BRANCH  11  12
ATOM     12  C   UNL     1      21.114 -16.200   1.698  1.00  0.00    -0.003 C 
ATOM     13  C   UNL     1      22.216 -17.243   1.535  1.00  0.00     0.004 C 
ENDBRANCH  11  12
ENDBRANCH  10  11
ENDBRANCH   9  10
ENDBRANCH   8   9
ENDBRANCH   1   8
TORSDOF 9
ENDMDL
MODEL 4
REMARK VINA RESULT:    -3.755      1.174      1.920
REMARK INTER + INTRA:          -6.198
REMARK INTER:                  -5.011
REMARK INTRA:                  -1.187
REMARK UNBOUND:                -0.467
REMARK SMILES CCCCCCCCCCC(=O)[O-]
REMARK SMILES IDX 7 1 8 2 9 3 10 4 11 5 12 6 13 7 6 8 5 9 4 10 3 11 2 12 1 13
REMARK H PARENT
REMARK Flexibility Score: inf
ROOT
ATOM      1  C   UNL     1      22.162 -15.975   2.876  1.00  0.00     0.000 C 
ENDROOT
BRANCH   1   2
ATOM      2  C   UNL     1      21.877 -15.199   4.169  1.00  0.00     0.000 C 
BRANCH   2   3
ATOM      3  C   UNL     1      22.942 -15.498   5.235  1.00  0.00     0.006 C 
BRANCH   3   4
ATOM      4  C   UNL     1      23.132 -14.329   6.212  1.00  0.00     0.053 C 
BRANCH   4   5
ATOM      5  C   UNL     1      22.134 -14.372   7.328  1.00  0.00     0.041 C 
ATOM      6  O   UNL     1      21.571 -13.314   7.714  1.00  0.00    -0.550 OA
ATOM      7  O   UNL     1      21.803 -15.583   7.922  1.00  0.00    -0.550 OA
ENDBRANCH   4   5
ENDBRANCH   3   4
ENDBRANCH   2   3
ENDBRANCH   1   2
BRANCH   1   8
ATOM      8  C   UNL     1      21.484 -15.351   1.642  1.00  0.00     0.000 C 
BRANCH   8   9
ATOM      9  C   UNL     1      21.727 -13.839   1.456  1.00  0.00    -0.000 C 
BRANCH   9  10
ATOM     10  C   UNL     1      23.152 -13.454   1.024  1.00  0.00    -0.000 C 
BRANCH  10  11
ATOM     11  C   UNL     1      23.698 -12.238   1.787  1.00  0.00    -0.000 C 
BRANCH  11  12
ATOM     12  C   UNL     1      24.411 -12.673   3.073  1.00  0.00    -0.003 C 
ATOM     13  C   UNL     1      25.312 -13.880   2.822  1.00  0.00     0.004 C 
ENDBRANCH  11  12
ENDBRANCH  10  11
ENDBRANCH   9  10
ENDBRANCH   8   9
ENDBRANCH   1   8
TORSDOF 9
ENDMDL
MODEL 5
REMARK VINA RESULT:    -3.736      2.842      5.381
REMARK INTER + INTRA:          -6.169
REMARK INTER:                  -5.431
REMARK INTRA:                  -0.738
REMARK UNBOUND:                -0.467
REMARK SMILES CCCCCCCCCCC(=O)[O-]
REMARK SMILES IDX 7 1 8 2 9 3 10 4 11 5 12 6 13 7 6 8 5 9 4 10 3 11 2 12 1 13
REMARK H PARENT
REMARK Flexibility Score: inf
ROOT
ATOM      1  C   UNL     1      21.718 -13.951   1.770  1.00  0.00     0.000 C 
ENDROOT
BRANCH   1   2
ATOM      2  C   UNL     1      22.835 -13.317   0.929  1.00  0.00     0.000 C 
BRANCH   2   3
ATOM      3  C   UNL     1      24.193 -13.442   1.635  1.00  0.00     0.006 C 
BRANCH   3   4
ATOM      4  C   UNL     1      24.179 -12.821   3.038  1.00  0.00     0.053 C 
BRANCH   4   5
ATOM      5  C   UNL     1      24.858 -11.486   3.060  1.00  0.00     0.041 C 
ATOM      6  O   UNL     1      24.501 -10.580   2.262  1.00  0.00    -0.550 OA
ATOM      7  O   UNL     1      25.865 -11.231   3.983  1.00  0.00    -0.550 OA
ENDBRANCH   4   5
ENDBRANCH   3   4
ENDBRANCH   2   3
ENDBRANCH   1   2
BRANCH   1   8
ATOM      8  C   UNL     1      21.655 -15.483   1.623  1.00  0.00     0.000 C 
BRANCH   8   9
ATOM      9  C   UNL     1      21.749 -16.272   2.945  1.00  0.00    -0.000 C 
BRANCH   9  10
ATOM     10  C   UNL     1      21.774 -15.410   4.220  1.00  0.00    -0.000 C 
BRANCH  10  11
ATOM     11  C   UNL     1      21.215 -16.146   5.447  1.00  0.00    -0.000 C 
BRANCH  11  12
ATOM     12  C   UNL     1      21.092 -15.197   6.645  1.00  0.00    -0.003 C 
ATOM     13  C   UNL     1      22.217 -14.164   6.649  1.00  0.00     0.004 C 
ENDBRANCH  11  12
ENDBRANCH  10  11
ENDBRANCH   9  10
ENDBRANCH   8   9
ENDBRANCH   1   8
TORSDOF 9
ENDMDL
MODEL 6
REMARK VINA RESULT:    -3.673      1.411      2.431
REMARK INTER + INTRA:          -6.073
REMARK INTER:                  -5.576
REMARK INTRA:                  -0.497
REMARK UNBOUND:                -0.467
REMARK SMILES CCCCCCCCCCC(=O)[O-]
REMARK SMILES IDX 7 1 8 2 9 3 10 4 11 5 12 6 13 7 6 8 5 9 4 10 3 11 2 12 1 13
REMARK H PARENT
REMARK Flexibility Score: inf
ROOT
ATOM      1  C   UNL     1      22.068 -15.327   1.611  1.00  0.00     0.000 C 
ENDROOT
BRANCH   1   2
ATOM      2  C   UNL     1      21.561 -15.833   2.969  1.00  0.00     0.000 C 
BRANCH   2   3
ATOM      3  C   UNL     1      21.910 -14.842   4.089  1.00  0.00     0.006 C 
BRANCH   3   4
ATOM      4  C   UNL     1      22.318 -15.551   5.387  1.00  0.00     0.053 C 
BRANCH   4   5
ATOM      5  C   UNL     1      21.776 -14.851   6.596  1.00  0.00     0.041 C 
ATOM      6  O   UNL     1      20.620 -15.118   7.017  1.00  0.00    -0.550 OA
ATOM      7  O   UNL     1      22.560 -13.928   7.276  1.00  0.00    -0.550 OA
ENDBRANCH   4   5
ENDBRANCH   3   4
ENDBRANCH   2   3
ENDBRANCH   1   2
BRANCH   1   8
ATOM      8  C   UNL     1      21.721 -13.849   1.355  1.00  0.00     0.000 C 
BRANCH   8   9
ATOM      9  C   UNL     1      22.922 -12.946   1.007  1.00  0.00    -0.000 C 
BRANCH   9  10
ATOM     10  C   UNL     1      23.975 -12.801   2.119  1.00  0.00    -0.000 C 
BRANCH  10  11
ATOM     11  C   UNL     1      24.476 -11.358   2.280  1.00  0.00    -0.000 C 
BRANCH  11  12
ATOM     12  C   UNL     1      23.987 -10.476   1.125  1.00  0.00    -0.003 C 
ATOM     13  C   UNL     1      24.577  -9.071   1.217  1.00  0.00     0.004 C 
ENDBRANCH  11  12
ENDBRANCH  10  11
ENDBRANCH   9  10
ENDBRANCH   8   9
ENDBRANCH   1   8
TORSDOF 9
ENDMDL
MODEL 7
REMARK VINA RESULT:    -3.668     13.341     14.765
REMARK INTER + INTRA:          -6.065
REMARK INTER:                  -5.033
REMARK INTRA:                  -1.031
REMARK UNBOUND:                -0.467
REMARK SMILES CCCCCCCCCCC(=O)[O-]
REMARK SMILES IDX 7 1 8 2 9 3 10 4 11 5 12 6 13 7 6 8 5 9 4 10 3 11 2 12 1 13
REMARK H PARENT
REMARK Flexibility Score: inf
ROOT
ATOM      1  C   UNL     1      27.611  -2.059   8.477  1.00  0.00     0.000 C 
ENDROOT
BRANCH   1   2
ATOM      2  C   UNL     1      26.159  -1.736   8.856  1.00  0.00     0.000 C 
BRANCH   2   3
ATOM      3  C   UNL     1      25.850  -2.193  10.289  1.00  0.00     0.006 C 
BRANCH   3   4
ATOM      4  C   UNL     1      24.496  -1.670  10.787  1.00  0.00     0.053 C 
BRANCH   4   5
ATOM      5  C   UNL     1      23.352  -2.327  10.076  1.00  0.00     0.041 C 
ATOM      6  O   UNL     1      23.295  -3.582   9.994  1.00  0.00    -0.550 OA
ATOM      7  O   UNL     1      22.334  -1.555   9.532  1.00  0.00    -0.550 OA
ENDBRANCH   4   5
ENDBRANCH   3   4
ENDBRANCH   2   3
ENDBRANCH   1   2
BRANCH   1   8
ATOM      8  C   UNL     1      28.173  -3.273   9.239  1.00  0.00     0.000 C 
BRANCH   8   9
ATOM      9  C   UNL     1      29.652  -3.155   9.661  1.00  0.00    -0.000 C 
BRANCH   9  10
ATOM     10  C   UNL     1      29.959  -3.606  11.099  1.00  0.00    -0.000 C 
BRANCH  10  11
ATOM     11  C   UNL     1      29.164  -2.820  12.153  1.00  0.00    -0.000 C 
BRANCH  11  12
ATOM     12  C   UNL     1      29.683  -1.381  12.270  1.00  0.00    -0.003 C 
ATOM     13  C   UNL     1      28.552  -0.371  12.094  1.00  0.00     0.004 C 
ENDBRANCH  11  12
ENDBRANCH  10  11
ENDBRANCH   9  10
ENDBRANCH   8   9
ENDBRANCH   1   8
TORSDOF 9
ENDMDL
MODEL 8
REMARK VINA RESULT:    -3.655      9.708     12.077
REMARK INTER + INTRA:          -6.045
REMARK INTER:                  -5.359
REMARK INTRA:                  -0.686
REMARK UNBOUND:                -0.467
REMARK SMILES CCCCCCCCCCC(=O)[O-]
REMARK SMILES IDX 7 1 8 2 9 3 10 4 11 5 12 6 13 7 6 8 5 9 4 10 3 11 2 12 1 13
REMARK H PARENT
REMARK Flexibility Score: inf
ROOT
ATOM      1  C   UNL     1      25.423  -3.816   7.727  1.00  0.00     0.000 C 
ENDROOT
BRANCH   1   2
ATOM      2  C   UNL     1      25.852  -4.631   6.498  1.00  0.00     0.000 C 
BRANCH   2   3
ATOM      3  C   UNL     1      25.885  -6.133   6.819  1.00  0.00     0.006 C 
BRANCH   3   4
ATOM      4  C   UNL     1      24.600  -6.849   6.381  1.00  0.00     0.053 C 
BRANCH   4   5
ATOM      5  C   UNL     1      23.678  -7.091   7.537  1.00  0.00     0.041 C 
ATOM      6  O   UNL     1      22.939  -6.165   7.963  1.00  0.00    -0.550 OA
ATOM      7  O   UNL     1      23.613  -8.348   8.125  1.00  0.00    -0.550 OA
ENDBRANCH   4   5
ENDBRANCH   3   4
ENDBRANCH   2   3
ENDBRANCH   1   2
BRANCH   1   8
ATOM      8  C   UNL     1      26.413  -2.689   8.072  1.00  0.00     0.000 C 
BRANCH   8   9
ATOM      9  C   UNL     1      26.516  -2.345   9.572  1.00  0.00    -0.000 C 
BRANCH   9  10
ATOM     10  C   UNL     1      25.196  -2.442  10.357  1.00  0.00    -0.000 C 
BRANCH  10  11
ATOM     11  C   UNL     1      24.299  -1.208  10.168  1.00  0.00    -0.000 C 
BRANCH  11  12
ATOM     12  C   UNL     1      22.846  -1.622   9.910  1.00  0.00    -0.003 C 
ATOM     13  C   UNL     1      22.662  -3.128  10.087  1.00  0.00     0.004 C 
ENDBRANCH  11  12
ENDBRANCH  10  11
ENDBRANCH   9  10
ENDBRANCH   8   9
ENDBRANCH   1   8
TORSDOF 9
ENDMDL
