MODEL 1
REMARK VINA RESULT:    -3.196      0.000      0.000
REMARK INTER + INTRA:          -9.172
REMARK INTER:                  -6.185
REMARK INTRA:                  -2.987
REMARK UNBOUND:                -2.987
REMARK SMILES CCCCCCCCCCCCCCCCCC(=O)[O-]
REMARK SMILES IDX 10 1 11 2 12 3 13 4 14 5 15 6 16 7 17 8 18 9 19 10 20 11
REMARK SMILES IDX 9 12 8 13 7 14 6 15 5 16 4 17 3 18 2 19 1 20
REMARK H PARENT
REMARK Flexibility Score: inf
ROOT
ATOM      1  C   UNL     1       5.694  10.824  -2.480  1.00  0.00     0.000 C 
ENDROOT
BRANCH   1   2
ATOM      2  C   UNL     1       4.160  10.810  -2.392  1.00  0.00     0.000 C 
BRANCH   2   3
ATOM      3  C   UNL     1       3.693  10.210  -1.060  1.00  0.00     0.000 C 
BRANCH   3   4
ATOM      4  C   UNL     1       3.167  11.302  -0.118  1.00  0.00     0.000 C 
BRANCH   4   5
ATOM      5  C   UNL     1       3.083  10.787   1.327  1.00  0.00     0.000 C 
BRANCH   5   6
ATOM      6  C   UNL     1       3.242   9.262   1.422  1.00  0.00     0.000 C 
BRANCH   6   7
ATOM      7  C   UNL     1       3.819   8.810   2.775  1.00  0.00     0.006 C 
BRANCH   7   8
ATOM      8  C   UNL     1       4.616   7.503   2.657  1.00  0.00     0.053 C 
BRANCH   8   9
ATOM      9  C   UNL     1       5.772   7.469   3.610  1.00  0.00     0.041 C 
ATOM     10  O   UNL     1       6.289   6.369   3.939  1.00  0.00    -0.550 OA
ATOM     11  O   UNL     1       6.299   8.654   4.106  1.00  0.00    -0.550 OA
ENDBRANCH   8   9
ENDBRANCH   7   8
ENDBRANCH   6   7
ENDBRANCH   5   6
ENDBRANCH   4   5
ENDBRANCH   3   4
ENDBRANCH   2   3
ENDBRANCH   1   2
BRANCH   1  12
ATOM     12  C   UNL     1       6.300  12.175  -2.068  1.00  0.00     0.000 C 
BRANCH  12  13
ATOM     13  C   UNL     1       7.323  12.041  -0.928  1.00  0.00    -0.000 C 
BRANCH  13  14
ATOM     14  C   UNL     1       6.675  12.144   0.462  1.00  0.00    -0.000 C 
BRANCH  14  15
ATOM     15  C   UNL     1       6.750  10.829   1.252  1.00  0.00    -0.000 C 
BRANCH  15  16
ATOM     16  C   UNL     1       8.089  10.120   1.011  1.00  0.00    -0.000 C 
BRANCH  16  17
ATOM     17  C   UNL     1       7.887   8.609   0.824  1.00  0.00    -0.000 C 
BRANCH  17  18
ATOM     18  C   UNL     1       6.704   8.273  -0.102  1.00  0.00    -0.000 C 
BRANCH  18  19
ATOM     19  C   UNL     1       6.534   6.777  -0.418  1.00  0.00    -0.003 C 
ATOM     20  C   UNL     1       7.185   6.367  -1.739  1.00  0.00     0.004 C 
ENDBRANCH  18  19
ENDBRANCH  17  18
ENDBRANCH  16  17
ENDBRANCH  15  16
ENDBRANCH  14  15
ENDBRANCH  13  14
ENDBRANCH  12  13
ENDBRANCH   1  12
TORSDOF 16
ENDMDL
MODEL 2
REMARK VINA RESULT:    -3.122      3.143      5.652
REMARK INTER + INTRA:          -9.029
REMARK INTER:                  -6.106
REMARK INTRA:                  -2.923
REMARK UNBOUND:                -2.987
REMARK SMILES CCCCCCCCCCCCCCCCCC(=O)[O-]
REMARK SMILES IDX 10 1 11 2 12 3 13 4 14 5 15 6 16 7 17 8 18 9 19 10 20 11
REMARK SMILES IDX 9 12 8 13 7 14 6 15 5 16 4 17 3 18 2 19 1 20
REMARK H PARENT
REMARK Flexibility Score: inf
ROOT
ATOM      1  C   UNL     1       8.291   9.002   0.832  1.00  0.00     0.000 C 
ENDROOT
BRANCH   1   2
ATOM      2  C   UNL     1       7.344  10.089   1.363  1.00  0.00     0.000 C 
BRANCH   2   3
ATOM      3  C   UNL     1       7.449  11.365   0.520  1.00  0.00     0.000 C 
BRANCH   3   4
ATOM      4  C   UNL     1       6.177  12.216   0.645  1.00  0.00     0.000 C 
BRANCH   4   5
ATOM      5  C   UNL     1       5.661  12.639  -0.738  1.00  0.00     0.000 C 
BRANCH   5   6
ATOM      6  C   UNL     1       4.390  11.882  -1.152  1.00  0.00     0.000 C 
BRANCH   6   7
ATOM      7  C   UNL     1       4.494  11.277  -2.564  1.00  0.00     0.006 C 
BRANCH   7   8
ATOM      8  C   UNL     1       5.890  10.705  -2.847  1.00  0.00     0.053 C 
BRANCH   8   9
ATOM      9  C   UNL     1       6.534  11.369  -4.026  1.00  0.00     0.041 C 
ATOM     10  O   UNL     1       7.620  11.990  -3.888  1.00  0.00    -0.550 OA
ATOM     11  O   UNL     1       5.951  11.271  -5.283  1.00  0.00    -0.550 OA
ENDBRANCH   8   9
ENDBRANCH   7   8
ENDBRANCH   6   7
ENDBRANCH   5   6
ENDBRANCH   4   5
ENDBRANCH   3   4
ENDBRANCH   2   3
ENDBRANCH   1   2
BRANCH   1  12
ATOM     12  C   UNL     1       7.551   7.718   0.420  1.00  0.00     0.000 C 
BRANCH  12  13
ATOM     13  C   UNL     1       6.330   8.001  -0.471  1.00  0.00    -0.000 C 
BRANCH  13  14
ATOM     14  C   UNL     1       5.014   7.517   0.160  1.00  0.00    -0.000 C 
BRANCH  14  15
ATOM     15  C   UNL     1       3.931   8.606   0.181  1.00  0.00    -0.000 C 
BRANCH  15  16
ATOM     16  C   UNL     1       3.743   9.166   1.597  1.00  0.00    -0.000 C 
BRANCH  16  17
ATOM     17  C   UNL     1       3.813   8.047   2.646  1.00  0.00    -0.000 C 
BRANCH  17  18
ATOM     18  C   UNL     1       4.639   8.437   3.885  1.00  0.00    -0.000 C 
BRANCH  18  19
ATOM     19  C   UNL     1       6.090   7.927   3.883  1.00  0.00    -0.003 C 
ATOM     20  C   UNL     1       6.193   6.415   3.685  1.00  0.00     0.004 C 
ENDBRANCH  18  19
ENDBRANCH  17  18
ENDBRANCH  16  17
ENDBRANCH  15  16
ENDBRANCH  14  15
ENDBRANCH  13  14
ENDBRANCH  12  13
ENDBRANCH   1  12
TORSDOF 16
ENDMDL
MODEL 3
REMARK VINA RESULT:    -3.116      1.120      2.571
REMARK INTER + INTRA:          -9.017
REMARK INTER:                  -5.943
REMARK INTRA:                  -3.074
REMARK UNBOUND:                -2.987
REMARK SMILES CCCCCCCCCCCCCCCCCC(=O)[O-]
REMARK SMILES IDX 10 1 11 2 12 3 13 4 14 5 15 6 16 7 17 8 18 9 19 10 20 11
REMARK SMILES IDX 9 12 8 13 7 14 6 15 5 16 4 17 3 18 2 19 1 20
REMARK H PARENT
REMARK Flexibility Score: inf
ROOT
ATOM      1  C   UNL     1       7.754  11.478   1.004  1.00  0.00     0.000 C 
ENDROOT
BRANCH   1   2
ATOM      2  C   UNL     1       6.603  11.387   2.019  1.00  0.00     0.000 C 
BRANCH   2   3
ATOM      3  C   UNL     1       5.491  12.386   1.677  1.00  0.00     0.000 C 
BRANCH   3   4
ATOM      4  C   UNL     1       4.139  11.676   1.526  1.00  0.00     0.000 C 
BRANCH   4   5
ATOM      5  C   UNL     1       4.043  10.468   2.471  1.00  0.00     0.000 C 
BRANCH   5   6
ATOM      6  C   UNL     1       3.374   9.253   1.812  1.00  0.00     0.000 C 
BRANCH   6   7
ATOM      7  C   UNL     1       3.832   7.918   2.427  1.00  0.00     0.006 C 
BRANCH   7   8
ATOM      8  C   UNL     1       4.715   8.125   3.665  1.00  0.00     0.053 C 
BRANCH   8   9
ATOM      9  C   UNL     1       6.042   7.443   3.521  1.00  0.00     0.041 C 
ATOM     10  O   UNL     1       6.985   8.014   2.914  1.00  0.00    -0.550 OA
ATOM     11  O   UNL     1       6.245   6.191   4.088  1.00  0.00    -0.550 OA
ENDBRANCH   8   9
ENDBRANCH   7   8
ENDBRANCH   6   7
ENDBRANCH   5   6
ENDBRANCH   4   5
ENDBRANCH   3   4
ENDBRANCH   2   3
ENDBRANCH   1   2
BRANCH   1  12
ATOM     12  C   UNL     1       7.663  12.730   0.116  1.00  0.00     0.000 C 
BRANCH  12  13
ATOM     13  C   UNL     1       7.532  12.386  -1.378  1.00  0.00    -0.000 C 
BRANCH  13  14
ATOM     14  C   UNL     1       6.192  12.850  -1.974  1.00  0.00    -0.000 C 
BRANCH  14  15
ATOM     15  C   UNL     1       5.153  11.721  -2.048  1.00  0.00    -0.000 C 
BRANCH  15  16
ATOM     16  C   UNL     1       5.836  10.352  -2.162  1.00  0.00    -0.000 C 
BRANCH  16  17
ATOM     17  C   UNL     1       5.276   9.370  -1.123  1.00  0.00    -0.000 C 
BRANCH  17  18
ATOM     18  C   UNL     1       6.375   8.582  -0.388  1.00  0.00    -0.000 C 
BRANCH  18  19
ATOM     19  C   UNL     1       6.188   7.055  -0.389  1.00  0.00    -0.003 C 
ATOM     20  C   UNL     1       6.967   6.357  -1.503  1.00  0.00     0.004 C 
ENDBRANCH  18  19
ENDBRANCH  17  18
ENDBRANCH  16  17
ENDBRANCH  15  16
ENDBRANCH  14  15
ENDBRANCH  13  14
ENDBRANCH  12  13
ENDBRANCH   1  12
TORSDOF 16
ENDMDL
MODEL 4
REMARK VINA RESULT:    -3.058      1.311      3.401
REMARK INTER + INTRA:          -8.905
REMARK INTER:                  -6.245
REMARK INTRA:                  -2.659
REMARK UNBOUND:                -2.987
REMARK SMILES CCCCCCCCCCCCCCCCCC(=O)[O-]
REMARK SMILES IDX 10 1 11 2 12 3 13 4 14 5 15 6 16 7 17 8 18 9 19 10 20 11
REMARK SMILES IDX 9 12 8 13 7 14 6 15 5 16 4 17 3 18 2 19 1 20
REMARK H PARENT
REMARK Flexibility Score: inf
ROOT
ATOM      1  C   UNL     1       7.584   8.405   0.476  1.00  0.00     0.000 C 
ENDROOT
BRANCH   1   2
ATOM      2  C   UNL     1       6.251   8.701  -0.227  1.00  0.00     0.000 C 
BRANCH   2   3
ATOM      3  C   UNL     1       5.289   7.513  -0.101  1.00  0.00     0.000 C 
BRANCH   3   4
ATOM      4  C   UNL     1       3.971   7.937   0.560  1.00  0.00     0.000 C 
BRANCH   4   5
ATOM      5  C   UNL     1       4.039   9.396   1.035  1.00  0.00     0.000 C 
BRANCH   5   6
ATOM      6  C   UNL     1       3.994   9.522   2.566  1.00  0.00     0.000 C 
BRANCH   6   7
ATOM      7  C   UNL     1       4.279   8.187   3.278  1.00  0.00     0.006 C 
BRANCH   7   8
ATOM      8  C   UNL     1       5.736   8.082   3.748  1.00  0.00     0.053 C 
BRANCH   8   9
ATOM      9  C   UNL     1       6.264   6.686   3.611  1.00  0.00     0.041 C 
ATOM     10  O   UNL     1       6.049   6.028   2.559  1.00  0.00    -0.550 OA
ATOM     11  O   UNL     1       7.023   6.127   4.631  1.00  0.00    -0.550 OA
ENDBRANCH   8   9
ENDBRANCH   7   8
ENDBRANCH   6   7
ENDBRANCH   5   6
ENDBRANCH   4   5
ENDBRANCH   3   4
ENDBRANCH   2   3
ENDBRANCH   1   2
BRANCH   1  12
ATOM     12  C   UNL     1       8.290   9.678   0.971  1.00  0.00     0.000 C 
BRANCH  12  13
ATOM     13  C   UNL     1       7.324  10.862   1.141  1.00  0.00    -0.000 C 
BRANCH  13  14
ATOM     14  C   UNL     1       7.993  12.216   0.853  1.00  0.00    -0.000 C 
BRANCH  14  15
ATOM     15  C   UNL     1       7.331  12.970  -0.310  1.00  0.00    -0.000 C 
BRANCH  15  16
ATOM     16  C   UNL     1       7.589  12.259  -1.645  1.00  0.00    -0.000 C 
BRANCH  16  17
ATOM     17  C   UNL     1       6.385  12.401  -2.587  1.00  0.00    -0.000 C 
BRANCH  17  18
ATOM     18  C   UNL     1       5.817  11.045  -3.043  1.00  0.00    -0.000 C 
BRANCH  18  19
ATOM     19  C   UNL     1       4.428  10.701  -2.476  1.00  0.00    -0.003 C 
ATOM     20  C   UNL     1       3.752  11.887  -1.790  1.00  0.00     0.004 C 
ENDBRANCH  18  19
ENDBRANCH  17  18
ENDBRANCH  16  17
ENDBRANCH  15  16
ENDBRANCH  14  15
ENDBRANCH  13  14
ENDBRANCH  12  13
ENDBRANCH   1  12
TORSDOF 16
ENDMDL
MODEL 5
REMARK VINA RESULT:    -2.920      2.229      5.108
REMARK INTER + INTRA:          -8.639
REMARK INTER:                  -6.071
REMARK INTRA:                  -2.567
REMARK UNBOUND:                -2.987
REMARK SMILES CCCCCCCCCCCCCCCCCC(=O)[O-]
REMARK SMILES IDX 10 1 11 2 12 3 13 4 14 5 15 6 16 7 17 8 18 9 19 10 20 11
REMARK SMILES IDX 9 12 8 13 7 14 6 15 5 16 4 17 3 18 2 19 1 20
REMARK H PARENT
REMARK Flexibility Score: inf
ROOT
ATOM      1  C   UNL     1       3.229   7.592   1.767  1.00  0.00     0.000 C 
ENDROOT
BRANCH   1   2
ATOM      2  C   UNL     1       3.774   8.617   2.773  1.00  0.00     0.000 C 
BRANCH   2   3
ATOM      3  C   UNL     1       4.848   7.987   3.669  1.00  0.00     0.000 C 
BRANCH   3   4
ATOM      4  C   UNL     1       6.257   8.355   3.185  1.00  0.00     0.000 C 
BRANCH   4   5
ATOM      5  C   UNL     1       6.255   9.713   2.469  1.00  0.00     0.000 C 
BRANCH   5   6
ATOM      6  C   UNL     1       7.032   9.684   1.144  1.00  0.00     0.000 C 
BRANCH   6   7
ATOM      7  C   UNL     1       7.338   8.253   0.668  1.00  0.00     0.006 C 
BRANCH   7   8
ATOM      8  C   UNL     1       6.464   7.840  -0.525  1.00  0.00     0.053 C 
BRANCH   8   9
ATOM      9  C   UNL     1       6.892   6.524  -1.098  1.00  0.00     0.041 C 
ATOM     10  O   UNL     1       6.107   5.540  -1.079  1.00  0.00    -0.550 OA
ATOM     11  O   UNL     1       8.144   6.395  -1.685  1.00  0.00    -0.550 OA
ENDBRANCH   8   9
ENDBRANCH   7   8
ENDBRANCH   6   7
ENDBRANCH   5   6
ENDBRANCH   4   5
ENDBRANCH   3   4
ENDBRANCH   2   3
ENDBRANCH   1   2
BRANCH   1  12
ATOM     12  C   UNL     1       2.949   8.206   0.385  1.00  0.00     0.000 C 
BRANCH  12  13
ATOM     13  C   UNL     1       3.310   9.699   0.319  1.00  0.00    -0.000 C 
BRANCH  13  14
ATOM     14  C   UNL     1       3.591  10.175  -1.116  1.00  0.00    -0.000 C 
BRANCH  14  15
ATOM     15  C   UNL     1       4.169  11.597  -1.168  1.00  0.00    -0.000 C 
BRANCH  15  16
ATOM     16  C   UNL     1       5.635  11.578  -1.622  1.00  0.00    -0.000 C 
BRANCH  16  17
ATOM     17  C   UNL     1       5.833  10.618  -2.804  1.00  0.00    -0.000 C 
BRANCH  17  18
ATOM     18  C   UNL     1       6.541  11.279  -4.000  1.00  0.00    -0.000 C 
BRANCH  18  19
ATOM     19  C   UNL     1       5.636  11.560  -5.213  1.00  0.00    -0.003 C 
ATOM     20  C   UNL     1       4.500  12.532  -4.899  1.00  0.00     0.004 C 
ENDBRANCH  18  19
ENDBRANCH  17  18
ENDBRANCH  16  17
ENDBRANCH  15  16
ENDBRANCH  14  15
ENDBRANCH  13  14
ENDBRANCH  12  13
ENDBRANCH   1  12
TORSDOF 16
ENDMDL
MODEL 6
REMARK VINA RESULT:    -2.917      1.914      4.271
REMARK INTER + INTRA:          -8.633
REMARK INTER:                  -5.632
REMARK INTRA:                  -3.001
REMARK UNBOUND:                -2.987
REMARK SMILES CCCCCCCCCCCCCCCCCC(=O)[O-]
REMARK SMILES IDX 10 1 11 2 12 3 13 4 14 5 15 6 16 7 17 8 18 9 19 10 20 11
REMARK SMILES IDX 9 12 8 13 7 14 6 15 5 16 4 17 3 18 2 19 1 20
REMARK H PARENT
REMARK Flexibility Score: inf
ROOT
ATOM      1  C   UNL     1       7.269  11.837   1.198  1.00  0.00     0.000 C 
ENDROOT
BRANCH   1   2
ATOM      2  C   UNL     1       6.978  12.756   0.001  1.00  0.00     0.000 C 
BRANCH   2   3
ATOM      3  C   UNL     1       7.355  12.071  -1.319  1.00  0.00     0.000 C 
BRANCH   3   4
ATOM      4  C   UNL     1       6.110  11.798  -2.174  1.00  0.00     0.000 C 
BRANCH   4   5
ATOM      5  C   UNL     1       5.755  10.304  -2.168  1.00  0.00     0.000 C 
BRANCH   5   6
ATOM      6  C   UNL     1       4.838   9.919  -0.997  1.00  0.00     0.000 C 
BRANCH   6   7
ATOM      7  C   UNL     1       5.153   8.522  -0.433  1.00  0.00     0.006 C 
BRANCH   7   8
ATOM      8  C   UNL     1       6.639   8.358  -0.089  1.00  0.00     0.053 C 
BRANCH   8   9
ATOM      9  C   UNL     1       7.142   6.989  -0.434  1.00  0.00     0.041 C 
ATOM     10  O   UNL     1       6.332   6.036  -0.582  1.00  0.00    -0.550 OA
ATOM     11  O   UNL     1       8.500   6.775  -0.627  1.00  0.00    -0.550 OA
ENDBRANCH   8   9
ENDBRANCH   7   8
ENDBRANCH   6   7
ENDBRANCH   5   6
ENDBRANCH   4   5
ENDBRANCH   3   4
ENDBRANCH   2   3
ENDBRANCH   1   2
BRANCH   1  12
ATOM     12  C   UNL     1       6.015  11.538   2.036  1.00  0.00     0.000 C 
BRANCH  12  13
ATOM     13  C   UNL     1       4.861  12.512   1.741  1.00  0.00    -0.000 C 
BRANCH  13  14
ATOM     14  C   UNL     1       3.493  11.811   1.704  1.00  0.00    -0.000 C 
BRANCH  14  15
ATOM     15  C   UNL     1       3.363  10.704   2.760  1.00  0.00    -0.000 C 
BRANCH  15  16
ATOM     16  C   UNL     1       2.875   9.395   2.127  1.00  0.00    -0.000 C 
BRANCH  16  17
ATOM     17  C   UNL     1       3.500   8.179   2.826  1.00  0.00    -0.000 C 
BRANCH  17  18
ATOM     18  C   UNL     1       4.585   8.566   3.847  1.00  0.00    -0.000 C 
BRANCH  18  19
ATOM     19  C   UNL     1       5.999   8.061   3.511  1.00  0.00    -0.003 C 
ATOM     20  C   UNL     1       6.179   6.566   3.770  1.00  0.00     0.004 C 
ENDBRANCH  18  19
ENDBRANCH  17  18
ENDBRANCH  16  17
ENDBRANCH  15  16
ENDBRANCH  14  15
ENDBRANCH  13  14
ENDBRANCH  12  13
ENDBRANCH   1  12
TORSDOF 16
ENDMDL
MODEL 7
REMARK VINA RESULT:    -2.850      2.043      4.720
REMARK INTER + INTRA:          -8.502
REMARK INTER:                  -5.501
REMARK INTRA:                  -3.001
REMARK UNBOUND:                -2.987
REMARK SMILES CCCCCCCCCCCCCCCCCC(=O)[O-]
REMARK SMILES IDX 10 1 11 2 12 3 13 4 14 5 15 6 16 7 17 8 18 9 19 10 20 11
REMARK SMILES IDX 9 12 8 13 7 14 6 15 5 16 4 17 3 18 2 19 1 20
REMARK H PARENT
REMARK Flexibility Score: inf
ROOT
ATOM      1  C   UNL     1       3.044   8.983   0.051  1.00  0.00     0.000 C 
ENDROOT
BRANCH   1   2
ATOM      2  C   UNL     1       3.243   7.735   0.925  1.00  0.00     0.000 C 
BRANCH   2   3
ATOM      3  C   UNL     1       3.848   8.109   2.284  1.00  0.00     0.000 C 
BRANCH   3   4
ATOM      4  C   UNL     1       5.060   7.227   2.611  1.00  0.00     0.000 C 
BRANCH   4   5
ATOM      5  C   UNL     1       6.283   8.084   2.970  1.00  0.00     0.000 C 
BRANCH   5   6
ATOM      6  C   UNL     1       6.690   9.038   1.837  1.00  0.00     0.000 C 
BRANCH   6   7
ATOM      7  C   UNL     1       7.506   8.336   0.736  1.00  0.00     0.006 C 
BRANCH   7   8
ATOM      8  C   UNL     1       6.667   8.058  -0.518  1.00  0.00     0.053 C 
BRANCH   8   9
ATOM      9  C   UNL     1       6.864   6.659  -1.019  1.00  0.00     0.041 C 
ATOM     10  O   UNL     1       6.200   5.710  -0.525  1.00  0.00    -0.550 OA
ATOM     11  O   UNL     1       7.754   6.411  -2.055  1.00  0.00    -0.550 OA
ENDBRANCH   8   9
ENDBRANCH   7   8
ENDBRANCH   6   7
ENDBRANCH   5   6
ENDBRANCH   4   5
ENDBRANCH   3   4
ENDBRANCH   2   3
ENDBRANCH   1   2
BRANCH   1  12
ATOM     12  C   UNL     1       3.281  10.292   0.822  1.00  0.00     0.000 C 
BRANCH  12  13
ATOM     13  C   UNL     1       4.304  11.209   0.129  1.00  0.00    -0.000 C 
BRANCH  13  14
ATOM     14  C   UNL     1       4.477  10.879  -1.362  1.00  0.00    -0.000 C 
BRANCH  14  15
ATOM     15  C   UNL     1       5.798  11.410  -1.939  1.00  0.00    -0.000 C 
BRANCH  15  16
ATOM     16  C   UNL     1       6.080  12.834  -1.443  1.00  0.00    -0.000 C 
BRANCH  16  17
ATOM     17  C   UNL     1       7.542  12.982  -0.997  1.00  0.00    -0.000 C 
BRANCH  17  18
ATOM     18  C   UNL     1       7.903  12.070   0.189  1.00  0.00    -0.000 C 
BRANCH  18  19
ATOM     19  C   UNL     1       8.087  12.798   1.532  1.00  0.00    -0.003 C 
ATOM     20  C   UNL     1       6.807  12.847   2.366  1.00  0.00     0.004 C 
ENDBRANCH  18  19
ENDBRANCH  17  18
ENDBRANCH  16  17
ENDBRANCH  15  16
ENDBRANCH  14  15
ENDBRANCH  13  14
ENDBRANCH  12  13
ENDBRANCH   1  12
TORSDOF 16
ENDMDL
MODEL 8
REMARK VINA RESULT:    -2.764      1.980      4.143
REMARK INTER + INTRA:          -8.336
REMARK INTER:                  -5.586
REMARK INTRA:                  -2.750
REMARK UNBOUND:                -2.987
REMARK SMILES CCCCCCCCCCCCCCCCCC(=O)[O-]
REMARK SMILES IDX 10 1 11 2 12 3 13 4 14 5 15 6 16 7 17 8 18 9 19 10 20 11
REMARK SMILES IDX 9 12 8 13 7 14 6 15 5 16 4 17 3 18 2 19 1 20
REMARK H PARENT
REMARK Flexibility Score: inf
ROOT
ATOM      1  C   UNL     1       3.524   9.817   0.408  1.00  0.00     0.000 C 
ENDROOT
BRANCH   1   2
ATOM      2  C   UNL     1       2.875   9.860   1.800  1.00  0.00     0.000 C 
BRANCH   2   3
ATOM      3  C   UNL     1       2.993   8.501   2.502  1.00  0.00     0.000 C 
BRANCH   3   4
ATOM      4  C   UNL     1       3.680   8.643   3.867  1.00  0.00     0.000 C 
BRANCH   4   5
ATOM      5  C   UNL     1       5.202   8.487   3.736  1.00  0.00     0.000 C 
BRANCH   5   6
ATOM      6  C   UNL     1       5.600   7.289   2.859  1.00  0.00     0.000 C 
BRANCH   6   7
ATOM      7  C   UNL     1       6.611   7.669   1.762  1.00  0.00     0.006 C 
BRANCH   7   8
ATOM      8  C   UNL     1       6.062   7.407   0.353  1.00  0.00     0.053 C 
BRANCH   8   9
ATOM      9  C   UNL     1       7.095   6.787  -0.538  1.00  0.00     0.041 C 
ATOM     10  O   UNL     1       8.312   7.077  -0.396  1.00  0.00    -0.550 OA
ATOM     11  O   UNL     1       6.716   5.861  -1.502  1.00  0.00    -0.550 OA
ENDBRANCH   8   9
ENDBRANCH   7   8
ENDBRANCH   6   7
ENDBRANCH   5   6
ENDBRANCH   4   5
ENDBRANCH   3   4
ENDBRANCH   2   3
ENDBRANCH   1   2
BRANCH   1  12
ATOM     12  C   UNL     1       4.612  10.888   0.227  1.00  0.00     0.000 C 
BRANCH  12  13
ATOM     13  C   UNL     1       5.016  11.551   1.555  1.00  0.00    -0.000 C 
BRANCH  13  14
ATOM     14  C   UNL     1       6.518  11.410   1.852  1.00  0.00    -0.000 C 
BRANCH  14  15
ATOM     15  C   UNL     1       7.375  11.375   0.577  1.00  0.00    -0.000 C 
BRANCH  15  16
ATOM     16  C   UNL     1       7.900  12.774   0.230  1.00  0.00    -0.000 C 
BRANCH  16  17
ATOM     17  C   UNL     1       7.935  12.987  -1.290  1.00  0.00    -0.000 C 
BRANCH  17  18
ATOM     18  C   UNL     1       6.537  12.950  -1.934  1.00  0.00    -0.000 C 
BRANCH  18  19
ATOM     19  C   UNL     1       6.465  12.212  -3.282  1.00  0.00    -0.003 C 
ATOM     20  C   UNL     1       5.874  10.808  -3.165  1.00  0.00     0.004 C 
ENDBRANCH  18  19
ENDBRANCH  17  18
ENDBRANCH  16  17
ENDBRANCH  15  16
ENDBRANCH  14  15
ENDBRANCH  13  14
ENDBRANCH  12  13
ENDBRANCH   1  12
TORSDOF 16
ENDMDL
MODEL 9
REMARK VINA RESULT:    -2.721      3.389      6.217
REMARK INTER + INTRA:          -8.253
REMARK INTER:                  -5.109
REMARK INTRA:                  -3.144
REMARK UNBOUND:                -2.987
REMARK SMILES CCCCCCCCCCCCCCCCCC(=O)[O-]
REMARK SMILES IDX 10 1 11 2 12 3 13 4 14 5 15 6 16 7 17 8 18 9 19 10 20 11
REMARK SMILES IDX 9 12 8 13 7 14 6 15 5 16 4 17 3 18 2 19 1 20
REMARK H PARENT
REMARK Flexibility Score: inf
ROOT
ATOM      1  C   UNL     1       6.078   7.723   3.183  1.00  0.00     0.000 C 
ENDROOT
BRANCH   1   2
ATOM      2  C   UNL     1       6.039   7.022   1.817  1.00  0.00     0.000 C 
BRANCH   2   3
ATOM      3  C   UNL     1       6.755   7.860   0.750  1.00  0.00     0.000 C 
BRANCH   3   4
ATOM      4  C   UNL     1       5.869   8.054  -0.487  1.00  0.00     0.000 C 
BRANCH   4   5
ATOM      5  C   UNL     1       6.085   9.443  -1.105  1.00  0.00     0.000 C 
BRANCH   5   6
ATOM      6  C   UNL     1       4.782  10.066  -1.630  1.00  0.00     0.000 C 
BRANCH   6   7
ATOM      7  C   UNL     1       4.988  11.484  -2.193  1.00  0.00     0.006 C 
BRANCH   7   8
ATOM      8  C   UNL     1       6.193  11.561  -3.140  1.00  0.00     0.053 C 
BRANCH   8   9
ATOM      9  C   UNL     1       5.771  11.552  -4.578  1.00  0.00     0.041 C 
ATOM     10  O   UNL     1       4.549  11.547  -4.879  1.00  0.00    -0.550 OA
ATOM     11  O   UNL     1       6.728  11.587  -5.583  1.00  0.00    -0.550 OA
ENDBRANCH   8   9
ENDBRANCH   7   8
ENDBRANCH   6   7
ENDBRANCH   5   6
ENDBRANCH   4   5
ENDBRANCH   3   4
ENDBRANCH   2   3
ENDBRANCH   1   2
BRANCH   1  12
ATOM     12  C   UNL     1       4.717   8.313   3.587  1.00  0.00     0.000 C 
BRANCH  12  13
ATOM     13  C   UNL     1       3.626   8.058   2.534  1.00  0.00    -0.000 C 
BRANCH  13  14
ATOM     14  C   UNL     1       3.217   9.337   1.786  1.00  0.00    -0.000 C 
BRANCH  14  15
ATOM     15  C   UNL     1       3.779  10.610   2.436  1.00  0.00    -0.000 C 
BRANCH  15  16
ATOM     16  C   UNL     1       3.879  11.750   1.414  1.00  0.00    -0.000 C 
BRANCH  16  17
ATOM     17  C   UNL     1       5.275  12.389   1.436  1.00  0.00    -0.000 C 
BRANCH  17  18
ATOM     18  C   UNL     1       6.381  11.399   1.842  1.00  0.00    -0.000 C 
BRANCH  18  19
ATOM     19  C   UNL     1       7.773  11.712   1.266  1.00  0.00    -0.003 C 
ATOM     20  C   UNL     1       7.728  12.685   0.088  1.00  0.00     0.004 C 
ENDBRANCH  18  19
ENDBRANCH  17  18
ENDBRANCH  16  17
ENDBRANCH  15  16
ENDBRANCH  14  15
ENDBRANCH  13  14
ENDBRANCH  12  13
ENDBRANCH   1  12
TORSDOF 16
ENDMDL
