MODEL 1
REMARK VINA RESULT:    -5.202      0.000      0.000
REMARK INTER + INTRA:          -5.574
REMARK INTER:                  -5.506
REMARK INTRA:                  -0.068
REMARK UNBOUND:                -0.068
REMARK SMILES CC(=O)c1cccc(C)c1
REMARK SMILES IDX 9 1 8 2 10 3 4 4 5 5 6 6 7 7 2 8 3 9 1 10
REMARK H PARENT
REMARK Flexibility Score: inf
ROOT
ATOM      1  C   UNL     1      45.742  32.873  50.171  1.00  0.00     0.044 C 
ATOM      2  C   UNL     1      45.237  32.600  51.557  1.00  0.00    -0.050 A 
ATOM      3  C   UNL     1      46.108  32.107  52.543  1.00  0.00     0.015 A 
ATOM      4  C   UNL     1      45.639  31.814  53.838  1.00  0.00     0.017 A 
ATOM      5  C   UNL     1      44.273  32.009  54.123  1.00  0.00     0.012 A 
ATOM      6  C   UNL     1      43.403  32.480  53.138  1.00  0.00     0.001 A 
ATOM      7  C   UNL     1      43.879  32.769  51.858  1.00  0.00     0.003 A 
ENDROOT
BRANCH   4   8
ATOM      8  C   UNL     1      46.579  31.302  54.872  1.00  0.00     0.159 C 
ATOM      9  O   UNL     1      47.448  32.074  55.364  1.00  0.00    -0.295 OA
ATOM     10  C   UNL     1      46.529  29.885  55.358  1.00  0.00     0.093 C 
ENDBRANCH   4   8
TORSDOF 1
ENDMDL
MODEL 2
REMARK VINA RESULT:    -5.093      1.732      2.535
REMARK INTER + INTRA:          -5.459
REMARK INTER:                  -5.382
REMARK INTRA:                  -0.077
REMARK UNBOUND:                -0.068
REMARK SMILES CC(=O)c1cccc(C)c1
REMARK SMILES IDX 9 1 8 2 10 3 4 4 5 5 6 6 7 7 2 8 3 9 1 10
REMARK H PARENT
REMARK Flexibility Score: inf
ROOT
ATOM      1  C   UNL     1      42.724  30.622  50.094  1.00  0.00     0.044 C 
ATOM      2  C   UNL     1      43.930  31.241  50.737  1.00  0.00    -0.050 A 
ATOM      3  C   UNL     1      44.294  30.887  52.046  1.00  0.00     0.015 A 
ATOM      4  C   UNL     1      45.403  31.487  52.674  1.00  0.00     0.017 A 
ATOM      5  C   UNL     1      46.133  32.463  51.968  1.00  0.00     0.012 A 
ATOM      6  C   UNL     1      45.760  32.830  50.674  1.00  0.00     0.001 A 
ATOM      7  C   UNL     1      44.660  32.228  50.061  1.00  0.00     0.003 A 
ENDROOT
BRANCH   4   8
ATOM      8  C   UNL     1      45.780  31.090  54.058  1.00  0.00     0.159 C 
ATOM      9  O   UNL     1      45.324  30.022  54.549  1.00  0.00    -0.295 OA
ATOM     10  C   UNL     1      46.696  31.927  54.901  1.00  0.00     0.093 C 
ENDBRANCH   4   8
TORSDOF 1
ENDMDL
MODEL 3
REMARK VINA RESULT:    -5.033      2.180      3.934
REMARK INTER + INTRA:          -5.395
REMARK INTER:                  -5.328
REMARK INTRA:                  -0.067
REMARK UNBOUND:                -0.068
REMARK SMILES CC(=O)c1cccc(C)c1
REMARK SMILES IDX 9 1 8 2 10 3 4 4 5 5 6 6 7 7 2 8 3 9 1 10
REMARK H PARENT
REMARK Flexibility Score: inf
ROOT
ATOM      1  C   UNL     1      47.271  32.116  55.025  1.00  0.00     0.044 C 
ATOM      2  C   UNL     1      45.988  32.164  54.248  1.00  0.00    -0.050 A 
ATOM      3  C   UNL     1      46.002  32.027  52.851  1.00  0.00     0.015 A 
ATOM      4  C   UNL     1      44.809  32.105  52.106  1.00  0.00     0.017 A 
ATOM      5  C   UNL     1      43.599  32.339  52.790  1.00  0.00     0.012 A 
ATOM      6  C   UNL     1      43.587  32.495  54.177  1.00  0.00     0.001 A 
ATOM      7  C   UNL     1      44.775  32.414  54.905  1.00  0.00     0.003 A 
ENDROOT
BRANCH   4   8
ATOM      8  C   UNL     1      44.843  31.948  50.626  1.00  0.00     0.159 C 
ATOM      9  O   UNL     1      44.708  30.802  50.116  1.00  0.00    -0.295 OA
ATOM     10  C   UNL     1      45.033  33.118  49.709  1.00  0.00     0.093 C 
ENDBRANCH   4   8
TORSDOF 1
ENDMDL
MODEL 4
REMARK VINA RESULT:    -4.965     13.080     13.235
REMARK INTER + INTRA:          -5.323
REMARK INTER:                  -5.246
REMARK INTRA:                  -0.076
REMARK UNBOUND:                -0.068
REMARK SMILES CC(=O)c1cccc(C)c1
REMARK SMILES IDX 9 1 8 2 10 3 4 4 5 5 6 6 7 7 2 8 3 9 1 10
REMARK H PARENT
REMARK Flexibility Score: inf
ROOT
ATOM      1  C   UNL     1      39.755  39.691  62.507  1.00  0.00     0.044 C 
ATOM      2  C   UNL     1      40.046  38.517  63.395  1.00  0.00    -0.050 A 
ATOM      3  C   UNL     1      41.339  38.320  63.907  1.00  0.00     0.015 A 
ATOM      4  C   UNL     1      41.633  37.204  64.713  1.00  0.00     0.017 A 
ATOM      5  C   UNL     1      40.608  36.276  64.985  1.00  0.00     0.012 A 
ATOM      6  C   UNL     1      39.327  36.461  64.460  1.00  0.00     0.001 A 
ATOM      7  C   UNL     1      39.046  37.572  63.664  1.00  0.00     0.003 A 
ENDROOT
BRANCH   4   8
ATOM      8  C   UNL     1      43.007  37.018  65.255  1.00  0.00     0.159 C 
ATOM      9  O   UNL     1      43.423  35.857  65.521  1.00  0.00    -0.295 OA
ATOM     10  C   UNL     1      43.928  38.176  65.497  1.00  0.00     0.093 C 
ENDBRANCH   4   8
TORSDOF 1
ENDMDL
MODEL 5
REMARK VINA RESULT:    -4.950      1.562      1.937
REMARK INTER + INTRA:          -5.307
REMARK INTER:                  -5.239
REMARK INTRA:                  -0.067
REMARK UNBOUND:                -0.068
REMARK SMILES CC(=O)c1cccc(C)c1
REMARK SMILES IDX 9 1 8 2 10 3 4 4 5 5 6 6 7 7 2 8 3 9 1 10
REMARK H PARENT
REMARK Flexibility Score: inf
ROOT
ATOM      1  C   UNL     1      44.965  33.126  49.747  1.00  0.00     0.044 C 
ATOM      2  C   UNL     1      45.062  32.154  50.887  1.00  0.00    -0.050 A 
ATOM      3  C   UNL     1      45.434  32.599  52.166  1.00  0.00     0.015 A 
ATOM      4  C   UNL     1      45.563  31.692  53.235  1.00  0.00     0.017 A 
ATOM      5  C   UNL     1      45.326  30.325  52.995  1.00  0.00     0.012 A 
ATOM      6  C   UNL     1      44.975  29.879  51.719  1.00  0.00     0.001 A 
ATOM      7  C   UNL     1      44.849  30.787  50.667  1.00  0.00     0.003 A 
ENDROOT
BRANCH   4   8
ATOM      8  C   UNL     1      45.949  32.184  54.586  1.00  0.00     0.159 C 
ATOM      9  O   UNL     1      45.123  32.851  55.269  1.00  0.00    -0.295 OA
ATOM     10  C   UNL     1      47.301  31.911  55.174  1.00  0.00     0.093 C 
ENDBRANCH   4   8
TORSDOF 1
ENDMDL
MODEL 6
REMARK VINA RESULT:    -4.929     12.962     13.843
REMARK INTER + INTRA:          -5.285
REMARK INTER:                  -5.215
REMARK INTRA:                  -0.070
REMARK UNBOUND:                -0.068
REMARK SMILES CC(=O)c1cccc(C)c1
REMARK SMILES IDX 9 1 8 2 10 3 4 4 5 5 6 6 7 7 2 8 3 9 1 10
REMARK H PARENT
REMARK Flexibility Score: inf
ROOT
ATOM      1  C   UNL     1      44.353  38.167  65.885  1.00  0.00     0.044 C 
ATOM      2  C   UNL     1      43.145  37.480  65.320  1.00  0.00    -0.050 A 
ATOM      3  C   UNL     1      42.026  38.229  64.922  1.00  0.00     0.015 A 
ATOM      4  C   UNL     1      40.873  37.594  64.423  1.00  0.00     0.017 A 
ATOM      5  C   UNL     1      40.855  36.187  64.345  1.00  0.00     0.012 A 
ATOM      6  C   UNL     1      41.960  35.441  64.759  1.00  0.00     0.001 A 
ATOM      7  C   UNL     1      43.098  36.081  65.251  1.00  0.00     0.003 A 
ENDROOT
BRANCH   4   8
ATOM      8  C   UNL     1      39.700  38.406  63.996  1.00  0.00     0.159 C 
ATOM      9  O   UNL     1      38.575  38.211  64.533  1.00  0.00    -0.295 OA
ATOM     10  C   UNL     1      39.810  39.462  62.938  1.00  0.00     0.093 C 
ENDBRANCH   4   8
TORSDOF 1
ENDMDL
MODEL 7
REMARK VINA RESULT:    -4.873      1.802      2.682
REMARK INTER + INTRA:          -5.225
REMARK INTER:                  -5.157
REMARK INTRA:                  -0.069
REMARK UNBOUND:                -0.068
REMARK SMILES CC(=O)c1cccc(C)c1
REMARK SMILES IDX 9 1 8 2 10 3 4 4 5 5 6 6 7 7 2 8 3 9 1 10
REMARK H PARENT
REMARK Flexibility Score: inf
ROOT
ATOM      1  C   UNL     1      44.562  34.060  48.399  1.00  0.00     0.044 C 
ATOM      2  C   UNL     1      44.320  33.063  49.494  1.00  0.00    -0.050 A 
ATOM      3  C   UNL     1      44.928  33.230  50.749  1.00  0.00     0.015 A 
ATOM      4  C   UNL     1      44.737  32.283  51.774  1.00  0.00     0.017 A 
ATOM      5  C   UNL     1      43.935  31.154  51.512  1.00  0.00     0.012 A 
ATOM      6  C   UNL     1      43.346  30.979  50.258  1.00  0.00     0.001 A 
ATOM      7  C   UNL     1      43.541  31.924  49.250  1.00  0.00     0.003 A 
ENDROOT
BRANCH   4   8
ATOM      8  C   UNL     1      45.381  32.482  53.101  1.00  0.00     0.159 C 
ATOM      9  O   UNL     1      46.637  32.578  53.179  1.00  0.00    -0.295 OA
ATOM     10  C   UNL     1      44.581  32.573  54.366  1.00  0.00     0.093 C 
ENDBRANCH   4   8
TORSDOF 1
ENDMDL
MODEL 8
REMARK VINA RESULT:    -4.803      2.844      4.940
REMARK INTER + INTRA:          -5.151
REMARK INTER:                  -5.083
REMARK INTRA:                  -0.069
REMARK UNBOUND:                -0.068
REMARK SMILES CC(=O)c1cccc(C)c1
REMARK SMILES IDX 9 1 8 2 10 3 4 4 5 5 6 6 7 7 2 8 3 9 1 10
REMARK H PARENT
REMARK Flexibility Score: inf
ROOT
ATOM      1  C   UNL     1      43.414  32.487  54.224  1.00  0.00     0.044 C 
ATOM      2  C   UNL     1      44.355  32.589  53.060  1.00  0.00    -0.050 A 
ATOM      3  C   UNL     1      43.855  32.754  51.758  1.00  0.00     0.015 A 
ATOM      4  C   UNL     1      44.725  32.816  50.653  1.00  0.00     0.017 A 
ATOM      5  C   UNL     1      46.111  32.692  50.876  1.00  0.00     0.012 A 
ATOM      6  C   UNL     1      46.608  32.508  52.168  1.00  0.00     0.001 A 
ATOM      7  C   UNL     1      45.736  32.451  53.256  1.00  0.00     0.003 A 
ENDROOT
BRANCH   4   8
ATOM      8  C   UNL     1      44.177  33.002  49.282  1.00  0.00     0.159 C 
ATOM      9  O   UNL     1      43.353  32.166  48.819  1.00  0.00    -0.295 OA
ATOM     10  C   UNL     1      44.572  34.163  48.420  1.00  0.00     0.093 C 
ENDBRANCH   4   8
TORSDOF 1
ENDMDL
MODEL 9
REMARK VINA RESULT:    -4.663     12.563     13.495
REMARK INTER + INTRA:          -5.003
REMARK INTER:                  -4.936
REMARK INTRA:                  -0.067
REMARK UNBOUND:                -0.068
REMARK SMILES CC(=O)c1cccc(C)c1
REMARK SMILES IDX 9 1 8 2 10 3 4 4 5 5 6 6 7 7 2 8 3 9 1 10
REMARK H PARENT
REMARK Flexibility Score: inf
ROOT
ATOM      1  C   UNL     1      38.978  38.166  64.583  1.00  0.00     0.044 C 
ATOM      2  C   UNL     1      40.320  37.497  64.642  1.00  0.00    -0.050 A 
ATOM      3  C   UNL     1      41.486  38.264  64.800  1.00  0.00     0.015 A 
ATOM      4  C   UNL     1      42.754  37.652  64.821  1.00  0.00     0.017 A 
ATOM      5  C   UNL     1      42.834  36.255  64.664  1.00  0.00     0.012 A 
ATOM      6  C   UNL     1      41.677  35.494  64.487  1.00  0.00     0.001 A 
ATOM      7  C   UNL     1      40.425  36.110  64.469  1.00  0.00     0.003 A 
ENDROOT
BRANCH   4   8
ATOM      8  C   UNL     1      43.978  38.481  65.000  1.00  0.00     0.159 C 
ATOM      9  O   UNL     1      44.436  39.139  64.026  1.00  0.00    -0.295 OA
ATOM     10  C   UNL     1      44.695  38.562  66.314  1.00  0.00     0.093 C 
ENDBRANCH   4   8
TORSDOF 1
ENDMDL
