MODEL 1
REMARK VINA RESULT:     2.051      0.000      0.000
REMARK INTER + INTRA:           5.564
REMARK INTER:                   3.969
REMARK INTRA:                   1.595
REMARK UNBOUND:                 1.595
REMARK SMILES CCCCCCCCCCCCCCCCCC(=O)[O-]
REMARK SMILES IDX 10 1 11 2 12 3 13 4 14 5 15 6 16 7 17 8 18 9 19 10 20 11
REMARK SMILES IDX 9 12 8 13 7 14 6 15 5 16 4 17 3 18 2 19 1 20
REMARK H PARENT
REMARK Flexibility Score: inf
ROOT
ATOM      1  C   UNL     1      19.745   7.907 -15.314  1.00  0.00     0.000 C 
ENDROOT
BRANCH   1   2
ATOM      2  C   UNL     1      18.576   8.843 -15.666  1.00  0.00     0.000 C 
BRANCH   2   3
ATOM      3  C   UNL     1      17.242   8.087 -15.804  1.00  0.00     0.000 C 
BRANCH   3   4
ATOM      4  C   UNL     1      16.161   8.617 -14.849  1.00  0.00     0.000 C 
BRANCH   4   5
ATOM      5  C   UNL     1      16.529   8.418 -13.367  1.00  0.00     0.000 C 
BRANCH   5   6
ATOM      6  C   UNL     1      17.785   9.203 -12.959  1.00  0.00     0.000 C 
BRANCH   6   7
ATOM      7  C   UNL     1      17.597  10.723 -13.068  1.00  0.00     0.006 C 
BRANCH   7   8
ATOM      8  C   UNL     1      18.880  11.399 -13.559  1.00  0.00     0.053 C 
BRANCH   8   9
ATOM      9  C   UNL     1      18.642  12.099 -14.860  1.00  0.00     0.041 C 
ATOM     10  O   UNL     1      18.501  11.435 -15.920  1.00  0.00    -0.550 OA
ATOM     11  O   UNL     1      18.624  13.487 -14.910  1.00  0.00    -0.550 OA
ENDBRANCH   8   9
ENDBRANCH   7   8
ENDBRANCH   6   7
ENDBRANCH   5   6
ENDBRANCH   4   5
ENDBRANCH   3   4
ENDBRANCH   2   3
ENDBRANCH   1   2
BRANCH   1  12
ATOM     12  C   UNL     1      21.035   8.272 -16.069  1.00  0.00     0.000 C 
BRANCH  12  13
ATOM     13  C   UNL     1      21.864   9.356 -15.354  1.00  0.00    -0.000 C 
BRANCH  13  14
ATOM     14  C   UNL     1      22.014  10.679 -16.125  1.00  0.00    -0.000 C 
BRANCH  14  15
ATOM     15  C   UNL     1      21.950  11.914 -15.214  1.00  0.00    -0.000 C 
BRANCH  15  16
ATOM     16  C   UNL     1      22.116  13.206 -16.029  1.00  0.00    -0.000 C 
BRANCH  16  17
ATOM     17  C   UNL     1      20.982  14.219 -15.788  1.00  0.00    -0.000 C 
BRANCH  17  18
ATOM     18  C   UNL     1      21.370  15.433 -14.925  1.00  0.00    -0.000 C 
BRANCH  18  19
ATOM     19  C   UNL     1      21.705  16.677 -15.759  1.00  0.00    -0.003 C 
ATOM     20  C   UNL     1      20.783  17.841 -15.405  1.00  0.00     0.004 C 
ENDBRANCH  18  19
ENDBRANCH  17  18
ENDBRANCH  16  17
ENDBRANCH  15  16
ENDBRANCH  14  15
ENDBRANCH  13  14
ENDBRANCH  12  13
ENDBRANCH   1  12
TORSDOF 16
ENDMDL
MODEL 2
REMARK VINA RESULT:     2.059      2.092      2.516
REMARK INTER + INTRA:           5.579
REMARK INTER:                   5.464
REMARK INTRA:                   0.116
REMARK UNBOUND:                 1.595
REMARK SMILES CCCCCCCCCCCCCCCCCC(=O)[O-]
REMARK SMILES IDX 10 1 11 2 12 3 13 4 14 5 15 6 16 7 17 8 18 9 19 10 20 11
REMARK SMILES IDX 9 12 8 13 7 14 6 15 5 16 4 17 3 18 2 19 1 20
REMARK H PARENT
REMARK Flexibility Score: inf
ROOT
ATOM      1  C   UNL     1      19.621   7.942 -15.267  1.00  0.00     0.000 C 
ENDROOT
BRANCH   1   2
ATOM      2  C   UNL     1      18.615   8.978 -15.796  1.00  0.00     0.000 C 
BRANCH   2   3
ATOM      3  C   UNL     1      17.203   8.771 -15.219  1.00  0.00     0.000 C 
BRANCH   3   4
ATOM      4  C   UNL     1      17.050   9.357 -13.806  1.00  0.00     0.000 C 
BRANCH   4   5
ATOM      5  C   UNL     1      18.149  10.378 -13.465  1.00  0.00     0.000 C 
BRANCH   5   6
ATOM      6  C   UNL     1      17.660  11.478 -12.510  1.00  0.00     0.000 C 
BRANCH   6   7
ATOM      7  C   UNL     1      16.677  12.451 -13.179  1.00  0.00     0.006 C 
BRANCH   7   8
ATOM      8  C   UNL     1      15.339  12.473 -12.436  1.00  0.00     0.053 C 
BRANCH   8   9
ATOM      9  C   UNL     1      14.343  11.589 -13.118  1.00  0.00     0.041 C 
ATOM     10  O   UNL     1      13.188  12.016 -13.379  1.00  0.00    -0.550 OA
ATOM     11  O   UNL     1      14.676  10.274 -13.424  1.00  0.00    -0.550 OA
ENDBRANCH   8   9
ENDBRANCH   7   8
ENDBRANCH   6   7
ENDBRANCH   5   6
ENDBRANCH   4   5
ENDBRANCH   3   4
ENDBRANCH   2   3
ENDBRANCH   1   2
BRANCH   1  12
ATOM     12  C   UNL     1      20.898   7.875 -16.123  1.00  0.00     0.000 C 
BRANCH  12  13
ATOM     13  C   UNL     1      21.898   9.001 -15.800  1.00  0.00    -0.000 C 
BRANCH  13  14
ATOM     14  C   UNL     1      21.367  10.429 -16.018  1.00  0.00    -0.000 C 
BRANCH  14  15
ATOM     15  C   UNL     1      21.941  11.442 -15.016  1.00  0.00    -0.000 C 
BRANCH  15  16
ATOM     16  C   UNL     1      21.957  12.857 -15.614  1.00  0.00    -0.000 C 
BRANCH  16  17
ATOM     17  C   UNL     1      20.556  13.488 -15.699  1.00  0.00    -0.000 C 
BRANCH  17  18
ATOM     18  C   UNL     1      20.544  15.013 -15.915  1.00  0.00    -0.000 C 
BRANCH  18  19
ATOM     19  C   UNL     1      21.788  15.707 -15.346  1.00  0.00    -0.003 C 
ATOM     20  C   UNL     1      22.017  17.060 -16.015  1.00  0.00     0.004 C 
ENDBRANCH  18  19
ENDBRANCH  17  18
ENDBRANCH  16  17
ENDBRANCH  15  16
ENDBRANCH  14  15
ENDBRANCH  13  14
ENDBRANCH  12  13
ENDBRANCH   1  12
TORSDOF 16
ENDMDL
MODEL 3
REMARK VINA RESULT:     2.437     14.150     17.228
REMARK INTER + INTRA:           6.311
REMARK INTER:                   5.369
REMARK INTRA:                   0.942
REMARK UNBOUND:                 1.595
REMARK SMILES CCCCCCCCCCCCCCCCCC(=O)[O-]
REMARK SMILES IDX 10 1 11 2 12 3 13 4 14 5 15 6 16 7 17 8 18 9 19 10 20 11
REMARK SMILES IDX 9 12 8 13 7 14 6 15 5 16 4 17 3 18 2 19 1 20
REMARK H PARENT
REMARK Flexibility Score: inf
ROOT
ATOM      1  C   UNL     1       3.833   8.915 -11.122  1.00  0.00     0.000 C 
ENDROOT
BRANCH   1   2
ATOM      2  C   UNL     1       3.641   8.050 -12.379  1.00  0.00     0.000 C 
BRANCH   2   3
ATOM      3  C   UNL     1       2.219   8.163 -12.958  1.00  0.00     0.000 C 
BRANCH   3   4
ATOM      4  C   UNL     1       2.112   9.231 -14.058  1.00  0.00     0.000 C 
BRANCH   4   5
ATOM      5  C   UNL     1       2.388   8.666 -15.463  1.00  0.00     0.000 C 
BRANCH   5   6
ATOM      6  C   UNL     1       3.628   9.292 -16.120  1.00  0.00     0.000 C 
BRANCH   6   7
ATOM      7  C   UNL     1       4.881   8.415 -15.977  1.00  0.00     0.006 C 
BRANCH   7   8
ATOM      8  C   UNL     1       5.645   8.757 -14.695  1.00  0.00     0.053 C 
BRANCH   8   9
ATOM      9  C   UNL     1       5.931  10.224 -14.629  1.00  0.00     0.041 C 
ATOM     10  O   UNL     1       5.661  10.968 -15.608  1.00  0.00    -0.550 OA
ATOM     11  O   UNL     1       6.541  10.763 -13.502  1.00  0.00    -0.550 OA
ENDBRANCH   8   9
ENDBRANCH   7   8
ENDBRANCH   6   7
ENDBRANCH   5   6
ENDBRANCH   4   5
ENDBRANCH   3   4
ENDBRANCH   2   3
ENDBRANCH   1   2
BRANCH   1  12
ATOM     12  C   UNL     1       5.268   8.840 -10.572  1.00  0.00     0.000 C 
BRANCH  12  13
ATOM     13  C   UNL     1       5.365   8.048  -9.254  1.00  0.00    -0.000 C 
BRANCH  13  14
ATOM     14  C   UNL     1       4.227   8.307  -8.251  1.00  0.00    -0.000 C 
BRANCH  14  15
ATOM     15  C   UNL     1       3.238   9.381  -8.729  1.00  0.00    -0.000 C 
BRANCH  15  16
ATOM     16  C   UNL     1       1.905   9.276  -7.973  1.00  0.00    -0.000 C 
BRANCH  16  17
ATOM     17  C   UNL     1       1.877  10.118  -6.685  1.00  0.00    -0.000 C 
BRANCH  17  18
ATOM     18  C   UNL     1       1.875  11.641  -6.906  1.00  0.00    -0.000 C 
BRANCH  18  19
ATOM     19  C   UNL     1       1.935  12.437  -5.595  1.00  0.00    -0.003 C 
ATOM     20  C   UNL     1       2.543  13.818  -5.818  1.00  0.00     0.004 C 
ENDBRANCH  18  19
ENDBRANCH  17  18
ENDBRANCH  16  17
ENDBRANCH  15  16
ENDBRANCH  14  15
ENDBRANCH  13  14
ENDBRANCH  12  13
ENDBRANCH   1  12
TORSDOF 16
ENDMDL
MODEL 4
REMARK VINA RESULT:     2.442      2.119      3.291
REMARK INTER + INTRA:           6.321
REMARK INTER:                   3.477
REMARK INTRA:                   2.844
REMARK UNBOUND:                 1.595
REMARK SMILES CCCCCCCCCCCCCCCCCC(=O)[O-]
REMARK SMILES IDX 10 1 11 2 12 3 13 4 14 5 15 6 16 7 17 8 18 9 19 10 20 11
REMARK SMILES IDX 9 12 8 13 7 14 6 15 5 16 4 17 3 18 2 19 1 20
REMARK H PARENT
REMARK Flexibility Score: inf
ROOT
ATOM      1  C   UNL     1      18.138  12.019 -13.000  1.00  0.00     0.000 C 
ENDROOT
BRANCH   1   2
ATOM      2  C   UNL     1      18.152  10.481 -12.999  1.00  0.00     0.000 C 
BRANCH   2   3
ATOM      3  C   UNL     1      17.999   9.893 -14.414  1.00  0.00     0.000 C 
BRANCH   3   4
ATOM      4  C   UNL     1      17.728   8.381 -14.400  1.00  0.00     0.000 C 
BRANCH   4   5
ATOM      5  C   UNL     1      16.565   7.978 -15.324  1.00  0.00     0.000 C 
BRANCH   5   6
ATOM      6  C   UNL     1      15.225   7.875 -14.580  1.00  0.00     0.000 C 
BRANCH   6   7
ATOM      7  C   UNL     1      14.562   9.244 -14.361  1.00  0.00     0.006 C 
BRANCH   7   8
ATOM      8  C   UNL     1      15.296  10.039 -13.277  1.00  0.00     0.053 C 
BRANCH   8   9
ATOM      9  C   UNL     1      14.551  11.296 -12.952  1.00  0.00     0.041 C 
ATOM     10  O   UNL     1      13.310  11.366 -13.148  1.00  0.00    -0.550 OA
ATOM     11  O   UNL     1      15.237  12.407 -12.476  1.00  0.00    -0.550 OA
ENDBRANCH   8   9
ENDBRANCH   7   8
ENDBRANCH   6   7
ENDBRANCH   5   6
ENDBRANCH   4   5
ENDBRANCH   3   4
ENDBRANCH   2   3
ENDBRANCH   1   2
BRANCH   1  12
ATOM     12  C   UNL     1      18.387  12.607 -14.399  1.00  0.00     0.000 C 
BRANCH  12  13
ATOM     13  C   UNL     1      19.328  11.740 -15.257  1.00  0.00    -0.000 C 
BRANCH  13  14
ATOM     14  C   UNL     1      20.775  11.640 -14.742  1.00  0.00    -0.000 C 
BRANCH  14  15
ATOM     15  C   UNL     1      21.432  13.012 -14.531  1.00  0.00    -0.000 C 
BRANCH  15  16
ATOM     16  C   UNL     1      21.014  13.997 -15.634  1.00  0.00    -0.000 C 
BRANCH  16  17
ATOM     17  C   UNL     1      22.004  15.163 -15.804  1.00  0.00    -0.000 C 
BRANCH  17  18
ATOM     18  C   UNL     1      21.585  16.475 -15.116  1.00  0.00    -0.000 C 
BRANCH  18  19
ATOM     19  C   UNL     1      21.827  17.713 -15.989  1.00  0.00    -0.003 C 
ATOM     20  C   UNL     1      22.123  18.941 -15.132  1.00  0.00     0.004 C 
ENDBRANCH  18  19
ENDBRANCH  17  18
ENDBRANCH  16  17
ENDBRANCH  15  16
ENDBRANCH  14  15
ENDBRANCH  13  14
ENDBRANCH  12  13
ENDBRANCH   1  12
TORSDOF 16
ENDMDL
MODEL 5
REMARK VINA RESULT:     2.866      2.107      3.004
REMARK INTER + INTRA:           7.141
REMARK INTER:                   6.906
REMARK INTRA:                   0.236
REMARK UNBOUND:                 1.595
REMARK SMILES CCCCCCCCCCCCCCCCCC(=O)[O-]
REMARK SMILES IDX 10 1 11 2 12 3 13 4 14 5 15 6 16 7 17 8 18 9 19 10 20 11
REMARK SMILES IDX 9 12 8 13 7 14 6 15 5 16 4 17 3 18 2 19 1 20
REMARK H PARENT
REMARK Flexibility Score: inf
ROOT
ATOM      1  C   UNL     1      17.907  10.666 -13.849  1.00  0.00     0.000 C 
ENDROOT
BRANCH   1   2
ATOM      2  C   UNL     1      18.243   9.214 -14.230  1.00  0.00     0.000 C 
BRANCH   2   3
ATOM      3  C   UNL     1      17.037   8.472 -14.834  1.00  0.00     0.000 C 
BRANCH   3   4
ATOM      4  C   UNL     1      16.113   7.875 -13.761  1.00  0.00     0.000 C 
BRANCH   4   5
ATOM      5  C   UNL     1      14.662   8.373 -13.883  1.00  0.00     0.000 C 
BRANCH   5   6
ATOM      6  C   UNL     1      14.575   9.878 -14.180  1.00  0.00     0.000 C 
BRANCH   6   7
ATOM      7  C   UNL     1      15.111  10.742 -13.028  1.00  0.00     0.006 C 
BRANCH   7   8
ATOM      8  C   UNL     1      14.572  12.172 -13.121  1.00  0.00     0.053 C 
BRANCH   8   9
ATOM      9  C   UNL     1      15.471  13.121 -12.394  1.00  0.00     0.041 C 
ATOM     10  O   UNL     1      16.541  12.709 -11.874  1.00  0.00    -0.550 OA
ATOM     11  O   UNL     1      15.104  14.454 -12.249  1.00  0.00    -0.550 OA
ENDBRANCH   8   9
ENDBRANCH   7   8
ENDBRANCH   6   7
ENDBRANCH   5   6
ENDBRANCH   4   5
ENDBRANCH   3   4
ENDBRANCH   2   3
ENDBRANCH   1   2
BRANCH   1  12
ATOM     12  C   UNL     1      18.451  11.681 -14.869  1.00  0.00     0.000 C 
BRANCH  12  13
ATOM     13  C   UNL     1      19.052  11.013 -16.120  1.00  0.00    -0.000 C 
BRANCH  13  14
ATOM     14  C   UNL     1      20.565  10.742 -16.052  1.00  0.00    -0.000 C 
BRANCH  14  15
ATOM     15  C   UNL     1      21.159  10.997 -14.658  1.00  0.00    -0.000 C 
BRANCH  15  16
ATOM     16  C   UNL     1      22.125  12.192 -14.684  1.00  0.00    -0.000 C 
BRANCH  16  17
ATOM     17  C   UNL     1      21.522  13.464 -14.061  1.00  0.00    -0.000 C 
BRANCH  17  18
ATOM     18  C   UNL     1      21.801  14.762 -14.841  1.00  0.00    -0.000 C 
BRANCH  18  19
ATOM     19  C   UNL     1      20.969  14.879 -16.125  1.00  0.00    -0.003 C 
ATOM     20  C   UNL     1      19.621  14.181 -15.972  1.00  0.00     0.004 C 
ENDBRANCH  18  19
ENDBRANCH  17  18
ENDBRANCH  16  17
ENDBRANCH  15  16
ENDBRANCH  14  15
ENDBRANCH  13  14
ENDBRANCH  12  13
ENDBRANCH   1  12
TORSDOF 16
ENDMDL
MODEL 6
REMARK VINA RESULT:     3.125      4.418      5.765
REMARK INTER + INTRA:           7.642
REMARK INTER:                   8.767
REMARK INTRA:                  -1.125
REMARK UNBOUND:                 1.595
REMARK SMILES CCCCCCCCCCCCCCCCCC(=O)[O-]
REMARK SMILES IDX 10 1 11 2 12 3 13 4 14 5 15 6 16 7 17 8 18 9 19 10 20 11
REMARK SMILES IDX 9 12 8 13 7 14 6 15 5 16 4 17 3 18 2 19 1 20
REMARK H PARENT
REMARK Flexibility Score: inf
ROOT
ATOM      1  C   UNL     1      16.656  12.128 -12.822  1.00  0.00     0.000 C 
ENDROOT
BRANCH   1   2
ATOM      2  C   UNL     1      16.539  12.775 -11.432  1.00  0.00     0.000 C 
BRANCH   2   3
ATOM      3  C   UNL     1      17.145  11.895 -10.324  1.00  0.00     0.000 C 
BRANCH   3   4
ATOM      4  C   UNL     1      16.176  11.666  -9.154  1.00  0.00     0.000 C 
BRANCH   4   5
ATOM      5  C   UNL     1      16.767  10.757  -8.062  1.00  0.00     0.000 C 
BRANCH   5   6
ATOM      6  C   UNL     1      18.163  10.227  -8.425  1.00  0.00     0.000 C 
BRANCH   6   7
ATOM      7  C   UNL     1      18.590   9.036  -7.553  1.00  0.00     0.006 C 
BRANCH   7   8
ATOM      8  C   UNL     1      19.987   8.545  -7.943  1.00  0.00     0.053 C 
BRANCH   8   9
ATOM      9  C   UNL     1      21.032   9.218  -7.111  1.00  0.00     0.041 C 
ATOM     10  O   UNL     1      21.397  10.393  -7.379  1.00  0.00    -0.550 OA
ATOM     11  O   UNL     1      21.640   8.530  -6.068  1.00  0.00    -0.550 OA
ENDBRANCH   8   9
ENDBRANCH   7   8
ENDBRANCH   6   7
ENDBRANCH   5   6
ENDBRANCH   4   5
ENDBRANCH   3   4
ENDBRANCH   2   3
ENDBRANCH   1   2
BRANCH   1  12
ATOM     12  C   UNL     1      18.048  11.522 -13.071  1.00  0.00     0.000 C 
BRANCH  12  13
ATOM     13  C   UNL     1      18.011  10.285 -13.988  1.00  0.00    -0.000 C 
BRANCH  13  14
ATOM     14  C   UNL     1      19.387   9.768 -14.444  1.00  0.00    -0.000 C 
BRANCH  14  15
ATOM     15  C   UNL     1      19.794  10.291 -15.830  1.00  0.00    -0.000 C 
BRANCH  15  16
ATOM     16  C   UNL     1      21.319  10.447 -15.932  1.00  0.00    -0.000 C 
BRANCH  16  17
ATOM     17  C   UNL     1      21.784  11.907 -15.790  1.00  0.00    -0.000 C 
BRANCH  17  18
ATOM     18  C   UNL     1      21.708  12.475 -14.361  1.00  0.00    -0.000 C 
BRANCH  18  19
ATOM     19  C   UNL     1      20.974  13.821 -14.290  1.00  0.00    -0.003 C 
ATOM     20  C   UNL     1      21.517  14.798 -15.329  1.00  0.00     0.004 C 
ENDBRANCH  18  19
ENDBRANCH  17  18
ENDBRANCH  16  17
ENDBRANCH  15  16
ENDBRANCH  14  15
ENDBRANCH  13  14
ENDBRANCH  12  13
ENDBRANCH   1  12
TORSDOF 16
ENDMDL
MODEL 7
REMARK VINA RESULT:     3.139      1.952      6.672
REMARK INTER + INTRA:           7.669
REMARK INTER:                   7.573
REMARK INTRA:                   0.096
REMARK UNBOUND:                 1.595
REMARK SMILES CCCCCCCCCCCCCCCCCC(=O)[O-]
REMARK SMILES IDX 10 1 11 2 12 3 13 4 14 5 15 6 16 7 17 8 18 9 19 10 20 11
REMARK SMILES IDX 9 12 8 13 7 14 6 15 5 16 4 17 3 18 2 19 1 20
REMARK H PARENT
REMARK Flexibility Score: inf
ROOT
ATOM      1  C   UNL     1      16.586  12.949 -12.236  1.00  0.00     0.000 C 
ENDROOT
BRANCH   1   2
ATOM      2  C   UNL     1      17.781  12.066 -12.634  1.00  0.00     0.000 C 
BRANCH   2   3
ATOM      3  C   UNL     1      18.988  12.893 -13.111  1.00  0.00     0.000 C 
BRANCH   3   4
ATOM      4  C   UNL     1      19.625  12.326 -14.389  1.00  0.00     0.000 C 
BRANCH   4   5
ATOM      5  C   UNL     1      20.999  11.682 -14.133  1.00  0.00     0.000 C 
BRANCH   5   6
ATOM      6  C   UNL     1      21.816  11.498 -15.421  1.00  0.00     0.000 C 
BRANCH   6   7
ATOM      7  C   UNL     1      22.122  12.829 -16.125  1.00  0.00     0.006 C 
BRANCH   7   8
ATOM      8  C   UNL     1      22.069  13.996 -15.135  1.00  0.00     0.053 C 
BRANCH   8   9
ATOM      9  C   UNL     1      21.351  15.163 -15.736  1.00  0.00     0.041 C 
ATOM     10  O   UNL     1      20.138  15.065 -16.057  1.00  0.00    -0.550 OA
ATOM     11  O   UNL     1      22.036  16.346 -15.986  1.00  0.00    -0.550 OA
ENDBRANCH   8   9
ENDBRANCH   7   8
ENDBRANCH   6   7
ENDBRANCH   5   6
ENDBRANCH   4   5
ENDBRANCH   3   4
ENDBRANCH   2   3
ENDBRANCH   1   2
BRANCH   1  12
ATOM     12  C   UNL     1      15.412  12.128 -11.675  1.00  0.00     0.000 C 
BRANCH  12  13
ATOM     13  C   UNL     1      14.537  11.500 -12.776  1.00  0.00    -0.000 C 
BRANCH  13  14
ATOM     14  C   UNL     1      15.270  10.527 -13.717  1.00  0.00    -0.000 C 
BRANCH  14  15
ATOM     15  C   UNL     1      14.675   9.112 -13.697  1.00  0.00    -0.000 C 
BRANCH  15  16
ATOM     16  C   UNL     1      15.761   8.056 -13.952  1.00  0.00    -0.000 C 
BRANCH  16  17
ATOM     17  C   UNL     1      16.087   7.878 -15.445  1.00  0.00    -0.000 C 
BRANCH  17  18
ATOM     18  C   UNL     1      17.587   7.915 -15.790  1.00  0.00    -0.000 C 
BRANCH  18  19
ATOM     19  C   UNL     1      18.311   9.124 -15.182  1.00  0.00    -0.003 C 
ATOM     20  C   UNL     1      19.809   9.070 -15.470  1.00  0.00     0.004 C 
ENDBRANCH  18  19
ENDBRANCH  17  18
ENDBRANCH  16  17
ENDBRANCH  15  16
ENDBRANCH  14  15
ENDBRANCH  13  14
ENDBRANCH  12  13
ENDBRANCH   1  12
TORSDOF 16
ENDMDL
MODEL 8
REMARK VINA RESULT:     3.163      3.968      7.306
REMARK INTER + INTRA:           7.716
REMARK INTER:                   8.826
REMARK INTRA:                  -1.110
REMARK UNBOUND:                 1.595
REMARK SMILES CCCCCCCCCCCCCCCCCC(=O)[O-]
REMARK SMILES IDX 10 1 11 2 12 3 13 4 14 5 15 6 16 7 17 8 18 9 19 10 20 11
REMARK SMILES IDX 9 12 8 13 7 14 6 15 5 16 4 17 3 18 2 19 1 20
REMARK H PARENT
REMARK Flexibility Score: inf
ROOT
ATOM      1  C   UNL     1      16.760  12.379 -11.845  1.00  0.00     0.000 C 
ENDROOT
BRANCH   1   2
ATOM      2  C   UNL     1      17.902  11.992 -12.799  1.00  0.00     0.000 C 
BRANCH   2   3
ATOM      3  C   UNL     1      17.551  10.772 -13.669  1.00  0.00     0.000 C 
BRANCH   3   4
ATOM      4  C   UNL     1      18.784   9.930 -14.032  1.00  0.00     0.000 C 
BRANCH   4   5
ATOM      5  C   UNL     1      19.405  10.338 -15.380  1.00  0.00     0.000 C 
BRANCH   5   6
ATOM      6  C   UNL     1      20.933  10.176 -15.400  1.00  0.00     0.000 C 
BRANCH   6   7
ATOM      7  C   UNL     1      21.669  11.516 -15.552  1.00  0.00     0.006 C 
BRANCH   7   8
ATOM      8  C   UNL     1      21.569  12.343 -14.267  1.00  0.00     0.053 C 
BRANCH   8   9
ATOM      9  C   UNL     1      21.286  13.778 -14.586  1.00  0.00     0.041 C 
ATOM     10  O   UNL     1      22.088  14.678 -14.223  1.00  0.00    -0.550 OA
ATOM     11  O   UNL     1      20.112  14.125 -15.242  1.00  0.00    -0.550 OA
ENDBRANCH   8   9
ENDBRANCH   7   8
ENDBRANCH   6   7
ENDBRANCH   5   6
ENDBRANCH   4   5
ENDBRANCH   3   4
ENDBRANCH   2   3
ENDBRANCH   1   2
BRANCH   1  12
ATOM     12  C   UNL     1      17.160  12.240 -10.365  1.00  0.00     0.000 C 
BRANCH  12  13
ATOM     13  C   UNL     1      16.052  11.613  -9.499  1.00  0.00    -0.000 C 
BRANCH  13  14
ATOM     14  C   UNL     1      16.540  10.921  -8.214  1.00  0.00    -0.000 C 
BRANCH  14  15
ATOM     15  C   UNL     1      18.026  10.539  -8.265  1.00  0.00    -0.000 C 
BRANCH  15  16
ATOM     16  C   UNL     1      18.228   9.065  -7.880  1.00  0.00    -0.000 C 
BRANCH  16  17
ATOM     17  C   UNL     1      19.696   8.614  -7.983  1.00  0.00    -0.000 C 
BRANCH  17  18
ATOM     18  C   UNL     1      20.355   8.243  -6.641  1.00  0.00    -0.000 C 
BRANCH  18  19
ATOM     19  C   UNL     1      21.720   8.913  -6.440  1.00  0.00    -0.003 C 
ATOM     20  C   UNL     1      22.124   9.720  -7.671  1.00  0.00     0.004 C 
ENDBRANCH  18  19
ENDBRANCH  17  18
ENDBRANCH  16  17
ENDBRANCH  15  16
ENDBRANCH  14  15
ENDBRANCH  13  14
ENDBRANCH  12  13
ENDBRANCH   1  12
TORSDOF 16
ENDMDL
MODEL 9
REMARK VINA RESULT:     3.269      3.808      4.767
REMARK INTER + INTRA:           7.920
REMARK INTER:                   9.379
REMARK INTRA:                  -1.459
REMARK UNBOUND:                 1.595
REMARK SMILES CCCCCCCCCCCCCCCCCC(=O)[O-]
REMARK SMILES IDX 10 1 11 2 12 3 13 4 14 5 15 6 16 7 17 8 18 9 19 10 20 11
REMARK SMILES IDX 9 12 8 13 7 14 6 15 5 16 4 17 3 18 2 19 1 20
REMARK H PARENT
REMARK Flexibility Score: inf
ROOT
ATOM      1  C   UNL     1      17.808  10.493 -14.382  1.00  0.00     0.000 C 
ENDROOT
BRANCH   1   2
ATOM      2  C   UNL     1      18.172  11.134 -13.032  1.00  0.00     0.000 C 
BRANCH   2   3
ATOM      3  C   UNL     1      17.352  12.405 -12.747  1.00  0.00     0.000 C 
BRANCH   3   4
ATOM      4  C   UNL     1      16.580  12.326 -11.421  1.00  0.00     0.000 C 
BRANCH   4   5
ATOM      5  C   UNL     1      17.394  11.655 -10.300  1.00  0.00     0.000 C 
BRANCH   5   6
ATOM      6  C   UNL     1      16.543  11.330  -9.063  1.00  0.00     0.000 C 
BRANCH   6   7
ATOM      7  C   UNL     1      17.274  10.422  -8.062  1.00  0.00     0.006 C 
BRANCH   7   8
ATOM      8  C   UNL     1      18.790  10.607  -8.163  1.00  0.00     0.053 C 
BRANCH   8   9
ATOM      9  C   UNL     1      19.503   9.390  -7.663  1.00  0.00     0.041 C 
ATOM     10  O   UNL     1      20.689   9.474  -7.250  1.00  0.00    -0.550 OA
ATOM     11  O   UNL     1      18.873   8.152  -7.697  1.00  0.00    -0.550 OA
ENDBRANCH   8   9
ENDBRANCH   7   8
ENDBRANCH   6   7
ENDBRANCH   5   6
ENDBRANCH   4   5
ENDBRANCH   3   4
ENDBRANCH   2   3
ENDBRANCH   1   2
BRANCH   1  12
ATOM     12  C   UNL     1      18.806   9.399 -14.798  1.00  0.00     0.000 C 
BRANCH  12  13
ATOM     13  C   UNL     1      19.707   9.822 -15.973  1.00  0.00    -0.000 C 
BRANCH  13  14
ATOM     14  C   UNL     1      21.161   9.323 -15.895  1.00  0.00    -0.000 C 
BRANCH  14  15
ATOM     15  C   UNL     1      22.093  10.302 -15.165  1.00  0.00    -0.000 C 
BRANCH  15  16
ATOM     16  C   UNL     1      21.730  11.757 -15.499  1.00  0.00    -0.000 C 
BRANCH  16  17
ATOM     17  C   UNL     1      21.241  12.550 -14.273  1.00  0.00    -0.000 C 
BRANCH  17  18
ATOM     18  C   UNL     1      21.119  14.069 -14.491  1.00  0.00    -0.000 C 
BRANCH  18  19
ATOM     19  C   UNL     1      20.357  14.431 -15.772  1.00  0.00    -0.003 C 
ATOM     20  C   UNL     1      19.082  13.602 -15.906  1.00  0.00     0.004 C 
ENDBRANCH  18  19
ENDBRANCH  17  18
ENDBRANCH  16  17
ENDBRANCH  15  16
ENDBRANCH  14  15
ENDBRANCH  13  14
ENDBRANCH  12  13
ENDBRANCH   1  12
TORSDOF 16
ENDMDL
