MODEL 1
REMARK VINA RESULT:    -5.370      0.000      0.000
REMARK INTER + INTRA:          -5.992
REMARK INTER:                  -5.841
REMARK INTRA:                  -0.151
REMARK UNBOUND:                -0.151
REMARK SMILES CC1=CC[C@@](O)(C(C)C)CC1
REMARK SMILES IDX 1 1 2 2 3 3 4 4 5 5 10 6 11 7 7 8 8 9 9 10 6 11
REMARK H PARENT 6 12
REMARK Flexibility Score: inf
ROOT
ATOM      1  C   UNL     1      -5.194  21.994  47.720  1.00  0.00     0.039 C 
ATOM      2  C   UNL     1      -4.075  21.011  47.510  1.00  0.00    -0.077 C 
ATOM      3  C   UNL     1      -3.201  21.189  46.510  1.00  0.00    -0.025 C 
ATOM      4  C   UNL     1      -2.144  20.148  46.256  1.00  0.00     0.062 C 
ATOM      5  C   UNL     1      -2.756  18.714  46.298  1.00  0.00     0.071 C 
ATOM      6  C   UNL     1      -3.639  18.524  47.593  1.00  0.00     0.040 C 
ATOM      7  C   UNL     1      -3.912  19.809  48.404  1.00  0.00     0.033 C 
ENDROOT
BRANCH   5   8
ATOM      8  C   UNL     1      -1.618  17.631  46.264  1.00  0.00     0.015 C 
ATOM      9  C   UNL     1      -0.218  18.220  46.533  1.00  0.00     0.010 C 
ATOM     10  C   UNL     1      -1.581  16.875  44.919  1.00  0.00     0.010 C 
ENDBRANCH   5   8
BRANCH   5  11
ATOM     11  O   UNL     1      -3.556  18.533  45.148  1.00  0.00    -0.389 OA
ATOM     12  H   UNL     1      -4.360  19.110  45.230  1.00  0.00     0.211 HD
ENDBRANCH   5  11
TORSDOF 2
ENDMDL
MODEL 2
REMARK VINA RESULT:    -5.107      1.480      2.181
REMARK INTER + INTRA:          -5.705
REMARK INTER:                  -5.509
REMARK INTRA:                  -0.196
REMARK UNBOUND:                -0.151
REMARK SMILES CC1=CC[C@@](O)(C(C)C)CC1
REMARK SMILES IDX 1 1 2 2 3 3 4 4 5 5 10 6 11 7 7 8 8 9 9 10 6 11
REMARK H PARENT 6 12
REMARK Flexibility Score: inf
ROOT
ATOM      1  C   UNL     1      -3.835  21.898  48.774  1.00  0.00     0.039 C 
ATOM      2  C   UNL     1      -3.716  20.633  47.969  1.00  0.00    -0.077 C 
ATOM      3  C   UNL     1      -4.100  19.462  48.495  1.00  0.00    -0.025 C 
ATOM      4  C   UNL     1      -3.890  18.194  47.712  1.00  0.00     0.062 C 
ATOM      5  C   UNL     1      -2.459  18.156  47.093  1.00  0.00     0.071 C 
ATOM      6  C   UNL     1      -2.140  19.510  46.344  1.00  0.00     0.040 C 
ATOM      7  C   UNL     1      -3.162  20.646  46.568  1.00  0.00     0.033 C 
ENDROOT
BRANCH   5   8
ATOM      8  C   UNL     1      -2.326  16.950  46.094  1.00  0.00     0.015 C 
ATOM      9  C   UNL     1      -0.998  16.960  45.310  1.00  0.00     0.010 C 
ATOM     10  C   UNL     1      -3.491  16.906  45.083  1.00  0.00     0.010 C 
ENDBRANCH   5   8
BRANCH   5  11
ATOM     11  O   UNL     1      -1.524  17.959  48.133  1.00  0.00    -0.389 OA
ATOM     12  H   UNL     1      -1.149  17.043  48.050  1.00  0.00     0.211 HD
ENDBRANCH   5  11
TORSDOF 2
ENDMDL
MODEL 3
REMARK VINA RESULT:    -5.054      5.950      7.981
REMARK INTER + INTRA:          -5.648
REMARK INTER:                  -5.441
REMARK INTRA:                  -0.208
REMARK UNBOUND:                -0.151
REMARK SMILES CC1=CC[C@@](O)(C(C)C)CC1
REMARK SMILES IDX 1 1 2 2 3 3 4 4 5 5 10 6 11 7 7 8 8 9 9 10 6 11
REMARK H PARENT 6 12
REMARK Flexibility Score: inf
ROOT
ATOM      1  C   UNL     1      -3.871  26.667  53.708  1.00  0.00     0.039 C 
ATOM      2  C   UNL     1      -4.122  26.174  52.309  1.00  0.00    -0.077 C 
ATOM      3  C   UNL     1      -4.376  27.044  51.323  1.00  0.00    -0.025 C 
ATOM      4  C   UNL     1      -4.717  26.530  49.951  1.00  0.00     0.062 C 
ATOM      5  C   UNL     1      -5.754  25.368  50.035  1.00  0.00     0.071 C 
ATOM      6  C   UNL     1      -5.301  24.294  51.101  1.00  0.00     0.040 C 
ATOM      7  C   UNL     1      -4.103  24.702  51.984  1.00  0.00     0.033 C 
ENDROOT
BRANCH   5   8
ATOM      8  C   UNL     1      -5.930  24.686  48.631  1.00  0.00     0.015 C 
ATOM      9  C   UNL     1      -5.305  23.278  48.562  1.00  0.00     0.010 C 
ATOM     10  C   UNL     1      -5.332  25.543  47.495  1.00  0.00     0.010 C 
ENDBRANCH   5   8
BRANCH   5  11
ATOM     11  O   UNL     1      -7.004  25.908  50.410  1.00  0.00    -0.389 OA
ATOM     12  H   UNL     1      -6.950  26.898  50.351  1.00  0.00     0.211 HD
ENDBRANCH   5  11
TORSDOF 2
ENDMDL
MODEL 4
REMARK VINA RESULT:    -4.930      1.160      4.378
REMARK INTER + INTRA:          -5.513
REMARK INTER:                  -5.380
REMARK INTRA:                  -0.133
REMARK UNBOUND:                -0.151
REMARK SMILES CC1=CC[C@@](O)(C(C)C)CC1
REMARK SMILES IDX 1 1 2 2 3 3 4 4 5 5 10 6 11 7 7 8 8 9 9 10 6 11
REMARK H PARENT 6 12
REMARK Flexibility Score: inf
ROOT
ATOM      1  C   UNL     1      -0.792  16.877  45.106  1.00  0.00     0.039 C 
ATOM      2  C   UNL     1      -1.574  17.682  46.108  1.00  0.00    -0.077 C 
ATOM      3  C   UNL     1      -2.908  17.569  46.169  1.00  0.00    -0.025 C 
ATOM      4  C   UNL     1      -3.683  18.449  47.112  1.00  0.00     0.062 C 
ATOM      5  C   UNL     1      -3.189  19.926  47.026  1.00  0.00     0.071 C 
ATOM      6  C   UNL     1      -1.614  19.992  47.130  1.00  0.00     0.040 C 
ATOM      7  C   UNL     1      -0.887  18.632  47.055  1.00  0.00     0.033 C 
ENDROOT
BRANCH   5   8
ATOM      8  C   UNL     1      -3.836  20.788  48.169  1.00  0.00     0.015 C 
ATOM      9  C   UNL     1      -4.965  21.709  47.664  1.00  0.00     0.010 C 
ATOM     10  C   UNL     1      -2.789  21.653  48.902  1.00  0.00     0.010 C 
ENDBRANCH   5   8
BRANCH   5  11
ATOM     11  O   UNL     1      -3.605  20.467  45.790  1.00  0.00    -0.389 OA
ATOM     12  H   UNL     1      -3.300  19.864  45.063  1.00  0.00     0.211 HD
ENDBRANCH   5  11
TORSDOF 2
ENDMDL
MODEL 5
REMARK VINA RESULT:    -4.822      4.808      7.536
REMARK INTER + INTRA:          -5.395
REMARK INTER:                  -5.247
REMARK INTRA:                  -0.148
REMARK UNBOUND:                -0.151
REMARK SMILES CC1=CC[C@@](O)(C(C)C)CC1
REMARK SMILES IDX 1 1 2 2 3 3 4 4 5 5 10 6 11 7 7 8 8 9 9 10 6 11
REMARK H PARENT 6 12
REMARK Flexibility Score: inf
ROOT
ATOM      1  C   UNL     1      -5.358  21.784  47.746  1.00  0.00     0.039 C 
ATOM      2  C   UNL     1      -4.923  23.025  48.475  1.00  0.00    -0.077 C 
ATOM      3  C   UNL     1      -3.668  23.134  48.929  1.00  0.00    -0.025 C 
ATOM      4  C   UNL     1      -3.274  24.341  49.737  1.00  0.00     0.062 C 
ATOM      5  C   UNL     1      -4.354  24.664  50.815  1.00  0.00     0.071 C 
ATOM      6  C   UNL     1      -5.796  24.683  50.169  1.00  0.00     0.040 C 
ATOM      7  C   UNL     1      -5.878  24.165  48.718  1.00  0.00     0.033 C 
ENDROOT
BRANCH   5   8
ATOM      8  C   UNL     1      -4.055  26.048  51.494  1.00  0.00     0.015 C 
ATOM      9  C   UNL     1      -3.997  25.965  53.033  1.00  0.00     0.010 C 
ATOM     10  C   UNL     1      -5.092  27.121  51.100  1.00  0.00     0.010 C 
ENDBRANCH   5   8
BRANCH   5  11
ATOM     11  O   UNL     1      -4.299  23.671  51.818  1.00  0.00    -0.389 OA
ATOM     12  H   UNL     1      -4.464  22.788  51.396  1.00  0.00     0.211 HD
ENDBRANCH   5  11
TORSDOF 2
ENDMDL
MODEL 6
REMARK VINA RESULT:    -4.725      1.806      4.353
REMARK INTER + INTRA:          -5.290
REMARK INTER:                  -5.104
REMARK INTRA:                  -0.186
REMARK UNBOUND:                -0.151
REMARK SMILES CC1=CC[C@@](O)(C(C)C)CC1
REMARK SMILES IDX 1 1 2 2 3 3 4 4 5 5 10 6 11 7 7 8 8 9 9 10 6 11
REMARK H PARENT 6 12
REMARK Flexibility Score: inf
ROOT
ATOM      1  C   UNL     1      -2.147  16.891  47.054  1.00  0.00     0.039 C 
ATOM      2  C   UNL     1      -2.827  18.231  47.106  1.00  0.00    -0.077 C 
ATOM      3  C   UNL     1      -2.507  19.183  46.220  1.00  0.00    -0.025 C 
ATOM      4  C   UNL     1      -3.129  20.548  46.343  1.00  0.00     0.062 C 
ATOM      5  C   UNL     1      -3.097  21.041  47.822  1.00  0.00     0.071 C 
ATOM      6  C   UNL     1      -3.647  19.923  48.793  1.00  0.00     0.040 C 
ATOM      7  C   UNL     1      -3.870  18.539  48.149  1.00  0.00     0.033 C 
ENDROOT
BRANCH   5   8
ATOM      8  C   UNL     1      -3.947  22.353  47.982  1.00  0.00     0.015 C 
ATOM      9  C   UNL     1      -3.873  22.950  49.401  1.00  0.00     0.010 C 
ATOM     10  C   UNL     1      -5.431  22.125  47.623  1.00  0.00     0.010 C 
ENDBRANCH   5   8
BRANCH   5  11
ATOM     11  O   UNL     1      -1.762  21.350  48.164  1.00  0.00    -0.389 OA
ATOM     12  H   UNL     1      -1.770  21.977  48.934  1.00  0.00     0.211 HD
ENDBRANCH   5  11
TORSDOF 2
ENDMDL
MODEL 7
REMARK VINA RESULT:    -4.682      7.425      9.223
REMARK INTER + INTRA:          -5.243
REMARK INTER:                  -5.065
REMARK INTRA:                  -0.178
REMARK UNBOUND:                -0.151
REMARK SMILES CC1=CC[C@@](O)(C(C)C)CC1
REMARK SMILES IDX 1 1 2 2 3 3 4 4 5 5 10 6 11 7 7 8 8 9 9 10 6 11
REMARK H PARENT 6 12
REMARK Flexibility Score: inf
ROOT
ATOM      1  C   UNL     1      -4.392  24.278  51.875  1.00  0.00     0.039 C 
ATOM      2  C   UNL     1      -4.907  25.197  50.802  1.00  0.00    -0.077 C 
ATOM      3  C   UNL     1      -4.764  26.524  50.926  1.00  0.00    -0.025 C 
ATOM      4  C   UNL     1      -5.366  27.433  49.890  1.00  0.00     0.062 C 
ATOM      5  C   UNL     1      -6.824  26.996  49.547  1.00  0.00     0.071 C 
ATOM      6  C   UNL     1      -6.884  25.446  49.248  1.00  0.00     0.040 C 
ATOM      7  C   UNL     1      -5.597  24.659  49.575  1.00  0.00     0.033 C 
ENDROOT
BRANCH   5   8
ATOM      8  C   UNL     1      -7.361  27.800  48.309  1.00  0.00     0.015 C 
ATOM      9  C   UNL     1      -8.884  27.664  48.116  1.00  0.00     0.010 C 
ATOM     10  C   UNL     1      -6.661  27.378  46.999  1.00  0.00     0.010 C 
ENDBRANCH   5   8
BRANCH   5  11
ATOM     11  O   UNL     1      -7.654  27.298  50.649  1.00  0.00    -0.389 OA
ATOM     12  H   UNL     1      -8.234  28.066  50.406  1.00  0.00     0.211 HD
ENDBRANCH   5  11
TORSDOF 2
ENDMDL
MODEL 8
REMARK VINA RESULT:    -4.640      7.417      8.902
REMARK INTER + INTRA:          -5.197
REMARK INTER:                  -5.080
REMARK INTRA:                  -0.118
REMARK UNBOUND:                -0.151
REMARK SMILES CC1=CC[C@@](O)(C(C)C)CC1
REMARK SMILES IDX 1 1 2 2 3 3 4 4 5 5 10 6 11 7 7 8 8 9 9 10 6 11
REMARK H PARENT 6 12
REMARK Flexibility Score: inf
ROOT
ATOM      1  C   UNL     1      -1.595  25.500  53.699  1.00  0.00     0.039 C 
ATOM      2  C   UNL     1      -2.942  25.445  53.033  1.00  0.00    -0.077 C 
ATOM      3  C   UNL     1      -3.290  24.375  52.306  1.00  0.00    -0.025 C 
ATOM      4  C   UNL     1      -4.603  24.375  51.571  1.00  0.00     0.062 C 
ATOM      5  C   UNL     1      -4.823  25.728  50.827  1.00  0.00     0.071 C 
ATOM      6  C   UNL     1      -4.556  26.946  51.798  1.00  0.00     0.040 C 
ATOM      7  C   UNL     1      -3.924  26.581  53.158  1.00  0.00     0.033 C 
ENDROOT
BRANCH   5   8
ATOM      8  C   UNL     1      -6.285  25.810  50.258  1.00  0.00     0.015 C 
ATOM      9  C   UNL     1      -6.450  25.074  48.913  1.00  0.00     0.010 C 
ATOM     10  C   UNL     1      -6.754  27.270  50.079  1.00  0.00     0.010 C 
ENDBRANCH   5   8
BRANCH   5  11
ATOM     11  O   UNL     1      -3.931  25.790  49.734  1.00  0.00    -0.389 OA
ATOM     12  H   UNL     1      -3.136  26.318  50.006  1.00  0.00     0.211 HD
ENDBRANCH   5  11
TORSDOF 2
ENDMDL
MODEL 9
REMARK VINA RESULT:    -4.573      2.212      4.852
REMARK INTER + INTRA:          -5.124
REMARK INTER:                  -5.008
REMARK INTRA:                  -0.117
REMARK UNBOUND:                -0.151
REMARK SMILES CC1=CC[C@@](O)(C(C)C)CC1
REMARK SMILES IDX 1 1 2 2 3 3 4 4 5 5 10 6 11 7 7 8 8 9 9 10 6 11
REMARK H PARENT 6 12
REMARK Flexibility Score: inf
ROOT
ATOM      1  C   UNL     1       3.245  17.594  46.774  1.00  0.00     0.039 C 
ATOM      2  C   UNL     1       1.849  17.981  46.373  1.00  0.00    -0.077 C 
ATOM      3  C   UNL     1       1.163  18.875  47.098  1.00  0.00    -0.025 C 
ATOM      4  C   UNL     1      -0.265  19.182  46.738  1.00  0.00     0.062 C 
ATOM      5  C   UNL     1      -1.061  17.870  46.457  1.00  0.00     0.071 C 
ATOM      6  C   UNL     1      -0.264  16.939  45.460  1.00  0.00     0.040 C 
ATOM      7  C   UNL     1       1.186  17.376  45.162  1.00  0.00     0.033 C 
ENDROOT
BRANCH   5   8
ATOM      8  C   UNL     1      -2.476  18.204  45.861  1.00  0.00     0.015 C 
ATOM      9  C   UNL     1      -3.503  18.608  46.937  1.00  0.00     0.010 C 
ATOM     10  C   UNL     1      -3.053  17.024  45.051  1.00  0.00     0.010 C 
ENDBRANCH   5   8
BRANCH   5  11
ATOM     11  O   UNL     1      -1.258  17.194  47.681  1.00  0.00    -0.389 OA
ATOM     12  H   UNL     1      -1.662  16.308  47.490  1.00  0.00     0.211 HD
ENDBRANCH   5  11
TORSDOF 2
ENDMDL
