MODEL 1
REMARK VINA RESULT:    -4.265      0.000      0.000
REMARK INTER + INTRA:          -9.637
REMARK INTER:                  -7.756
REMARK INTRA:                  -1.881
REMARK UNBOUND:                -1.881
REMARK SMILES CCCCCCCCCCCCCCCC(=O)[O-]
REMARK SMILES IDX 9 1 10 2 11 3 12 4 13 5 14 6 15 7 16 8 17 9 18 10 8 11 7 12
REMARK SMILES IDX 6 13 5 14 4 15 3 16 2 17 1 18
REMARK H PARENT
REMARK Flexibility Score: inf
ROOT
ATOM      1  C   UNL     1     111.981 116.851 127.132  1.00  0.00     0.000 C 
ENDROOT
BRANCH   1   2
ATOM      2  C   UNL     1     112.984 116.282 126.112  1.00  0.00     0.000 C 
BRANCH   2   3
ATOM      3  C   UNL     1     112.320 115.881 124.783  1.00  0.00     0.000 C 
BRANCH   3   4
ATOM      4  C   UNL     1     113.011 116.520 123.566  1.00  0.00     0.000 C 
BRANCH   4   5
ATOM      5  C   UNL     1     112.008 117.003 122.507  1.00  0.00     0.000 C 
BRANCH   5   6
ATOM      6  C   UNL     1     111.178 118.214 122.971  1.00  0.00     0.006 C 
BRANCH   6   7
ATOM      7  C   UNL     1     112.010 119.486 123.219  1.00  0.00     0.053 C 
BRANCH   7   8
ATOM      8  C   UNL     1     111.944 119.952 124.642  1.00  0.00     0.041 C 
ATOM      9  O   UNL     1     110.943 119.679 125.355  1.00  0.00    -0.550 OA
ATOM     10  O   UNL     1     112.974 120.720 125.171  1.00  0.00    -0.550 OA
ENDBRANCH   7   8
ENDBRANCH   6   7
ENDBRANCH   5   6
ENDBRANCH   4   5
ENDBRANCH   3   4
ENDBRANCH   2   3
ENDBRANCH   1   2
BRANCH   1  11
ATOM     11  C   UNL     1     111.934 116.109 128.484  1.00  0.00     0.000 C 
BRANCH  11  12
ATOM     12  C   UNL     1     112.059 117.011 129.727  1.00  0.00    -0.000 C 
BRANCH  12  13
ATOM     13  C   UNL     1     113.051 116.514 130.798  1.00  0.00    -0.000 C 
BRANCH  13  14
ATOM     14  C   UNL     1     114.068 115.464 130.314  1.00  0.00    -0.000 C 
BRANCH  14  15
ATOM     15  C   UNL     1     115.473 116.049 130.096  1.00  0.00    -0.000 C 
BRANCH  15  16
ATOM     16  C   UNL     1     115.650 116.681 128.703  1.00  0.00    -0.000 C 
BRANCH  16  17
ATOM     17  C   UNL     1     115.980 118.184 128.707  1.00  0.00    -0.003 C 
ATOM     18  C   UNL     1     114.865 119.045 128.118  1.00  0.00     0.004 C 
ENDBRANCH  16  17
ENDBRANCH  15  16
ENDBRANCH  14  15
ENDBRANCH  13  14
ENDBRANCH  12  13
ENDBRANCH  11  12
ENDBRANCH   1  11
TORSDOF 14
ENDMDL
MODEL 2
REMARK VINA RESULT:    -4.237      2.857      6.392
REMARK INTER + INTRA:          -9.585
REMARK INTER:                  -7.547
REMARK INTRA:                  -2.038
REMARK UNBOUND:                -1.881
REMARK SMILES CCCCCCCCCCCCCCCC(=O)[O-]
REMARK SMILES IDX 9 1 10 2 11 3 12 4 13 5 14 6 15 7 16 8 17 9 18 10 8 11 7 12
REMARK SMILES IDX 6 13 5 14 4 15 3 16 2 17 1 18
REMARK H PARENT
REMARK Flexibility Score: inf
ROOT
ATOM      1  C   UNL     1     113.366 116.139 125.067  1.00  0.00     0.000 C 
ENDROOT
BRANCH   1   2
ATOM      2  C   UNL     1     113.393 116.473 126.570  1.00  0.00     0.000 C 
BRANCH   2   3
ATOM      3  C   UNL     1     112.054 117.032 127.081  1.00  0.00     0.000 C 
BRANCH   3   4
ATOM      4  C   UNL     1     111.712 116.533 128.495  1.00  0.00     0.000 C 
BRANCH   4   5
ATOM      5  C   UNL     1     112.237 117.473 129.593  1.00  0.00     0.000 C 
BRANCH   5   6
ATOM      6  C   UNL     1     112.818 116.719 130.803  1.00  0.00     0.006 C 
BRANCH   6   7
ATOM      7  C   UNL     1     113.823 115.613 130.429  1.00  0.00     0.053 C 
BRANCH   7   8
ATOM      8  C   UNL     1     115.237 115.979 130.765  1.00  0.00     0.041 C 
ATOM      9  O   UNL     1     115.522 117.152 131.125  1.00  0.00    -0.550 OA
ATOM     10  O   UNL     1     116.247 115.032 130.648  1.00  0.00    -0.550 OA
ENDBRANCH   7   8
ENDBRANCH   6   7
ENDBRANCH   5   6
ENDBRANCH   4   5
ENDBRANCH   3   4
ENDBRANCH   2   3
ENDBRANCH   1   2
BRANCH   1  11
ATOM     11  C   UNL     1     112.007 116.365 124.373  1.00  0.00     0.000 C 
BRANCH  11  12
ATOM     12  C   UNL     1     112.090 116.958 122.954  1.00  0.00    -0.000 C 
BRANCH  12  13
ATOM     13  C   UNL     1     111.660 118.434 122.835  1.00  0.00    -0.000 C 
BRANCH  13  14
ATOM     14  C   UNL     1     111.071 119.051 124.118  1.00  0.00    -0.000 C 
BRANCH  14  15
ATOM     15  C   UNL     1     111.988 120.113 124.745  1.00  0.00    -0.000 C 
BRANCH  15  16
ATOM     16  C   UNL     1     113.372 120.185 124.073  1.00  0.00    -0.000 C 
BRANCH  16  17
ATOM     17  C   UNL     1     114.547 119.719 124.951  1.00  0.00    -0.003 C 
ATOM     18  C   UNL     1     114.336 120.005 126.436  1.00  0.00     0.004 C 
ENDBRANCH  16  17
ENDBRANCH  15  16
ENDBRANCH  14  15
ENDBRANCH  13  14
ENDBRANCH  12  13
ENDBRANCH  11  12
ENDBRANCH   1  11
TORSDOF 14
ENDMDL
MODEL 3
REMARK VINA RESULT:    -4.234      1.417      5.591
REMARK INTER + INTRA:          -9.581
REMARK INTER:                  -7.804
REMARK INTRA:                  -1.777
REMARK UNBOUND:                -1.881
REMARK SMILES CCCCCCCCCCCCCCCC(=O)[O-]
REMARK SMILES IDX 9 1 10 2 11 3 12 4 13 5 14 6 15 7 16 8 17 9 18 10 8 11 7 12
REMARK SMILES IDX 6 13 5 14 4 15 3 16 2 17 1 18
REMARK H PARENT
REMARK Flexibility Score: inf
ROOT
ATOM      1  C   UNL     1     111.629 116.257 128.584  1.00  0.00     0.000 C 
ENDROOT
BRANCH   1   2
ATOM      2  C   UNL     1     112.848 115.955 129.475  1.00  0.00     0.000 C 
BRANCH   2   3
ATOM      3  C   UNL     1     112.957 116.906 130.680  1.00  0.00     0.000 C 
BRANCH   3   4
ATOM      4  C   UNL     1     114.278 117.694 130.687  1.00  0.00     0.000 C 
BRANCH   4   5
ATOM      5  C   UNL     1     115.233 117.250 129.567  1.00  0.00     0.000 C 
BRANCH   5   6
ATOM      6  C   UNL     1     115.849 118.432 128.797  1.00  0.00     0.006 C 
BRANCH   6   7
ATOM      7  C   UNL     1     114.978 118.946 127.636  1.00  0.00     0.053 C 
BRANCH   7   8
ATOM      8  C   UNL     1     114.661 120.406 127.752  1.00  0.00     0.041 C 
ATOM      9  O   UNL     1     113.468 120.789 127.879  1.00  0.00    -0.550 OA
ATOM     10  O   UNL     1     115.681 121.347 127.686  1.00  0.00    -0.550 OA
ENDBRANCH   7   8
ENDBRANCH   6   7
ENDBRANCH   5   6
ENDBRANCH   4   5
ENDBRANCH   3   4
ENDBRANCH   2   3
ENDBRANCH   1   2
BRANCH   1  11
ATOM     11  C   UNL     1     111.549 117.705 128.058  1.00  0.00     0.000 C 
BRANCH  11  12
ATOM     12  C   UNL     1     111.674 117.851 126.529  1.00  0.00    -0.000 C 
BRANCH  12  13
ATOM     13  C   UNL     1     112.647 116.862 125.855  1.00  0.00    -0.000 C 
BRANCH  13  14
ATOM     14  C   UNL     1     112.123 116.202 124.567  1.00  0.00    -0.000 C 
BRANCH  14  15
ATOM     15  C   UNL     1     112.493 116.989 123.299  1.00  0.00    -0.000 C 
BRANCH  15  16
ATOM     16  C   UNL     1     111.346 117.884 122.794  1.00  0.00    -0.000 C 
BRANCH  16  17
ATOM     17  C   UNL     1     111.709 119.368 122.613  1.00  0.00    -0.003 C 
ATOM     18  C   UNL     1     112.545 119.925 123.764  1.00  0.00     0.004 C 
ENDBRANCH  16  17
ENDBRANCH  15  16
ENDBRANCH  14  15
ENDBRANCH  13  14
ENDBRANCH  12  13
ENDBRANCH  11  12
ENDBRANCH   1  11
TORSDOF 14
ENDMDL
MODEL 4
REMARK VINA RESULT:    -4.229      1.770      3.526
REMARK INTER + INTRA:          -9.571
REMARK INTER:                  -7.800
REMARK INTRA:                  -1.770
REMARK UNBOUND:                -1.881
REMARK SMILES CCCCCCCCCCCCCCCC(=O)[O-]
REMARK SMILES IDX 9 1 10 2 11 3 12 4 13 5 14 6 15 7 16 8 17 9 18 10 8 11 7 12
REMARK SMILES IDX 6 13 5 14 4 15 3 16 2 17 1 18
REMARK H PARENT
REMARK Flexibility Score: inf
ROOT
ATOM      1  C   UNL     1     113.175 116.324 123.712  1.00  0.00     0.000 C 
ENDROOT
BRANCH   1   2
ATOM      2  C   UNL     1     112.324 116.780 122.513  1.00  0.00     0.000 C 
BRANCH   2   3
ATOM      3  C   UNL     1     111.290 117.856 122.891  1.00  0.00     0.000 C 
BRANCH   3   4
ATOM      4  C   UNL     1     111.896 119.269 122.914  1.00  0.00     0.000 C 
BRANCH   4   5
ATOM      5  C   UNL     1     111.614 120.009 124.231  1.00  0.00     0.000 C 
BRANCH   5   6
ATOM      6  C   UNL     1     112.887 120.568 124.893  1.00  0.00     0.006 C 
BRANCH   6   7
ATOM      7  C   UNL     1     114.155 119.743 124.608  1.00  0.00     0.053 C 
BRANCH   7   8
ATOM      8  C   UNL     1     115.362 120.599 124.373  1.00  0.00     0.041 C 
ATOM      9  O   UNL     1     115.339 121.502 123.495  1.00  0.00    -0.550 OA
ATOM     10  O   UNL     1     116.525 120.378 125.100  1.00  0.00    -0.550 OA
ENDBRANCH   7   8
ENDBRANCH   6   7
ENDBRANCH   5   6
ENDBRANCH   4   5
ENDBRANCH   3   4
ENDBRANCH   2   3
ENDBRANCH   1   2
BRANCH   1  11
ATOM     11  C   UNL     1     112.379 115.709 124.881  1.00  0.00     0.000 C 
BRANCH  11  12
ATOM     12  C   UNL     1     112.796 116.197 126.282  1.00  0.00    -0.000 C 
BRANCH  12  13
ATOM     13  C   UNL     1     112.008 117.412 126.813  1.00  0.00    -0.000 C 
BRANCH  13  14
ATOM     14  C   UNL     1     111.334 117.210 128.182  1.00  0.00    -0.000 C 
BRANCH  14  15
ATOM     15  C   UNL     1     112.210 116.421 129.169  1.00  0.00    -0.000 C 
BRANCH  15  16
ATOM     16  C   UNL     1     112.427 117.160 130.502  1.00  0.00    -0.000 C 
BRANCH  16  17
ATOM     17  C   UNL     1     113.871 117.627 130.760  1.00  0.00    -0.003 C 
ATOM     18  C   UNL     1     114.678 117.818 129.478  1.00  0.00     0.004 C 
ENDBRANCH  16  17
ENDBRANCH  15  16
ENDBRANCH  14  15
ENDBRANCH  13  14
ENDBRANCH  12  13
ENDBRANCH  11  12
ENDBRANCH   1  11
TORSDOF 14
ENDMDL
MODEL 5
REMARK VINA RESULT:    -4.215      1.288      2.584
REMARK INTER + INTRA:          -9.546
REMARK INTER:                  -7.613
REMARK INTRA:                  -1.933
REMARK UNBOUND:                -1.881
REMARK SMILES CCCCCCCCCCCCCCCC(=O)[O-]
REMARK SMILES IDX 9 1 10 2 11 3 12 4 13 5 14 6 15 7 16 8 17 9 18 10 8 11 7 12
REMARK SMILES IDX 6 13 5 14 4 15 3 16 2 17 1 18
REMARK H PARENT
REMARK Flexibility Score: inf
ROOT
ATOM      1  C   UNL     1     113.156 116.022 125.908  1.00  0.00     0.000 C 
ENDROOT
BRANCH   1   2
ATOM      2  C   UNL     1     112.407 115.651 124.615  1.00  0.00     0.000 C 
BRANCH   2   3
ATOM      3  C   UNL     1     113.118 116.158 123.348  1.00  0.00     0.000 C 
BRANCH   3   4
ATOM      4  C   UNL     1     112.195 117.011 122.460  1.00  0.00     0.000 C 
BRANCH   4   5
ATOM      5  C   UNL     1     111.357 118.011 123.273  1.00  0.00     0.000 C 
BRANCH   5   6
ATOM      6  C   UNL     1     111.746 119.477 123.009  1.00  0.00     0.006 C 
BRANCH   6   7
ATOM      7  C   UNL     1     111.918 120.320 124.286  1.00  0.00     0.053 C 
BRANCH   7   8
ATOM      8  C   UNL     1     113.350 120.443 124.710  1.00  0.00     0.041 C 
ATOM      9  O   UNL     1     114.043 119.411 124.912  1.00  0.00    -0.550 OA
ATOM     10  O   UNL     1     113.910 121.697 124.917  1.00  0.00    -0.550 OA
ENDBRANCH   7   8
ENDBRANCH   6   7
ENDBRANCH   5   6
ENDBRANCH   4   5
ENDBRANCH   3   4
ENDBRANCH   2   3
ENDBRANCH   1   2
BRANCH   1  11
ATOM     11  C   UNL     1     112.252 116.375 127.107  1.00  0.00     0.000 C 
BRANCH  11  12
ATOM     12  C   UNL     1     111.680 117.806 127.093  1.00  0.00    -0.000 C 
BRANCH  12  13
ATOM     13  C   UNL     1     112.089 118.686 128.292  1.00  0.00    -0.000 C 
BRANCH  13  14
ATOM     14  C   UNL     1     113.603 118.916 128.451  1.00  0.00    -0.000 C 
BRANCH  14  15
ATOM     15  C   UNL     1     114.209 118.124 129.621  1.00  0.00    -0.000 C 
BRANCH  15  16
ATOM     16  C   UNL     1     113.143 117.546 130.570  1.00  0.00    -0.000 C 
BRANCH  16  17
ATOM     17  C   UNL     1     113.173 116.016 130.728  1.00  0.00    -0.003 C 
ATOM     18  C   UNL     1     114.512 115.397 130.330  1.00  0.00     0.004 C 
ENDBRANCH  16  17
ENDBRANCH  15  16
ENDBRANCH  14  15
ENDBRANCH  13  14
ENDBRANCH  12  13
ENDBRANCH  11  12
ENDBRANCH   1  11
TORSDOF 14
ENDMDL
MODEL 6
REMARK VINA RESULT:    -4.212      2.315      3.665
REMARK INTER + INTRA:          -9.540
REMARK INTER:                  -7.726
REMARK INTRA:                  -1.814
REMARK UNBOUND:                -1.881
REMARK SMILES CCCCCCCCCCCCCCCC(=O)[O-]
REMARK SMILES IDX 9 1 10 2 11 3 12 4 13 5 14 6 15 7 16 8 17 9 18 10 8 11 7 12
REMARK SMILES IDX 6 13 5 14 4 15 3 16 2 17 1 18
REMARK H PARENT
REMARK Flexibility Score: inf
ROOT
ATOM      1  C   UNL     1     113.213 119.605 125.848  1.00  0.00     0.000 C 
ENDROOT
BRANCH   1   2
ATOM      2  C   UNL     1     112.389 120.303 124.750  1.00  0.00     0.000 C 
BRANCH   2   3
ATOM      3  C   UNL     1     111.293 119.398 124.161  1.00  0.00     0.000 C 
BRANCH   3   4
ATOM      4  C   UNL     1     111.620 118.938 122.729  1.00  0.00     0.000 C 
BRANCH   4   5
ATOM      5  C   UNL     1     111.550 117.410 122.572  1.00  0.00     0.000 C 
BRANCH   5   6
ATOM      6  C   UNL     1     112.095 116.654 123.797  1.00  0.00     0.006 C 
BRANCH   6   7
ATOM      7  C   UNL     1     113.594 116.314 123.708  1.00  0.00     0.053 C 
BRANCH   7   8
ATOM      8  C   UNL     1     114.011 115.270 124.699  1.00  0.00     0.041 C 
ATOM      9  O   UNL     1     113.741 114.057 124.495  1.00  0.00    -0.550 OA
ATOM     10  O   UNL     1     114.667 115.640 125.866  1.00  0.00    -0.550 OA
ENDBRANCH   7   8
ENDBRANCH   6   7
ENDBRANCH   5   6
ENDBRANCH   4   5
ENDBRANCH   3   4
ENDBRANCH   2   3
ENDBRANCH   1   2
BRANCH   1  11
ATOM     11  C   UNL     1     112.646 119.743 127.276  1.00  0.00     0.000 C 
BRANCH  11  12
ATOM     12  C   UNL     1     111.524 118.747 127.631  1.00  0.00    -0.000 C 
BRANCH  12  13
ATOM     13  C   UNL     1     111.881 117.260 127.426  1.00  0.00    -0.000 C 
BRANCH  13  14
ATOM     14  C   UNL     1     111.520 116.332 128.599  1.00  0.00    -0.000 C 
BRANCH  14  15
ATOM     15  C   UNL     1     112.712 116.049 129.528  1.00  0.00    -0.000 C 
BRANCH  15  16
ATOM     16  C   UNL     1     112.828 117.063 130.681  1.00  0.00    -0.000 C 
BRANCH  16  17
ATOM     17  C   UNL     1     114.205 117.738 130.818  1.00  0.00    -0.003 C 
ATOM     18  C   UNL     1     114.992 117.767 129.510  1.00  0.00     0.004 C 
ENDBRANCH  16  17
ENDBRANCH  15  16
ENDBRANCH  14  15
ENDBRANCH  13  14
ENDBRANCH  12  13
ENDBRANCH  11  12
ENDBRANCH   1  11
TORSDOF 14
ENDMDL
MODEL 7
REMARK VINA RESULT:    -4.207      3.218      5.513
REMARK INTER + INTRA:          -9.531
REMARK INTER:                  -7.588
REMARK INTRA:                  -1.943
REMARK UNBOUND:                -1.881
REMARK SMILES CCCCCCCCCCCCCCCC(=O)[O-]
REMARK SMILES IDX 9 1 10 2 11 3 12 4 13 5 14 6 15 7 16 8 17 9 18 10 8 11 7 12
REMARK SMILES IDX 6 13 5 14 4 15 3 16 2 17 1 18
REMARK H PARENT
REMARK Flexibility Score: inf
ROOT
ATOM      1  C   UNL     1     112.149 119.585 123.138  1.00  0.00     0.000 C 
ENDROOT
BRANCH   1   2
ATOM      2  C   UNL     1     111.979 120.418 124.421  1.00  0.00     0.000 C 
BRANCH   2   3
ATOM      3  C   UNL     1     113.323 120.819 125.055  1.00  0.00     0.000 C 
BRANCH   3   4
ATOM      4  C   UNL     1     114.366 119.692 124.979  1.00  0.00     0.000 C 
BRANCH   4   5
ATOM      5  C   UNL     1     115.679 120.149 124.322  1.00  0.00     0.000 C 
BRANCH   5   6
ATOM      6  C   UNL     1     115.535 121.470 123.544  1.00  0.00     0.006 C 
BRANCH   6   7
ATOM      7  C   UNL     1     116.788 121.865 122.742  1.00  0.00     0.053 C 
BRANCH   7   8
ATOM      8  C   UNL     1     117.825 122.543 123.584  1.00  0.00     0.041 C 
ATOM      9  O   UNL     1     118.799 121.890 124.042  1.00  0.00    -0.550 OA
ATOM     10  O   UNL     1     117.697 123.891 123.894  1.00  0.00    -0.550 OA
ENDBRANCH   7   8
ENDBRANCH   6   7
ENDBRANCH   5   6
ENDBRANCH   4   5
ENDBRANCH   3   4
ENDBRANCH   2   3
ENDBRANCH   1   2
BRANCH   1  11
ATOM     11  C   UNL     1     111.234 118.348 123.037  1.00  0.00     0.000 C 
BRANCH  11  12
ATOM     12  C   UNL     1     111.929 117.061 122.548  1.00  0.00    -0.000 C 
BRANCH  12  13
ATOM     13  C   UNL     1     112.932 116.442 123.543  1.00  0.00    -0.000 C 
BRANCH  13  14
ATOM     14  C   UNL     1     112.305 115.816 124.802  1.00  0.00    -0.000 C 
BRANCH  14  15
ATOM     15  C   UNL     1     112.837 116.435 126.105  1.00  0.00    -0.000 C 
BRANCH  15  16
ATOM     16  C   UNL     1     111.912 117.527 126.673  1.00  0.00    -0.000 C 
BRANCH  16  17
ATOM     17  C   UNL     1     112.116 117.843 128.164  1.00  0.00    -0.003 C 
ATOM     18  C   UNL     1     113.129 118.960 128.408  1.00  0.00     0.004 C 
ENDBRANCH  16  17
ENDBRANCH  15  16
ENDBRANCH  14  15
ENDBRANCH  13  14
ENDBRANCH  12  13
ENDBRANCH  11  12
ENDBRANCH   1  11
TORSDOF 14
ENDMDL
MODEL 8
REMARK VINA RESULT:    -4.161      2.644      5.737
REMARK INTER + INTRA:          -9.448
REMARK INTER:                  -7.546
REMARK INTRA:                  -1.902
REMARK UNBOUND:                -1.881
REMARK SMILES CCCCCCCCCCCCCCCC(=O)[O-]
REMARK SMILES IDX 9 1 10 2 11 3 12 4 13 5 14 6 15 7 16 8 17 9 18 10 8 11 7 12
REMARK SMILES IDX 6 13 5 14 4 15 3 16 2 17 1 18
REMARK H PARENT
REMARK Flexibility Score: inf
ROOT
ATOM      1  C   UNL     1     112.601 117.059 123.344  1.00  0.00     0.000 C 
ENDROOT
BRANCH   1   2
ATOM      2  C   UNL     1     112.039 116.012 124.323  1.00  0.00     0.000 C 
BRANCH   2   3
ATOM      3  C   UNL     1     113.037 115.640 125.434  1.00  0.00     0.000 C 
BRANCH   3   4
ATOM      4  C   UNL     1     113.250 116.785 126.438  1.00  0.00     0.000 C 
BRANCH   4   5
ATOM      5  C   UNL     1     111.928 117.428 126.887  1.00  0.00     0.000 C 
BRANCH   5   6
ATOM      6  C   UNL     1     111.726 117.388 128.413  1.00  0.00     0.006 C 
BRANCH   6   7
ATOM      7  C   UNL     1     112.247 116.102 129.081  1.00  0.00     0.053 C 
BRANCH   7   8
ATOM      8  C   UNL     1     113.136 116.379 130.255  1.00  0.00     0.041 C 
ATOM      9  O   UNL     1     113.828 115.456 130.759  1.00  0.00    -0.550 OA
ATOM     10  O   UNL     1     113.175 117.650 130.814  1.00  0.00    -0.550 OA
ENDBRANCH   7   8
ENDBRANCH   6   7
ENDBRANCH   5   6
ENDBRANCH   4   5
ENDBRANCH   3   4
ENDBRANCH   2   3
ENDBRANCH   1   2
BRANCH   1  11
ATOM     11  C   UNL     1     111.542 117.791 122.493  1.00  0.00     0.000 C 
BRANCH  11  12
ATOM     12  C   UNL     1     111.632 119.329 122.523  1.00  0.00    -0.000 C 
BRANCH  12  13
ATOM     13  C   UNL     1     110.965 119.999 123.742  1.00  0.00    -0.000 C 
BRANCH  13  14
ATOM     14  C   UNL     1     111.935 120.483 124.836  1.00  0.00    -0.000 C 
BRANCH  14  15
ATOM     15  C   UNL     1     113.400 120.502 124.371  1.00  0.00    -0.000 C 
BRANCH  15  16
ATOM     16  C   UNL     1     114.393 120.177 125.503  1.00  0.00    -0.000 C 
BRANCH  16  17
ATOM     17  C   UNL     1     113.913 120.552 126.916  1.00  0.00    -0.003 C 
ATOM     18  C   UNL     1     114.284 121.978 127.317  1.00  0.00     0.004 C 
ENDBRANCH  16  17
ENDBRANCH  15  16
ENDBRANCH  14  15
ENDBRANCH  13  14
ENDBRANCH  12  13
ENDBRANCH  11  12
ENDBRANCH   1  11
TORSDOF 14
ENDMDL
MODEL 9
REMARK VINA RESULT:    -4.138      1.918      4.189
REMARK INTER + INTRA:          -9.406
REMARK INTER:                  -7.040
REMARK INTRA:                  -2.366
REMARK UNBOUND:                -1.881
REMARK SMILES CCCCCCCCCCCCCCCC(=O)[O-]
REMARK SMILES IDX 9 1 10 2 11 3 12 4 13 5 14 6 15 7 16 8 17 9 18 10 8 11 7 12
REMARK SMILES IDX 6 13 5 14 4 15 3 16 2 17 1 18
REMARK H PARENT
REMARK Flexibility Score: inf
ROOT
ATOM      1  C   UNL     1     112.041 116.903 122.494  1.00  0.00     0.000 C 
ENDROOT
BRANCH   1   2
ATOM      2  C   UNL     1     111.105 118.070 122.855  1.00  0.00     0.000 C 
BRANCH   2   3
ATOM      3  C   UNL     1     111.813 119.436 122.819  1.00  0.00     0.000 C 
BRANCH   3   4
ATOM      4  C   UNL     1     111.509 120.287 124.065  1.00  0.00     0.000 C 
BRANCH   4   5
ATOM      5  C   UNL     1     112.778 120.885 124.692  1.00  0.00     0.000 C 
BRANCH   5   6
ATOM      6  C   UNL     1     114.053 120.095 124.343  1.00  0.00     0.006 C 
BRANCH   6   7
ATOM      7  C   UNL     1     114.909 119.716 125.565  1.00  0.00     0.053 C 
BRANCH   7   8
ATOM      8  C   UNL     1     115.340 120.909 126.363  1.00  0.00     0.041 C 
ATOM      9  O   UNL     1     114.933 121.063 127.545  1.00  0.00    -0.550 OA
ATOM     10  O   UNL     1     116.163 121.870 125.789  1.00  0.00    -0.550 OA
ENDBRANCH   7   8
ENDBRANCH   6   7
ENDBRANCH   5   6
ENDBRANCH   4   5
ENDBRANCH   3   4
ENDBRANCH   2   3
ENDBRANCH   1   2
BRANCH   1  11
ATOM     11  C   UNL     1     113.006 116.469 123.616  1.00  0.00     0.000 C 
BRANCH  11  12
ATOM     12  C   UNL     1     112.323 115.984 124.910  1.00  0.00    -0.000 C 
BRANCH  12  13
ATOM     13  C   UNL     1     112.752 116.726 126.193  1.00  0.00    -0.000 C 
BRANCH  13  14
ATOM     14  C   UNL     1     111.772 117.807 126.683  1.00  0.00    -0.000 C 
BRANCH  14  15
ATOM     15  C   UNL     1     112.261 118.526 127.952  1.00  0.00    -0.000 C 
BRANCH  15  16
ATOM     16  C   UNL     1     113.555 117.919 128.524  1.00  0.00    -0.000 C 
BRANCH  16  17
ATOM     17  C   UNL     1     113.595 117.800 130.058  1.00  0.00    -0.003 C 
ATOM     18  C   UNL     1     112.798 116.609 130.588  1.00  0.00     0.004 C 
ENDBRANCH  16  17
ENDBRANCH  15  16
ENDBRANCH  14  15
ENDBRANCH  13  14
ENDBRANCH  12  13
ENDBRANCH  11  12
ENDBRANCH   1  11
TORSDOF 14
ENDMDL
