MODEL 1
REMARK VINA RESULT:    -5.366      0.000      0.000
REMARK INTER + INTRA:          -8.412
REMARK INTER:                  -7.875
REMARK INTRA:                  -0.537
REMARK UNBOUND:                -0.537
REMARK SMILES O=C([O-])CCCCCCCC(=O)[O-]
REMARK SMILES IDX 7 1 6 2 5 3 4 4 2 5 1 6 3 7 8 8 9 9 10 10 11 11 12 12 13 13
REMARK H PARENT
REMARK Flexibility Score: inf
ROOT
ATOM      1  C   UNL     1      51.562  51.203  21.122  1.00  0.00     0.000 C 
ENDROOT
BRANCH   1   2
ATOM      2  C   UNL     1      50.360  51.521  22.028  1.00  0.00     0.000 C 
BRANCH   2   3
ATOM      3  C   UNL     1      49.956  50.387  22.989  1.00  0.00     0.006 C 
BRANCH   3   4
ATOM      4  C   UNL     1      50.447  49.009  22.527  1.00  0.00     0.053 C 
BRANCH   4   5
ATOM      5  C   UNL     1      50.391  48.030  23.656  1.00  0.00     0.041 C 
ATOM      6  O   UNL     1      49.339  47.908  24.338  1.00  0.00    -0.550 OA
ATOM      7  O   UNL     1      51.517  47.287  23.988  1.00  0.00    -0.550 OA
ENDBRANCH   4   5
ENDBRANCH   3   4
ENDBRANCH   2   3
ENDBRANCH   1   2
BRANCH   1   8
ATOM      8  C   UNL     1      52.669  52.269  21.201  1.00  0.00     0.000 C 
BRANCH   8   9
ATOM      9  C   UNL     1      52.114  53.676  21.477  1.00  0.00     0.006 C 
BRANCH   9  10
ATOM     10  C   UNL     1      52.885  54.407  22.583  1.00  0.00     0.053 C 
BRANCH  10  11
ATOM     11  C   UNL     1      52.612  53.777  23.912  1.00  0.00     0.041 C 
ATOM     12  O   UNL     1      51.481  53.900  24.451  1.00  0.00    -0.550 OA
ATOM     13  O   UNL     1      53.593  53.014  24.535  1.00  0.00    -0.550 OA
ENDBRANCH  10  11
ENDBRANCH   9  10
ENDBRANCH   8   9
ENDBRANCH   1   8
TORSDOF 8
ENDMDL
MODEL 2
REMARK VINA RESULT:    -5.333      0.642      5.418
REMARK INTER + INTRA:          -8.364
REMARK INTER:                  -7.929
REMARK INTRA:                  -0.435
REMARK UNBOUND:                -0.537
REMARK SMILES O=C([O-])CCCCCCCC(=O)[O-]
REMARK SMILES IDX 7 1 6 2 5 3 4 4 2 5 1 6 3 7 8 8 9 9 10 10 11 11 12 12 13 13
REMARK H PARENT
REMARK Flexibility Score: inf
ROOT
ATOM      1  C   UNL     1      51.492  51.178  21.016  1.00  0.00     0.000 C 
ENDROOT
BRANCH   1   2
ATOM      2  C   UNL     1      52.636  52.185  21.226  1.00  0.00     0.000 C 
BRANCH   2   3
ATOM      3  C   UNL     1      52.185  53.639  21.458  1.00  0.00     0.006 C 
BRANCH   3   4
ATOM      4  C   UNL     1      52.925  54.316  22.619  1.00  0.00     0.053 C 
BRANCH   4   5
ATOM      5  C   UNL     1      52.588  53.645  23.913  1.00  0.00     0.041 C 
ATOM      6  O   UNL     1      53.469  53.001  24.542  1.00  0.00    -0.550 OA
ATOM      7  O   UNL     1      51.288  53.691  24.402  1.00  0.00    -0.550 OA
ENDBRANCH   4   5
ENDBRANCH   3   4
ENDBRANCH   2   3
ENDBRANCH   1   2
BRANCH   1   8
ATOM      8  C   UNL     1      50.745  50.841  22.319  1.00  0.00     0.000 C 
BRANCH   8   9
ATOM      9  C   UNL     1      50.003  49.497  22.244  1.00  0.00     0.006 C 
BRANCH   9  10
ATOM     10  C   UNL     1      49.276  49.152  23.550  1.00  0.00     0.053 C 
BRANCH  10  11
ATOM     11  C   UNL     1      49.813  47.880  24.126  1.00  0.00     0.041 C 
ATOM     12  O   UNL     1      49.059  47.110  24.776  1.00  0.00    -0.550 OA
ATOM     13  O   UNL     1      51.138  47.522  23.904  1.00  0.00    -0.550 OA
ENDBRANCH  10  11
ENDBRANCH   9  10
ENDBRANCH   8   9
ENDBRANCH   1   8
TORSDOF 8
ENDMDL
MODEL 3
REMARK VINA RESULT:    -5.272      0.655      1.435
REMARK INTER + INTRA:          -8.274
REMARK INTER:                  -7.854
REMARK INTRA:                  -0.420
REMARK UNBOUND:                -0.537
REMARK SMILES O=C([O-])CCCCCCCC(=O)[O-]
REMARK SMILES IDX 7 1 6 2 5 3 4 4 2 5 1 6 3 7 8 8 9 9 10 10 11 11 12 12 13 13
REMARK H PARENT
REMARK Flexibility Score: inf
ROOT
ATOM      1  C   UNL     1      51.460  51.368  20.939  1.00  0.00     0.000 C 
ENDROOT
BRANCH   1   2
ATOM      2  C   UNL     1      50.845  50.893  22.267  1.00  0.00     0.000 C 
BRANCH   2   3
ATOM      3  C   UNL     1      50.296  49.454  22.247  1.00  0.00     0.006 C 
BRANCH   3   4
ATOM      4  C   UNL     1      49.300  49.179  23.381  1.00  0.00     0.053 C 
BRANCH   4   5
ATOM      5  C   UNL     1      49.677  47.932  24.115  1.00  0.00     0.041 C 
ATOM      6  O   UNL     1      50.875  47.543  24.132  1.00  0.00    -0.550 OA
ATOM      7  O   UNL     1      48.697  47.171  24.740  1.00  0.00    -0.550 OA
ENDBRANCH   4   5
ENDBRANCH   3   4
ENDBRANCH   2   3
ENDBRANCH   1   2
BRANCH   1   8
ATOM      8  C   UNL     1      52.624  52.355  21.138  1.00  0.00     0.000 C 
BRANCH   8   9
ATOM      9  C   UNL     1      52.142  53.774  21.481  1.00  0.00     0.006 C 
BRANCH   9  10
ATOM     10  C   UNL     1      52.914  54.391  22.655  1.00  0.00     0.053 C 
BRANCH  10  11
ATOM     11  C   UNL     1      52.542  53.715  23.936  1.00  0.00     0.041 C 
ATOM     12  O   UNL     1      53.389  53.021  24.556  1.00  0.00    -0.550 OA
ATOM     13  O   UNL     1      51.272  53.892  24.472  1.00  0.00    -0.550 OA
ENDBRANCH  10  11
ENDBRANCH   9  10
ENDBRANCH   8   9
ENDBRANCH   1   8
TORSDOF 8
ENDMDL
MODEL 4
REMARK VINA RESULT:    -4.971      1.927      4.754
REMARK INTER + INTRA:          -7.833
REMARK INTER:                  -7.121
REMARK INTRA:                  -0.712
REMARK UNBOUND:                -0.537
REMARK SMILES O=C([O-])CCCCCCCC(=O)[O-]
REMARK SMILES IDX 7 1 6 2 5 3 4 4 2 5 1 6 3 7 8 8 9 9 10 10 11 11 12 12 13 13
REMARK H PARENT
REMARK Flexibility Score: inf
ROOT
ATOM      1  C   UNL     1      51.612  51.054  21.081  1.00  0.00     0.000 C 
ENDROOT
BRANCH   1   2
ATOM      2  C   UNL     1      52.653  52.180  21.208  1.00  0.00     0.000 C 
BRANCH   2   3
ATOM      3  C   UNL     1      52.064  53.585  21.431  1.00  0.00     0.006 C 
BRANCH   3   4
ATOM      4  C   UNL     1      52.770  54.358  22.552  1.00  0.00     0.053 C 
BRANCH   4   5
ATOM      5  C   UNL     1      52.471  53.739  23.880  1.00  0.00     0.041 C 
ATOM      6  O   UNL     1      51.346  53.909  24.421  1.00  0.00    -0.550 OA
ATOM      7  O   UNL     1      53.452  53.015  24.546  1.00  0.00    -0.550 OA
ENDBRANCH   4   5
ENDBRANCH   3   4
ENDBRANCH   2   3
ENDBRANCH   1   2
BRANCH   1   8
ATOM      8  C   UNL     1      50.737  50.904  22.338  1.00  0.00     0.000 C 
BRANCH   8   9
ATOM      9  C   UNL     1      49.239  51.069  22.037  1.00  0.00     0.006 C 
BRANCH   9  10
ATOM     10  C   UNL     1      48.583  52.163  22.890  1.00  0.00     0.053 C 
BRANCH  10  11
ATOM     11  C   UNL     1      48.283  51.645  24.261  1.00  0.00     0.041 C 
ATOM     12  O   UNL     1      48.465  52.376  25.269  1.00  0.00    -0.550 OA
ATOM     13  O   UNL     1      47.757  50.369  24.422  1.00  0.00    -0.550 OA
ENDBRANCH  10  11
ENDBRANCH   9  10
ENDBRANCH   8   9
ENDBRANCH   1   8
TORSDOF 8
ENDMDL
MODEL 5
REMARK VINA RESULT:    -4.950      1.925      2.471
REMARK INTER + INTRA:          -7.802
REMARK INTER:                  -7.100
REMARK INTRA:                  -0.701
REMARK UNBOUND:                -0.537
REMARK SMILES O=C([O-])CCCCCCCC(=O)[O-]
REMARK SMILES IDX 7 1 6 2 5 3 4 4 2 5 1 6 3 7 8 8 9 9 10 10 11 11 12 12 13 13
REMARK H PARENT
REMARK Flexibility Score: inf
ROOT
ATOM      1  C   UNL     1      51.722  51.025  21.068  1.00  0.00     0.000 C 
ENDROOT
BRANCH   1   2
ATOM      2  C   UNL     1      50.797  50.946  22.296  1.00  0.00     0.000 C 
BRANCH   2   3
ATOM      3  C   UNL     1      49.295  51.082  21.985  1.00  0.00     0.006 C 
BRANCH   3   4
ATOM      4  C   UNL     1      48.601  52.145  22.846  1.00  0.00     0.053 C 
BRANCH   4   5
ATOM      5  C   UNL     1      48.311  51.604  24.210  1.00  0.00     0.041 C 
ATOM      6  O   UNL     1      47.899  50.422  24.348  1.00  0.00    -0.550 OA
ATOM      7  O   UNL     1      48.450  52.420  25.325  1.00  0.00    -0.550 OA
ENDBRANCH   4   5
ENDBRANCH   3   4
ENDBRANCH   2   3
ENDBRANCH   1   2
BRANCH   1   8
ATOM      8  C   UNL     1      52.717  52.196  21.145  1.00  0.00     0.000 C 
BRANCH   8   9
ATOM      9  C   UNL     1      52.028  53.538  21.438  1.00  0.00     0.006 C 
BRANCH   9  10
ATOM     10  C   UNL     1      52.754  54.349  22.519  1.00  0.00     0.053 C 
BRANCH  10  11
ATOM     11  C   UNL     1      52.475  53.780  23.873  1.00  0.00     0.041 C 
ATOM     12  O   UNL     1      51.341  53.924  24.400  1.00  0.00    -0.550 OA
ATOM     13  O   UNL     1      53.454  53.049  24.535  1.00  0.00    -0.550 OA
ENDBRANCH  10  11
ENDBRANCH   9  10
ENDBRANCH   8   9
ENDBRANCH   1   8
TORSDOF 8
ENDMDL
MODEL 6
REMARK VINA RESULT:    -4.940      1.041      5.277
REMARK INTER + INTRA:          -7.787
REMARK INTER:                  -7.103
REMARK INTRA:                  -0.683
REMARK UNBOUND:                -0.537
REMARK SMILES O=C([O-])CCCCCCCC(=O)[O-]
REMARK SMILES IDX 7 1 6 2 5 3 4 4 2 5 1 6 3 7 8 8 9 9 10 10 11 11 12 12 13 13
REMARK H PARENT
REMARK Flexibility Score: inf
ROOT
ATOM      1  C   UNL     1      50.459  51.063  20.908  1.00  0.00     0.000 C 
ENDROOT
BRANCH   1   2
ATOM      2  C   UNL     1      51.838  51.444  21.474  1.00  0.00     0.000 C 
BRANCH   2   3
ATOM      3  C   UNL     1      52.430  52.750  20.912  1.00  0.00     0.006 C 
BRANCH   3   4
ATOM      4  C   UNL     1      52.054  53.983  21.744  1.00  0.00     0.053 C 
BRANCH   4   5
ATOM      5  C   UNL     1      52.493  53.808  23.163  1.00  0.00     0.041 C 
ATOM      6  O   UNL     1      51.652  53.870  24.099  1.00  0.00    -0.550 OA
ATOM      7  O   UNL     1      53.838  53.626  23.457  1.00  0.00    -0.550 OA
ENDBRANCH   4   5
ENDBRANCH   3   4
ENDBRANCH   2   3
ENDBRANCH   1   2
BRANCH   1   8
ATOM      8  C   UNL     1      49.298  51.494  21.821  1.00  0.00     0.000 C 
BRANCH   8   9
ATOM      9  C   UNL     1      49.510  51.072  23.284  1.00  0.00     0.006 C 
BRANCH   9  10
ATOM     10  C   UNL     1      48.567  49.941  23.713  1.00  0.00     0.053 C 
BRANCH  10  11
ATOM     11  C   UNL     1      49.327  48.662  23.874  1.00  0.00     0.041 C 
ATOM     12  O   UNL     1      50.527  48.586  23.501  1.00  0.00    -0.550 OA
ATOM     13  O   UNL     1      48.723  47.567  24.480  1.00  0.00    -0.550 OA
ENDBRANCH  10  11
ENDBRANCH   9  10
ENDBRANCH   8   9
ENDBRANCH   1   8
TORSDOF 8
ENDMDL
MODEL 7
REMARK VINA RESULT:    -4.778      2.706      3.466
REMARK INTER + INTRA:          -7.549
REMARK INTER:                  -7.099
REMARK INTRA:                  -0.450
REMARK UNBOUND:                -0.537
REMARK SMILES O=C([O-])CCCCCCCC(=O)[O-]
REMARK SMILES IDX 7 1 6 2 5 3 4 4 2 5 1 6 3 7 8 8 9 9 10 10 11 11 12 12 13 13
REMARK H PARENT
REMARK Flexibility Score: inf
ROOT
ATOM      1  C   UNL     1      50.703  50.764  21.949  1.00  0.00     0.000 C 
ENDROOT
BRANCH   1   2
ATOM      2  C   UNL     1      49.320  51.368  22.250  1.00  0.00     0.000 C 
BRANCH   2   3
ATOM      3  C   UNL     1      49.263  52.262  23.502  1.00  0.00     0.006 C 
BRANCH   3   4
ATOM      4  C   UNL     1      48.221  51.792  24.525  1.00  0.00     0.053 C 
BRANCH   4   5
ATOM      5  C   UNL     1      48.126  52.764  25.657  1.00  0.00     0.041 C 
ATOM      6  O   UNL     1      49.158  53.086  26.305  1.00  0.00    -0.550 OA
ATOM      7  O   UNL     1      46.891  53.278  26.031  1.00  0.00    -0.550 OA
ENDBRANCH   4   5
ENDBRANCH   3   4
ENDBRANCH   2   3
ENDBRANCH   1   2
BRANCH   1   8
ATOM      8  C   UNL     1      51.474  51.542  20.868  1.00  0.00     0.000 C 
BRANCH   8   9
ATOM      9  C   UNL     1      52.733  52.230  21.422  1.00  0.00     0.006 C 
BRANCH   9  10
ATOM     10  C   UNL     1      52.447  53.638  21.958  1.00  0.00     0.053 C 
BRANCH  10  11
ATOM     11  C   UNL     1      53.027  53.803  23.327  1.00  0.00     0.041 C 
ATOM     12  O   UNL     1      52.370  54.386  24.228  1.00  0.00    -0.550 OA
ATOM     13  O   UNL     1      54.276  53.269  23.621  1.00  0.00    -0.550 OA
ENDBRANCH  10  11
ENDBRANCH   9  10
ENDBRANCH   8   9
ENDBRANCH   1   8
TORSDOF 8
ENDMDL
MODEL 8
REMARK VINA RESULT:    -4.663      2.473      5.457
REMARK INTER + INTRA:          -7.381
REMARK INTER:                  -6.940
REMARK INTRA:                  -0.441
REMARK UNBOUND:                -0.537
REMARK SMILES O=C([O-])CCCCCCCC(=O)[O-]
REMARK SMILES IDX 7 1 6 2 5 3 4 4 2 5 1 6 3 7 8 8 9 9 10 10 11 11 12 12 13 13
REMARK H PARENT
REMARK Flexibility Score: inf
ROOT
ATOM      1  C   UNL     1      50.151  50.801  21.709  1.00  0.00     0.000 C 
ENDROOT
BRANCH   1   2
ATOM      2  C   UNL     1      51.517  50.870  21.004  1.00  0.00     0.000 C 
BRANCH   2   3
ATOM      3  C   UNL     1      52.304  52.172  21.244  1.00  0.00     0.006 C 
BRANCH   3   4
ATOM      4  C   UNL     1      51.423  53.317  21.760  1.00  0.00     0.053 C 
BRANCH   4   5
ATOM      5  C   UNL     1      52.230  54.565  21.920  1.00  0.00     0.041 C 
ATOM      6  O   UNL     1      52.949  54.730  22.941  1.00  0.00    -0.550 OA
ATOM      7  O   UNL     1      52.152  55.570  20.964  1.00  0.00    -0.550 OA
ENDBRANCH   4   5
ENDBRANCH   3   4
ENDBRANCH   2   3
ENDBRANCH   1   2
BRANCH   1   8
ATOM      8  C   UNL     1      49.960  49.505  22.516  1.00  0.00     0.000 C 
BRANCH   8   9
ATOM      9  C   UNL     1      48.887  49.642  23.608  1.00  0.00     0.006 C 
BRANCH   9  10
ATOM     10  C   UNL     1      47.998  50.877  23.409  1.00  0.00     0.053 C 
BRANCH  10  11
ATOM     11  C   UNL     1      48.121  51.802  24.577  1.00  0.00     0.041 C 
ATOM     12  O   UNL     1      49.111  52.574  24.673  1.00  0.00    -0.550 OA
ATOM     13  O   UNL     1      47.118  51.846  25.538  1.00  0.00    -0.550 OA
ENDBRANCH  10  11
ENDBRANCH   9  10
ENDBRANCH   8   9
ENDBRANCH   1   8
TORSDOF 8
ENDMDL
MODEL 9
REMARK VINA RESULT:    -4.567      1.682      4.847
REMARK INTER + INTRA:          -7.240
REMARK INTER:                  -6.757
REMARK INTRA:                  -0.483
REMARK UNBOUND:                -0.537
REMARK SMILES O=C([O-])CCCCCCCC(=O)[O-]
REMARK SMILES IDX 7 1 6 2 5 3 4 4 2 5 1 6 3 7 8 8 9 9 10 10 11 11 12 12 13 13
REMARK H PARENT
REMARK Flexibility Score: inf
ROOT
ATOM      1  C   UNL     1      52.740  52.146  21.106  1.00  0.00     0.000 C 
ENDROOT
BRANCH   1   2
ATOM      2  C   UNL     1      52.917  52.608  22.563  1.00  0.00     0.000 C 
BRANCH   2   3
ATOM      3  C   UNL     1      52.228  53.941  22.907  1.00  0.00     0.006 C 
BRANCH   3   4
ATOM      4  C   UNL     1      51.666  53.971  24.335  1.00  0.00     0.053 C 
BRANCH   4   5
ATOM      5  C   UNL     1      50.259  53.465  24.352  1.00  0.00     0.041 C 
ATOM      6  O   UNL     1      49.674  53.256  25.448  1.00  0.00    -0.550 OA
ATOM      7  O   UNL     1      49.609  53.177  23.159  1.00  0.00    -0.550 OA
ENDBRANCH   4   5
ENDBRANCH   3   4
ENDBRANCH   2   3
ENDBRANCH   1   2
BRANCH   1   8
ATOM      8  C   UNL     1      51.393  51.442  20.861  1.00  0.00     0.000 C 
BRANCH   8   9
ATOM      9  C   UNL     1      51.159  50.265  21.822  1.00  0.00     0.006 C 
BRANCH   9  10
ATOM     10  C   UNL     1      49.670  49.977  22.048  1.00  0.00     0.053 C 
BRANCH  10  11
ATOM     11  C   UNL     1      49.473  49.214  23.320  1.00  0.00     0.041 C 
ATOM     12  O   UNL     1      50.340  48.386  23.702  1.00  0.00    -0.550 OA
ATOM     13  O   UNL     1      48.354  49.454  24.108  1.00  0.00    -0.550 OA
ENDBRANCH  10  11
ENDBRANCH   9  10
ENDBRANCH   8   9
ENDBRANCH   1   8
TORSDOF 8
ENDMDL
