MODEL 1
REMARK VINA RESULT:    -5.183      0.000      0.000
REMARK INTER + INTRA:          -5.838
REMARK INTER:                  -5.638
REMARK INTRA:                  -0.200
REMARK UNBOUND:                -0.200
REMARK SMILES Cc1ccc(C(C)C)c(O)c1
REMARK SMILES IDX 1 1 2 2 11 3 9 4 5 5 4 6 3 7 10 8 6 10 7 11 8 12
REMARK H PARENT 10 9
REMARK Flexibility Score: inf
ROOT
ATOM      1  C   UNL     1       2.679   6.050   9.376  1.00  0.00     0.044 C 
ATOM      2  C   UNL     1       2.828   5.203  10.604  1.00  0.00    -0.047 A 
ATOM      3  C   UNL     1       1.916   4.171  10.866  1.00  0.00     0.049 A 
ATOM      4  C   UNL     1       2.070   3.350  11.993  1.00  0.00     0.119 A 
ATOM      5  C   UNL     1       3.156   3.552  12.871  1.00  0.00    -0.004 A 
ATOM      6  C   UNL     1       4.078   4.579  12.588  1.00  0.00     0.008 A 
ATOM      7  C   UNL     1       3.918   5.391  11.463  1.00  0.00     0.004 A 
ENDROOT
BRANCH   4   8
ATOM      8  O   UNL     1       1.143   2.335  12.233  1.00  0.00    -0.508 OA
ATOM      9  H   UNL     1       0.546   1.973  11.499  1.00  0.00     0.293 HD
ENDBRANCH   4   8
BRANCH   5  10
ATOM     10  C   UNL     1       3.344   2.674  14.101  1.00  0.00     0.017 C 
ATOM     11  C   UNL     1       3.873   3.489  15.288  1.00  0.00     0.012 C 
ATOM     12  C   UNL     1       4.265   1.486  13.796  1.00  0.00     0.012 C 
ENDBRANCH   5  10
TORSDOF 2
ENDMDL
MODEL 2
REMARK VINA RESULT:    -5.109     14.152     15.606
REMARK INTER + INTRA:          -5.757
REMARK INTER:                  -5.557
REMARK INTRA:                  -0.200
REMARK UNBOUND:                -0.200
REMARK SMILES Cc1ccc(C(C)C)c(O)c1
REMARK SMILES IDX 1 1 2 2 11 3 9 4 5 5 4 6 3 7 10 8 6 10 7 11 8 12
REMARK H PARENT 10 9
REMARK Flexibility Score: inf
ROOT
ATOM      1  C   UNL     1     -11.125  -7.433  15.273  1.00  0.00     0.044 C 
ATOM      2  C   UNL     1     -10.111  -6.772  14.387  1.00  0.00    -0.047 A 
ATOM      3  C   UNL     1     -10.104  -5.379  14.237  1.00  0.00     0.049 A 
ATOM      4  C   UNL     1      -9.136  -4.751  13.440  1.00  0.00     0.119 A 
ATOM      5  C   UNL     1      -8.150  -5.521  12.786  1.00  0.00    -0.004 A 
ATOM      6  C   UNL     1      -8.155  -6.919  12.960  1.00  0.00     0.008 A 
ATOM      7  C   UNL     1      -9.121  -7.536  13.756  1.00  0.00     0.004 A 
ENDROOT
BRANCH   4   8
ATOM      8  O   UNL     1      -9.157  -3.362  13.302  1.00  0.00    -0.508 OA
ATOM      9  H   UNL     1      -9.898  -2.887  12.799  1.00  0.00     0.293 HD
ENDBRANCH   4   8
BRANCH   5  10
ATOM     10  C   UNL     1      -7.089  -4.862  11.915  1.00  0.00     0.017 C 
ATOM     11  C   UNL     1      -6.908  -5.620  10.594  1.00  0.00     0.012 C 
ATOM     12  C   UNL     1      -5.757  -4.738  12.666  1.00  0.00     0.012 C 
ENDBRANCH   5  10
TORSDOF 2
ENDMDL
MODEL 3
REMARK VINA RESULT:    -5.068     14.195     15.333
REMARK INTER + INTRA:          -5.712
REMARK INTER:                  -5.531
REMARK INTRA:                  -0.181
REMARK UNBOUND:                -0.200
REMARK SMILES Cc1ccc(C(C)C)c(O)c1
REMARK SMILES IDX 1 1 2 2 11 3 9 4 5 5 4 6 3 7 10 8 6 10 7 11 8 12
REMARK H PARENT 10 9
REMARK Flexibility Score: inf
ROOT
ATOM      1  C   UNL     1      -5.762  -3.580  12.727  1.00  0.00     0.044 C 
ATOM      2  C   UNL     1      -6.764  -4.662  13.002  1.00  0.00    -0.047 A 
ATOM      3  C   UNL     1      -8.104  -4.336  13.249  1.00  0.00     0.049 A 
ATOM      4  C   UNL     1      -9.055  -5.344  13.471  1.00  0.00     0.119 A 
ATOM      5  C   UNL     1      -8.668  -6.701  13.436  1.00  0.00    -0.004 A 
ATOM      6  C   UNL     1      -7.322  -7.017  13.168  1.00  0.00     0.008 A 
ATOM      7  C   UNL     1      -6.382  -6.008  12.947  1.00  0.00     0.004 A 
ENDROOT
BRANCH   4   8
ATOM      8  O   UNL     1     -10.382  -4.991  13.723  1.00  0.00    -0.508 OA
ATOM      9  H   UNL     1     -10.972  -5.539  14.338  1.00  0.00     0.293 HD
ENDBRANCH   4   8
BRANCH   5  10
ATOM     10  C   UNL     1      -9.681  -7.812  13.675  1.00  0.00     0.017 C 
ATOM     11  C   UNL     1      -9.852  -8.094  15.172  1.00  0.00     0.012 C 
ATOM     12  C   UNL     1      -9.291  -9.087  12.915  1.00  0.00     0.012 C 
ENDBRANCH   5  10
TORSDOF 2
ENDMDL
MODEL 4
REMARK VINA RESULT:    -5.014      1.819      4.482
REMARK INTER + INTRA:          -5.654
REMARK INTER:                  -5.454
REMARK INTRA:                  -0.200
REMARK UNBOUND:                -0.200
REMARK SMILES Cc1ccc(C(C)C)c(O)c1
REMARK SMILES IDX 1 1 2 2 11 3 9 4 5 5 4 6 3 7 10 8 6 10 7 11 8 12
REMARK H PARENT 10 9
REMARK Flexibility Score: inf
ROOT
ATOM      1  C   UNL     1       3.015   1.191  16.361  1.00  0.00     0.044 C 
ATOM      2  C   UNL     1       3.393   1.947  15.122  1.00  0.00    -0.047 A 
ATOM      3  C   UNL     1       4.166   1.332  14.127  1.00  0.00     0.049 A 
ATOM      4  C   UNL     1       4.493   2.020  12.949  1.00  0.00     0.119 A 
ATOM      5  C   UNL     1       4.036   3.340  12.751  1.00  0.00    -0.004 A 
ATOM      6  C   UNL     1       3.244   3.941  13.750  1.00  0.00     0.008 A 
ATOM      7  C   UNL     1       2.922   3.249  14.918  1.00  0.00     0.004 A 
ENDROOT
BRANCH   4   8
ATOM      8  O   UNL     1       5.271   1.386  11.979  1.00  0.00    -0.508 OA
ATOM      9  H   UNL     1       5.989   0.714  12.226  1.00  0.00     0.293 HD
ENDBRANCH   4   8
BRANCH   5  10
ATOM     10  C   UNL     1       4.379   4.107  11.482  1.00  0.00     0.017 C 
ATOM     11  C   UNL     1       4.804   5.546  11.802  1.00  0.00     0.012 C 
ATOM     12  C   UNL     1       3.208   4.086  10.492  1.00  0.00     0.012 C 
ENDBRANCH   5  10
TORSDOF 2
ENDMDL
MODEL 5
REMARK VINA RESULT:    -4.937      1.691      2.400
REMARK INTER + INTRA:          -5.570
REMARK INTER:                  -5.371
REMARK INTRA:                  -0.199
REMARK UNBOUND:                -0.200
REMARK SMILES Cc1ccc(C(C)C)c(O)c1
REMARK SMILES IDX 1 1 2 2 11 3 9 4 5 5 4 6 3 7 10 8 6 10 7 11 8 12
REMARK H PARENT 10 9
REMARK Flexibility Score: inf
ROOT
ATOM      1  C   UNL     1       2.322   6.542   9.229  1.00  0.00     0.044 C 
ATOM      2  C   UNL     1       2.666   5.612  10.353  1.00  0.00    -0.047 A 
ATOM      3  C   UNL     1       3.998   5.459  10.762  1.00  0.00     0.049 A 
ATOM      4  C   UNL     1       4.324   4.619  11.837  1.00  0.00     0.119 A 
ATOM      5  C   UNL     1       3.306   3.925  12.526  1.00  0.00    -0.004 A 
ATOM      6  C   UNL     1       1.969   4.101  12.119  1.00  0.00     0.008 A 
ATOM      7  C   UNL     1       1.653   4.940  11.049  1.00  0.00     0.004 A 
ENDROOT
BRANCH   4   8
ATOM      8  O   UNL     1       5.660   4.480  12.217  1.00  0.00    -0.508 OA
ATOM      9  H   UNL     1       5.941   4.485  13.190  1.00  0.00     0.293 HD
ENDBRANCH   4   8
BRANCH   5  10
ATOM     10  C   UNL     1       3.636   3.007  13.695  1.00  0.00     0.017 C 
ATOM     11  C   UNL     1       2.715   1.781  13.713  1.00  0.00     0.012 C 
ATOM     12  C   UNL     1       3.569   3.765  15.027  1.00  0.00     0.012 C 
ENDBRANCH   5  10
TORSDOF 2
ENDMDL
MODEL 6
REMARK VINA RESULT:    -4.937     14.866     16.040
REMARK INTER + INTRA:          -5.569
REMARK INTER:                  -5.498
REMARK INTRA:                  -0.071
REMARK UNBOUND:                -0.200
REMARK SMILES Cc1ccc(C(C)C)c(O)c1
REMARK SMILES IDX 1 1 2 2 11 3 9 4 5 5 4 6 3 7 10 8 6 10 7 11 8 12
REMARK H PARENT 10 9
REMARK Flexibility Score: inf
ROOT
ATOM      1  C   UNL     1      -5.547  -5.082  12.708  1.00  0.00     0.044 C 
ATOM      2  C   UNL     1      -6.832  -5.758  13.083  1.00  0.00    -0.047 A 
ATOM      3  C   UNL     1      -8.005  -5.008  13.244  1.00  0.00     0.049 A 
ATOM      4  C   UNL     1      -9.218  -5.638  13.559  1.00  0.00     0.119 A 
ATOM      5  C   UNL     1      -9.269  -7.041  13.707  1.00  0.00    -0.004 A 
ATOM      6  C   UNL     1      -8.088  -7.787  13.524  1.00  0.00     0.008 A 
ATOM      7  C   UNL     1      -6.885  -7.152  13.210  1.00  0.00     0.004 A 
ENDROOT
BRANCH   4   8
ATOM      8  O   UNL     1     -10.370  -4.866  13.721  1.00  0.00    -0.508 OA
ATOM      9  H   UNL     1     -10.334  -3.854  13.749  1.00  0.00     0.293 HD
ENDBRANCH   4   8
BRANCH   5  10
ATOM     10  C   UNL     1     -10.574  -7.747  14.049  1.00  0.00     0.017 C 
ATOM     11  C   UNL     1     -10.977  -7.490  15.506  1.00  0.00     0.012 C 
ATOM     12  C   UNL     1     -10.479  -9.251  13.762  1.00  0.00     0.012 C 
ENDBRANCH   5  10
TORSDOF 2
ENDMDL
MODEL 7
REMARK VINA RESULT:    -4.840     15.477     16.866
REMARK INTER + INTRA:          -5.464
REMARK INTER:                  -5.275
REMARK INTRA:                  -0.189
REMARK UNBOUND:                -0.200
REMARK SMILES Cc1ccc(C(C)C)c(O)c1
REMARK SMILES IDX 1 1 2 2 11 3 9 4 5 5 4 6 3 7 10 8 6 10 7 11 8 12
REMARK H PARENT 10 9
REMARK Flexibility Score: inf
ROOT
ATOM      1  C   UNL     1     -11.058 -10.125  13.999  1.00  0.00     0.044 C 
ATOM      2  C   UNL     1      -9.961  -9.264  13.448  1.00  0.00    -0.047 A 
ATOM      3  C   UNL     1      -9.898  -7.903  13.778  1.00  0.00     0.049 A 
ATOM      4  C   UNL     1      -8.854  -7.099  13.296  1.00  0.00     0.119 A 
ATOM      5  C   UNL     1      -7.848  -7.660  12.481  1.00  0.00    -0.004 A 
ATOM      6  C   UNL     1      -7.911  -9.033  12.173  1.00  0.00     0.008 A 
ATOM      7  C   UNL     1      -8.952  -9.826  12.657  1.00  0.00     0.004 A 
ENDROOT
BRANCH   4   8
ATOM      8  O   UNL     1      -8.821  -5.745  13.633  1.00  0.00    -0.508 OA
ATOM      9  H   UNL     1      -8.603  -5.030  12.949  1.00  0.00     0.293 HD
ENDBRANCH   4   8
BRANCH   5  10
ATOM     10  C   UNL     1      -6.705  -6.807  11.947  1.00  0.00     0.017 C 
ATOM     11  C   UNL     1      -7.087  -6.138  10.621  1.00  0.00     0.012 C 
ATOM     12  C   UNL     1      -5.423  -7.635  11.797  1.00  0.00     0.012 C 
ENDBRANCH   5  10
TORSDOF 2
ENDMDL
MODEL 8
REMARK VINA RESULT:    -4.792     16.119     17.286
REMARK INTER + INTRA:          -5.412
REMARK INTER:                  -5.245
REMARK INTRA:                  -0.167
REMARK UNBOUND:                -0.200
REMARK SMILES Cc1ccc(C(C)C)c(O)c1
REMARK SMILES IDX 1 1 2 2 11 3 9 4 5 5 4 6 3 7 10 8 6 10 7 11 8 12
REMARK H PARENT 10 9
REMARK Flexibility Score: inf
ROOT
ATOM      1  C   UNL     1     -11.125  -4.524  14.923  1.00  0.00     0.044 C 
ATOM      2  C   UNL     1     -10.449  -5.772  14.438  1.00  0.00    -0.047 A 
ATOM      3  C   UNL     1     -11.037  -7.025  14.658  1.00  0.00     0.049 A 
ATOM      4  C   UNL     1     -10.430  -8.194  14.175  1.00  0.00     0.119 A 
ATOM      5  C   UNL     1      -9.221  -8.115  13.451  1.00  0.00    -0.004 A 
ATOM      6  C   UNL     1      -8.649  -6.848  13.219  1.00  0.00     0.008 A 
ATOM      7  C   UNL     1      -9.261  -5.690  13.702  1.00  0.00     0.004 A 
ENDROOT
BRANCH   4   8
ATOM      8  O   UNL     1     -11.033  -9.429  14.415  1.00  0.00    -0.508 OA
ATOM      9  H   UNL     1     -11.932  -9.503  14.877  1.00  0.00     0.293 HD
ENDBRANCH   4   8
BRANCH   5  10
ATOM     10  C   UNL     1      -8.543  -9.370  12.917  1.00  0.00     0.017 C 
ATOM     11  C   UNL     1      -7.694 -10.045  14.002  1.00  0.00     0.012 C 
ATOM     12  C   UNL     1      -7.700  -9.055  11.675  1.00  0.00     0.012 C 
ENDBRANCH   5  10
TORSDOF 2
ENDMDL
MODEL 9
REMARK VINA RESULT:    -4.674     16.064     17.198
REMARK INTER + INTRA:          -5.284
REMARK INTER:                  -5.085
REMARK INTRA:                  -0.199
REMARK UNBOUND:                -0.200
REMARK SMILES Cc1ccc(C(C)C)c(O)c1
REMARK SMILES IDX 1 1 2 2 11 3 9 4 5 5 4 6 3 7 10 8 6 10 7 11 8 12
REMARK H PARENT 10 9
REMARK Flexibility Score: inf
ROOT
ATOM      1  C   UNL     1      -9.024  -5.244   0.875  1.00  0.00     0.044 C 
ATOM      2  C   UNL     1      -7.746  -5.820   1.408  1.00  0.00    -0.047 A 
ATOM      3  C   UNL     1      -6.882  -5.029   2.177  1.00  0.00     0.049 A 
ATOM      4  C   UNL     1      -5.702  -5.570   2.710  1.00  0.00     0.119 A 
ATOM      5  C   UNL     1      -5.380  -6.926   2.482  1.00  0.00    -0.004 A 
ATOM      6  C   UNL     1      -6.265  -7.716   1.723  1.00  0.00     0.008 A 
ATOM      7  C   UNL     1      -7.438  -7.170   1.198  1.00  0.00     0.004 A 
ENDROOT
BRANCH   4   8
ATOM      8  O   UNL     1      -4.856  -4.758   3.466  1.00  0.00    -0.508 OA
ATOM      9  H   UNL     1      -3.903  -5.030   3.677  1.00  0.00     0.293 HD
ENDBRANCH   4   8
BRANCH   5  10
ATOM     10  C   UNL     1      -4.105  -7.535   3.049  1.00  0.00     0.017 C 
ATOM     11  C   UNL     1      -2.948  -7.429   2.048  1.00  0.00     0.012 C 
ATOM     12  C   UNL     1      -4.332  -8.991   3.476  1.00  0.00     0.012 C 
ENDBRANCH   5  10
TORSDOF 2
ENDMDL
