MODEL 1
REMARK VINA RESULT:    -3.286      0.000      0.000
REMARK INTER + INTRA:          -7.316
REMARK INTER:                  -5.590
REMARK INTRA:                  -1.726
REMARK UNBOUND:                -1.726
REMARK SMILES CCCCCCCCCCCCCC(=O)[O-]
REMARK SMILES IDX 8 1 9 2 10 3 11 4 12 5 13 6 14 7 15 8 16 9 7 10 6 11 5 12
REMARK SMILES IDX 4 13 3 14 2 15 1 16
REMARK H PARENT
REMARK Flexibility Score: inf
ROOT
ATOM      1  C   UNL     1      55.495  28.657  52.174  1.00  0.00     0.000 C 
ENDROOT
BRANCH   1   2
ATOM      2  C   UNL     1      57.031  28.673  52.143  1.00  0.00     0.000 C 
BRANCH   2   3
ATOM      3  C   UNL     1      57.551  28.523  50.708  1.00  0.00     0.000 C 
BRANCH   3   4
ATOM      4  C   UNL     1      59.073  28.703  50.652  1.00  0.00     0.000 C 
BRANCH   4   5
ATOM      5  C   UNL     1      59.677  27.922  49.474  1.00  0.00     0.006 C 
BRANCH   5   6
ATOM      6  C   UNL     1      59.801  26.423  49.773  1.00  0.00     0.053 C 
BRANCH   6   7
ATOM      7  C   UNL     1      61.216  26.029  50.064  1.00  0.00     0.041 C 
ATOM      8  O   UNL     1      61.490  24.842  50.383  1.00  0.00    -0.550 OA
ATOM      9  O   UNL     1      62.229  26.980  50.015  1.00  0.00    -0.550 OA
ENDBRANCH   6   7
ENDBRANCH   5   6
ENDBRANCH   4   5
ENDBRANCH   3   4
ENDBRANCH   2   3
ENDBRANCH   1   2
BRANCH   1  10
ATOM     10  C   UNL     1      54.873  28.564  50.772  1.00  0.00     0.000 C 
BRANCH  10  11
ATOM     11  C   UNL     1      53.699  27.571  50.711  1.00  0.00    -0.000 C 
BRANCH  11  12
ATOM     12  C   UNL     1      53.923  26.443  49.689  1.00  0.00    -0.000 C 
BRANCH  12  13
ATOM     13  C   UNL     1      54.671  25.205  50.228  1.00  0.00    -0.000 C 
BRANCH  13  14
ATOM     14  C   UNL     1      56.206  25.300  50.182  1.00  0.00    -0.000 C 
BRANCH  14  15
ATOM     15  C   UNL     1      56.859  25.056  51.550  1.00  0.00    -0.003 C 
ATOM     16  C   UNL     1      55.809  24.978  52.654  1.00  0.00     0.004 C 
ENDBRANCH  14  15
ENDBRANCH  13  14
ENDBRANCH  12  13
ENDBRANCH  11  12
ENDBRANCH  10  11
ENDBRANCH   1  10
TORSDOF 12
ENDMDL
MODEL 2
REMARK VINA RESULT:    -3.263      1.387      2.917
REMARK INTER + INTRA:          -7.277
REMARK INTER:                  -5.757
REMARK INTRA:                  -1.521
REMARK UNBOUND:                -1.726
REMARK SMILES CCCCCCCCCCCCCC(=O)[O-]
REMARK SMILES IDX 8 1 9 2 10 3 11 4 12 5 13 6 14 7 15 8 16 9 7 10 6 11 5 12
REMARK SMILES IDX 4 13 3 14 2 15 1 16
REMARK H PARENT
REMARK Flexibility Score: inf
ROOT
ATOM      1  C   UNL     1      57.726  28.267  50.521  1.00  0.00     0.000 C 
ENDROOT
BRANCH   1   2
ATOM      2  C   UNL     1      59.234  28.555  50.476  1.00  0.00     0.000 C 
BRANCH   2   3
ATOM      3  C   UNL     1      59.921  27.708  49.398  1.00  0.00     0.000 C 
BRANCH   3   4
ATOM      4  C   UNL     1      61.108  26.932  49.981  1.00  0.00     0.000 C 
BRANCH   4   5
ATOM      5  C   UNL     1      60.632  25.870  50.984  1.00  0.00     0.006 C 
BRANCH   5   6
ATOM      6  C   UNL     1      60.157  24.587  50.292  1.00  0.00     0.053 C 
BRANCH   6   7
ATOM      7  C   UNL     1      61.135  23.466  50.465  1.00  0.00     0.041 C 
ATOM      8  O   UNL     1      60.725  22.297  50.688  1.00  0.00    -0.550 OA
ATOM      9  O   UNL     1      62.501  23.718  50.414  1.00  0.00    -0.550 OA
ENDBRANCH   6   7
ENDBRANCH   5   6
ENDBRANCH   4   5
ENDBRANCH   3   4
ENDBRANCH   2   3
ENDBRANCH   1   2
BRANCH   1  10
ATOM     10  C   UNL     1      57.301  27.525  51.799  1.00  0.00     0.000 C 
BRANCH  10  11
ATOM     11  C   UNL     1      57.006  26.036  51.546  1.00  0.00    -0.000 C 
BRANCH  11  12
ATOM     12  C   UNL     1      56.382  25.777  50.163  1.00  0.00    -0.000 C 
BRANCH  12  13
ATOM     13  C   UNL     1      55.009  25.072  50.182  1.00  0.00    -0.000 C 
BRANCH  13  14
ATOM     14  C   UNL     1      53.823  25.942  49.732  1.00  0.00    -0.000 C 
BRANCH  14  15
ATOM     15  C   UNL     1      54.015  27.429  50.063  1.00  0.00    -0.003 C 
ATOM     16  C   UNL     1      53.083  27.866  51.190  1.00  0.00     0.004 C 
ENDBRANCH  14  15
ENDBRANCH  13  14
ENDBRANCH  12  13
ENDBRANCH  11  12
ENDBRANCH  10  11
ENDBRANCH   1  10
TORSDOF 12
ENDMDL
MODEL 3
REMARK VINA RESULT:    -3.171      3.240      5.272
REMARK INTER + INTRA:          -7.121
REMARK INTER:                  -5.531
REMARK INTRA:                  -1.589
REMARK UNBOUND:                -1.726
REMARK SMILES CCCCCCCCCCCCCC(=O)[O-]
REMARK SMILES IDX 8 1 9 2 10 3 11 4 12 5 13 6 14 7 15 8 16 9 7 10 6 11 5 12
REMARK SMILES IDX 4 13 3 14 2 15 1 16
REMARK H PARENT
REMARK Flexibility Score: inf
ROOT
ATOM      1  C   UNL     1      58.573  28.631  51.604  1.00  0.00     0.000 C 
ENDROOT
BRANCH   1   2
ATOM      2  C   UNL     1      57.301  27.923  52.095  1.00  0.00     0.000 C 
BRANCH   2   3
ATOM      3  C   UNL     1      56.045  28.633  51.577  1.00  0.00     0.000 C 
BRANCH   3   4
ATOM      4  C   UNL     1      55.201  27.695  50.706  1.00  0.00     0.000 C 
BRANCH   4   5
ATOM      5  C   UNL     1      55.674  26.240  50.844  1.00  0.00     0.006 C 
BRANCH   5   6
ATOM      6  C   UNL     1      55.361  25.406  49.596  1.00  0.00     0.053 C 
BRANCH   6   7
ATOM      7  C   UNL     1      53.983  24.824  49.646  1.00  0.00     0.041 C 
ATOM      8  O   UNL     1      53.086  25.251  48.872  1.00  0.00    -0.550 OA
ATOM      9  O   UNL     1      53.678  23.832  50.572  1.00  0.00    -0.550 OA
ENDBRANCH   6   7
ENDBRANCH   5   6
ENDBRANCH   4   5
ENDBRANCH   3   4
ENDBRANCH   2   3
ENDBRANCH   1   2
BRANCH   1  10
ATOM     10  C   UNL     1      58.690  28.647  50.071  1.00  0.00     0.000 C 
BRANCH  10  11
ATOM     11  C   UNL     1      60.050  28.124  49.578  1.00  0.00    -0.000 C 
BRANCH  11  12
ATOM     12  C   UNL     1      60.530  26.884  50.353  1.00  0.00    -0.000 C 
BRANCH  12  13
ATOM     13  C   UNL     1      60.014  25.531  49.818  1.00  0.00    -0.000 C 
BRANCH  13  14
ATOM     14  C   UNL     1      58.978  24.829  50.714  1.00  0.00    -0.000 C 
BRANCH  14  15
ATOM     15  C   UNL     1      59.372  24.835  52.198  1.00  0.00    -0.003 C 
ATOM     16  C   UNL     1      59.813  23.448  52.656  1.00  0.00     0.004 C 
ENDBRANCH  14  15
ENDBRANCH  13  14
ENDBRANCH  12  13
ENDBRANCH  11  12
ENDBRANCH  10  11
ENDBRANCH   1  10
TORSDOF 12
ENDMDL
MODEL 4
REMARK VINA RESULT:    -3.148      1.326      2.412
REMARK INTER + INTRA:          -7.081
REMARK INTER:                  -5.561
REMARK INTRA:                  -1.520
REMARK UNBOUND:                -1.726
REMARK SMILES CCCCCCCCCCCCCC(=O)[O-]
REMARK SMILES IDX 8 1 9 2 10 3 11 4 12 5 13 6 14 7 15 8 16 9 7 10 6 11 5 12
REMARK SMILES IDX 4 13 3 14 2 15 1 16
REMARK H PARENT
REMARK Flexibility Score: inf
ROOT
ATOM      1  C   UNL     1      57.546  27.740  52.680  1.00  0.00     0.000 C 
ENDROOT
BRANCH   1   2
ATOM      2  C   UNL     1      58.126  28.781  51.710  1.00  0.00     0.000 C 
BRANCH   2   3
ATOM      3  C   UNL     1      58.131  28.246  50.273  1.00  0.00     0.000 C 
BRANCH   3   4
ATOM      4  C   UNL     1      59.470  28.536  49.583  1.00  0.00     0.000 C 
BRANCH   4   5
ATOM      5  C   UNL     1      60.359  27.283  49.557  1.00  0.00     0.006 C 
BRANCH   5   6
ATOM      6  C   UNL     1      59.560  25.998  49.805  1.00  0.00     0.053 C 
BRANCH   6   7
ATOM      7  C   UNL     1      60.315  25.030  50.662  1.00  0.00     0.041 C 
ATOM      8  O   UNL     1      61.047  25.449  51.597  1.00  0.00    -0.550 OA
ATOM      9  O   UNL     1      60.237  23.666  50.408  1.00  0.00    -0.550 OA
ENDBRANCH   6   7
ENDBRANCH   5   6
ENDBRANCH   4   5
ENDBRANCH   3   4
ENDBRANCH   2   3
ENDBRANCH   1   2
BRANCH   1  10
ATOM     10  C   UNL     1      56.120  28.085  53.140  1.00  0.00     0.000 C 
BRANCH  10  11
ATOM     11  C   UNL     1      55.642  29.447  52.606  1.00  0.00    -0.000 C 
BRANCH  11  12
ATOM     12  C   UNL     1      54.532  29.318  51.548  1.00  0.00    -0.000 C 
BRANCH  12  13
ATOM     13  C   UNL     1      53.934  27.904  51.390  1.00  0.00    -0.000 C 
BRANCH  13  14
ATOM     14  C   UNL     1      54.051  27.300  49.979  1.00  0.00    -0.000 C 
BRANCH  14  15
ATOM     15  C   UNL     1      54.330  25.791  49.997  1.00  0.00    -0.003 C 
ATOM     16  C   UNL     1      55.820  25.509  50.168  1.00  0.00     0.004 C 
ENDBRANCH  14  15
ENDBRANCH  13  14
ENDBRANCH  12  13
ENDBRANCH  11  12
ENDBRANCH  10  11
ENDBRANCH   1  10
TORSDOF 12
ENDMDL
MODEL 5
REMARK VINA RESULT:    -3.120      1.767      3.513
REMARK INTER + INTRA:          -7.034
REMARK INTER:                  -5.328
REMARK INTRA:                  -1.706
REMARK UNBOUND:                -1.726
REMARK SMILES CCCCCCCCCCCCCC(=O)[O-]
REMARK SMILES IDX 8 1 9 2 10 3 11 4 12 5 13 6 14 7 15 8 16 9 7 10 6 11 5 12
REMARK SMILES IDX 4 13 3 14 2 15 1 16
REMARK H PARENT
REMARK Flexibility Score: inf
ROOT
ATOM      1  C   UNL     1      57.686  25.629  50.470  1.00  0.00     0.000 C 
ENDROOT
BRANCH   1   2
ATOM      2  C   UNL     1      59.079  24.989  50.366  1.00  0.00     0.000 C 
BRANCH   2   3
ATOM      3  C   UNL     1      59.847  25.130  51.685  1.00  0.00     0.000 C 
BRANCH   3   4
ATOM      4  C   UNL     1      61.284  25.603  51.438  1.00  0.00     0.000 C 
BRANCH   4   5
ATOM      5  C   UNL     1      61.413  26.285  50.068  1.00  0.00     0.006 C 
BRANCH   5   6
ATOM      6  C   UNL     1      61.610  27.801  50.190  1.00  0.00     0.053 C 
BRANCH   6   7
ATOM      7  C   UNL     1      60.304  28.526  50.295  1.00  0.00     0.041 C 
ATOM      8  O   UNL     1      59.489  28.504  49.336  1.00  0.00    -0.550 OA
ATOM      9  O   UNL     1      60.001  29.255  51.439  1.00  0.00    -0.550 OA
ENDBRANCH   6   7
ENDBRANCH   5   6
ENDBRANCH   4   5
ENDBRANCH   3   4
ENDBRANCH   2   3
ENDBRANCH   1   2
BRANCH   1  10
ATOM     10  C   UNL     1      57.313  26.007  51.913  1.00  0.00     0.000 C 
BRANCH  10  11
ATOM     11  C   UNL     1      57.047  27.513  52.079  1.00  0.00    -0.000 C 
BRANCH  11  12
ATOM     12  C   UNL     1      56.329  28.130  50.866  1.00  0.00    -0.000 C 
BRANCH  12  13
ATOM     13  C   UNL     1      54.788  28.163  50.958  1.00  0.00    -0.000 C 
BRANCH  13  14
ATOM     14  C   UNL     1      54.057  27.240  49.967  1.00  0.00    -0.000 C 
BRANCH  14  15
ATOM     15  C   UNL     1      53.767  25.849  50.551  1.00  0.00    -0.003 C 
ATOM     16  C   UNL     1      54.245  24.748  49.608  1.00  0.00     0.004 C 
ENDBRANCH  14  15
ENDBRANCH  13  14
ENDBRANCH  12  13
ENDBRANCH  11  12
ENDBRANCH  10  11
ENDBRANCH   1  10
TORSDOF 12
ENDMDL
MODEL 6
REMARK VINA RESULT:    -3.091      3.201      5.608
REMARK INTER + INTRA:          -6.985
REMARK INTER:                  -4.823
REMARK INTRA:                  -2.162
REMARK UNBOUND:                -1.726
REMARK SMILES CCCCCCCCCCCCCC(=O)[O-]
REMARK SMILES IDX 8 1 9 2 10 3 11 4 12 5 13 6 14 7 15 8 16 9 7 10 6 11 5 12
REMARK SMILES IDX 4 13 3 14 2 15 1 16
REMARK H PARENT
REMARK Flexibility Score: inf
ROOT
ATOM      1  C   UNL     1      59.899  25.422  50.236  1.00  0.00     0.000 C 
ENDROOT
BRANCH   1   2
ATOM      2  C   UNL     1      59.268  25.057  51.589  1.00  0.00     0.000 C 
BRANCH   2   3
ATOM      3  C   UNL     1      57.738  25.087  51.505  1.00  0.00     0.000 C 
BRANCH   3   4
ATOM      4  C   UNL     1      57.268  25.272  50.057  1.00  0.00     0.000 C 
BRANCH   4   5
ATOM      5  C   UNL     1      55.768  25.598  50.001  1.00  0.00     0.006 C 
BRANCH   5   6
ATOM      6  C   UNL     1      55.359  26.633  51.056  1.00  0.00     0.053 C 
BRANCH   6   7
ATOM      7  C   UNL     1      54.482  27.700  50.478  1.00  0.00     0.041 C 
ATOM      8  O   UNL     1      53.452  27.389  49.823  1.00  0.00    -0.550 OA
ATOM      9  O   UNL     1      54.820  29.040  50.633  1.00  0.00    -0.550 OA
ENDBRANCH   6   7
ENDBRANCH   5   6
ENDBRANCH   4   5
ENDBRANCH   3   4
ENDBRANCH   2   3
ENDBRANCH   1   2
BRANCH   1  10
ATOM     10  C   UNL     1      60.587  26.797  50.254  1.00  0.00     0.000 C 
BRANCH  10  11
ATOM     11  C   UNL     1      59.864  27.830  49.372  1.00  0.00    -0.000 C 
BRANCH  11  12
ATOM     12  C   UNL     1      58.765  28.597  50.128  1.00  0.00    -0.000 C 
BRANCH  12  13
ATOM     13  C   UNL     1      59.075  28.901  51.610  1.00  0.00    -0.000 C 
BRANCH  13  14
ATOM     14  C   UNL     1      57.894  28.702  52.576  1.00  0.00    -0.000 C 
BRANCH  14  15
ATOM     15  C   UNL     1      58.304  28.004  53.881  1.00  0.00    -0.003 C 
ATOM     16  C   UNL     1      59.821  27.875  53.983  1.00  0.00     0.004 C 
ENDBRANCH  14  15
ENDBRANCH  13  14
ENDBRANCH  12  13
ENDBRANCH  11  12
ENDBRANCH  10  11
ENDBRANCH   1  10
TORSDOF 12
ENDMDL
MODEL 7
REMARK VINA RESULT:    -3.053      3.135      5.696
REMARK INTER + INTRA:          -6.920
REMARK INTER:                  -5.154
REMARK INTRA:                  -1.766
REMARK UNBOUND:                -1.726
REMARK SMILES CCCCCCCCCCCCCC(=O)[O-]
REMARK SMILES IDX 8 1 9 2 10 3 11 4 12 5 13 6 14 7 15 8 16 9 7 10 6 11 5 12
REMARK SMILES IDX 4 13 3 14 2 15 1 16
REMARK H PARENT
REMARK Flexibility Score: inf
ROOT
ATOM      1  C   UNL     1      57.403  26.293  51.944  1.00  0.00     0.000 C 
ENDROOT
BRANCH   1   2
ATOM      2  C   UNL     1      57.011  25.688  50.588  1.00  0.00     0.000 C 
BRANCH   2   3
ATOM      3  C   UNL     1      55.549  25.225  50.596  1.00  0.00     0.000 C 
BRANCH   3   4
ATOM      4  C   UNL     1      54.669  26.168  49.767  1.00  0.00     0.000 C 
BRANCH   4   5
ATOM      5  C   UNL     1      53.803  27.054  50.675  1.00  0.00     0.006 C 
BRANCH   5   6
ATOM      6  C   UNL     1      54.188  28.535  50.580  1.00  0.00     0.053 C 
BRANCH   6   7
ATOM      7  C   UNL     1      54.423  29.137  51.931  1.00  0.00     0.041 C 
ATOM      8  O   UNL     1      54.438  30.389  52.073  1.00  0.00    -0.550 OA
ATOM      9  O   UNL     1      54.658  28.317  53.028  1.00  0.00    -0.550 OA
ENDBRANCH   6   7
ENDBRANCH   5   6
ENDBRANCH   4   5
ENDBRANCH   3   4
ENDBRANCH   2   3
ENDBRANCH   1   2
BRANCH   1  10
ATOM     10  C   UNL     1      58.029  27.691  51.812  1.00  0.00     0.000 C 
BRANCH  10  11
ATOM     11  C   UNL     1      57.845  28.289  50.407  1.00  0.00    -0.000 C 
BRANCH  11  12
ATOM     12  C   UNL     1      59.174  28.722  49.762  1.00  0.00    -0.000 C 
BRANCH  12  13
ATOM     13  C   UNL     1      60.410  27.900  50.187  1.00  0.00    -0.000 C 
BRANCH  13  14
ATOM     14  C   UNL     1      60.465  26.468  49.626  1.00  0.00    -0.000 C 
BRANCH  14  15
ATOM     15  C   UNL     1      61.455  25.570  50.382  1.00  0.00    -0.003 C 
ATOM     16  C   UNL     1      61.000  25.341  51.821  1.00  0.00     0.004 C 
ENDBRANCH  14  15
ENDBRANCH  13  14
ENDBRANCH  12  13
ENDBRANCH  11  12
ENDBRANCH  10  11
ENDBRANCH   1  10
TORSDOF 12
ENDMDL
MODEL 8
REMARK VINA RESULT:    -3.042      1.454      2.770
REMARK INTER + INTRA:          -6.902
REMARK INTER:                  -5.660
REMARK INTRA:                  -1.242
REMARK UNBOUND:                -1.726
REMARK SMILES CCCCCCCCCCCCCC(=O)[O-]
REMARK SMILES IDX 8 1 9 2 10 3 11 4 12 5 13 6 14 7 15 8 16 9 7 10 6 11 5 12
REMARK SMILES IDX 4 13 3 14 2 15 1 16
REMARK H PARENT
REMARK Flexibility Score: inf
ROOT
ATOM      1  C   UNL     1      56.828  27.938  50.971  1.00  0.00     0.000 C 
ENDROOT
BRANCH   1   2
ATOM      2  C   UNL     1      57.144  26.501  51.415  1.00  0.00     0.000 C 
BRANCH   2   3
ATOM      3  C   UNL     1      57.797  25.708  50.278  1.00  0.00     0.000 C 
BRANCH   3   4
ATOM      4  C   UNL     1      58.967  24.863  50.797  1.00  0.00     0.000 C 
BRANCH   4   5
ATOM      5  C   UNL     1      60.290  25.294  50.145  1.00  0.00     0.006 C 
BRANCH   5   6
ATOM      6  C   UNL     1      60.238  26.735  49.623  1.00  0.00     0.053 C 
BRANCH   6   7
ATOM      7  C   UNL     1      61.458  27.512  50.009  1.00  0.00     0.041 C 
ATOM      8  O   UNL     1      62.565  27.267  49.460  1.00  0.00    -0.550 OA
ATOM      9  O   UNL     1      61.381  28.483  51.001  1.00  0.00    -0.550 OA
ENDBRANCH   6   7
ENDBRANCH   5   6
ENDBRANCH   4   5
ENDBRANCH   3   4
ENDBRANCH   2   3
ENDBRANCH   1   2
BRANCH   1  10
ATOM     10  C   UNL     1      56.347  28.826  52.130  1.00  0.00     0.000 C 
BRANCH  10  11
ATOM     11  C   UNL     1      54.816  28.974  52.164  1.00  0.00    -0.000 C 
BRANCH  11  12
ATOM     12  C   UNL     1      54.199  29.124  50.762  1.00  0.00    -0.000 C 
BRANCH  12  13
ATOM     13  C   UNL     1      52.909  28.311  50.520  1.00  0.00    -0.000 C 
BRANCH  13  14
ATOM     14  C   UNL     1      53.080  27.067  49.630  1.00  0.00    -0.000 C 
BRANCH  14  15
ATOM     15  C   UNL     1      53.622  25.854  50.400  1.00  0.00    -0.003 C 
ATOM     16  C   UNL     1      54.330  24.879  49.463  1.00  0.00     0.004 C 
ENDBRANCH  14  15
ENDBRANCH  13  14
ENDBRANCH  12  13
ENDBRANCH  11  12
ENDBRANCH  10  11
ENDBRANCH   1  10
TORSDOF 12
ENDMDL
MODEL 9
REMARK VINA RESULT:    -3.010      1.060      2.666
REMARK INTER + INTRA:          -6.847
REMARK INTER:                  -5.520
REMARK INTRA:                  -1.327
REMARK UNBOUND:                -1.726
REMARK SMILES CCCCCCCCCCCCCC(=O)[O-]
REMARK SMILES IDX 8 1 9 2 10 3 11 4 12 5 13 6 14 7 15 8 16 9 7 10 6 11 5 12
REMARK SMILES IDX 4 13 3 14 2 15 1 16
REMARK H PARENT
REMARK Flexibility Score: inf
ROOT
ATOM      1  C   UNL     1      57.103  26.054  51.510  1.00  0.00     0.000 C 
ENDROOT
BRANCH   1   2
ATOM      2  C   UNL     1      57.289  27.100  50.400  1.00  0.00     0.000 C 
BRANCH   2   3
ATOM      3  C   UNL     1      58.267  28.196  50.839  1.00  0.00     0.000 C 
BRANCH   3   4
ATOM      4  C   UNL     1      59.196  28.599  49.688  1.00  0.00     0.000 C 
BRANCH   4   5
ATOM      5  C   UNL     1      60.552  27.887  49.798  1.00  0.00     0.006 C 
BRANCH   5   6
ATOM      6  C   UNL     1      60.414  26.361  49.728  1.00  0.00     0.053 C 
BRANCH   6   7
ATOM      7  C   UNL     1      61.207  25.680  50.801  1.00  0.00     0.041 C 
ATOM      8  O   UNL     1      62.320  25.157  50.530  1.00  0.00    -0.550 OA
ATOM      9  O   UNL     1      60.701  25.594  52.092  1.00  0.00    -0.550 OA
ENDBRANCH   6   7
ENDBRANCH   5   6
ENDBRANCH   4   5
ENDBRANCH   3   4
ENDBRANCH   2   3
ENDBRANCH   1   2
BRANCH   1  10
ATOM     10  C   UNL     1      55.774  25.289  51.389  1.00  0.00     0.000 C 
BRANCH  10  11
ATOM     11  C   UNL     1      55.216  25.301  49.955  1.00  0.00    -0.000 C 
BRANCH  11  12
ATOM     12  C   UNL     1      53.697  25.541  49.907  1.00  0.00    -0.000 C 
BRANCH  12  13
ATOM     13  C   UNL     1      53.269  26.999  49.635  1.00  0.00    -0.000 C 
BRANCH  13  14
ATOM     14  C   UNL     1      53.168  27.893  50.883  1.00  0.00    -0.000 C 
BRANCH  14  15
ATOM     15  C   UNL     1      54.166  29.059  50.863  1.00  0.00    -0.003 C 
ATOM     16  C   UNL     1      54.882  29.193  52.205  1.00  0.00     0.004 C 
ENDBRANCH  14  15
ENDBRANCH  13  14
ENDBRANCH  12  13
ENDBRANCH  11  12
ENDBRANCH  10  11
ENDBRANCH   1  10
TORSDOF 12
ENDMDL
