MODEL 1
REMARK VINA RESULT:     2.148      0.000      0.000
REMARK INTER + INTRA:           7.537
REMARK INTER:                   5.099
REMARK INTRA:                   2.438
REMARK UNBOUND:                 2.438
REMARK SMILES O=C(OC[C@@H]1O[C@@H](OC(=O)c2cc(O)c(O)c(O)c2)[C@@H](OC(=O)c2cc(O)c(O)c(O)c2)[C@H](OC(=O)c2cc(O)c(O)c(O)c2)[C@@H]1OC(=O)c1cc(O)c(O)c(O)c1)c1cc(O)c(O)c(O)c1
REMARK SMILES IDX 5 1 46 2 33 3 20 4 7 5 6 6 4 7 3 8 2 9 1 10 59 11 60 12
REMARK SMILES IDX 61 13 67 14 63 15 65 16 62 17 64 19 66 21 47 23 48 24 49 25
REMARK SMILES IDX 50 26 58 27 51 28 56 29 52 30 54 31 57 32 53 34 55 36 34 38
REMARK SMILES IDX 35 39 36 40 37 41 45 42 38 43 43 44 39 45 41 46 44 47 40 49
REMARK SMILES IDX 42 51 8 53 9 54 10 55 11 56 19 57 12 58 17 59 13 60 15 61
REMARK SMILES IDX 18 62 14 64 16 66 21 68 22 69 23 70 24 71 32 72 25 73 30 74
REMARK SMILES IDX 26 75 28 76 31 77 27 79 29 81
REMARK H PARENT 62 18 64 20 66 22 57 33 53 35 55 37 44 48 40 50 42 52 18 63
REMARK H PARENT 14 65 16 67 31 78 27 80 29 82
REMARK Flexibility Score: inf
ROOT
ATOM      1  C   UNL     1     -21.172  12.776 -29.062  1.00  0.00     0.205 C 
ATOM      2  C   UNL     1     -20.666  14.182 -29.450  1.00  0.00     0.254 C 
ATOM      3  C   UNL     1     -21.870  15.139 -29.564  1.00  0.00     0.267 C 
ATOM      4  C   UNL     1     -22.934  14.540 -30.502  1.00  0.00     0.290 C 
ATOM      5  C   UNL     1     -23.261  13.097 -30.081  1.00  0.00     0.357 C 
ATOM      6  O   UNL     1     -22.092  12.294 -30.030  1.00  0.00    -0.329 OA
ENDROOT
BRANCH   1   7
ATOM      7  C   UNL     1     -20.004  11.783 -28.937  1.00  0.00     0.269 C 
BRANCH   7   8
ATOM      8  O   UNL     1     -18.941  12.349 -28.172  1.00  0.00    -0.459 OA
BRANCH   8   9
ATOM      9  C   UNL     1     -18.130  11.620 -27.295  1.00  0.00     0.338 C 
ATOM     10  O   UNL     1     -18.650  10.877 -26.419  1.00  0.00    -0.246 OA
BRANCH   9  11
ATOM     11  C   UNL     1     -16.658  11.699 -27.424  1.00  0.00     0.067 A 
ATOM     12  C   UNL     1     -16.068  11.850 -28.686  1.00  0.00     0.066 A 
ATOM     13  C   UNL     1     -14.680  11.910 -28.823  1.00  0.00     0.162 A 
ATOM     14  C   UNL     1     -15.834  11.618 -26.291  1.00  0.00     0.066 A 
ATOM     15  C   UNL     1     -13.853  11.817 -27.689  1.00  0.00     0.200 A 
ATOM     16  C   UNL     1     -14.442  11.678 -26.407  1.00  0.00     0.162 A 
BRANCH  13  17
ATOM     17  O   UNL     1     -14.135  12.044 -30.102  1.00  0.00    -0.504 OA
ATOM     18  H   UNL     1     -14.032  11.257 -30.733  1.00  0.00     0.293 HD
ENDBRANCH  13  17
BRANCH  15  19
ATOM     19  O   UNL     1     -12.468  11.860 -27.872  1.00  0.00    -0.502 OA
ATOM     20  H   UNL     1     -11.942  12.709 -28.007  1.00  0.00     0.293 HD
ENDBRANCH  15  19
BRANCH  16  21
ATOM     21  O   UNL     1     -13.687  11.604 -25.233  1.00  0.00    -0.504 OA
ATOM     22  H   UNL     1     -13.941  11.054 -24.429  1.00  0.00     0.293 HD
ENDBRANCH  16  21
ENDBRANCH   9  11
ENDBRANCH   8   9
ENDBRANCH   7   8
ENDBRANCH   1   7
BRANCH   2  23
ATOM     23  O   UNL     1     -19.983  14.113 -30.702  1.00  0.00    -0.452 OA
BRANCH  23  24
ATOM     24  C   UNL     1     -18.904  13.257 -30.959  1.00  0.00     0.338 C 
ATOM     25  O   UNL     1     -19.063  12.005 -30.933  1.00  0.00    -0.246 OA
BRANCH  24  26
ATOM     26  C   UNL     1     -17.577  13.829 -31.266  1.00  0.00     0.067 A 
ATOM     27  C   UNL     1     -16.942  13.554 -32.490  1.00  0.00     0.066 A 
ATOM     28  C   UNL     1     -16.939  14.665 -30.337  1.00  0.00     0.066 A 
ATOM     29  C   UNL     1     -15.692  14.104 -32.783  1.00  0.00     0.162 A 
ATOM     30  C   UNL     1     -15.685  15.214 -30.618  1.00  0.00     0.162 A 
ATOM     31  C   UNL     1     -15.055  14.934 -31.843  1.00  0.00     0.200 A 
BRANCH  29  32
ATOM     32  O   UNL     1     -15.105  13.832 -34.019  1.00  0.00    -0.504 OA
ATOM     33  H   UNL     1     -15.084  12.897 -34.408  1.00  0.00     0.293 HD
ENDBRANCH  29  32
BRANCH  30  34
ATOM     34  O   UNL     1     -15.055  16.035 -29.681  1.00  0.00    -0.504 OA
ATOM     35  H   UNL     1     -14.944  15.741 -28.716  1.00  0.00     0.293 HD
ENDBRANCH  30  34
BRANCH  31  36
ATOM     36  O   UNL     1     -13.805  15.479 -32.142  1.00  0.00    -0.502 OA
ATOM     37  H   UNL     1     -13.405  16.243 -31.605  1.00  0.00     0.293 HD
ENDBRANCH  31  36
ENDBRANCH  24  26
ENDBRANCH  23  24
ENDBRANCH   2  23
BRANCH   3  38
ATOM     38  O   UNL     1     -21.463  16.409 -30.073  1.00  0.00    -0.450 OA
BRANCH  38  39
ATOM     39  C   UNL     1     -21.756  17.636 -29.470  1.00  0.00     0.338 C 
ATOM     40  O   UNL     1     -21.492  17.821 -28.250  1.00  0.00    -0.246 OA
BRANCH  39  41
ATOM     41  C   UNL     1     -22.388  18.711 -30.269  1.00  0.00     0.067 A 
ATOM     42  C   UNL     1     -22.471  20.027 -29.783  1.00  0.00     0.066 A 
ATOM     43  C   UNL     1     -22.923  18.420 -31.534  1.00  0.00     0.066 A 
ATOM     44  C   UNL     1     -23.107  21.029 -30.530  1.00  0.00     0.162 A 
ATOM     45  C   UNL     1     -23.561  19.411 -32.286  1.00  0.00     0.162 A 
ATOM     46  C   UNL     1     -23.661  20.719 -31.784  1.00  0.00     0.200 A 
BRANCH  44  47
ATOM     47  O   UNL     1     -23.194  22.332 -30.032  1.00  0.00    -0.504 OA
ATOM     48  H   UNL     1     -24.035  22.678 -29.581  1.00  0.00     0.293 HD
ENDBRANCH  44  47
BRANCH  45  49
ATOM     49  O   UNL     1     -24.088  19.080 -33.535  1.00  0.00    -0.504 OA
ATOM     50  H   UNL     1     -24.094  18.129 -33.879  1.00  0.00     0.293 HD
ENDBRANCH  45  49
BRANCH  46  51
ATOM     51  O   UNL     1     -24.305  21.696 -32.541  1.00  0.00    -0.502 OA
ATOM     52  H   UNL     1     -25.296  21.894 -32.447  1.00  0.00     0.293 HD
ENDBRANCH  46  51
ENDBRANCH  39  41
ENDBRANCH  38  39
ENDBRANCH   3  38
BRANCH   5  53
ATOM     53  O   UNL     1     -23.942  13.075 -28.825  1.00  0.00    -0.428 OA
BRANCH  53  54
ATOM     54  C   UNL     1     -24.611  11.948 -28.329  1.00  0.00     0.340 C 
ATOM     55  O   UNL     1     -23.959  11.006 -27.801  1.00  0.00    -0.246 OA
BRANCH  54  56
ATOM     56  C   UNL     1     -26.083  11.859 -28.458  1.00  0.00     0.067 A 
ATOM     57  C   UNL     1     -26.707  12.212 -29.666  1.00  0.00     0.066 A 
ATOM     58  C   UNL     1     -26.869  11.412 -27.384  1.00  0.00     0.066 A 
ATOM     59  C   UNL     1     -28.100  12.129 -29.798  1.00  0.00     0.162 A 
ATOM     60  C   UNL     1     -28.261  11.319 -27.512  1.00  0.00     0.162 A 
ATOM     61  C   UNL     1     -28.881  11.685 -28.717  1.00  0.00     0.200 A 
BRANCH  59  62
ATOM     62  O   UNL     1     -28.713  12.485 -30.997  1.00  0.00    -0.504 OA
ATOM     63  H   UNL     1     -28.207  12.966 -31.731  1.00  0.00     0.293 HD
ENDBRANCH  59  62
BRANCH  60  64
ATOM     64  O   UNL     1     -29.020  10.875 -26.430  1.00  0.00    -0.504 OA
ATOM     65  H   UNL     1     -28.836   9.989 -25.974  1.00  0.00     0.293 HD
ENDBRANCH  60  64
BRANCH  61  66
ATOM     66  O   UNL     1     -30.272  11.598 -28.826  1.00  0.00    -0.502 OA
ATOM     67  H   UNL     1     -30.884  11.750 -28.025  1.00  0.00     0.293 HD
ENDBRANCH  61  66
ENDBRANCH  54  56
ENDBRANCH  53  54
ENDBRANCH   5  53
BRANCH   4  68
ATOM     68  O   UNL     1     -24.129  15.328 -30.463  1.00  0.00    -0.448 OA
BRANCH  68  69
ATOM     69  C   UNL     1     -25.373  14.871 -30.922  1.00  0.00     0.339 C 
ATOM     70  O   UNL     1     -25.605  13.633 -30.992  1.00  0.00    -0.246 OA
BRANCH  69  71
ATOM     71  C   UNL     1     -26.430  15.839 -31.285  1.00  0.00     0.067 A 
ATOM     72  C   UNL     1     -27.775  15.436 -31.357  1.00  0.00     0.066 A 
ATOM     73  C   UNL     1     -26.103  17.176 -31.559  1.00  0.00     0.066 A 
ATOM     74  C   UNL     1     -28.781  16.362 -31.664  1.00  0.00     0.162 A 
ATOM     75  C   UNL     1     -27.096  18.110 -31.883  1.00  0.00     0.162 A 
ATOM     76  C   UNL     1     -28.453  17.703 -31.917  1.00  0.00     0.200 A 
BRANCH  74  77
ATOM     77  O   UNL     1     -30.117  15.964 -31.708  1.00  0.00    -0.504 OA
ATOM     78  H   UNL     1     -30.819  16.411 -31.139  1.00  0.00     0.293 HD
ENDBRANCH  74  77
BRANCH  75  79
ATOM     79  O   UNL     1     -26.688  19.416 -32.172  1.00  0.00    -0.504 OA
ATOM     80  H   UNL     1     -25.754  19.665 -32.458  1.00  0.00     0.293 HD
ENDBRANCH  75  79
BRANCH  76  81
ATOM     81  O   UNL     1     -29.493  18.596 -32.185  1.00  0.00    -0.502 OA
ATOM     82  H   UNL     1     -29.568  19.119 -33.040  1.00  0.00     0.293 HD
ENDBRANCH  76  81
ENDBRANCH  69  71
ENDBRANCH  68  69
ENDBRANCH   4  68
TORSDOF 31
ENDMDL
MODEL 2
REMARK VINA RESULT:     2.150      0.732      2.148
REMARK INTER + INTRA:           7.542
REMARK INTER:                   4.937
REMARK INTRA:                   2.606
REMARK UNBOUND:                 2.438
REMARK SMILES O=C(OC[C@@H]1O[C@@H](OC(=O)c2cc(O)c(O)c(O)c2)[C@@H](OC(=O)c2cc(O)c(O)c(O)c2)[C@H](OC(=O)c2cc(O)c(O)c(O)c2)[C@@H]1OC(=O)c1cc(O)c(O)c(O)c1)c1cc(O)c(O)c(O)c1
REMARK SMILES IDX 5 1 46 2 33 3 20 4 7 5 6 6 4 7 3 8 2 9 1 10 59 11 60 12
REMARK SMILES IDX 61 13 67 14 63 15 65 16 62 17 64 19 66 21 47 23 48 24 49 25
REMARK SMILES IDX 50 26 58 27 51 28 56 29 52 30 54 31 57 32 53 34 55 36 34 38
REMARK SMILES IDX 35 39 36 40 37 41 45 42 38 43 43 44 39 45 41 46 44 47 40 49
REMARK SMILES IDX 42 51 8 53 9 54 10 55 11 56 19 57 12 58 17 59 13 60 15 61
REMARK SMILES IDX 18 62 14 64 16 66 21 68 22 69 23 70 24 71 32 72 25 73 30 74
REMARK SMILES IDX 26 75 28 76 31 77 27 79 29 81
REMARK H PARENT 62 18 64 20 66 22 57 33 53 35 55 37 44 48 40 50 42 52 18 63
REMARK H PARENT 14 65 16 67 31 78 27 80 29 82
REMARK Flexibility Score: inf
ROOT
ATOM      1  C   UNL     1     -21.197  12.794 -29.173  1.00  0.00     0.205 C 
ATOM      2  C   UNL     1     -20.687  14.211 -29.512  1.00  0.00     0.254 C 
ATOM      3  C   UNL     1     -21.891  15.119 -29.835  1.00  0.00     0.267 C 
ATOM      4  C   UNL     1     -22.773  14.463 -30.913  1.00  0.00     0.290 C 
ATOM      5  C   UNL     1     -23.111  13.015 -30.513  1.00  0.00     0.357 C 
ATOM      6  O   UNL     1     -21.937  12.260 -30.261  1.00  0.00    -0.329 OA
ENDROOT
BRANCH   1   7
ATOM      7  C   UNL     1     -20.029  11.849 -28.844  1.00  0.00     0.269 C 
BRANCH   7   8
ATOM      8  O   UNL     1     -19.173  12.430 -27.862  1.00  0.00    -0.459 OA
BRANCH   8   9
ATOM      9  C   UNL     1     -18.203  11.720 -27.146  1.00  0.00     0.338 C 
ATOM     10  O   UNL     1     -18.548  10.876 -26.275  1.00  0.00    -0.246 OA
BRANCH   9  11
ATOM     11  C   UNL     1     -16.770  11.939 -27.441  1.00  0.00     0.067 A 
ATOM     12  C   UNL     1     -15.916  12.447 -26.452  1.00  0.00     0.066 A 
ATOM     13  C   UNL     1     -14.565  12.675 -26.722  1.00  0.00     0.162 A 
ATOM     14  C   UNL     1     -16.247  11.650 -28.710  1.00  0.00     0.066 A 
ATOM     15  C   UNL     1     -14.043  12.395 -27.998  1.00  0.00     0.200 A 
ATOM     16  C   UNL     1     -14.896  11.868 -29.000  1.00  0.00     0.162 A 
BRANCH  13  17
ATOM     17  O   UNL     1     -13.756  13.198 -25.712  1.00  0.00    -0.504 OA
ATOM     18  H   UNL     1     -13.556  12.690 -24.859  1.00  0.00     0.293 HD
ENDBRANCH  13  17
BRANCH  15  19
ATOM     19  O   UNL     1     -12.690  12.657 -28.234  1.00  0.00    -0.502 OA
ATOM     20  H   UNL     1     -12.179  13.414 -27.809  1.00  0.00     0.293 HD
ENDBRANCH  15  19
BRANCH  16  21
ATOM     21  O   UNL     1     -14.445  11.543 -30.282  1.00  0.00    -0.504 OA
ATOM     22  H   UNL     1     -14.334  10.603 -30.624  1.00  0.00     0.293 HD
ENDBRANCH  16  21
ENDBRANCH   9  11
ENDBRANCH   8   9
ENDBRANCH   7   8
ENDBRANCH   1   7
BRANCH   2  23
ATOM     23  O   UNL     1     -19.814  14.145 -30.640  1.00  0.00    -0.452 OA
BRANCH  23  24
ATOM     24  C   UNL     1     -18.709  13.287 -30.726  1.00  0.00     0.338 C 
ATOM     25  O   UNL     1     -18.849  12.047 -30.537  1.00  0.00    -0.246 OA
BRANCH  24  26
ATOM     26  C   UNL     1     -17.378  13.843 -31.043  1.00  0.00     0.067 A 
ATOM     27  C   UNL     1     -16.800  13.642 -32.309  1.00  0.00     0.066 A 
ATOM     28  C   UNL     1     -16.679  14.589 -30.083  1.00  0.00     0.066 A 
ATOM     29  C   UNL     1     -15.545  14.177 -32.611  1.00  0.00     0.162 A 
ATOM     30  C   UNL     1     -15.421  15.122 -30.373  1.00  0.00     0.162 A 
ATOM     31  C   UNL     1     -14.847  14.916 -31.640  1.00  0.00     0.200 A 
BRANCH  29  32
ATOM     32  O   UNL     1     -15.014  13.982 -33.887  1.00  0.00    -0.504 OA
ATOM     33  H   UNL     1     -14.654  14.751 -34.440  1.00  0.00     0.293 HD
ENDBRANCH  29  32
BRANCH  30  34
ATOM     34  O   UNL     1     -14.730  15.853 -29.405  1.00  0.00    -0.504 OA
ATOM     35  H   UNL     1     -13.790  16.195 -29.576  1.00  0.00     0.293 HD
ENDBRANCH  30  34
BRANCH  31  36
ATOM     36  O   UNL     1     -13.593  15.447 -31.949  1.00  0.00    -0.502 OA
ATOM     37  H   UNL     1     -13.431  16.006 -32.782  1.00  0.00     0.293 HD
ENDBRANCH  31  36
ENDBRANCH  24  26
ENDBRANCH  23  24
ENDBRANCH   2  23
BRANCH   3  38
ATOM     38  O   UNL     1     -21.453  16.394 -30.305  1.00  0.00    -0.450 OA
BRANCH  38  39
ATOM     39  C   UNL     1     -21.768  17.613 -29.697  1.00  0.00     0.338 C 
ATOM     40  O   UNL     1     -21.382  17.852 -28.520  1.00  0.00    -0.246 OA
BRANCH  39  41
ATOM     41  C   UNL     1     -22.565  18.617 -30.441  1.00  0.00     0.067 A 
ATOM     42  C   UNL     1     -23.321  18.255 -31.570  1.00  0.00     0.066 A 
ATOM     43  C   UNL     1     -22.566  19.957 -30.025  1.00  0.00     0.066 A 
ATOM     44  C   UNL     1     -24.039  19.220 -32.291  1.00  0.00     0.162 A 
ATOM     45  C   UNL     1     -23.277  20.926 -30.737  1.00  0.00     0.162 A 
ATOM     46  C   UNL     1     -24.012  20.563 -31.878  1.00  0.00     0.200 A 
BRANCH  44  47
ATOM     47  O   UNL     1     -24.778  18.851 -33.419  1.00  0.00    -0.504 OA
ATOM     48  H   UNL     1     -24.338  18.693 -34.319  1.00  0.00     0.293 HD
ENDBRANCH  44  47
BRANCH  45  49
ATOM     49  O   UNL     1     -23.247  22.250 -30.297  1.00  0.00    -0.504 OA
ATOM     50  H   UNL     1     -24.005  22.655 -29.764  1.00  0.00     0.293 HD
ENDBRANCH  45  49
BRANCH  46  51
ATOM     51  O   UNL     1     -24.711  21.541 -32.584  1.00  0.00    -0.502 OA
ATOM     52  H   UNL     1     -24.756  21.554 -33.598  1.00  0.00     0.293 HD
ENDBRANCH  46  51
ENDBRANCH  39  41
ENDBRANCH  38  39
ENDBRANCH   3  38
BRANCH   5  53
ATOM     53  O   UNL     1     -23.980  12.991 -29.378  1.00  0.00    -0.428 OA
BRANCH  53  54
ATOM     54  C   UNL     1     -24.552  11.817 -28.871  1.00  0.00     0.340 C 
ATOM     55  O   UNL     1     -23.816  10.875 -28.469  1.00  0.00    -0.246 OA
BRANCH  54  56
ATOM     56  C   UNL     1     -26.026  11.682 -28.837  1.00  0.00     0.067 A 
ATOM     57  C   UNL     1     -26.727  11.907 -27.641  1.00  0.00     0.066 A 
ATOM     58  C   UNL     1     -26.738  11.339 -29.997  1.00  0.00     0.066 A 
ATOM     59  C   UNL     1     -28.123  11.783 -27.600  1.00  0.00     0.162 A 
ATOM     60  C   UNL     1     -28.134  11.222 -29.965  1.00  0.00     0.162 A 
ATOM     61  C   UNL     1     -28.830  11.436 -28.764  1.00  0.00     0.200 A 
BRANCH  59  62
ATOM     62  O   UNL     1     -28.811  12.004 -26.410  1.00  0.00    -0.504 OA
ATOM     63  H   UNL     1     -29.764  11.685 -26.279  1.00  0.00     0.293 HD
ENDBRANCH  59  62
BRANCH  60  64
ATOM     64  O   UNL     1     -28.820  10.877 -31.130  1.00  0.00    -0.504 OA
ATOM     65  H   UNL     1     -29.717  10.405 -31.103  1.00  0.00     0.293 HD
ENDBRANCH  60  64
BRANCH  61  66
ATOM     66  O   UNL     1     -30.221  11.303 -28.745  1.00  0.00    -0.502 OA
ATOM     67  H   UNL     1     -30.746  11.274 -27.872  1.00  0.00     0.293 HD
ENDBRANCH  61  66
ENDBRANCH  54  56
ENDBRANCH  53  54
ENDBRANCH   5  53
BRANCH   4  68
ATOM     68  O   UNL     1     -23.985  15.204 -31.080  1.00  0.00    -0.448 OA
BRANCH  68  69
ATOM     69  C   UNL     1     -25.042  15.181 -30.157  1.00  0.00     0.339 C 
ATOM     70  O   UNL     1     -24.814  14.928 -28.943  1.00  0.00    -0.246 OA
BRANCH  69  71
ATOM     71  C   UNL     1     -26.418  15.491 -30.599  1.00  0.00     0.067 A 
ATOM     72  C   UNL     1     -26.743  16.773 -31.078  1.00  0.00     0.066 A 
ATOM     73  C   UNL     1     -27.418  14.507 -30.550  1.00  0.00     0.066 A 
ATOM     74  C   UNL     1     -28.039  17.056 -31.532  1.00  0.00     0.162 A 
ATOM     75  C   UNL     1     -28.722  14.781 -30.985  1.00  0.00     0.162 A 
ATOM     76  C   UNL     1     -29.031  16.065 -31.500  1.00  0.00     0.200 A 
BRANCH  74  77
ATOM     77  O   UNL     1     -28.350  18.321 -32.031  1.00  0.00    -0.504 OA
ATOM     78  H   UNL     1     -28.465  18.483 -33.020  1.00  0.00     0.293 HD
ENDBRANCH  74  77
BRANCH  75  79
ATOM     79  O   UNL     1     -29.669  13.758 -30.877  1.00  0.00    -0.504 OA
ATOM     80  H   UNL     1     -30.289  13.481 -31.621  1.00  0.00     0.293 HD
ENDBRANCH  75  79
BRANCH  76  81
ATOM     81  O   UNL     1     -30.297  16.384 -31.995  1.00  0.00    -0.502 OA
ATOM     82  H   UNL     1     -30.479  17.181 -32.580  1.00  0.00     0.293 HD
ENDBRANCH  76  81
ENDBRANCH  69  71
ENDBRANCH  68  69
ENDBRANCH   4  68
TORSDOF 31
ENDMDL
MODEL 3
REMARK VINA RESULT:     2.718      1.605      6.727
REMARK INTER + INTRA:           8.890
REMARK INTER:                   4.475
REMARK INTRA:                   4.414
REMARK UNBOUND:                 2.438
REMARK SMILES O=C(OC[C@@H]1O[C@@H](OC(=O)c2cc(O)c(O)c(O)c2)[C@@H](OC(=O)c2cc(O)c(O)c(O)c2)[C@H](OC(=O)c2cc(O)c(O)c(O)c2)[C@@H]1OC(=O)c1cc(O)c(O)c(O)c1)c1cc(O)c(O)c(O)c1
REMARK SMILES IDX 5 1 46 2 33 3 20 4 7 5 6 6 4 7 3 8 2 9 1 10 59 11 60 12
REMARK SMILES IDX 61 13 67 14 63 15 65 16 62 17 64 19 66 21 47 23 48 24 49 25
REMARK SMILES IDX 50 26 58 27 51 28 56 29 52 30 54 31 57 32 53 34 55 36 34 38
REMARK SMILES IDX 35 39 36 40 37 41 45 42 38 43 43 44 39 45 41 46 44 47 40 49
REMARK SMILES IDX 42 51 8 53 9 54 10 55 11 56 19 57 12 58 17 59 13 60 15 61
REMARK SMILES IDX 18 62 14 64 16 66 21 68 22 69 23 70 24 71 32 72 25 73 30 74
REMARK SMILES IDX 26 75 28 76 31 77 27 79 29 81
REMARK H PARENT 62 18 64 20 66 22 57 33 53 35 55 37 44 48 40 50 42 52 18 63
REMARK H PARENT 14 65 16 67 31 78 27 80 29 82
REMARK Flexibility Score: inf
ROOT
ATOM      1  C   UNL     1     -20.874  14.892 -30.474  1.00  0.00     0.205 C 
ATOM      2  C   UNL     1     -21.953  13.787 -30.474  1.00  0.00     0.254 C 
ATOM      3  C   UNL     1     -23.326  14.421 -30.774  1.00  0.00     0.267 C 
ATOM      4  C   UNL     1     -23.587  15.596 -29.814  1.00  0.00     0.290 C 
ATOM      5  C   UNL     1     -22.388  16.560 -29.816  1.00  0.00     0.357 C 
ATOM      6  O   UNL     1     -21.179  15.884 -29.505  1.00  0.00    -0.329 OA
ENDROOT
BRANCH   1   7
ATOM      7  C   UNL     1     -19.483  14.307 -30.177  1.00  0.00     0.269 C 
BRANCH   7   8
ATOM      8  O   UNL     1     -18.564  14.641 -31.215  1.00  0.00    -0.459 OA
BRANCH   8   9
ATOM      9  C   UNL     1     -17.469  13.848 -31.580  1.00  0.00     0.338 C 
ATOM     10  O   UNL     1     -17.638  12.822 -32.293  1.00  0.00    -0.246 OA
BRANCH   9  11
ATOM     11  C   UNL     1     -16.108  14.240 -31.154  1.00  0.00     0.067 A 
ATOM     12  C   UNL     1     -15.728  14.119 -29.811  1.00  0.00     0.066 A 
ATOM     13  C   UNL     1     -14.452  14.501 -29.392  1.00  0.00     0.162 A 
ATOM     14  C   UNL     1     -15.184  14.744 -32.081  1.00  0.00     0.066 A 
ATOM     15  C   UNL     1     -13.529  15.017 -30.319  1.00  0.00     0.200 A 
ATOM     16  C   UNL     1     -13.900  15.131 -31.682  1.00  0.00     0.162 A 
BRANCH  13  17
ATOM     17  O   UNL     1     -14.122  14.379 -28.040  1.00  0.00    -0.504 OA
ATOM     18  H   UNL     1     -13.438  13.710 -27.707  1.00  0.00     0.293 HD
ENDBRANCH  13  17
BRANCH  15  19
ATOM     19  O   UNL     1     -12.269  15.408 -29.856  1.00  0.00    -0.502 OA
ATOM     20  H   UNL     1     -12.122  16.083 -29.121  1.00  0.00     0.293 HD
ENDBRANCH  15  19
BRANCH  16  21
ATOM     21  O   UNL     1     -13.031  15.611 -32.666  1.00  0.00    -0.504 OA
ATOM     22  H   UNL     1     -13.141  15.444 -33.652  1.00  0.00     0.293 HD
ENDBRANCH  16  21
ENDBRANCH   9  11
ENDBRANCH   8   9
ENDBRANCH   7   8
ENDBRANCH   1   7
BRANCH   2  23
ATOM     23  O   UNL     1     -21.982  13.152 -29.195  1.00  0.00    -0.452 OA
BRANCH  23  24
ATOM     24  C   UNL     1     -21.539  11.843 -28.960  1.00  0.00     0.338 C 
ATOM     25  O   UNL     1     -22.354  10.879 -28.992  1.00  0.00    -0.246 OA
BRANCH  24  26
ATOM     26  C   UNL     1     -20.111  11.597 -28.678  1.00  0.00     0.067 A 
ATOM     27  C   UNL     1     -19.637  11.560 -27.355  1.00  0.00     0.066 A 
ATOM     28  C   UNL     1     -19.211  11.389 -29.734  1.00  0.00     0.066 A 
ATOM     29  C   UNL     1     -18.287  11.317 -27.089  1.00  0.00     0.162 A 
ATOM     30  C   UNL     1     -17.857  11.153 -29.478  1.00  0.00     0.162 A 
ATOM     31  C   UNL     1     -17.389  11.118 -28.152  1.00  0.00     0.200 A 
BRANCH  29  32
ATOM     32  O   UNL     1     -17.857  11.258 -25.763  1.00  0.00    -0.504 OA
ATOM     33  H   UNL     1     -16.916  11.519 -25.493  1.00  0.00     0.293 HD
ENDBRANCH  29  32
BRANCH  30  34
ATOM     34  O   UNL     1     -16.968  10.959 -30.537  1.00  0.00    -0.504 OA
ATOM     35  H   UNL     1     -17.083  10.185 -31.184  1.00  0.00     0.293 HD
ENDBRANCH  30  34
BRANCH  31  36
ATOM     36  O   UNL     1     -16.041  10.878 -27.879  1.00  0.00    -0.502 OA
ATOM     37  H   UNL     1     -15.295  11.349 -28.383  1.00  0.00     0.293 HD
ENDBRANCH  31  36
ENDBRANCH  24  26
ENDBRANCH  23  24
ENDBRANCH   2  23
BRANCH   3  38
ATOM     38  O   UNL     1     -24.371  13.460 -30.628  1.00  0.00    -0.450 OA
BRANCH  38  39
ATOM     39  C   UNL     1     -24.788  12.922 -29.406  1.00  0.00     0.338 C 
ATOM     40  O   UNL     1     -23.983  12.855 -28.437  1.00  0.00    -0.246 OA
BRANCH  39  41
ATOM     41  C   UNL     1     -26.175  12.423 -29.262  1.00  0.00     0.067 A 
ATOM     42  C   UNL     1     -27.094  12.510 -30.322  1.00  0.00     0.066 A 
ATOM     43  C   UNL     1     -26.593  11.860 -28.047  1.00  0.00     0.066 A 
ATOM     44  C   UNL     1     -28.417  12.072 -30.162  1.00  0.00     0.162 A 
ATOM     45  C   UNL     1     -27.909  11.423 -27.876  1.00  0.00     0.162 A 
ATOM     46  C   UNL     1     -28.829  11.532 -28.932  1.00  0.00     0.200 A 
BRANCH  44  47
ATOM     47  O   UNL     1     -29.325  12.173 -31.220  1.00  0.00    -0.504 OA
ATOM     48  H   UNL     1     -29.023  12.162 -32.189  1.00  0.00     0.293 HD
ENDBRANCH  44  47
BRANCH  45  49
ATOM     49  O   UNL     1     -28.289  10.876 -26.650  1.00  0.00    -0.504 OA
ATOM     50  H   UNL     1     -27.652  10.824 -25.865  1.00  0.00     0.293 HD
ENDBRANCH  45  49
BRANCH  46  51
ATOM     51  O   UNL     1     -30.141  11.099 -28.747  1.00  0.00    -0.502 OA
ATOM     52  H   UNL     1     -30.840  11.661 -28.272  1.00  0.00     0.293 HD
ENDBRANCH  46  51
ENDBRANCH  39  41
ENDBRANCH  38  39
ENDBRANCH   3  38
BRANCH   5  53
ATOM     53  O   UNL     1     -22.280  17.235 -31.071  1.00  0.00    -0.428 OA
BRANCH  53  54
ATOM     54  C   UNL     1     -23.387  17.617 -31.840  1.00  0.00     0.340 C 
ATOM     55  O   UNL     1     -24.022  16.755 -32.507  1.00  0.00    -0.246 OA
BRANCH  54  56
ATOM     56  C   UNL     1     -23.786  19.041 -31.885  1.00  0.00     0.067 A 
ATOM     57  C   UNL     1     -24.823  19.455 -32.736  1.00  0.00     0.066 A 
ATOM     58  C   UNL     1     -23.144  19.989 -31.071  1.00  0.00     0.066 A 
ATOM     59  C   UNL     1     -25.210  20.803 -32.783  1.00  0.00     0.162 A 
ATOM     60  C   UNL     1     -23.532  21.335 -31.108  1.00  0.00     0.162 A 
ATOM     61  C   UNL     1     -24.560  21.747 -31.970  1.00  0.00     0.200 A 
BRANCH  59  62
ATOM     62  O   UNL     1     -26.235  21.208 -33.634  1.00  0.00    -0.504 OA
ATOM     63  H   UNL     1     -27.100  21.597 -33.277  1.00  0.00     0.293 HD
ENDBRANCH  59  62
BRANCH  60  64
ATOM     64  O   UNL     1     -22.877  22.259 -30.293  1.00  0.00    -0.504 OA
ATOM     65  H   UNL     1     -22.848  22.158 -29.285  1.00  0.00     0.293 HD
ENDBRANCH  60  64
BRANCH  61  66
ATOM     66  O   UNL     1     -24.927  23.095 -32.004  1.00  0.00    -0.502 OA
ATOM     67  H   UNL     1     -25.288  23.575 -31.181  1.00  0.00     0.293 HD
ENDBRANCH  61  66
ENDBRANCH  54  56
ENDBRANCH  53  54
ENDBRANCH   5  53
BRANCH   4  68
ATOM     68  O   UNL     1     -24.767  16.305 -30.208  1.00  0.00    -0.448 OA
BRANCH  68  69
ATOM     69  C   UNL     1     -26.067  15.879 -29.897  1.00  0.00     0.339 C 
ATOM     70  O   UNL     1     -26.282  15.227 -28.840  1.00  0.00    -0.246 OA
BRANCH  69  71
ATOM     71  C   UNL     1     -27.193  16.229 -30.788  1.00  0.00     0.067 A 
ATOM     72  C   UNL     1     -27.330  17.536 -31.288  1.00  0.00     0.066 A 
ATOM     73  C   UNL     1     -28.140  15.258 -31.150  1.00  0.00     0.066 A 
ATOM     74  C   UNL     1     -28.378  17.858 -32.163  1.00  0.00     0.162 A 
ATOM     75  C   UNL     1     -29.201  15.569 -32.010  1.00  0.00     0.162 A 
ATOM     76  C   UNL     1     -29.310  16.880 -32.539  1.00  0.00     0.200 A 
BRANCH  74  77
ATOM     77  O   UNL     1     -28.494  19.149 -32.678  1.00  0.00    -0.504 OA
ATOM     78  H   UNL     1     -27.789  19.540 -33.284  1.00  0.00     0.293 HD
ENDBRANCH  74  77
BRANCH  75  79
ATOM     79  O   UNL     1     -30.119  14.555 -32.300  1.00  0.00    -0.504 OA
ATOM     80  H   UNL     1     -31.087  14.717 -32.525  1.00  0.00     0.293 HD
ENDBRANCH  75  79
BRANCH  76  81
ATOM     81  O   UNL     1     -30.315  17.240 -33.439  1.00  0.00    -0.502 OA
ATOM     82  H   UNL     1     -31.289  17.041 -33.291  1.00  0.00     0.293 HD
ENDBRANCH  76  81
ENDBRANCH  69  71
ENDBRANCH  68  69
ENDBRANCH   4  68
TORSDOF 31
ENDMDL
MODEL 4
REMARK VINA RESULT:     2.916      1.587      6.439
REMARK INTER + INTRA:           9.360
REMARK INTER:                   3.472
REMARK INTRA:                   5.888
REMARK UNBOUND:                 2.438
REMARK SMILES O=C(OC[C@@H]1O[C@@H](OC(=O)c2cc(O)c(O)c(O)c2)[C@@H](OC(=O)c2cc(O)c(O)c(O)c2)[C@H](OC(=O)c2cc(O)c(O)c(O)c2)[C@@H]1OC(=O)c1cc(O)c(O)c(O)c1)c1cc(O)c(O)c(O)c1
REMARK SMILES IDX 5 1 46 2 33 3 20 4 7 5 6 6 4 7 3 8 2 9 1 10 59 11 60 12
REMARK SMILES IDX 61 13 67 14 63 15 65 16 62 17 64 19 66 21 47 23 48 24 49 25
REMARK SMILES IDX 50 26 58 27 51 28 56 29 52 30 54 31 57 32 53 34 55 36 34 38
REMARK SMILES IDX 35 39 36 40 37 41 45 42 38 43 43 44 39 45 41 46 44 47 40 49
REMARK SMILES IDX 42 51 8 53 9 54 10 55 11 56 19 57 12 58 17 59 13 60 15 61
REMARK SMILES IDX 18 62 14 64 16 66 21 68 22 69 23 70 24 71 32 72 25 73 30 74
REMARK SMILES IDX 26 75 28 76 31 77 27 79 29 81
REMARK H PARENT 62 18 64 20 66 22 57 33 53 35 55 37 44 48 40 50 42 52 18 63
REMARK H PARENT 14 65 16 67 31 78 27 80 29 82
REMARK Flexibility Score: inf
ROOT
ATOM      1  C   UNL     1     -21.106  14.723 -30.470  1.00  0.00     0.205 C 
ATOM      2  C   UNL     1     -22.247  13.681 -30.488  1.00  0.00     0.254 C 
ATOM      3  C   UNL     1     -23.564  14.381 -30.880  1.00  0.00     0.267 C 
ATOM      4  C   UNL     1     -23.804  15.603 -29.975  1.00  0.00     0.290 C 
ATOM      5  C   UNL     1     -22.551  16.496 -29.948  1.00  0.00     0.357 C 
ATOM      6  O   UNL     1     -21.401  15.765 -29.552  1.00  0.00    -0.329 OA
ENDROOT
BRANCH   1   7
ATOM      7  C   UNL     1     -19.768  14.071 -30.081  1.00  0.00     0.269 C 
BRANCH   7   8
ATOM      8  O   UNL     1     -18.689  14.679 -30.789  1.00  0.00    -0.459 OA
BRANCH   8   9
ATOM      9  C   UNL     1     -17.639  13.967 -31.382  1.00  0.00     0.338 C 
ATOM     10  O   UNL     1     -17.860  13.219 -32.373  1.00  0.00    -0.246 OA
BRANCH   9  11
ATOM     11  C   UNL     1     -16.264  14.125 -30.862  1.00  0.00     0.067 A 
ATOM     12  C   UNL     1     -15.227  14.519 -31.718  1.00  0.00     0.066 A 
ATOM     13  C   UNL     1     -13.921  14.656 -31.244  1.00  0.00     0.162 A 
ATOM     14  C   UNL     1     -15.975  13.877 -29.512  1.00  0.00     0.066 A 
ATOM     15  C   UNL     1     -13.629  14.396 -29.893  1.00  0.00     0.200 A 
ATOM     16  C   UNL     1     -14.674  14.010 -29.016  1.00  0.00     0.162 A 
BRANCH  13  17
ATOM     17  O   UNL     1     -12.916  15.034 -32.137  1.00  0.00    -0.504 OA
ATOM     18  H   UNL     1     -12.504  15.960 -32.129  1.00  0.00     0.293 HD
ENDBRANCH  13  17
BRANCH  15  19
ATOM     19  O   UNL     1     -12.305  14.523 -29.462  1.00  0.00    -0.502 OA
ATOM     20  H   UNL     1     -11.928  14.060 -28.650  1.00  0.00     0.293 HD
ENDBRANCH  15  19
BRANCH  16  21
ATOM     21  O   UNL     1     -14.467  13.758 -27.657  1.00  0.00    -0.504 OA
ATOM     22  H   UNL     1     -15.189  13.794 -26.956  1.00  0.00     0.293 HD
ENDBRANCH  16  21
ENDBRANCH   9  11
ENDBRANCH   8   9
ENDBRANCH   7   8
ENDBRANCH   1   7
BRANCH   2  23
ATOM     23  O   UNL     1     -22.377  13.096 -29.192  1.00  0.00    -0.452 OA
BRANCH  23  24
ATOM     24  C   UNL     1     -21.917  11.814 -28.862  1.00  0.00     0.338 C 
ATOM     25  O   UNL     1     -22.737  10.876 -28.658  1.00  0.00    -0.246 OA
BRANCH  24  26
ATOM     26  C   UNL     1     -20.465  11.565 -28.756  1.00  0.00     0.067 A 
ATOM     27  C   UNL     1     -19.695  11.316 -29.906  1.00  0.00     0.066 A 
ATOM     28  C   UNL     1     -19.837  11.584 -27.503  1.00  0.00     0.066 A 
ATOM     29  C   UNL     1     -18.320  11.091 -29.806  1.00  0.00     0.162 A 
ATOM     30  C   UNL     1     -18.463  11.353 -27.392  1.00  0.00     0.162 A 
ATOM     31  C   UNL     1     -17.698  11.103 -28.545  1.00  0.00     0.200 A 
BRANCH  29  32
ATOM     32  O   UNL     1     -17.582  10.876 -30.971  1.00  0.00    -0.504 OA
ATOM     33  H   UNL     1     -16.570  10.825 -30.962  1.00  0.00     0.293 HD
ENDBRANCH  29  32
BRANCH  30  34
ATOM     34  O   UNL     1     -17.851  11.363 -26.137  1.00  0.00    -0.504 OA
ATOM     35  H   UNL     1     -16.949  11.808 -25.996  1.00  0.00     0.293 HD
ENDBRANCH  30  34
BRANCH  31  36
ATOM     36  O   UNL     1     -16.324  10.876 -28.453  1.00  0.00    -0.502 OA
ATOM     37  H   UNL     1     -15.731  11.396 -27.812  1.00  0.00     0.293 HD
ENDBRANCH  31  36
ENDBRANCH  24  26
ENDBRANCH  23  24
ENDBRANCH   2  23
BRANCH   3  38
ATOM     38  O   UNL     1     -24.670  13.486 -30.756  1.00  0.00    -0.450 OA
BRANCH  38  39
ATOM     39  C   UNL     1     -25.015  12.812 -29.580  1.00  0.00     0.338 C 
ATOM     40  O   UNL     1     -24.124  12.508 -28.739  1.00  0.00    -0.246 OA
BRANCH  39  41
ATOM     41  C   UNL     1     -26.430  12.450 -29.333  1.00  0.00     0.067 A 
ATOM     42  C   UNL     1     -26.830  11.854 -28.125  1.00  0.00     0.066 A 
ATOM     43  C   UNL     1     -27.397  12.694 -30.322  1.00  0.00     0.066 A 
ATOM     44  C   UNL     1     -28.165  11.478 -27.918  1.00  0.00     0.162 A 
ATOM     45  C   UNL     1     -28.729  12.321 -30.126  1.00  0.00     0.162 A 
ATOM     46  C   UNL     1     -29.118  11.706 -28.926  1.00  0.00     0.200 A 
BRANCH  44  47
ATOM     47  O   UNL     1     -28.549  10.875 -26.716  1.00  0.00    -0.504 OA
ATOM     48  H   UNL     1     -27.878  10.420 -26.107  1.00  0.00     0.293 HD
ENDBRANCH  44  47
BRANCH  45  49
ATOM     49  O   UNL     1     -29.659  12.574 -31.136  1.00  0.00    -0.504 OA
ATOM     50  H   UNL     1     -29.935  11.863 -31.800  1.00  0.00     0.293 HD
ENDBRANCH  45  49
BRANCH  46  51
ATOM     51  O   UNL     1     -30.449  11.332 -28.746  1.00  0.00    -0.502 OA
ATOM     52  H   UNL     1     -30.733  10.366 -28.620  1.00  0.00     0.293 HD
ENDBRANCH  46  51
ENDBRANCH  39  41
ENDBRANCH  38  39
ENDBRANCH   3  38
BRANCH   5  53
ATOM     53  O   UNL     1     -22.342  17.118 -31.218  1.00  0.00    -0.428 OA
BRANCH  53  54
ATOM     54  C   UNL     1     -23.382  17.610 -32.016  1.00  0.00     0.340 C 
ATOM     55  O   UNL     1     -23.981  16.844 -32.820  1.00  0.00    -0.246 OA
BRANCH  54  56
ATOM     56  C   UNL     1     -23.751  19.041 -31.930  1.00  0.00     0.067 A 
ATOM     57  C   UNL     1     -24.844  19.532 -32.664  1.00  0.00     0.066 A 
ATOM     58  C   UNL     1     -23.026  19.918 -31.108  1.00  0.00     0.066 A 
ATOM     59  C   UNL     1     -25.202  20.885 -32.587  1.00  0.00     0.162 A 
ATOM     60  C   UNL     1     -23.384  21.270 -31.020  1.00  0.00     0.162 A 
ATOM     61  C   UNL     1     -24.469  21.759 -31.765  1.00  0.00     0.200 A 
BRANCH  59  62
ATOM     62  O   UNL     1     -26.283  21.366 -33.320  1.00  0.00    -0.504 OA
ATOM     63  H   UNL     1     -27.211  20.969 -33.225  1.00  0.00     0.293 HD
ENDBRANCH  59  62
BRANCH  60  64
ATOM     64  O   UNL     1     -22.646  22.123 -30.200  1.00  0.00    -0.504 OA
ATOM     65  H   UNL     1     -23.091  22.746 -29.536  1.00  0.00     0.293 HD
ENDBRANCH  60  64
BRANCH  61  66
ATOM     66  O   UNL     1     -24.807  23.112 -31.677  1.00  0.00    -0.502 OA
ATOM     67  H   UNL     1     -25.426  23.557 -32.353  1.00  0.00     0.293 HD
ENDBRANCH  61  66
ENDBRANCH  54  56
ENDBRANCH  53  54
ENDBRANCH   5  53
BRANCH   4  68
ATOM     68  O   UNL     1     -24.919  16.362 -30.452  1.00  0.00    -0.448 OA
BRANCH  68  69
ATOM     69  C   UNL     1     -26.247  16.105 -30.082  1.00  0.00     0.339 C 
ATOM     70  O   UNL     1     -26.501  15.591 -28.959  1.00  0.00    -0.246 OA
BRANCH  69  71
ATOM     71  C   UNL     1     -27.354  16.473 -30.991  1.00  0.00     0.067 A 
ATOM     72  C   UNL     1     -28.277  15.505 -31.423  1.00  0.00     0.066 A 
ATOM     73  C   UNL     1     -27.499  17.799 -31.431  1.00  0.00     0.066 A 
ATOM     74  C   UNL     1     -29.348  15.862 -32.254  1.00  0.00     0.162 A 
ATOM     75  C   UNL     1     -28.556  18.167 -32.275  1.00  0.00     0.162 A 
ATOM     76  C   UNL     1     -29.502  17.191 -32.676  1.00  0.00     0.200 A 
BRANCH  74  77
ATOM     77  O   UNL     1     -30.276  14.903 -32.659  1.00  0.00    -0.504 OA
ATOM     78  H   UNL     1     -29.996  13.960 -32.884  1.00  0.00     0.293 HD
ENDBRANCH  74  77
BRANCH  75  79
ATOM     79  O   UNL     1     -28.615  19.499 -32.693  1.00  0.00    -0.504 OA
ATOM     80  H   UNL     1     -28.384  19.811 -33.623  1.00  0.00     0.293 HD
ENDBRANCH  75  79
BRANCH  76  81
ATOM     81  O   UNL     1     -30.603  17.505 -33.475  1.00  0.00    -0.502 OA
ATOM     82  H   UNL     1     -31.556  17.363 -33.186  1.00  0.00     0.293 HD
ENDBRANCH  76  81
ENDBRANCH  69  71
ENDBRANCH  68  69
ENDBRANCH   4  68
TORSDOF 31
ENDMDL
MODEL 5
REMARK VINA RESULT:     2.969      1.536      6.697
REMARK INTER + INTRA:           9.486
REMARK INTER:                  10.652
REMARK INTRA:                  -1.165
REMARK UNBOUND:                 2.438
REMARK SMILES O=C(OC[C@@H]1O[C@@H](OC(=O)c2cc(O)c(O)c(O)c2)[C@@H](OC(=O)c2cc(O)c(O)c(O)c2)[C@H](OC(=O)c2cc(O)c(O)c(O)c2)[C@@H]1OC(=O)c1cc(O)c(O)c(O)c1)c1cc(O)c(O)c(O)c1
REMARK SMILES IDX 5 1 46 2 33 3 20 4 7 5 6 6 4 7 3 8 2 9 1 10 59 11 60 12
REMARK SMILES IDX 61 13 67 14 63 15 65 16 62 17 64 19 66 21 47 23 48 24 49 25
REMARK SMILES IDX 50 26 58 27 51 28 56 29 52 30 54 31 57 32 53 34 55 36 34 38
REMARK SMILES IDX 35 39 36 40 37 41 45 42 38 43 43 44 39 45 41 46 44 47 40 49
REMARK SMILES IDX 42 51 8 53 9 54 10 55 11 56 19 57 12 58 17 59 13 60 15 61
REMARK SMILES IDX 18 62 14 64 16 66 21 68 22 69 23 70 24 71 32 72 25 73 30 74
REMARK SMILES IDX 26 75 28 76 31 77 27 79 29 81
REMARK H PARENT 62 18 64 20 66 22 57 33 53 35 55 37 44 48 40 50 42 52 18 63
REMARK H PARENT 14 65 16 67 31 78 27 80 29 82
REMARK Flexibility Score: inf
ROOT
ATOM      1  C   UNL     1     -19.450  14.996 -29.788  1.00  0.00     0.205 C 
ATOM      2  C   UNL     1     -19.956  13.572 -30.108  1.00  0.00     0.254 C 
ATOM      3  C   UNL     1     -21.490  13.604 -30.260  1.00  0.00     0.267 C 
ATOM      4  C   UNL     1     -22.131  14.268 -29.028  1.00  0.00     0.290 C 
ATOM      5  C   UNL     1     -21.456  15.622 -28.745  1.00  0.00     0.357 C 
ATOM      6  O   UNL     1     -20.052  15.481 -28.597  1.00  0.00    -0.329 OA
ENDROOT
BRANCH   1   7
ATOM      7  C   UNL     1     -17.920  15.016 -29.625  1.00  0.00     0.269 C 
BRANCH   7   8
ATOM      8  O   UNL     1     -17.308  14.076 -30.507  1.00  0.00    -0.459 OA
BRANCH   8   9
ATOM      9  C   UNL     1     -16.535  14.431 -31.618  1.00  0.00     0.338 C 
ATOM     10  O   UNL     1     -17.069  15.008 -32.605  1.00  0.00    -0.246 OA
BRANCH   9  11
ATOM     11  C   UNL     1     -15.082  14.157 -31.615  1.00  0.00     0.067 A 
ATOM     12  C   UNL     1     -14.256  14.721 -32.597  1.00  0.00     0.066 A 
ATOM     13  C   UNL     1     -12.885  14.457 -32.616  1.00  0.00     0.162 A 
ATOM     14  C   UNL     1     -14.511  13.328 -30.639  1.00  0.00     0.066 A 
ATOM     15  C   UNL     1     -12.314  13.616 -31.643  1.00  0.00     0.200 A 
ATOM     16  C   UNL     1     -13.139  13.052 -30.638  1.00  0.00     0.162 A 
BRANCH  13  17
ATOM     17  O   UNL     1     -12.103  15.027 -33.623  1.00  0.00    -0.504 OA
ATOM     18  H   UNL     1     -12.447  15.161 -34.566  1.00  0.00     0.293 HD
ENDBRANCH  13  17
BRANCH  15  19
ATOM     19  O   UNL     1     -10.941  13.360 -31.709  1.00  0.00    -0.502 OA
ATOM     20  H   UNL     1     -10.362  13.581 -32.504  1.00  0.00     0.293 HD
ENDBRANCH  15  19
BRANCH  16  21
ATOM     21  O   UNL     1     -12.641  12.228 -29.626  1.00  0.00    -0.504 OA
ATOM     22  H   UNL     1     -11.738  11.784 -29.647  1.00  0.00     0.293 HD
ENDBRANCH  16  21
ENDBRANCH   9  11
ENDBRANCH   8   9
ENDBRANCH   7   8
ENDBRANCH   1   7
BRANCH   2  23
ATOM     23  O   UNL     1     -19.593  12.689 -29.046  1.00  0.00    -0.452 OA
BRANCH  23  24
ATOM     24  C   UNL     1     -18.641  11.667 -29.168  1.00  0.00     0.338 C 
ATOM     25  O   UNL     1     -18.641  10.915 -30.181  1.00  0.00    -0.246 OA
BRANCH  24  26
ATOM     26  C   UNL     1     -17.635  11.479 -28.104  1.00  0.00     0.067 A 
ATOM     27  C   UNL     1     -18.030  11.283 -26.769  1.00  0.00     0.066 A 
ATOM     28  C   UNL     1     -16.268  11.485 -28.418  1.00  0.00     0.066 A 
ATOM     29  C   UNL     1     -17.078  11.096 -25.764  1.00  0.00     0.162 A 
ATOM     30  C   UNL     1     -15.307  11.305 -27.419  1.00  0.00     0.162 A 
ATOM     31  C   UNL     1     -15.709  11.111 -26.086  1.00  0.00     0.200 A 
BRANCH  29  32
ATOM     32  O   UNL     1     -17.508  10.876 -24.455  1.00  0.00    -0.504 OA
ATOM     33  H   UNL     1     -18.461  11.059 -24.167  1.00  0.00     0.293 HD
ENDBRANCH  29  32
BRANCH  30  34
ATOM     34  O   UNL     1     -13.949  11.324 -27.743  1.00  0.00    -0.504 OA
ATOM     35  H   UNL     1     -13.422  10.463 -27.850  1.00  0.00     0.293 HD
ENDBRANCH  30  34
BRANCH  31  36
ATOM     36  O   UNL     1     -14.762  10.925 -25.077  1.00  0.00    -0.502 OA
ATOM     37  H   UNL     1     -15.016  10.904 -24.094  1.00  0.00     0.293 HD
ENDBRANCH  31  36
ENDBRANCH  24  26
ENDBRANCH  23  24
ENDBRANCH   2  23
BRANCH   3  38
ATOM     38  O   UNL     1     -22.013  12.283 -30.401  1.00  0.00    -0.450 OA
BRANCH  38  39
ATOM     39  C   UNL     1     -22.398  11.466 -29.333  1.00  0.00     0.338 C 
ATOM     40  O   UNL     1     -21.524  10.882 -28.635  1.00  0.00    -0.246 OA
BRANCH  39  41
ATOM     41  C   UNL     1     -23.838  11.283 -29.035  1.00  0.00     0.067 A 
ATOM     42  C   UNL     1     -24.783  11.139 -30.065  1.00  0.00     0.066 A 
ATOM     43  C   UNL     1     -24.279  11.261 -27.702  1.00  0.00     0.066 A 
ATOM     44  C   UNL     1     -26.148  11.009 -29.773  1.00  0.00     0.162 A 
ATOM     45  C   UNL     1     -25.637  11.134 -27.401  1.00  0.00     0.162 A 
ATOM     46  C   UNL     1     -26.579  11.012 -28.435  1.00  0.00     0.200 A 
BRANCH  44  47
ATOM     47  O   UNL     1     -27.080  10.877 -30.807  1.00  0.00    -0.504 OA
ATOM     48  H   UNL     1     -27.936  11.423 -30.829  1.00  0.00     0.293 HD
ENDBRANCH  44  47
BRANCH  45  49
ATOM     49  O   UNL     1     -26.037  11.124 -26.064  1.00  0.00    -0.504 OA
ATOM     50  H   UNL     1     -25.602  11.718 -25.370  1.00  0.00     0.293 HD
ENDBRANCH  45  49
BRANCH  46  51
ATOM     51  O   UNL     1     -27.932  10.893 -28.121  1.00  0.00    -0.502 OA
ATOM     52  H   UNL     1     -28.454  10.037 -28.275  1.00  0.00     0.293 HD
ENDBRANCH  46  51
ENDBRANCH  39  41
ENDBRANCH  38  39
ENDBRANCH   3  38
BRANCH   5  53
ATOM     53  O   UNL     1     -21.763  16.568 -29.771  1.00  0.00    -0.428 OA
BRANCH  53  54
ATOM     54  C   UNL     1     -21.895  17.943 -29.538  1.00  0.00     0.340 C 
ATOM     55  O   UNL     1     -21.378  18.464 -28.513  1.00  0.00    -0.246 OA
BRANCH  54  56
ATOM     56  C   UNL     1     -22.670  18.771 -30.489  1.00  0.00     0.067 A 
ATOM     57  C   UNL     1     -22.654  20.171 -30.379  1.00  0.00     0.066 A 
ATOM     58  C   UNL     1     -23.417  18.171 -31.516  1.00  0.00     0.066 A 
ATOM     59  C   UNL     1     -23.384  20.964 -31.277  1.00  0.00     0.162 A 
ATOM     60  C   UNL     1     -24.142  18.958 -32.421  1.00  0.00     0.162 A 
ATOM     61  C   UNL     1     -24.133  20.356 -32.299  1.00  0.00     0.200 A 
BRANCH  59  62
ATOM     62  O   UNL     1     -23.367  22.351 -31.159  1.00  0.00    -0.504 OA
ATOM     63  H   UNL     1     -22.499  22.871 -31.106  1.00  0.00     0.293 HD
ENDBRANCH  59  62
BRANCH  60  64
ATOM     64  O   UNL     1     -24.879  18.338 -33.430  1.00  0.00    -0.504 OA
ATOM     65  H   UNL     1     -24.473  17.634 -34.035  1.00  0.00     0.293 HD
ENDBRANCH  60  64
BRANCH  61  66
ATOM     66  O   UNL     1     -24.870  21.127 -33.202  1.00  0.00    -0.502 OA
ATOM     67  H   UNL     1     -24.703  21.085 -34.207  1.00  0.00     0.293 HD
ENDBRANCH  61  66
ENDBRANCH  54  56
ENDBRANCH  53  54
ENDBRANCH   5  53
BRANCH   4  68
ATOM     68  O   UNL     1     -23.530  14.471 -29.246  1.00  0.00    -0.448 OA
BRANCH  68  69
ATOM     69  C   UNL     1     -24.077  14.839 -30.485  1.00  0.00     0.339 C 
ATOM     70  O   UNL     1     -23.330  14.958 -31.493  1.00  0.00    -0.246 OA
BRANCH  69  71
ATOM     71  C   UNL     1     -25.534  15.048 -30.619  1.00  0.00     0.067 A 
ATOM     72  C   UNL     1     -26.045  16.301 -31.002  1.00  0.00     0.066 A 
ATOM     73  C   UNL     1     -26.428  13.994 -30.368  1.00  0.00     0.066 A 
ATOM     74  C   UNL     1     -27.424  16.488 -31.165  1.00  0.00     0.162 A 
ATOM     75  C   UNL     1     -27.810  14.172 -30.512  1.00  0.00     0.162 A 
ATOM     76  C   UNL     1     -28.313  15.428 -30.934  1.00  0.00     0.200 A 
BRANCH  74  77
ATOM     77  O   UNL     1     -27.924  17.725 -31.572  1.00  0.00    -0.504 OA
ATOM     78  H   UNL     1     -27.555  18.589 -31.204  1.00  0.00     0.293 HD
ENDBRANCH  74  77
BRANCH  75  79
ATOM     79  O   UNL     1     -28.637  13.083 -30.216  1.00  0.00    -0.504 OA
ATOM     80  H   UNL     1     -28.566  12.533 -29.375  1.00  0.00     0.293 HD
ENDBRANCH  75  79
BRANCH  76  81
ATOM     81  O   UNL     1     -29.675  15.653 -31.144  1.00  0.00    -0.502 OA
ATOM     82  H   UNL     1     -30.038  16.168 -31.927  1.00  0.00     0.293 HD
ENDBRANCH  76  81
ENDBRANCH  69  71
ENDBRANCH  68  69
ENDBRANCH   4  68
TORSDOF 31
ENDMDL
MODEL 6
REMARK VINA RESULT:     3.239      1.596      6.765
REMARK INTER + INTRA:          10.127
REMARK INTER:                   7.769
REMARK INTRA:                   2.358
REMARK UNBOUND:                 2.438
REMARK SMILES O=C(OC[C@@H]1O[C@@H](OC(=O)c2cc(O)c(O)c(O)c2)[C@@H](OC(=O)c2cc(O)c(O)c(O)c2)[C@H](OC(=O)c2cc(O)c(O)c(O)c2)[C@@H]1OC(=O)c1cc(O)c(O)c(O)c1)c1cc(O)c(O)c(O)c1
REMARK SMILES IDX 5 1 46 2 33 3 20 4 7 5 6 6 4 7 3 8 2 9 1 10 59 11 60 12
REMARK SMILES IDX 61 13 67 14 63 15 65 16 62 17 64 19 66 21 47 23 48 24 49 25
REMARK SMILES IDX 50 26 58 27 51 28 56 29 52 30 54 31 57 32 53 34 55 36 34 38
REMARK SMILES IDX 35 39 36 40 37 41 45 42 38 43 43 44 39 45 41 46 44 47 40 49
REMARK SMILES IDX 42 51 8 53 9 54 10 55 11 56 19 57 12 58 17 59 13 60 15 61
REMARK SMILES IDX 18 62 14 64 16 66 21 68 22 69 23 70 24 71 32 72 25 73 30 74
REMARK SMILES IDX 26 75 28 76 31 77 27 79 29 81
REMARK H PARENT 62 18 64 20 66 22 57 33 53 35 55 37 44 48 40 50 42 52 18 63
REMARK H PARENT 14 65 16 67 31 78 27 80 29 82
REMARK Flexibility Score: inf
ROOT
ATOM      1  C   UNL     1     -21.265  14.393 -31.147  1.00  0.00     0.205 C 
ATOM      2  C   UNL     1     -22.392  13.491 -30.598  1.00  0.00     0.254 C 
ATOM      3  C   UNL     1     -23.723  14.269 -30.632  1.00  0.00     0.267 C 
ATOM      4  C   UNL     1     -23.561  15.625 -29.922  1.00  0.00     0.290 C 
ATOM      5  C   UNL     1     -22.334  16.371 -30.475  1.00  0.00     0.357 C 
ATOM      6  O   UNL     1     -21.159  15.580 -30.376  1.00  0.00    -0.329 OA
ENDROOT
BRANCH   1   7
ATOM      7  C   UNL     1     -19.913  13.659 -31.132  1.00  0.00     0.269 C 
BRANCH   7   8
ATOM      8  O   UNL     1     -18.834  14.592 -31.145  1.00  0.00    -0.459 OA
BRANCH   8   9
ATOM      9  C   UNL     1     -17.707  14.477 -31.967  1.00  0.00     0.338 C 
ATOM     10  O   UNL     1     -17.738  14.909 -33.151  1.00  0.00    -0.246 OA
BRANCH   9  11
ATOM     11  C   UNL     1     -16.467  13.877 -31.427  1.00  0.00     0.067 A 
ATOM     12  C   UNL     1     -15.230  14.499 -31.644  1.00  0.00     0.066 A 
ATOM     13  C   UNL     1     -14.050  13.935 -31.154  1.00  0.00     0.162 A 
ATOM     14  C   UNL     1     -16.509  12.679 -30.699  1.00  0.00     0.066 A 
ATOM     15  C   UNL     1     -14.091  12.727 -30.434  1.00  0.00     0.200 A 
ATOM     16  C   UNL     1     -15.339  12.098 -30.198  1.00  0.00     0.162 A 
BRANCH  13  17
ATOM     17  O   UNL     1     -12.839  14.581 -31.409  1.00  0.00    -0.504 OA
ATOM     18  H   UNL     1     -12.324  15.073 -30.689  1.00  0.00     0.293 HD
ENDBRANCH  13  17
BRANCH  15  19
ATOM     19  O   UNL     1     -12.885  12.184 -29.979  1.00  0.00    -0.502 OA
ATOM     20  H   UNL     1     -12.083  12.019 -30.567  1.00  0.00     0.293 HD
ENDBRANCH  15  19
BRANCH  16  21
ATOM     21  O   UNL     1     -15.461  10.911 -29.471  1.00  0.00    -0.504 OA
ATOM     22  H   UNL     1     -14.916  10.685 -28.656  1.00  0.00     0.293 HD
ENDBRANCH  16  21
ENDBRANCH   9  11
ENDBRANCH   8   9
ENDBRANCH   7   8
ENDBRANCH   1   7
BRANCH   2  23
ATOM     23  O   UNL     1     -22.088  13.112 -29.256  1.00  0.00    -0.452 OA
BRANCH  23  24
ATOM     24  C   UNL     1     -21.201  12.081 -28.915  1.00  0.00     0.338 C 
ATOM     25  O   UNL     1     -21.526  10.876 -29.098  1.00  0.00    -0.246 OA
BRANCH  24  26
ATOM     26  C   UNL     1     -19.881  12.415 -28.343  1.00  0.00     0.067 A 
ATOM     27  C   UNL     1     -19.275  13.655 -28.614  1.00  0.00     0.066 A 
ATOM     28  C   UNL     1     -19.222  11.498 -27.512  1.00  0.00     0.066 A 
ATOM     29  C   UNL     1     -18.030  13.973 -28.064  1.00  0.00     0.162 A 
ATOM     30  C   UNL     1     -17.973  11.805 -26.963  1.00  0.00     0.162 A 
ATOM     31  C   UNL     1     -17.371  13.045 -27.239  1.00  0.00     0.200 A 
BRANCH  29  32
ATOM     32  O   UNL     1     -17.472  15.224 -28.331  1.00  0.00    -0.504 OA
ATOM     33  H   UNL     1     -16.759  15.630 -27.736  1.00  0.00     0.293 HD
ENDBRANCH  29  32
BRANCH  30  34
ATOM     34  O   UNL     1     -17.321  10.879 -26.147  1.00  0.00    -0.504 OA
ATOM     35  H   UNL     1     -16.309  10.861 -26.077  1.00  0.00     0.293 HD
ENDBRANCH  30  34
BRANCH  31  36
ATOM     36  O   UNL     1     -16.128  13.370 -26.694  1.00  0.00    -0.502 OA
ATOM     37  H   UNL     1     -15.451  13.941 -27.192  1.00  0.00     0.293 HD
ENDBRANCH  31  36
ENDBRANCH  24  26
ENDBRANCH  23  24
ENDBRANCH   2  23
BRANCH   3  38
ATOM     38  O   UNL     1     -24.760  13.529 -29.989  1.00  0.00    -0.450 OA
BRANCH  38  39
ATOM     39  C   UNL     1     -25.845  12.945 -30.652  1.00  0.00     0.338 C 
ATOM     40  O   UNL     1     -25.811  12.785 -31.903  1.00  0.00    -0.246 OA
BRANCH  39  41
ATOM     41  C   UNL     1     -27.035  12.524 -29.876  1.00  0.00     0.067 A 
ATOM     42  C   UNL     1     -28.336  12.769 -30.348  1.00  0.00     0.066 A 
ATOM     43  C   UNL     1     -26.872  11.877 -28.641  1.00  0.00     0.066 A 
ATOM     44  C   UNL     1     -29.456  12.404 -29.587  1.00  0.00     0.162 A 
ATOM     45  C   UNL     1     -27.981  11.511 -27.874  1.00  0.00     0.162 A 
ATOM     46  C   UNL     1     -29.279  11.778 -28.341  1.00  0.00     0.200 A 
BRANCH  44  47
ATOM     47  O   UNL     1     -30.745  12.662 -30.062  1.00  0.00    -0.504 OA
ATOM     48  H   UNL     1     -31.359  11.918 -30.376  1.00  0.00     0.293 HD
ENDBRANCH  44  47
BRANCH  45  49
ATOM     49  O   UNL     1     -27.778  10.876 -26.648  1.00  0.00    -0.504 OA
ATOM     50  H   UNL     1     -28.494  10.847 -25.934  1.00  0.00     0.293 HD
ENDBRANCH  45  49
BRANCH  46  51
ATOM     51  O   UNL     1     -30.377  11.414 -27.563  1.00  0.00    -0.502 OA
ATOM     52  H   UNL     1     -31.003  12.097 -27.149  1.00  0.00     0.293 HD
ENDBRANCH  46  51
ENDBRANCH  39  41
ENDBRANCH  38  39
ENDBRANCH   3  38
BRANCH   5  53
ATOM     53  O   UNL     1     -22.553  16.780 -31.826  1.00  0.00    -0.428 OA
BRANCH  53  54
ATOM     54  C   UNL     1     -23.472  17.773 -32.192  1.00  0.00     0.340 C 
ATOM     55  O   UNL     1     -24.378  17.519 -33.032  1.00  0.00    -0.246 OA
BRANCH  54  56
ATOM     56  C   UNL     1     -23.353  19.127 -31.607  1.00  0.00     0.067 A 
ATOM     57  C   UNL     1     -22.600  19.325 -30.437  1.00  0.00     0.066 A 
ATOM     58  C   UNL     1     -23.977  20.227 -32.217  1.00  0.00     0.066 A 
ATOM     59  C   UNL     1     -22.479  20.605 -29.878  1.00  0.00     0.162 A 
ATOM     60  C   UNL     1     -23.853  21.509 -31.667  1.00  0.00     0.162 A 
ATOM     61  C   UNL     1     -23.111  21.701 -30.491  1.00  0.00     0.200 A 
BRANCH  59  62
ATOM     62  O   UNL     1     -21.735  20.794 -28.716  1.00  0.00    -0.504 OA
ATOM     63  H   UNL     1     -20.943  21.425 -28.688  1.00  0.00     0.293 HD
ENDBRANCH  59  62
BRANCH  60  64
ATOM     64  O   UNL     1     -24.486  22.585 -32.289  1.00  0.00    -0.504 OA
ATOM     65  H   UNL     1     -25.229  23.105 -31.836  1.00  0.00     0.293 HD
ENDBRANCH  60  64
BRANCH  61  66
ATOM     66  O   UNL     1     -23.007  22.984 -29.948  1.00  0.00    -0.502 OA
ATOM     67  H   UNL     1     -23.230  23.174 -28.971  1.00  0.00     0.293 HD
ENDBRANCH  61  66
ENDBRANCH  54  56
ENDBRANCH  53  54
ENDBRANCH   5  53
BRANCH   4  68
ATOM     68  O   UNL     1     -24.730  16.429 -30.114  1.00  0.00    -0.448 OA
BRANCH  68  69
ATOM     69  C   UNL     1     -26.036  15.956 -29.914  1.00  0.00     0.339 C 
ATOM     70  O   UNL     1     -26.287  15.181 -28.953  1.00  0.00    -0.246 OA
BRANCH  69  71
ATOM     71  C   UNL     1     -27.128  16.399 -30.807  1.00  0.00     0.067 A 
ATOM     72  C   UNL     1     -27.074  17.657 -31.434  1.00  0.00     0.066 A 
ATOM     73  C   UNL     1     -28.233  15.566 -31.044  1.00  0.00     0.066 A 
ATOM     74  C   UNL     1     -28.091  18.061 -32.310  1.00  0.00     0.162 A 
ATOM     75  C   UNL     1     -29.265  15.963 -31.905  1.00  0.00     0.162 A 
ATOM     76  C   UNL     1     -29.184  17.218 -32.560  1.00  0.00     0.200 A 
BRANCH  74  77
ATOM     77  O   UNL     1     -28.020  19.298 -32.950  1.00  0.00    -0.504 OA
ATOM     78  H   UNL     1     -27.397  20.023 -32.628  1.00  0.00     0.293 HD
ENDBRANCH  74  77
BRANCH  75  79
ATOM     79  O   UNL     1     -30.345  15.091 -32.066  1.00  0.00    -0.504 OA
ATOM     80  H   UNL     1     -31.255  15.237 -31.660  1.00  0.00     0.293 HD
ENDBRANCH  75  79
BRANCH  76  81
ATOM     81  O   UNL     1     -30.154  17.649 -33.467  1.00  0.00    -0.502 OA
ATOM     82  H   UNL     1     -31.038  17.187 -33.594  1.00  0.00     0.293 HD
ENDBRANCH  76  81
ENDBRANCH  69  71
ENDBRANCH  68  69
ENDBRANCH   4  68
TORSDOF 31
ENDMDL
MODEL 7
REMARK VINA RESULT:     3.395      1.198      7.943
REMARK INTER + INTRA:          10.498
REMARK INTER:                  10.332
REMARK INTRA:                   0.166
REMARK UNBOUND:                 2.438
REMARK SMILES O=C(OC[C@@H]1O[C@@H](OC(=O)c2cc(O)c(O)c(O)c2)[C@@H](OC(=O)c2cc(O)c(O)c(O)c2)[C@H](OC(=O)c2cc(O)c(O)c(O)c2)[C@@H]1OC(=O)c1cc(O)c(O)c(O)c1)c1cc(O)c(O)c(O)c1
REMARK SMILES IDX 5 1 46 2 33 3 20 4 7 5 6 6 4 7 3 8 2 9 1 10 59 11 60 12
REMARK SMILES IDX 61 13 67 14 63 15 65 16 62 17 64 19 66 21 47 23 48 24 49 25
REMARK SMILES IDX 50 26 58 27 51 28 56 29 52 30 54 31 57 32 53 34 55 36 34 38
REMARK SMILES IDX 35 39 36 40 37 41 45 42 38 43 43 44 39 45 41 46 44 47 40 49
REMARK SMILES IDX 42 51 8 53 9 54 10 55 11 56 19 57 12 58 17 59 13 60 15 61
REMARK SMILES IDX 18 62 14 64 16 66 21 68 22 69 23 70 24 71 32 72 25 73 30 74
REMARK SMILES IDX 26 75 28 76 31 77 27 79 29 81
REMARK H PARENT 62 18 64 20 66 22 57 33 53 35 55 37 44 48 40 50 42 52 18 63
REMARK H PARENT 14 65 16 67 31 78 27 80 29 82
REMARK Flexibility Score: inf
ROOT
ATOM      1  C   UNL     1     -21.026  12.317 -29.511  1.00  0.00     0.205 C 
ATOM      2  C   UNL     1     -22.554  12.387 -29.719  1.00  0.00     0.254 C 
ATOM      3  C   UNL     1     -22.884  13.570 -30.652  1.00  0.00     0.267 C 
ATOM      4  C   UNL     1     -22.233  14.860 -30.120  1.00  0.00     0.290 C 
ATOM      5  C   UNL     1     -20.739  14.623 -29.839  1.00  0.00     0.357 C 
ATOM      6  O   UNL     1     -20.545  13.531 -28.953  1.00  0.00    -0.329 OA
ENDROOT
BRANCH   1   7
ATOM      7  C   UNL     1     -20.646  11.150 -28.583  1.00  0.00     0.269 C 
BRANCH   7   8
ATOM      8  O   UNL     1     -19.370  11.375 -27.988  1.00  0.00    -0.459 OA
BRANCH   8   9
ATOM      9  C   UNL     1     -18.150  11.083 -28.610  1.00  0.00     0.338 C 
ATOM     10  O   UNL     1     -18.100  10.912 -29.858  1.00  0.00    -0.246 OA
BRANCH   9  11
ATOM     11  C   UNL     1     -16.915  11.011 -27.800  1.00  0.00     0.067 A 
ATOM     12  C   UNL     1     -16.991  10.962 -26.401  1.00  0.00     0.066 A 
ATOM     13  C   UNL     1     -15.833  10.910 -25.624  1.00  0.00     0.162 A 
ATOM     14  C   UNL     1     -15.654  10.996 -28.414  1.00  0.00     0.066 A 
ATOM     15  C   UNL     1     -14.568  10.907 -26.239  1.00  0.00     0.200 A 
ATOM     16  C   UNL     1     -14.482  10.942 -27.654  1.00  0.00     0.162 A 
BRANCH  13  17
ATOM     17  O   UNL     1     -15.956  10.880 -24.233  1.00  0.00    -0.504 OA
ATOM     18  H   UNL     1     -15.218  10.536 -23.630  1.00  0.00     0.293 HD
ENDBRANCH  13  17
BRANCH  15  19
ATOM     19  O   UNL     1     -13.432  10.876 -25.425  1.00  0.00    -0.502 OA
ATOM     20  H   UNL     1     -12.815  10.082 -25.346  1.00  0.00     0.293 HD
ENDBRANCH  15  19
BRANCH  16  21
ATOM     21  O   UNL     1     -13.263  10.918 -28.337  1.00  0.00    -0.504 OA
ATOM     22  H   UNL     1     -13.140  11.222 -29.289  1.00  0.00     0.293 HD
ENDBRANCH  16  21
ENDBRANCH   9  11
ENDBRANCH   8   9
ENDBRANCH   7   8
ENDBRANCH   1   7
BRANCH   2  23
ATOM     23  O   UNL     1     -23.198  12.571 -28.458  1.00  0.00    -0.452 OA
BRANCH  23  24
ATOM     24  C   UNL     1     -23.973  11.590 -27.823  1.00  0.00     0.338 C 
ATOM     25  O   UNL     1     -23.474  10.876 -26.911  1.00  0.00    -0.246 OA
BRANCH  24  26
ATOM     26  C   UNL     1     -25.381  11.401 -28.227  1.00  0.00     0.067 A 
ATOM     27  C   UNL     1     -26.398  11.307 -27.261  1.00  0.00     0.066 A 
ATOM     28  C   UNL     1     -25.719  11.322 -29.586  1.00  0.00     0.066 A 
ATOM     29  C   UNL     1     -27.731  11.138 -27.644  1.00  0.00     0.162 A 
ATOM     30  C   UNL     1     -27.049  11.145 -29.979  1.00  0.00     0.162 A 
ATOM     31  C   UNL     1     -28.061  11.051 -29.008  1.00  0.00     0.200 A 
BRANCH  29  32
ATOM     32  O   UNL     1     -28.717  11.078 -26.659  1.00  0.00    -0.504 OA
ATOM     33  H   UNL     1     -28.525  10.719 -25.731  1.00  0.00     0.293 HD
ENDBRANCH  29  32
BRANCH  30  34
ATOM     34  O   UNL     1     -27.371  11.056 -31.334  1.00  0.00    -0.504 OA
ATOM     35  H   UNL     1     -27.646  10.173 -31.752  1.00  0.00     0.293 HD
ENDBRANCH  30  34
BRANCH  31  36
ATOM     36  O   UNL     1     -29.395  10.880 -29.384  1.00  0.00    -0.502 OA
ATOM     37  H   UNL     1     -30.164  11.039 -28.739  1.00  0.00     0.293 HD
ENDBRANCH  31  36
ENDBRANCH  24  26
ENDBRANCH  23  24
ENDBRANCH   2  23
BRANCH   3  38
ATOM     38  O   UNL     1     -24.295  13.765 -30.744  1.00  0.00    -0.450 OA
BRANCH  38  39
ATOM     39  C   UNL     1     -25.019  14.689 -29.984  1.00  0.00     0.338 C 
ATOM     40  O   UNL     1     -24.555  15.108 -28.887  1.00  0.00    -0.246 OA
BRANCH  39  41
ATOM     41  C   UNL     1     -26.335  15.165 -30.470  1.00  0.00     0.067 A 
ATOM     42  C   UNL     1     -26.487  16.450 -31.019  1.00  0.00     0.066 A 
ATOM     43  C   UNL     1     -27.458  14.329 -30.378  1.00  0.00     0.066 A 
ATOM     44  C   UNL     1     -27.745  16.906 -31.439  1.00  0.00     0.162 A 
ATOM     45  C   UNL     1     -28.716  14.775 -30.791  1.00  0.00     0.162 A 
ATOM     46  C   UNL     1     -28.866  16.068 -31.318  1.00  0.00     0.200 A 
BRANCH  44  47
ATOM     47  O   UNL     1     -27.887  18.190 -31.973  1.00  0.00    -0.504 OA
ATOM     48  H   UNL     1     -28.725  18.473 -32.470  1.00  0.00     0.293 HD
ENDBRANCH  44  47
BRANCH  45  49
ATOM     49  O   UNL     1     -29.811  13.917 -30.676  1.00  0.00    -0.504 OA
ATOM     50  H   UNL     1     -30.570  14.100 -30.033  1.00  0.00     0.293 HD
ENDBRANCH  45  49
BRANCH  46  51
ATOM     51  O   UNL     1     -30.129  16.503 -31.721  1.00  0.00    -0.502 OA
ATOM     52  H   UNL     1     -30.960  16.360 -31.158  1.00  0.00     0.293 HD
ENDBRANCH  46  51
ENDBRANCH  39  41
ENDBRANCH  38  39
ENDBRANCH   3  38
BRANCH   5  53
ATOM     53  O   UNL     1     -20.018  14.419 -31.056  1.00  0.00    -0.428 OA
BRANCH  53  54
ATOM     54  C   UNL     1     -19.028  13.440 -31.212  1.00  0.00     0.340 C 
ATOM     55  O   UNL     1     -19.351  12.228 -31.340  1.00  0.00    -0.246 OA
BRANCH  54  56
ATOM     56  C   UNL     1     -17.602  13.837 -31.194  1.00  0.00     0.067 A 
ATOM     57  C   UNL     1     -17.007  14.273 -29.999  1.00  0.00     0.066 A 
ATOM     58  C   UNL     1     -16.828  13.771 -32.364  1.00  0.00     0.066 A 
ATOM     59  C   UNL     1     -15.656  14.649 -29.973  1.00  0.00     0.162 A 
ATOM     60  C   UNL     1     -15.475  14.137 -32.342  1.00  0.00     0.162 A 
ATOM     61  C   UNL     1     -14.888  14.584 -31.148  1.00  0.00     0.200 A 
BRANCH  59  62
ATOM     62  O   UNL     1     -15.073  15.085 -28.786  1.00  0.00    -0.504 OA
ATOM     63  H   UNL     1     -15.493  14.890 -27.884  1.00  0.00     0.293 HD
ENDBRANCH  59  62
BRANCH  60  64
ATOM     64  O   UNL     1     -14.727  14.066 -33.517  1.00  0.00    -0.504 OA
ATOM     65  H   UNL     1     -13.919  13.460 -33.602  1.00  0.00     0.293 HD
ENDBRANCH  60  64
BRANCH  61  66
ATOM     66  O   UNL     1     -13.541  14.958 -31.145  1.00  0.00    -0.502 OA
ATOM     67  H   UNL     1     -12.805  14.319 -31.445  1.00  0.00     0.293 HD
ENDBRANCH  61  66
ENDBRANCH  54  56
ENDBRANCH  53  54
ENDBRANCH   5  53
BRANCH   4  68
ATOM     68  O   UNL     1     -22.375  15.916 -31.075  1.00  0.00    -0.448 OA
BRANCH  68  69
ATOM     69  C   UNL     1     -22.695  17.237 -30.728  1.00  0.00     0.339 C 
ATOM     70  O   UNL     1     -22.482  17.651 -29.557  1.00  0.00    -0.246 OA
BRANCH  69  71
ATOM     71  C   UNL     1     -23.247  18.157 -31.745  1.00  0.00     0.067 A 
ATOM     72  C   UNL     1     -23.523  19.498 -31.422  1.00  0.00     0.066 A 
ATOM     73  C   UNL     1     -23.499  17.704 -33.050  1.00  0.00     0.066 A 
ATOM     74  C   UNL     1     -24.010  20.380 -32.397  1.00  0.00     0.162 A 
ATOM     75  C   UNL     1     -24.002  18.570 -34.030  1.00  0.00     0.162 A 
ATOM     76  C   UNL     1     -24.242  19.929 -33.705  1.00  0.00     0.200 A 
BRANCH  74  77
ATOM     77  O   UNL     1     -24.257  21.715 -32.079  1.00  0.00    -0.504 OA
ATOM     78  H   UNL     1     -23.746  22.185 -31.347  1.00  0.00     0.293 HD
ENDBRANCH  74  77
BRANCH  75  79
ATOM     79  O   UNL     1     -24.255  18.036 -35.297  1.00  0.00    -0.504 OA
ATOM     80  H   UNL     1     -25.149  18.075 -35.758  1.00  0.00     0.293 HD
ENDBRANCH  75  79
BRANCH  76  81
ATOM     81  O   UNL     1     -24.695  20.852 -34.649  1.00  0.00    -0.502 OA
ATOM     82  H   UNL     1     -24.171  21.112 -35.466  1.00  0.00     0.293 HD
ENDBRANCH  76  81
ENDBRANCH  69  71
ENDBRANCH  68  69
ENDBRANCH   4  68
TORSDOF 31
ENDMDL
MODEL 8
REMARK VINA RESULT:     3.443      1.682      6.557
REMARK INTER + INTRA:          10.611
REMARK INTER:                   9.046
REMARK INTRA:                   1.565
REMARK UNBOUND:                 2.438
REMARK SMILES O=C(OC[C@@H]1O[C@@H](OC(=O)c2cc(O)c(O)c(O)c2)[C@@H](OC(=O)c2cc(O)c(O)c(O)c2)[C@H](OC(=O)c2cc(O)c(O)c(O)c2)[C@@H]1OC(=O)c1cc(O)c(O)c(O)c1)c1cc(O)c(O)c(O)c1
REMARK SMILES IDX 5 1 46 2 33 3 20 4 7 5 6 6 4 7 3 8 2 9 1 10 59 11 60 12
REMARK SMILES IDX 61 13 67 14 63 15 65 16 62 17 64 19 66 21 47 23 48 24 49 25
REMARK SMILES IDX 50 26 58 27 51 28 56 29 52 30 54 31 57 32 53 34 55 36 34 38
REMARK SMILES IDX 35 39 36 40 37 41 45 42 38 43 43 44 39 45 41 46 44 47 40 49
REMARK SMILES IDX 42 51 8 53 9 54 10 55 11 56 19 57 12 58 17 59 13 60 15 61
REMARK SMILES IDX 18 62 14 64 16 66 21 68 22 69 23 70 24 71 32 72 25 73 30 74
REMARK SMILES IDX 26 75 28 76 31 77 27 79 29 81
REMARK H PARENT 62 18 64 20 66 22 57 33 53 35 55 37 44 48 40 50 42 52 18 63
REMARK H PARENT 14 65 16 67 31 78 27 80 29 82
REMARK Flexibility Score: inf
ROOT
ATOM      1  C   UNL     1     -21.441  14.773 -31.044  1.00  0.00     0.205 C 
ATOM      2  C   UNL     1     -22.322  13.539 -30.749  1.00  0.00     0.254 C 
ATOM      3  C   UNL     1     -23.789  13.872 -31.090  1.00  0.00     0.267 C 
ATOM      4  C   UNL     1     -24.215  15.169 -30.379  1.00  0.00     0.290 C 
ATOM      5  C   UNL     1     -23.192  16.285 -30.654  1.00  0.00     0.357 C 
ATOM      6  O   UNL     1     -21.880  15.889 -30.285  1.00  0.00    -0.329 OA
ENDROOT
BRANCH   1   7
ATOM      7  C   UNL     1     -19.965  14.489 -30.718  1.00  0.00     0.269 C 
BRANCH   7   8
ATOM      8  O   UNL     1     -19.682  14.801 -29.355  1.00  0.00    -0.459 OA
BRANCH   8   9
ATOM      9  C   UNL     1     -18.428  14.632 -28.754  1.00  0.00     0.338 C 
ATOM     10  O   UNL     1     -18.325  14.608 -27.498  1.00  0.00    -0.246 OA
BRANCH   9  11
ATOM     11  C   UNL     1     -17.231  14.448 -29.603  1.00  0.00     0.067 A 
ATOM     12  C   UNL     1     -15.958  14.379 -29.021  1.00  0.00     0.066 A 
ATOM     13  C   UNL     1     -14.818  14.222 -29.811  1.00  0.00     0.162 A 
ATOM     14  C   UNL     1     -17.349  14.348 -30.997  1.00  0.00     0.066 A 
ATOM     15  C   UNL     1     -14.935  14.133 -31.210  1.00  0.00     0.200 A 
ATOM     16  C   UNL     1     -16.219  14.189 -31.807  1.00  0.00     0.162 A 
BRANCH  13  17
ATOM     17  O   UNL     1     -13.568  14.175 -29.189  1.00  0.00    -0.504 OA
ATOM     18  H   UNL     1     -12.703  14.126 -29.713  1.00  0.00     0.293 HD
ENDBRANCH  13  17
BRANCH  15  19
ATOM     19  O   UNL     1     -13.767  13.998 -31.967  1.00  0.00    -0.502 OA
ATOM     20  H   UNL     1     -13.285  14.768 -32.405  1.00  0.00     0.293 HD
ENDBRANCH  15  19
BRANCH  16  21
ATOM     21  O   UNL     1     -16.417  14.083 -33.186  1.00  0.00    -0.504 OA
ATOM     22  H   UNL     1     -16.096  13.312 -33.749  1.00  0.00     0.293 HD
ENDBRANCH  16  21
ENDBRANCH   9  11
ENDBRANCH   8   9
ENDBRANCH   7   8
ENDBRANCH   1   7
BRANCH   2  23
ATOM     23  O   UNL     1     -22.212  13.195 -29.367  1.00  0.00    -0.452 OA
BRANCH  23  24
ATOM     24  C   UNL     1     -21.774  11.947 -28.903  1.00  0.00     0.338 C 
ATOM     25  O   UNL     1     -22.610  11.067 -28.557  1.00  0.00    -0.246 OA
BRANCH  24  26
ATOM     26  C   UNL     1     -20.327  11.666 -28.825  1.00  0.00     0.067 A 
ATOM     27  C   UNL     1     -19.572  11.459 -29.993  1.00  0.00     0.066 A 
ATOM     28  C   UNL     1     -19.687  11.611 -27.578  1.00  0.00     0.066 A 
ATOM     29  C   UNL     1     -18.200  11.203 -29.918  1.00  0.00     0.162 A 
ATOM     30  C   UNL     1     -18.317  11.348 -27.492  1.00  0.00     0.162 A 
ATOM     31  C   UNL     1     -17.567  11.141 -28.664  1.00  0.00     0.200 A 
BRANCH  29  32
ATOM     32  O   UNL     1     -17.477  11.032 -31.099  1.00  0.00    -0.504 OA
ATOM     33  H   UNL     1     -16.506  10.743 -31.095  1.00  0.00     0.293 HD
ENDBRANCH  29  32
BRANCH  30  34
ATOM     34  O   UNL     1     -17.693  11.285 -26.245  1.00  0.00    -0.504 OA
ATOM     35  H   UNL     1     -16.709  11.509 -26.137  1.00  0.00     0.293 HD
ENDBRANCH  30  34
BRANCH  31  36
ATOM     36  O   UNL     1     -16.197  10.883 -28.596  1.00  0.00    -0.502 OA
ATOM     37  H   UNL     1     -15.825  10.040 -28.169  1.00  0.00     0.293 HD
ENDBRANCH  31  36
ENDBRANCH  24  26
ENDBRANCH  23  24
ENDBRANCH   2  23
BRANCH   3  38
ATOM     38  O   UNL     1     -24.656  12.813 -30.684  1.00  0.00    -0.450 OA
BRANCH  38  39
ATOM     39  C   UNL     1     -25.526  12.876 -29.591  1.00  0.00     0.338 C 
ATOM     40  O   UNL     1     -25.066  12.974 -28.420  1.00  0.00    -0.246 OA
BRANCH  39  41
ATOM     41  C   UNL     1     -26.990  12.818 -29.817  1.00  0.00     0.067 A 
ATOM     42  C   UNL     1     -27.795  11.887 -29.139  1.00  0.00     0.066 A 
ATOM     43  C   UNL     1     -27.591  13.698 -30.730  1.00  0.00     0.066 A 
ATOM     44  C   UNL     1     -29.172  11.813 -29.391  1.00  0.00     0.162 A 
ATOM     45  C   UNL     1     -28.963  13.631 -30.989  1.00  0.00     0.162 A 
ATOM     46  C   UNL     1     -29.759  12.684 -30.325  1.00  0.00     0.200 A 
BRANCH  44  47
ATOM     47  O   UNL     1     -29.962  10.875 -28.718  1.00  0.00    -0.504 OA
ATOM     48  H   UNL     1     -30.870  11.117 -28.336  1.00  0.00     0.293 HD
ENDBRANCH  44  47
BRANCH  45  49
ATOM     49  O   UNL     1     -29.523  14.518 -31.910  1.00  0.00    -0.504 OA
ATOM     50  H   UNL     1     -29.229  15.484 -31.971  1.00  0.00     0.293 HD
ENDBRANCH  45  49
BRANCH  46  51
ATOM     51  O   UNL     1     -31.125  12.622 -30.598  1.00  0.00    -0.502 OA
ATOM     52  H   UNL     1     -31.507  12.818 -31.517  1.00  0.00     0.293 HD
ENDBRANCH  46  51
ENDBRANCH  39  41
ENDBRANCH  38  39
ENDBRANCH   3  38
BRANCH   5  53
ATOM     53  O   UNL     1     -23.231  16.685 -32.026  1.00  0.00    -0.428 OA
BRANCH  53  54
ATOM     54  C   UNL     1     -23.785  17.895 -32.461  1.00  0.00     0.340 C 
ATOM     55  O   UNL     1     -24.531  17.921 -33.478  1.00  0.00    -0.246 OA
BRANCH  54  56
ATOM     56  C   UNL     1     -23.465  19.145 -31.737  1.00  0.00     0.067 A 
ATOM     57  C   UNL     1     -22.830  19.091 -30.484  1.00  0.00     0.066 A 
ATOM     58  C   UNL     1     -23.778  20.395 -32.295  1.00  0.00     0.066 A 
ATOM     59  C   UNL     1     -22.521  20.270 -29.792  1.00  0.00     0.162 A 
ATOM     60  C   UNL     1     -23.464  21.577 -31.612  1.00  0.00     0.162 A 
ATOM     61  C   UNL     1     -22.841  21.518 -30.355  1.00  0.00     0.200 A 
BRANCH  59  62
ATOM     62  O   UNL     1     -21.896  20.209 -28.549  1.00  0.00    -0.504 OA
ATOM     63  H   UNL     1     -21.893  21.001 -27.916  1.00  0.00     0.293 HD
ENDBRANCH  59  62
BRANCH  60  64
ATOM     64  O   UNL     1     -23.788  22.807 -32.185  1.00  0.00    -0.504 OA
ATOM     65  H   UNL     1     -23.557  23.027 -33.147  1.00  0.00     0.293 HD
ENDBRANCH  60  64
BRANCH  61  66
ATOM     66  O   UNL     1     -22.545  22.705 -29.680  1.00  0.00    -0.502 OA
ATOM     67  H   UNL     1     -23.139  23.061 -28.932  1.00  0.00     0.293 HD
ENDBRANCH  61  66
ENDBRANCH  54  56
ENDBRANCH  53  54
ENDBRANCH   5  53
BRANCH   4  68
ATOM     68  O   UNL     1     -25.505  15.584 -30.837  1.00  0.00    -0.448 OA
BRANCH  68  69
ATOM     69  C   UNL     1     -26.150  16.747 -30.389  1.00  0.00     0.339 C 
ATOM     70  O   UNL     1     -25.959  17.162 -29.214  1.00  0.00    -0.246 OA
BRANCH  69  71
ATOM     71  C   UNL     1     -27.022  17.511 -31.306  1.00  0.00     0.067 A 
ATOM     72  C   UNL     1     -28.326  17.067 -31.589  1.00  0.00     0.066 A 
ATOM     73  C   UNL     1     -26.560  18.694 -31.904  1.00  0.00     0.066 A 
ATOM     74  C   UNL     1     -29.166  17.811 -32.429  1.00  0.00     0.162 A 
ATOM     75  C   UNL     1     -27.383  19.440 -32.759  1.00  0.00     0.162 A 
ATOM     76  C   UNL     1     -28.708  19.003 -33.009  1.00  0.00     0.200 A 
BRANCH  74  77
ATOM     77  O   UNL     1     -30.468  17.380 -32.686  1.00  0.00    -0.504 OA
ATOM     78  H   UNL     1     -31.222  17.572 -32.044  1.00  0.00     0.293 HD
ENDBRANCH  74  77
BRANCH  75  79
ATOM     79  O   UNL     1     -26.840  20.590 -33.339  1.00  0.00    -0.504 OA
ATOM     80  H   UNL     1     -27.067  20.918 -34.264  1.00  0.00     0.293 HD
ENDBRANCH  75  79
BRANCH  76  81
ATOM     81  O   UNL     1     -29.592  19.728 -33.811  1.00  0.00    -0.502 OA
ATOM     82  H   UNL     1     -30.404  20.201 -33.454  1.00  0.00     0.293 HD
ENDBRANCH  76  81
ENDBRANCH  69  71
ENDBRANCH  68  69
ENDBRANCH   4  68
TORSDOF 31
ENDMDL
MODEL 9
REMARK VINA RESULT:     3.578      2.243      9.449
REMARK INTER + INTRA:          10.932
REMARK INTER:                  10.390
REMARK INTRA:                   0.542
REMARK UNBOUND:                 2.438
REMARK SMILES O=C(OC[C@@H]1O[C@@H](OC(=O)c2cc(O)c(O)c(O)c2)[C@@H](OC(=O)c2cc(O)c(O)c(O)c2)[C@H](OC(=O)c2cc(O)c(O)c(O)c2)[C@@H]1OC(=O)c1cc(O)c(O)c(O)c1)c1cc(O)c(O)c(O)c1
REMARK SMILES IDX 5 1 46 2 33 3 20 4 7 5 6 6 4 7 3 8 2 9 1 10 59 11 60 12
REMARK SMILES IDX 61 13 67 14 63 15 65 16 62 17 64 19 66 21 47 23 48 24 49 25
REMARK SMILES IDX 50 26 58 27 51 28 56 29 52 30 54 31 57 32 53 34 55 36 34 38
REMARK SMILES IDX 35 39 36 40 37 41 45 42 38 43 43 44 39 45 41 46 44 47 40 49
REMARK SMILES IDX 42 51 8 53 9 54 10 55 11 56 19 57 12 58 17 59 13 60 15 61
REMARK SMILES IDX 18 62 14 64 16 66 21 68 22 69 23 70 24 71 32 72 25 73 30 74
REMARK SMILES IDX 26 75 28 76 31 77 27 79 29 81
REMARK H PARENT 62 18 64 20 66 22 57 33 53 35 55 37 44 48 40 50 42 52 18 63
REMARK H PARENT 14 65 16 67 31 78 27 80 29 82
REMARK Flexibility Score: inf
ROOT
ATOM      1  C   UNL     1     -22.744  16.592 -30.300  1.00  0.00     0.205 C 
ATOM      2  C   UNL     1     -24.287  16.627 -30.244  1.00  0.00     0.254 C 
ATOM      3  C   UNL     1     -24.814  15.211 -29.935  1.00  0.00     0.267 C 
ATOM      4  C   UNL     1     -24.216  14.196 -30.925  1.00  0.00     0.290 C 
ATOM      5  C   UNL     1     -22.685  14.346 -30.978  1.00  0.00     0.357 C 
ATOM      6  O   UNL     1     -22.305  15.677 -31.293  1.00  0.00    -0.329 OA
ENDROOT
BRANCH   1   7
ATOM      7  C   UNL     1     -22.170  17.985 -30.608  1.00  0.00     0.269 C 
BRANCH   7   8
ATOM      8  O   UNL     1     -23.002  19.005 -30.058  1.00  0.00    -0.459 OA
BRANCH   8   9
ATOM      9  C   UNL     1     -22.530  20.239 -29.594  1.00  0.00     0.338 C 
ATOM     10  O   UNL     1     -21.729  20.286 -28.622  1.00  0.00    -0.246 OA
BRANCH   9  11
ATOM     11  C   UNL     1     -22.949  21.484 -30.273  1.00  0.00     0.067 A 
ATOM     12  C   UNL     1     -22.223  22.668 -30.086  1.00  0.00     0.066 A 
ATOM     13  C   UNL     1     -22.618  23.854 -30.708  1.00  0.00     0.162 A 
ATOM     14  C   UNL     1     -24.078  21.501 -31.106  1.00  0.00     0.066 A 
ATOM     15  C   UNL     1     -23.756  23.874 -31.534  1.00  0.00     0.200 A 
ATOM     16  C   UNL     1     -24.489  22.678 -31.740  1.00  0.00     0.162 A 
BRANCH  13  17
ATOM     17  O   UNL     1     -21.874  25.014 -30.479  1.00  0.00    -0.504 OA
ATOM     18  H   UNL     1     -21.030  25.228 -30.997  1.00  0.00     0.293 HD
ENDBRANCH  13  17
BRANCH  15  19
ATOM     19  O   UNL     1     -24.130  25.087 -32.121  1.00  0.00    -0.502 OA
ATOM     20  H   UNL     1     -23.918  25.343 -33.073  1.00  0.00     0.293 HD
ENDBRANCH  15  19
BRANCH  16  21
ATOM     21  O   UNL     1     -25.615  22.614 -32.565  1.00  0.00    -0.504 OA
ATOM     22  H   UNL     1     -25.590  22.374 -33.542  1.00  0.00     0.293 HD
ENDBRANCH  16  21
ENDBRANCH   9  11
ENDBRANCH   8   9
ENDBRANCH   7   8
ENDBRANCH   1   7
BRANCH   2  23
ATOM     23  O   UNL     1     -24.799  17.070 -31.501  1.00  0.00    -0.452 OA
BRANCH  23  24
ATOM     24  C   UNL     1     -25.206  18.386 -31.761  1.00  0.00     0.338 C 
ATOM     25  O   UNL     1     -25.576  19.137 -30.817  1.00  0.00    -0.246 OA
BRANCH  24  26
ATOM     26  C   UNL     1     -25.195  18.891 -33.149  1.00  0.00     0.067 A 
ATOM     27  C   UNL     1     -26.239  19.704 -33.624  1.00  0.00     0.066 A 
ATOM     28  C   UNL     1     -24.134  18.568 -34.007  1.00  0.00     0.066 A 
ATOM     29  C   UNL     1     -26.223  20.189 -34.935  1.00  0.00     0.162 A 
ATOM     30  C   UNL     1     -24.113  19.042 -35.322  1.00  0.00     0.162 A 
ATOM     31  C   UNL     1     -25.160  19.854 -35.792  1.00  0.00     0.200 A 
BRANCH  29  32
ATOM     32  O   UNL     1     -27.261  21.018 -35.364  1.00  0.00    -0.504 OA
ATOM     33  H   UNL     1     -28.031  20.666 -35.920  1.00  0.00     0.293 HD
ENDBRANCH  29  32
BRANCH  30  34
ATOM     34  O   UNL     1     -23.057  18.705 -36.170  1.00  0.00    -0.504 OA
ATOM     35  H   UNL     1     -23.035  17.812 -36.653  1.00  0.00     0.293 HD
ENDBRANCH  30  34
BRANCH  31  36
ATOM     36  O   UNL     1     -25.151  20.341 -37.100  1.00  0.00    -0.502 OA
ATOM     37  H   UNL     1     -25.597  19.843 -37.866  1.00  0.00     0.293 HD
ENDBRANCH  31  36
ENDBRANCH  24  26
ENDBRANCH  23  24
ENDBRANCH   2  23
BRANCH   3  38
ATOM     38  O   UNL     1     -26.238  15.168 -30.029  1.00  0.00    -0.450 OA
BRANCH  38  39
ATOM     39  C   UNL     1     -27.062  16.297 -30.095  1.00  0.00     0.338 C 
ATOM     40  O   UNL     1     -26.887  17.256 -29.294  1.00  0.00    -0.246 OA
BRANCH  39  41
ATOM     41  C   UNL     1     -28.145  16.353 -31.105  1.00  0.00     0.067 A 
ATOM     42  C   UNL     1     -29.088  15.317 -31.219  1.00  0.00     0.066 A 
ATOM     43  C   UNL     1     -28.235  17.452 -31.973  1.00  0.00     0.066 A 
ATOM     44  C   UNL     1     -30.084  15.361 -32.205  1.00  0.00     0.162 A 
ATOM     45  C   UNL     1     -29.222  17.504 -32.960  1.00  0.00     0.162 A 
ATOM     46  C   UNL     1     -30.148  16.456 -33.084  1.00  0.00     0.200 A 
BRANCH  44  47
ATOM     47  O   UNL     1     -31.011  14.320 -32.317  1.00  0.00    -0.504 OA
ATOM     48  H   UNL     1     -32.011  14.492 -32.329  1.00  0.00     0.293 HD
ENDBRANCH  44  47
BRANCH  45  49
ATOM     49  O   UNL     1     -29.274  18.610 -33.810  1.00  0.00    -0.504 OA
ATOM     50  H   UNL     1     -28.816  19.482 -33.583  1.00  0.00     0.293 HD
ENDBRANCH  45  49
BRANCH  46  51
ATOM     51  O   UNL     1     -31.125  16.516 -34.078  1.00  0.00    -0.502 OA
ATOM     52  H   UNL     1     -31.940  15.912 -34.080  1.00  0.00     0.293 HD
ENDBRANCH  46  51
ENDBRANCH  39  41
ENDBRANCH  38  39
ENDBRANCH   3  38
BRANCH   5  53
ATOM     53  O   UNL     1     -22.090  13.929 -29.747  1.00  0.00    -0.428 OA
BRANCH  53  54
ATOM     54  C   UNL     1     -21.294  12.783 -29.624  1.00  0.00     0.340 C 
ATOM     55  O   UNL     1     -21.831  11.643 -29.570  1.00  0.00    -0.246 OA
BRANCH  54  56
ATOM     56  C   UNL     1     -19.824  12.924 -29.528  1.00  0.00     0.067 A 
ATOM     57  C   UNL     1     -19.263  14.069 -28.940  1.00  0.00     0.066 A 
ATOM     58  C   UNL     1     -18.977  11.913 -30.010  1.00  0.00     0.066 A 
ATOM     59  C   UNL     1     -17.871  14.210 -28.842  1.00  0.00     0.162 A 
ATOM     60  C   UNL     1     -17.585  12.044 -29.908  1.00  0.00     0.162 A 
ATOM     61  C   UNL     1     -17.028  13.196 -29.331  1.00  0.00     0.200 A 
BRANCH  59  62
ATOM     62  O   UNL     1     -17.321  15.350 -28.262  1.00  0.00    -0.504 OA
ATOM     63  H   UNL     1     -16.327  15.540 -28.302  1.00  0.00     0.293 HD
ENDBRANCH  59  62
BRANCH  60  64
ATOM     64  O   UNL     1     -16.764  11.028 -30.397  1.00  0.00    -0.504 OA
ATOM     65  H   UNL     1     -16.328  10.349 -29.784  1.00  0.00     0.293 HD
ENDBRANCH  60  64
BRANCH  61  66
ATOM     66  O   UNL     1     -15.639  13.318 -29.247  1.00  0.00    -0.502 OA
ATOM     67  H   UNL     1     -15.085  13.691 -30.017  1.00  0.00     0.293 HD
ENDBRANCH  61  66
ENDBRANCH  54  56
ENDBRANCH  53  54
ENDBRANCH   5  53
BRANCH   4  68
ATOM     68  O   UNL     1     -24.548  12.862 -30.530  1.00  0.00    -0.448 OA
BRANCH  68  69
ATOM     69  C   UNL     1     -25.068  12.534 -29.268  1.00  0.00     0.339 C 
ATOM     70  O   UNL     1     -24.326  12.572 -28.250  1.00  0.00    -0.246 OA
BRANCH  69  71
ATOM     71  C   UNL     1     -26.497  12.184 -29.124  1.00  0.00     0.067 A 
ATOM     72  C   UNL     1     -26.987  11.663 -27.913  1.00  0.00     0.066 A 
ATOM     73  C   UNL     1     -27.385  12.370 -30.196  1.00  0.00     0.066 A 
ATOM     74  C   UNL     1     -28.350  11.366 -27.765  1.00  0.00     0.162 A 
ATOM     75  C   UNL     1     -28.746  12.062 -30.068  1.00  0.00     0.162 A 
ATOM     76  C   UNL     1     -29.237  11.572 -28.832  1.00  0.00     0.200 A 
BRANCH  74  77
ATOM     77  O   UNL     1     -28.836  10.875 -26.554  1.00  0.00    -0.504 OA
ATOM     78  H   UNL     1     -28.898  11.461 -25.735  1.00  0.00     0.293 HD
ENDBRANCH  74  77
BRANCH  75  79
ATOM     79  O   UNL     1     -29.560  12.247 -31.189  1.00  0.00    -0.504 OA
ATOM     80  H   UNL     1     -29.214  12.315 -32.133  1.00  0.00     0.293 HD
ENDBRANCH  75  79
BRANCH  76  81
ATOM     81  O   UNL     1     -30.590  11.294 -28.625  1.00  0.00    -0.502 OA
ATOM     82  H   UNL     1     -31.196  10.926 -29.338  1.00  0.00     0.293 HD
ENDBRANCH  76  81
ENDBRANCH  69  71
ENDBRANCH  68  69
ENDBRANCH   4  68
TORSDOF 31
ENDMDL
