MODEL 1
REMARK VINA RESULT:    -5.023      0.000      0.000
REMARK INTER + INTRA:          -5.893
REMARK INTER:                  -5.757
REMARK INTRA:                  -0.137
REMARK UNBOUND:                -0.137
REMARK SMILES O=C([O-])C=Cc1ccc(O)cc1
REMARK SMILES IDX 6 1 7 2 12 3 8 4 11 5 9 6 5 7 4 8 2 9 1 10 3 11 10 12
REMARK H PARENT 10 13
REMARK Flexibility Score: inf
ROOT
ATOM      1  C   UNL     1     -21.458  -2.395  18.828  1.00  0.00    -0.025 A 
ATOM      2  C   UNL     1     -21.004  -3.716  18.983  1.00  0.00     0.012 A 
ATOM      3  C   UNL     1     -21.708  -1.623  19.982  1.00  0.00     0.012 A 
ATOM      4  C   UNL     1     -20.781  -4.247  20.256  1.00  0.00     0.047 A 
ATOM      5  C   UNL     1     -21.484  -2.159  21.254  1.00  0.00     0.047 A 
ATOM      6  C   UNL     1     -21.017  -3.471  21.394  1.00  0.00     0.115 A 
ENDROOT
BRANCH   1   7
ATOM      7  C   UNL     1     -21.690  -1.879  17.456  1.00  0.00     0.010 C 
ATOM      8  C   UNL     1     -22.829  -1.294  17.063  1.00  0.00     0.025 C 
BRANCH   8   9
ATOM      9  C   UNL     1     -23.011  -0.787  15.693  1.00  0.00     0.064 C 
ATOM     10  O   UNL     1     -23.136   0.450  15.500  1.00  0.00    -0.545 OA
ATOM     11  O   UNL     1     -23.048  -1.654  14.607  1.00  0.00    -0.545 OA
ENDBRANCH   8   9
ENDBRANCH   1   7
BRANCH   6  12
ATOM     12  O   UNL     1     -20.790  -4.014  22.656  1.00  0.00    -0.508 OA
ATOM     13  H   UNL     1     -20.473  -3.441  23.430  1.00  0.00     0.293 HD
ENDBRANCH   6  12
TORSDOF 3
ENDMDL
MODEL 2
REMARK VINA RESULT:    -4.992      3.036      5.371
REMARK INTER + INTRA:          -5.858
REMARK INTER:                  -5.707
REMARK INTRA:                  -0.151
REMARK UNBOUND:                -0.137
REMARK SMILES O=C([O-])C=Cc1ccc(O)cc1
REMARK SMILES IDX 6 1 7 2 12 3 8 4 11 5 9 6 5 7 4 8 2 9 1 10 3 11 10 12
REMARK H PARENT 10 13
REMARK Flexibility Score: inf
ROOT
ATOM      1  C   UNL     1     -20.540  -2.662  19.194  1.00  0.00    -0.025 A 
ATOM      2  C   UNL     1     -19.365  -3.382  19.471  1.00  0.00     0.012 A 
ATOM      3  C   UNL     1     -20.799  -2.271  17.864  1.00  0.00     0.012 A 
ATOM      4  C   UNL     1     -18.481  -3.725  18.443  1.00  0.00     0.047 A 
ATOM      5  C   UNL     1     -19.912  -2.616  16.839  1.00  0.00     0.047 A 
ATOM      6  C   UNL     1     -18.753  -3.347  17.126  1.00  0.00     0.115 A 
ENDROOT
BRANCH   1   7
ATOM      7  C   UNL     1     -21.441  -2.313  20.320  1.00  0.00     0.010 C 
ATOM      8  C   UNL     1     -21.356  -2.862  21.539  1.00  0.00     0.025 C 
BRANCH   8   9
ATOM      9  C   UNL     1     -22.265  -2.477  22.630  1.00  0.00     0.064 C 
ATOM     10  O   UNL     1     -23.041  -3.336  23.125  1.00  0.00    -0.545 OA
ATOM     11  O   UNL     1     -22.283  -1.177  23.125  1.00  0.00    -0.545 OA
ENDBRANCH   8   9
ENDBRANCH   1   7
BRANCH   6  12
ATOM     12  O   UNL     1     -17.863  -3.696  16.113  1.00  0.00    -0.508 OA
ATOM     13  H   UNL     1     -17.251  -4.499  16.200  1.00  0.00     0.293 HD
ENDBRANCH   6  12
TORSDOF 3
ENDMDL
MODEL 3
REMARK VINA RESULT:    -4.969      0.232      1.693
REMARK INTER + INTRA:          -5.832
REMARK INTER:                  -5.696
REMARK INTRA:                  -0.137
REMARK UNBOUND:                -0.137
REMARK SMILES O=C([O-])C=Cc1ccc(O)cc1
REMARK SMILES IDX 6 1 7 2 12 3 8 4 11 5 9 6 5 7 4 8 2 9 1 10 3 11 10 12
REMARK H PARENT 10 13
REMARK Flexibility Score: inf
ROOT
ATOM      1  C   UNL     1     -21.462  -2.431  18.795  1.00  0.00    -0.025 A 
ATOM      2  C   UNL     1     -21.768  -1.592  19.880  1.00  0.00     0.012 A 
ATOM      3  C   UNL     1     -20.975  -3.728  19.056  1.00  0.00     0.012 A 
ATOM      4  C   UNL     1     -21.616  -2.044  21.194  1.00  0.00     0.047 A 
ATOM      5  C   UNL     1     -20.823  -4.176  20.372  1.00  0.00     0.047 A 
ATOM      6  C   UNL     1     -21.147  -3.336  21.444  1.00  0.00     0.115 A 
ENDROOT
BRANCH   1   7
ATOM      7  C   UNL     1     -21.631  -1.902  17.418  1.00  0.00     0.010 C 
ATOM      8  C   UNL     1     -22.819  -1.602  16.877  1.00  0.00     0.025 C 
BRANCH   8   9
ATOM      9  C   UNL     1     -22.938  -1.068  15.511  1.00  0.00     0.064 C 
ATOM     10  O   UNL     1     -23.051  -1.863  14.541  1.00  0.00    -0.545 OA
ATOM     11  O   UNL     1     -22.927   0.302  15.272  1.00  0.00    -0.545 OA
ENDBRANCH   8   9
ENDBRANCH   1   7
BRANCH   6  12
ATOM     12  O   UNL     1     -21.000  -3.772  22.759  1.00  0.00    -0.508 OA
ATOM     13  H   UNL     1     -20.359  -3.317  23.400  1.00  0.00     0.293 HD
ENDBRANCH   6  12
TORSDOF 3
ENDMDL
MODEL 4
REMARK VINA RESULT:    -4.787      2.975      3.545
REMARK INTER + INTRA:          -5.623
REMARK INTER:                  -5.486
REMARK INTRA:                  -0.137
REMARK UNBOUND:                -0.137
REMARK SMILES O=C([O-])C=Cc1ccc(O)cc1
REMARK SMILES IDX 6 1 7 2 12 3 8 4 11 5 9 6 5 7 4 8 2 9 1 10 3 11 10 12
REMARK H PARENT 10 13
REMARK Flexibility Score: inf
ROOT
ATOM      1  C   UNL     1     -20.732  -3.032  19.267  1.00  0.00    -0.025 A 
ATOM      2  C   UNL     1     -20.640  -3.938  20.337  1.00  0.00     0.012 A 
ATOM      3  C   UNL     1     -21.356  -1.786  19.484  1.00  0.00     0.012 A 
ATOM      4  C   UNL     1     -21.136  -3.601  21.600  1.00  0.00     0.047 A 
ATOM      5  C   UNL     1     -21.851  -1.452  20.749  1.00  0.00     0.047 A 
ATOM      6  C   UNL     1     -21.739  -2.359  21.811  1.00  0.00     0.115 A 
ENDROOT
BRANCH   1   7
ATOM      7  C   UNL     1     -20.201  -3.440  17.943  1.00  0.00     0.010 C 
ATOM      8  C   UNL     1     -18.902  -3.658  17.697  1.00  0.00     0.025 C 
BRANCH   8   9
ATOM      9  C   UNL     1     -18.420  -4.073  16.370  1.00  0.00     0.064 C 
ATOM     10  O   UNL     1     -18.070  -3.199  15.535  1.00  0.00    -0.545 OA
ATOM     11  O   UNL     1     -18.346  -5.417  16.022  1.00  0.00    -0.545 OA
ENDBRANCH   8   9
ENDBRANCH   1   7
BRANCH   6  12
ATOM     12  O   UNL     1     -22.228  -2.036  23.075  1.00  0.00    -0.508 OA
ATOM     13  H   UNL     1     -23.191  -1.751  23.213  1.00  0.00     0.293 HD
ENDBRANCH   6  12
TORSDOF 3
ENDMDL
MODEL 5
REMARK VINA RESULT:    -4.736      1.633      2.036
REMARK INTER + INTRA:          -5.565
REMARK INTER:                  -5.423
REMARK INTRA:                  -0.142
REMARK UNBOUND:                -0.137
REMARK SMILES O=C([O-])C=Cc1ccc(O)cc1
REMARK SMILES IDX 6 1 7 2 12 3 8 4 11 5 9 6 5 7 4 8 2 9 1 10 3 11 10 12
REMARK H PARENT 10 13
REMARK Flexibility Score: inf
ROOT
ATOM      1  C   UNL     1     -21.170  -2.512  18.935  1.00  0.00    -0.025 A 
ATOM      2  C   UNL     1     -20.736  -3.794  19.313  1.00  0.00     0.012 A 
ATOM      3  C   UNL     1     -21.653  -1.638  19.931  1.00  0.00     0.012 A 
ATOM      4  C   UNL     1     -20.760  -4.187  20.655  1.00  0.00     0.047 A 
ATOM      5  C   UNL     1     -21.675  -2.034  21.272  1.00  0.00     0.047 A 
ATOM      6  C   UNL     1     -21.225  -3.309  21.637  1.00  0.00     0.115 A 
ENDROOT
BRANCH   1   7
ATOM      7  C   UNL     1     -21.135  -2.146  17.498  1.00  0.00     0.010 C 
ATOM      8  C   UNL     1     -20.055  -2.290  16.719  1.00  0.00     0.025 C 
BRANCH   8   9
ATOM      9  C   UNL     1     -20.069  -1.923  15.294  1.00  0.00     0.064 C 
ATOM     10  O   UNL     1     -19.256  -2.470  14.503  1.00  0.00    -0.545 OA
ATOM     11  O   UNL     1     -20.967  -0.981  14.804  1.00  0.00    -0.545 OA
ENDBRANCH   8   9
ENDBRANCH   1   7
BRANCH   6  12
ATOM     12  O   UNL     1     -21.243  -3.714  22.970  1.00  0.00    -0.508 OA
ATOM     13  H   UNL     1     -20.429  -4.133  23.406  1.00  0.00     0.293 HD
ENDBRANCH   6  12
TORSDOF 3
ENDMDL
MODEL 6
REMARK VINA RESULT:    -4.645      3.543      4.359
REMARK INTER + INTRA:          -5.461
REMARK INTER:                  -5.327
REMARK INTRA:                  -0.134
REMARK UNBOUND:                -0.137
REMARK SMILES O=C([O-])C=Cc1ccc(O)cc1
REMARK SMILES IDX 6 1 7 2 12 3 8 4 11 5 9 6 5 7 4 8 2 9 1 10 3 11 10 12
REMARK H PARENT 10 13
REMARK Flexibility Score: inf
ROOT
ATOM      1  C   UNL     1     -19.776  -3.060  18.011  1.00  0.00    -0.025 A 
ATOM      2  C   UNL     1     -21.001  -2.371  17.977  1.00  0.00     0.012 A 
ATOM      3  C   UNL     1     -19.209  -3.374  19.263  1.00  0.00     0.012 A 
ATOM      4  C   UNL     1     -21.657  -2.026  19.162  1.00  0.00     0.047 A 
ATOM      5  C   UNL     1     -19.868  -3.027  20.447  1.00  0.00     0.047 A 
ATOM      6  C   UNL     1     -21.095  -2.355  20.398  1.00  0.00     0.115 A 
ENDROOT
BRANCH   1   7
ATOM      7  C   UNL     1     -19.114  -3.395  16.726  1.00  0.00     0.010 C 
ATOM      8  C   UNL     1     -18.450  -4.538  16.507  1.00  0.00     0.025 C 
BRANCH   8   9
ATOM      9  C   UNL     1     -17.817  -4.834  15.212  1.00  0.00     0.064 C 
ATOM     10  O   UNL     1     -18.400  -5.592  14.394  1.00  0.00    -0.545 OA
ATOM     11  O   UNL     1     -16.582  -4.290  14.876  1.00  0.00    -0.545 OA
ENDBRANCH   8   9
ENDBRANCH   1   7
BRANCH   6  12
ATOM     12  O   UNL     1     -21.761  -2.004  21.571  1.00  0.00    -0.508 OA
ATOM     13  H   UNL     1     -22.511  -1.322  21.571  1.00  0.00     0.293 HD
ENDBRANCH   6  12
TORSDOF 3
ENDMDL
MODEL 7
REMARK VINA RESULT:    -4.609      3.586      4.342
REMARK INTER + INTRA:          -5.419
REMARK INTER:                  -5.273
REMARK INTRA:                  -0.147
REMARK UNBOUND:                -0.137
REMARK SMILES O=C([O-])C=Cc1ccc(O)cc1
REMARK SMILES IDX 6 1 7 2 12 3 8 4 11 5 9 6 5 7 4 8 2 9 1 10 3 11 10 12
REMARK H PARENT 10 13
REMARK Flexibility Score: inf
ROOT
ATOM      1  C   UNL     1     -19.821  -2.985  17.886  1.00  0.00    -0.025 A 
ATOM      2  C   UNL     1     -19.260  -3.343  19.123  1.00  0.00     0.012 A 
ATOM      3  C   UNL     1     -21.033  -2.263  17.873  1.00  0.00     0.012 A 
ATOM      4  C   UNL     1     -19.878  -2.970  20.320  1.00  0.00     0.047 A 
ATOM      5  C   UNL     1     -21.648  -1.892  19.073  1.00  0.00     0.047 A 
ATOM      6  C   UNL     1     -21.070  -2.242  20.299  1.00  0.00     0.115 A 
ENDROOT
BRANCH   1   7
ATOM      7  C   UNL     1     -19.133  -3.413  16.643  1.00  0.00     0.010 C 
ATOM      8  C   UNL     1     -18.450  -4.560  16.527  1.00  0.00     0.025 C 
BRANCH   8   9
ATOM      9  C   UNL     1     -17.792  -4.950  15.271  1.00  0.00     0.064 C 
ATOM     10  O   UNL     1     -18.313  -5.837  14.545  1.00  0.00    -0.545 OA
ATOM     11  O   UNL     1     -16.600  -4.356  14.870  1.00  0.00    -0.545 OA
ENDBRANCH   8   9
ENDBRANCH   1   7
BRANCH   6  12
ATOM     12  O   UNL     1     -21.674  -1.877  21.500  1.00  0.00    -0.508 OA
ATOM     13  H   UNL     1     -22.489  -2.366  21.853  1.00  0.00     0.293 HD
ENDBRANCH   6  12
TORSDOF 3
ENDMDL
MODEL 8
REMARK VINA RESULT:    -4.569     17.650     19.038
REMARK INTER + INTRA:          -5.373
REMARK INTER:                  -5.225
REMARK INTRA:                  -0.148
REMARK UNBOUND:                -0.137
REMARK SMILES O=C([O-])C=Cc1ccc(O)cc1
REMARK SMILES IDX 6 1 7 2 12 3 8 4 11 5 9 6 5 7 4 8 2 9 1 10 3 11 10 12
REMARK H PARENT 10 13
REMARK Flexibility Score: inf
ROOT
ATOM      1  C   UNL     1      -7.528  -4.875   7.956  1.00  0.00    -0.025 A 
ATOM      2  C   UNL     1      -6.954  -3.604   7.781  1.00  0.00     0.012 A 
ATOM      3  C   UNL     1      -8.175  -5.483   6.861  1.00  0.00     0.012 A 
ATOM      4  C   UNL     1      -7.001  -2.966   6.538  1.00  0.00     0.047 A 
ATOM      5  C   UNL     1      -8.221  -4.842   5.619  1.00  0.00     0.047 A 
ATOM      6  C   UNL     1      -7.631  -3.582   5.455  1.00  0.00     0.115 A 
ENDROOT
BRANCH   1   7
ATOM      7  C   UNL     1      -7.460  -5.507   9.297  1.00  0.00     0.010 C 
ATOM      8  C   UNL     1      -6.435  -5.346  10.144  1.00  0.00     0.025 C 
BRANCH   8   9
ATOM      9  C   UNL     1      -6.416  -5.984  11.470  1.00  0.00     0.064 C 
ATOM     10  O   UNL     1      -6.778  -7.183  11.589  1.00  0.00    -0.545 OA
ATOM     11  O   UNL     1      -6.003  -5.282  12.598  1.00  0.00    -0.545 OA
ENDBRANCH   8   9
ENDBRANCH   1   7
BRANCH   6  12
ATOM     12  O   UNL     1      -7.671  -2.934   4.222  1.00  0.00    -0.508 OA
ATOM     13  H   UNL     1      -8.417  -3.106   3.557  1.00  0.00     0.293 HD
ENDBRANCH   6  12
TORSDOF 3
ENDMDL
MODEL 9
REMARK VINA RESULT:    -4.403      2.798      3.615
REMARK INTER + INTRA:          -5.183
REMARK INTER:                  -5.032
REMARK INTRA:                  -0.151
REMARK UNBOUND:                -0.137
REMARK SMILES O=C([O-])C=Cc1ccc(O)cc1
REMARK SMILES IDX 6 1 7 2 12 3 8 4 11 5 9 6 5 7 4 8 2 9 1 10 3 11 10 12
REMARK H PARENT 10 13
REMARK Flexibility Score: inf
ROOT
ATOM      1  C   UNL     1     -22.408  -0.940  18.636  1.00  0.00    -0.025 A 
ATOM      2  C   UNL     1     -21.843  -1.121  19.910  1.00  0.00     0.012 A 
ATOM      3  C   UNL     1     -22.139  -1.892  17.631  1.00  0.00     0.012 A 
ATOM      4  C   UNL     1     -21.048  -2.238  20.183  1.00  0.00     0.047 A 
ATOM      5  C   UNL     1     -21.342  -3.008  17.909  1.00  0.00     0.047 A 
ATOM      6  C   UNL     1     -20.798  -3.185  19.187  1.00  0.00     0.115 A 
ENDROOT
BRANCH   1   7
ATOM      7  C   UNL     1     -23.237   0.267  18.392  1.00  0.00     0.010 C 
ATOM      8  C   UNL     1     -23.252   1.335  19.200  1.00  0.00     0.025 C 
BRANCH   8   9
ATOM      9  C   UNL     1     -24.082   2.516  18.913  1.00  0.00     0.064 C 
ATOM     10  O   UNL     1     -23.961   3.107  17.808  1.00  0.00    -0.545 OA
ATOM     11  O   UNL     1     -24.998   2.993  19.844  1.00  0.00    -0.545 OA
ENDBRANCH   8   9
ENDBRANCH   1   7
BRANCH   6  12
ATOM     12  O   UNL     1     -20.004  -4.293  19.474  1.00  0.00    -0.508 OA
ATOM     13  H   UNL     1     -20.242  -5.217  19.132  1.00  0.00     0.293 HD
ENDBRANCH   6  12
TORSDOF 3
ENDMDL
