MODEL 1
REMARK VINA RESULT:    -3.580      0.000      0.000
REMARK INTER + INTRA:          -6.472
REMARK INTER:                  -5.045
REMARK INTRA:                  -1.427
REMARK UNBOUND:                -1.427
REMARK SMILES COc1c(O[C@H]2O[C@H](C(=O)[O-])[C@H](O)[C@H](O)[C@@H]2O)cc(O)c2c(=O)cc(-c3ccccc3)oc12
REMARK SMILES IDX 5 1 6 2 8 3 12 4 7 5 14 6 16 7 9 8 10 9 11 10 13 11 15 13
REMARK SMILES IDX 17 15 4 17 3 18 18 19 33 20 19 21 21 22 32 23 22 24 25 25
REMARK SMILES IDX 24 26 23 27 2 28 1 29 20 30 26 32 27 33 31 34 28 35 30 36
REMARK SMILES IDX 29 37
REMARK H PARENT 13 12 15 14 17 16 20 31
REMARK Flexibility Score: inf
ROOT
ATOM      1  O   UNL     1       1.166  50.043  57.531  1.00  0.00    -0.458 OA
ENDROOT
BRANCH   1   2
ATOM      2  C   UNL     1       2.298  49.163  57.496  1.00  0.00     0.339 C 
ATOM      3  C   UNL     1       1.094  47.419  58.512  1.00  0.00     0.199 C 
ATOM      4  C   UNL     1       1.119  46.517  57.253  1.00  0.00     0.180 C 
ATOM      5  O   UNL     1       2.247  48.244  58.579  1.00  0.00    -0.328 OA
ATOM      6  C   UNL     1       1.279  47.375  55.985  1.00  0.00     0.181 C 
ATOM      7  C   UNL     1       2.400  48.425  56.132  1.00  0.00     0.214 C 
BRANCH   3   8
ATOM      8  C   UNL     1       1.018  46.579  59.754  1.00  0.00     0.073 C 
ATOM      9  O   UNL     1       1.119  47.117  60.888  1.00  0.00    -0.547 OA
ATOM     10  O   UNL     1       0.784  45.212  59.664  1.00  0.00    -0.547 OA
ENDBRANCH   3   8
BRANCH   4  11
ATOM     11  O   UNL     1       2.106  45.513  57.322  1.00  0.00    -0.387 OA
ATOM     12  H   UNL     1       2.897  45.812  56.807  1.00  0.00     0.211 HD
ENDBRANCH   4  11
BRANCH   6  13
ATOM     13  O   UNL     1       1.514  46.547  54.875  1.00  0.00    -0.387 OA
ATOM     14  H   UNL     1       2.240  45.919  55.134  1.00  0.00     0.211 HD
ENDBRANCH   6  13
BRANCH   7  15
ATOM     15  O   UNL     1       3.668  47.842  55.926  1.00  0.00    -0.384 OA
ATOM     16  H   UNL     1       3.557  46.914  55.600  1.00  0.00     0.211 HD
ENDBRANCH   7  15
ENDBRANCH   1   2
BRANCH   1  17
ATOM     17  C   UNL     1       1.146  51.351  58.047  1.00  0.00     0.172 A 
ATOM     18  C   UNL     1       0.768  51.537  59.387  1.00  0.00     0.205 A 
ATOM     19  C   UNL     1       1.523  52.470  57.280  1.00  0.00     0.097 A 
ATOM     20  C   UNL     1       0.800  52.814  59.961  1.00  0.00     0.188 A 
ATOM     21  C   UNL     1       1.540  53.754  57.838  1.00  0.00     0.134 A 
ATOM     22  C   UNL     1       1.182  53.936  59.192  1.00  0.00     0.111 A 
ATOM     23  O   UNL     1       0.457  52.958  61.238  1.00  0.00    -0.452 OA
ATOM     24  C   UNL     1       1.179  55.196  59.826  1.00  0.00     0.197 A 
ATOM     25  C   UNL     1       0.452  54.130  61.869  1.00  0.00     0.138 A 
ATOM     26  C   UNL     1       0.811  55.292  61.167  1.00  0.00     0.100 A 
ATOM     27  O   UNL     1       1.499  56.246  59.203  1.00  0.00    -0.289 OA
BRANCH  18  28
ATOM     28  O   UNL     1       0.372  50.453  60.176  1.00  0.00    -0.490 OA
ATOM     29  C   UNL     1      -0.973  49.992  60.206  1.00  0.00     0.278 C 
ENDBRANCH  18  28
BRANCH  21  30
ATOM     30  O   UNL     1       1.917  54.839  57.045  1.00  0.00    -0.507 OA
ATOM     31  H   UNL     1       2.161  55.736  57.448  1.00  0.00     0.293 HD
ENDBRANCH  21  30
BRANCH  25  32
ATOM     32  C   UNL     1       0.047  54.168  63.297  1.00  0.00     0.017 A 
ATOM     33  C   UNL     1      -0.749  55.232  63.762  1.00  0.00     0.012 A 
ATOM     34  C   UNL     1       0.411  53.148  64.200  1.00  0.00     0.012 A 
ATOM     35  C   UNL     1      -1.151  55.287  65.100  1.00  0.00     0.001 A 
ATOM     36  C   UNL     1       0.005  53.209  65.537  1.00  0.00     0.001 A 
ATOM     37  C   UNL     1      -0.773  54.277  65.986  1.00  0.00     0.000 A 
ENDBRANCH  25  32
ENDBRANCH   1  17
TORSDOF 9
ENDMDL
MODEL 2
REMARK VINA RESULT:    -3.565     17.800     21.046
REMARK INTER + INTRA:          -6.452
REMARK INTER:                  -5.026
REMARK INTRA:                  -1.426
REMARK UNBOUND:                -1.427
REMARK SMILES COc1c(O[C@H]2O[C@H](C(=O)[O-])[C@H](O)[C@H](O)[C@@H]2O)cc(O)c2c(=O)cc(-c3ccccc3)oc12
REMARK SMILES IDX 5 1 6 2 8 3 12 4 7 5 14 6 16 7 9 8 10 9 11 10 13 11 15 13
REMARK SMILES IDX 17 15 4 17 3 18 18 19 33 20 19 21 21 22 32 23 22 24 25 25
REMARK SMILES IDX 24 26 23 27 2 28 1 29 20 30 26 32 27 33 31 34 28 35 30 36
REMARK SMILES IDX 29 37
REMARK H PARENT 13 12 15 14 17 16 20 31
REMARK Flexibility Score: inf
ROOT
ATOM      1  O   UNL     1     -11.901  59.157  73.158  1.00  0.00    -0.458 OA
ENDROOT
BRANCH   1   2
ATOM      2  C   UNL     1     -11.561  60.001  74.266  1.00  0.00     0.339 C 
ATOM      3  C   UNL     1      -9.326  60.185  73.565  1.00  0.00     0.199 C 
ATOM      4  C   UNL     1      -9.436  61.693  73.231  1.00  0.00     0.180 C 
ATOM      5  O   UNL     1     -10.198  59.826  74.625  1.00  0.00    -0.328 OA
ATOM      6  C   UNL     1     -10.897  62.065  72.918  1.00  0.00     0.181 C 
ATOM      7  C   UNL     1     -11.878  61.492  73.961  1.00  0.00     0.214 C 
BRANCH   3   8
ATOM      8  C   UNL     1      -7.916  59.837  73.947  1.00  0.00     0.073 C 
ATOM      9  O   UNL     1      -7.670  58.744  74.523  1.00  0.00    -0.547 OA
ATOM     10  O   UNL     1      -6.869  60.692  73.623  1.00  0.00    -0.547 OA
ENDBRANCH   3   8
BRANCH   4  11
ATOM     11  O   UNL     1      -8.903  62.515  74.244  1.00  0.00    -0.387 OA
ATOM     12  H   UNL     1      -8.274  63.159  73.830  1.00  0.00     0.211 HD
ENDBRANCH   4  11
BRANCH   6  13
ATOM     13  O   UNL     1     -11.025  63.460  72.826  1.00  0.00    -0.387 OA
ATOM     14  H   UNL     1     -11.526  63.647  71.988  1.00  0.00     0.211 HD
ENDBRANCH   6  13
BRANCH   7  15
ATOM     15  O   UNL     1     -11.900  62.290  75.125  1.00  0.00    -0.384 OA
ATOM     16  H   UNL     1     -12.834  62.550  75.330  1.00  0.00     0.211 HD
ENDBRANCH   7  15
ENDBRANCH   1   2
BRANCH   1  17
ATOM     17  C   UNL     1     -12.564  57.919  73.230  1.00  0.00     0.172 A 
ATOM     18  C   UNL     1     -11.792  56.745  73.235  1.00  0.00     0.205 A 
ATOM     19  C   UNL     1     -13.965  57.819  73.329  1.00  0.00     0.097 A 
ATOM     20  C   UNL     1     -12.407  55.494  73.374  1.00  0.00     0.188 A 
ATOM     21  C   UNL     1     -14.592  56.572  73.449  1.00  0.00     0.134 A 
ATOM     22  C   UNL     1     -13.813  55.394  73.479  1.00  0.00     0.111 A 
ATOM     23  O   UNL     1     -11.651  54.401  73.397  1.00  0.00    -0.452 OA
ATOM     24  C   UNL     1     -14.370  54.105  73.602  1.00  0.00     0.197 A 
ATOM     25  C   UNL     1     -12.143  53.171  73.521  1.00  0.00     0.138 A 
ATOM     26  C   UNL     1     -13.532  52.991  73.621  1.00  0.00     0.100 A 
ATOM     27  O   UNL     1     -15.617  53.933  73.690  1.00  0.00    -0.289 OA
BRANCH  18  28
ATOM     28  O   UNL     1     -10.400  56.803  73.122  1.00  0.00    -0.490 OA
ATOM     29  C   UNL     1      -9.750  56.919  71.863  1.00  0.00     0.278 C 
ENDBRANCH  18  28
BRANCH  21  30
ATOM     30  O   UNL     1     -15.983  56.513  73.544  1.00  0.00    -0.507 OA
ATOM     31  H   UNL     1     -16.541  55.978  72.888  1.00  0.00     0.293 HD
ENDBRANCH  21  30
BRANCH  25  32
ATOM     32  C   UNL     1     -11.200  52.024  73.531  1.00  0.00     0.017 A 
ATOM     33  C   UNL     1     -11.505  50.884  74.298  1.00  0.00     0.012 A 
ATOM     34  C   UNL     1     -10.015  52.029  72.766  1.00  0.00     0.012 A 
ATOM     35  C   UNL     1     -10.638  49.787  74.318  1.00  0.00     0.001 A 
ATOM     36  C   UNL     1      -9.152  50.929  72.789  1.00  0.00     0.001 A 
ATOM     37  C   UNL     1      -9.462  49.811  73.566  1.00  0.00     0.000 A 
ENDBRANCH  25  32
ENDBRANCH   1  17
TORSDOF 9
ENDMDL
MODEL 3
REMARK VINA RESULT:    -3.558      2.756      8.883
REMARK INTER + INTRA:          -6.441
REMARK INTER:                  -5.241
REMARK INTRA:                  -1.199
REMARK UNBOUND:                -1.427
REMARK SMILES COc1c(O[C@H]2O[C@H](C(=O)[O-])[C@H](O)[C@H](O)[C@@H]2O)cc(O)c2c(=O)cc(-c3ccccc3)oc12
REMARK SMILES IDX 5 1 6 2 8 3 12 4 7 5 14 6 16 7 9 8 10 9 11 10 13 11 15 13
REMARK SMILES IDX 17 15 4 17 3 18 18 19 33 20 19 21 21 22 32 23 22 24 25 25
REMARK SMILES IDX 24 26 23 27 2 28 1 29 20 30 26 32 27 33 31 34 28 35 30 36
REMARK SMILES IDX 29 37
REMARK H PARENT 13 12 15 14 17 16 20 31
REMARK Flexibility Score: inf
ROOT
ATOM      1  O   UNL     1       0.279  54.784  61.159  1.00  0.00    -0.458 OA
ENDROOT
BRANCH   1   2
ATOM      2  C   UNL     1       1.115  54.878  62.320  1.00  0.00     0.339 C 
ATOM      3  C   UNL     1       1.196  57.222  62.191  1.00  0.00     0.199 C 
ATOM      4  C   UNL     1       0.392  57.436  63.497  1.00  0.00     0.180 C 
ATOM      5  O   UNL     1       1.952  56.023  62.239  1.00  0.00    -0.328 OA
ATOM      6  C   UNL     1      -0.499  56.213  63.781  1.00  0.00     0.181 C 
ATOM      7  C   UNL     1       0.272  54.885  63.626  1.00  0.00     0.214 C 
BRANCH   3   8
ATOM      8  C   UNL     1       2.124  58.379  61.954  1.00  0.00     0.073 C 
ATOM      9  O   UNL     1       3.178  58.217  61.286  1.00  0.00    -0.547 OA
ATOM     10  O   UNL     1       1.801  59.646  62.426  1.00  0.00    -0.547 OA
ENDBRANCH   3   8
BRANCH   4  11
ATOM     11  O   UNL     1       1.216  57.738  64.600  1.00  0.00    -0.387 OA
ATOM     12  H   UNL     1       1.936  57.060  64.651  1.00  0.00     0.211 HD
ENDBRANCH   4  11
BRANCH   6  13
ATOM     13  O   UNL     1      -1.059  56.317  65.064  1.00  0.00    -0.387 OA
ATOM     14  H   UNL     1      -1.114  57.287  65.275  1.00  0.00     0.211 HD
ENDBRANCH   6  13
BRANCH   7  15
ATOM     15  O   UNL     1       1.047  54.615  64.773  1.00  0.00    -0.384 OA
ATOM     16  H   UNL     1       0.460  54.288  65.501  1.00  0.00     0.211 HD
ENDBRANCH   7  15
ENDBRANCH   1   2
BRANCH   1  17
ATOM     17  C   UNL     1       0.710  54.531  59.844  1.00  0.00     0.172 A 
ATOM     18  C   UNL     1       1.002  53.206  59.478  1.00  0.00     0.205 A 
ATOM     19  C   UNL     1       0.827  55.550  58.880  1.00  0.00     0.097 A 
ATOM     20  C   UNL     1       1.369  52.900  58.162  1.00  0.00     0.188 A 
ATOM     21  C   UNL     1       1.212  55.258  57.565  1.00  0.00     0.134 A 
ATOM     22  C   UNL     1       1.481  53.922  57.192  1.00  0.00     0.111 A 
ATOM     23  O   UNL     1       1.619  51.635  57.838  1.00  0.00    -0.452 OA
ATOM     24  C   UNL     1       1.868  53.549  55.889  1.00  0.00     0.197 A 
ATOM     25  C   UNL     1       1.977  51.248  56.616  1.00  0.00     0.138 A 
ATOM     26  C   UNL     1       2.118  52.208  55.602  1.00  0.00     0.100 A 
ATOM     27  O   UNL     1       2.000  54.405  54.972  1.00  0.00    -0.289 OA
BRANCH  18  28
ATOM     28  O   UNL     1       0.914  52.170  60.412  1.00  0.00    -0.490 OA
ATOM     29  C   UNL     1      -0.302  51.473  60.653  1.00  0.00     0.278 C 
ENDBRANCH  18  28
BRANCH  21  30
ATOM     30  O   UNL     1       1.318  56.295  56.637  1.00  0.00    -0.507 OA
ATOM     31  H   UNL     1       1.652  56.137  55.694  1.00  0.00     0.293 HD
ENDBRANCH  21  30
BRANCH  25  32
ATOM     32  C   UNL     1       2.233  49.805  56.373  1.00  0.00     0.017 A 
ATOM     33  C   UNL     1       2.247  48.912  57.460  1.00  0.00     0.012 A 
ATOM     34  C   UNL     1       2.433  49.295  55.073  1.00  0.00     0.012 A 
ATOM     35  C   UNL     1       2.477  47.548  57.257  1.00  0.00     0.001 A 
ATOM     36  C   UNL     1       2.662  47.929  54.876  1.00  0.00     0.001 A 
ATOM     37  C   UNL     1       2.686  47.058  55.967  1.00  0.00     0.000 A 
ENDBRANCH  25  32
ENDBRANCH   1  17
TORSDOF 9
ENDMDL
MODEL 4
REMARK VINA RESULT:    -3.516      2.061      2.517
REMARK INTER + INTRA:          -6.382
REMARK INTER:                  -5.218
REMARK INTRA:                  -1.165
REMARK UNBOUND:                -1.427
REMARK SMILES COc1c(O[C@H]2O[C@H](C(=O)[O-])[C@H](O)[C@H](O)[C@@H]2O)cc(O)c2c(=O)cc(-c3ccccc3)oc12
REMARK SMILES IDX 5 1 6 2 8 3 12 4 7 5 14 6 16 7 9 8 10 9 11 10 13 11 15 13
REMARK SMILES IDX 17 15 4 17 3 18 18 19 33 20 19 21 21 22 32 23 22 24 25 25
REMARK SMILES IDX 24 26 23 27 2 28 1 29 20 30 26 32 27 33 31 34 28 35 30 36
REMARK SMILES IDX 29 37
REMARK H PARENT 13 12 15 14 17 16 20 31
REMARK Flexibility Score: inf
ROOT
ATOM      1  O   UNL     1       0.144  50.632  57.908  1.00  0.00    -0.458 OA
ENDROOT
BRANCH   1   2
ATOM      2  C   UNL     1       0.857  49.450  58.296  1.00  0.00     0.339 C 
ATOM      3  C   UNL     1      -0.294  48.127  56.732  1.00  0.00     0.199 C 
ATOM      4  C   UNL     1       0.960  47.865  55.861  1.00  0.00     0.180 C 
ATOM      5  O   UNL     1       0.052  48.296  58.098  1.00  0.00    -0.328 OA
ATOM      6  C   UNL     1       1.988  48.995  56.052  1.00  0.00     0.181 C 
ATOM      7  C   UNL     1       2.211  49.331  57.541  1.00  0.00     0.214 C 
BRANCH   3   8
ATOM      8  C   UNL     1      -1.263  46.986  56.607  1.00  0.00     0.073 C 
ATOM      9  O   UNL     1      -2.047  46.718  57.555  1.00  0.00    -0.547 OA
ATOM     10  O   UNL     1      -1.337  46.253  55.429  1.00  0.00    -0.547 OA
ENDBRANCH   3   8
BRANCH   4  11
ATOM     11  O   UNL     1       1.536  46.601  56.102  1.00  0.00    -0.387 OA
ATOM     12  H   UNL     1       2.506  46.721  56.259  1.00  0.00     0.211 HD
ENDBRANCH   4  11
BRANCH   6  13
ATOM     13  O   UNL     1       3.199  48.649  55.432  1.00  0.00    -0.387 OA
ATOM     14  H   UNL     1       3.582  47.893  55.952  1.00  0.00     0.211 HD
ENDBRANCH   6  13
BRANCH   7  15
ATOM     15  O   UNL     1       3.086  48.402  58.143  1.00  0.00    -0.384 OA
ATOM     16  H   UNL     1       2.568  47.780  58.713  1.00  0.00     0.211 HD
ENDBRANCH   7  15
ENDBRANCH   1   2
BRANCH   1  17
ATOM     17  C   UNL     1       0.381  51.936  58.379  1.00  0.00     0.172 A 
ATOM     18  C   UNL     1      -0.490  52.468  59.345  1.00  0.00     0.205 A 
ATOM     19  C   UNL     1       1.472  52.709  57.940  1.00  0.00     0.097 A 
ATOM     20  C   UNL     1      -0.253  53.735  59.891  1.00  0.00     0.188 A 
ATOM     21  C   UNL     1       1.708  53.987  58.465  1.00  0.00     0.134 A 
ATOM     22  C   UNL     1       0.846  54.509  59.455  1.00  0.00     0.111 A 
ATOM     23  O   UNL     1      -1.081  54.205  60.819  1.00  0.00    -0.452 OA
ATOM     24  C   UNL     1       1.020  55.783  60.033  1.00  0.00     0.197 A 
ATOM     25  C   UNL     1      -0.941  55.398  61.392  1.00  0.00     0.138 A 
ATOM     26  C   UNL     1       0.123  56.228  61.004  1.00  0.00     0.100 A 
ATOM     27  O   UNL     1       1.971  56.537  59.689  1.00  0.00    -0.289 OA
BRANCH  18  28
ATOM     28  O   UNL     1      -1.595  51.736  59.793  1.00  0.00    -0.490 OA
ATOM     29  C   UNL     1      -1.508  50.834  60.888  1.00  0.00     0.278 C 
ENDBRANCH  18  28
BRANCH  21  30
ATOM     30  O   UNL     1       2.800  54.724  58.004  1.00  0.00    -0.507 OA
ATOM     31  H   UNL     1       3.734  54.579  58.368  1.00  0.00     0.293 HD
ENDBRANCH  21  30
BRANCH  25  32
ATOM     32  C   UNL     1      -1.930  55.817  62.416  1.00  0.00     0.017 A 
ATOM     33  C   UNL     1      -1.622  56.883  63.281  1.00  0.00     0.012 A 
ATOM     34  C   UNL     1      -3.192  55.196  62.528  1.00  0.00     0.012 A 
ATOM     35  C   UNL     1      -2.541  57.303  64.248  1.00  0.00     0.001 A 
ATOM     36  C   UNL     1      -4.106  55.621  63.497  1.00  0.00     0.001 A 
ATOM     37  C   UNL     1      -3.780  56.671  64.357  1.00  0.00     0.000 A 
ENDBRANCH  25  32
ENDBRANCH   1  17
TORSDOF 9
ENDMDL
MODEL 5
REMARK VINA RESULT:    -3.480      3.470      7.678
REMARK INTER + INTRA:          -6.331
REMARK INTER:                  -5.135
REMARK INTRA:                  -1.196
REMARK UNBOUND:                -1.427
REMARK SMILES COc1c(O[C@H]2O[C@H](C(=O)[O-])[C@H](O)[C@H](O)[C@@H]2O)cc(O)c2c(=O)cc(-c3ccccc3)oc12
REMARK SMILES IDX 5 1 6 2 8 3 12 4 7 5 14 6 16 7 9 8 10 9 11 10 13 11 15 13
REMARK SMILES IDX 17 15 4 17 3 18 18 19 33 20 19 21 21 22 32 23 22 24 25 25
REMARK SMILES IDX 24 26 23 27 2 28 1 29 20 30 26 32 27 33 31 34 28 35 30 36
REMARK SMILES IDX 29 37
REMARK H PARENT 13 12 15 14 17 16 20 31
REMARK Flexibility Score: inf
ROOT
ATOM      1  O   UNL     1       0.364  52.072  55.511  1.00  0.00    -0.458 OA
ENDROOT
BRANCH   1   2
ATOM      2  C   UNL     1       1.138  53.197  55.074  1.00  0.00     0.339 C 
ATOM      3  C   UNL     1      -0.339  54.725  56.077  1.00  0.00     0.199 C 
ATOM      4  C   UNL     1       0.688  55.198  57.135  1.00  0.00     0.180 C 
ATOM      5  O   UNL     1       0.303  54.328  54.875  1.00  0.00    -0.328 OA
ATOM      6  C   UNL     1       1.740  54.101  57.385  1.00  0.00     0.181 C 
ATOM      7  C   UNL     1       2.290  53.513  56.069  1.00  0.00     0.214 C 
BRANCH   3   8
ATOM      8  C   UNL     1      -1.318  55.822  55.774  1.00  0.00     0.073 C 
ATOM      9  O   UNL     1      -0.932  56.870  55.192  1.00  0.00    -0.547 OA
ATOM     10  O   UNL     1      -2.663  55.669  56.086  1.00  0.00    -0.547 OA
ENDBRANCH   3   8
BRANCH   4  11
ATOM     11  O   UNL     1       1.296  56.423  56.794  1.00  0.00    -0.387 OA
ATOM     12  H   UNL     1       0.686  57.160  57.050  1.00  0.00     0.211 HD
ENDBRANCH   4  11
BRANCH   6  13
ATOM     13  O   UNL     1       2.781  54.610  58.178  1.00  0.00    -0.387 OA
ATOM     14  H   UNL     1       3.366  55.142  57.576  1.00  0.00     0.211 HD
ENDBRANCH   6  13
BRANCH   7  15
ATOM     15  O   UNL     1       3.272  54.358  55.510  1.00  0.00    -0.384 OA
ATOM     16  H   UNL     1       3.961  54.562  56.192  1.00  0.00     0.211 HD
ENDBRANCH   7  15
ENDBRANCH   1   2
BRANCH   1  17
ATOM     17  C   UNL     1       0.868  50.818  55.900  1.00  0.00     0.172 A 
ATOM     18  C   UNL     1       0.262  50.159  56.983  1.00  0.00     0.205 A 
ATOM     19  C   UNL     1       1.932  50.191  55.225  1.00  0.00     0.097 A 
ATOM     20  C   UNL     1       0.687  48.880  57.361  1.00  0.00     0.188 A 
ATOM     21  C   UNL     1       2.378  48.919  55.607  1.00  0.00     0.134 A 
ATOM     22  C   UNL     1       1.751  48.247  56.679  1.00  0.00     0.111 A 
ATOM     23  O   UNL     1       0.081  48.270  58.376  1.00  0.00    -0.452 OA
ATOM     24  C   UNL     1       2.141  46.965  57.119  1.00  0.00     0.197 A 
ATOM     25  C   UNL     1       0.417  47.058  58.810  1.00  0.00     0.138 A 
ATOM     26  C   UNL     1       1.472  46.371  58.188  1.00  0.00     0.100 A 
ATOM     27  O   UNL     1       3.088  46.341  56.568  1.00  0.00    -0.289 OA
BRANCH  18  28
ATOM     28  O   UNL     1      -0.786  50.758  57.689  1.00  0.00    -0.490 OA
ATOM     29  C   UNL     1      -0.556  51.605  58.807  1.00  0.00     0.278 C 
ENDBRANCH  18  28
BRANCH  21  30
ATOM     30  O   UNL     1       3.437  48.330  54.913  1.00  0.00    -0.507 OA
ATOM     31  H   UNL     1       3.663  48.591  53.961  1.00  0.00     0.293 HD
ENDBRANCH  21  30
BRANCH  25  32
ATOM     32  C   UNL     1      -0.330  46.479  59.955  1.00  0.00     0.017 A 
ATOM     33  C   UNL     1      -1.730  46.613  60.007  1.00  0.00     0.012 A 
ATOM     34  C   UNL     1       0.322  45.767  60.983  1.00  0.00     0.012 A 
ATOM     35  C   UNL     1      -2.457  46.069  61.070  1.00  0.00     0.001 A 
ATOM     36  C   UNL     1      -0.412  45.225  62.044  1.00  0.00     0.001 A 
ATOM     37  C   UNL     1      -1.798  45.378  62.088  1.00  0.00     0.000 A 
ENDBRANCH  25  32
ENDBRANCH   1  17
TORSDOF 9
ENDMDL
MODEL 6
REMARK VINA RESULT:    -3.455      2.987      8.297
REMARK INTER + INTRA:          -6.296
REMARK INTER:                  -4.992
REMARK INTRA:                  -1.304
REMARK UNBOUND:                -1.427
REMARK SMILES COc1c(O[C@H]2O[C@H](C(=O)[O-])[C@H](O)[C@H](O)[C@@H]2O)cc(O)c2c(=O)cc(-c3ccccc3)oc12
REMARK SMILES IDX 5 1 6 2 8 3 12 4 7 5 14 6 16 7 9 8 10 9 11 10 13 11 15 13
REMARK SMILES IDX 17 15 4 17 3 18 18 19 33 20 19 21 21 22 32 23 22 24 25 25
REMARK SMILES IDX 24 26 23 27 2 28 1 29 20 30 26 32 27 33 31 34 28 35 30 36
REMARK SMILES IDX 29 37
REMARK H PARENT 13 12 15 14 17 16 20 31
REMARK Flexibility Score: inf
ROOT
ATOM      1  O   UNL     1      -0.218  55.435  60.900  1.00  0.00    -0.458 OA
ENDROOT
BRANCH   1   2
ATOM      2  C   UNL     1       0.302  56.386  61.838  1.00  0.00     0.339 C 
ATOM      3  C   UNL     1      -0.610  55.226  63.666  1.00  0.00     0.199 C 
ATOM      4  C   UNL     1       0.769  54.816  64.239  1.00  0.00     0.180 C 
ATOM      5  O   UNL     1      -0.536  56.466  62.981  1.00  0.00    -0.328 OA
ATOM      6  C   UNL     1       1.825  54.787  63.119  1.00  0.00     0.181 C 
ATOM      7  C   UNL     1       1.767  56.049  62.233  1.00  0.00     0.214 C 
BRANCH   3   8
ATOM      8  C   UNL     1      -1.622  55.332  64.770  1.00  0.00     0.073 C 
ATOM      9  O   UNL     1      -1.801  56.430  65.360  1.00  0.00    -0.547 OA
ATOM     10  O   UNL     1      -2.404  54.235  65.113  1.00  0.00    -0.547 OA
ENDBRANCH   3   8
BRANCH   4  11
ATOM     11  O   UNL     1       1.180  55.636  65.310  1.00  0.00    -0.387 OA
ATOM     12  H   UNL     1       1.434  55.057  66.071  1.00  0.00     0.211 HD
ENDBRANCH   4  11
BRANCH   6  13
ATOM     13  O   UNL     1       3.105  54.626  63.673  1.00  0.00    -0.387 OA
ATOM     14  H   UNL     1       3.551  53.901  63.159  1.00  0.00     0.211 HD
ENDBRANCH   6  13
BRANCH   7  15
ATOM     15  O   UNL     1       2.423  57.133  62.855  1.00  0.00    -0.384 OA
ATOM     16  H   UNL     1       3.307  57.272  62.430  1.00  0.00     0.211 HD
ENDBRANCH   7  15
ENDBRANCH   1   2
BRANCH   1  17
ATOM     17  C   UNL     1       0.311  55.147  59.629  1.00  0.00     0.172 A 
ATOM     18  C   UNL     1       0.622  53.812  59.319  1.00  0.00     0.205 A 
ATOM     19  C   UNL     1       0.509  56.141  58.652  1.00  0.00     0.097 A 
ATOM     20  C   UNL     1       1.087  53.471  58.043  1.00  0.00     0.188 A 
ATOM     21  C   UNL     1       0.992  55.814  57.378  1.00  0.00     0.134 A 
ATOM     22  C   UNL     1       1.280  54.468  57.060  1.00  0.00     0.111 A 
ATOM     23  O   UNL     1       1.353  52.197  57.771  1.00  0.00    -0.452 OA
ATOM     24  C   UNL     1       1.765  54.061  55.800  1.00  0.00     0.197 A 
ATOM     25  C   UNL     1       1.802  51.777  56.591  1.00  0.00     0.138 A 
ATOM     26  C   UNL     1       2.027  52.711  55.567  1.00  0.00     0.100 A 
ATOM     27  O   UNL     1       1.972  54.892  54.875  1.00  0.00    -0.289 OA
BRANCH  18  28
ATOM     28  O   UNL     1       0.455  52.800  60.269  1.00  0.00    -0.490 OA
ATOM     29  C   UNL     1      -0.796  52.154  60.471  1.00  0.00     0.278 C 
ENDBRANCH  18  28
BRANCH  21  30
ATOM     30  O   UNL     1       1.177  56.827  56.436  1.00  0.00    -0.507 OA
ATOM     31  H   UNL     1       1.167  57.807  56.697  1.00  0.00     0.293 HD
ENDBRANCH  21  30
BRANCH  25  32
ATOM     32  C   UNL     1       2.066  50.328  56.404  1.00  0.00     0.017 A 
ATOM     33  C   UNL     1       2.209  49.813  55.102  1.00  0.00     0.012 A 
ATOM     34  C   UNL     1       2.212  49.452  57.499  1.00  0.00     0.012 A 
ATOM     35  C   UNL     1       2.468  48.454  54.899  1.00  0.00     0.001 A 
ATOM     36  C   UNL     1       2.471  48.094  57.290  1.00  0.00     0.001 A 
ATOM     37  C   UNL     1       2.596  47.595  55.992  1.00  0.00     0.000 A 
ENDBRANCH  25  32
ENDBRANCH   1  17
TORSDOF 9
ENDMDL
MODEL 7
REMARK VINA RESULT:    -3.426      3.126      3.785
REMARK INTER + INTRA:          -6.255
REMARK INTER:                  -5.077
REMARK INTRA:                  -1.177
REMARK UNBOUND:                -1.427
REMARK SMILES COc1c(O[C@H]2O[C@H](C(=O)[O-])[C@H](O)[C@H](O)[C@@H]2O)cc(O)c2c(=O)cc(-c3ccccc3)oc12
REMARK SMILES IDX 5 1 6 2 8 3 12 4 7 5 14 6 16 7 9 8 10 9 11 10 13 11 15 13
REMARK SMILES IDX 17 15 4 17 3 18 18 19 33 20 19 21 21 22 32 23 22 24 25 25
REMARK SMILES IDX 24 26 23 27 2 28 1 29 20 30 26 32 27 33 31 34 28 35 30 36
REMARK SMILES IDX 29 37
REMARK H PARENT 13 12 15 14 17 16 20 31
REMARK Flexibility Score: inf
ROOT
ATOM      1  O   UNL     1       0.309  50.775  57.207  1.00  0.00    -0.458 OA
ENDROOT
BRANCH   1   2
ATOM      2  C   UNL     1       0.929  49.662  57.864  1.00  0.00     0.339 C 
ATOM      3  C   UNL     1      -0.127  48.115  56.445  1.00  0.00     0.199 C 
ATOM      4  C   UNL     1       1.190  47.669  55.763  1.00  0.00     0.180 C 
ATOM      5  O   UNL     1       0.096  48.514  57.788  1.00  0.00    -0.328 OA
ATOM      6  C   UNL     1       2.245  48.787  55.858  1.00  0.00     0.181 C 
ATOM      7  C   UNL     1       2.341  49.375  57.281  1.00  0.00     0.214 C 
BRANCH   3   8
ATOM      8  C   UNL     1      -1.129  46.997  56.423  1.00  0.00     0.073 C 
ATOM      9  O   UNL     1      -2.019  46.929  57.312  1.00  0.00    -0.547 OA
ATOM     10  O   UNL     1      -1.114  46.060  55.397  1.00  0.00    -0.547 OA
ENDBRANCH   3   8
BRANCH   4  11
ATOM     11  O   UNL     1       1.684  46.453  56.276  1.00  0.00    -0.387 OA
ATOM     12  H   UNL     1       2.619  46.591  56.571  1.00  0.00     0.211 HD
ENDBRANCH   4  11
BRANCH   6  13
ATOM     13  O   UNL     1       3.493  48.304  55.433  1.00  0.00    -0.387 OA
ATOM     14  H   UNL     1       4.138  48.493  56.164  1.00  0.00     0.211 HD
ENDBRANCH   6  13
BRANCH   7  15
ATOM     15  O   UNL     1       3.114  48.544  58.119  1.00  0.00    -0.384 OA
ATOM     16  H   UNL     1       3.725  49.101  58.665  1.00  0.00     0.211 HD
ENDBRANCH   7  15
ENDBRANCH   1   2
BRANCH   1  17
ATOM     17  C   UNL     1       0.348  52.116  57.630  1.00  0.00     0.172 A 
ATOM     18  C   UNL     1      -0.851  52.729  58.029  1.00  0.00     0.205 A 
ATOM     19  C   UNL     1       1.548  52.850  57.697  1.00  0.00     0.097 A 
ATOM     20  C   UNL     1      -0.847  54.040  58.522  1.00  0.00     0.188 A 
ATOM     21  C   UNL     1       1.561  54.169  58.170  1.00  0.00     0.134 A 
ATOM     22  C   UNL     1       0.358  54.775  58.594  1.00  0.00     0.111 A 
ATOM     23  O   UNL     1      -1.994  54.587  58.913  1.00  0.00    -0.452 OA
ATOM     24  C   UNL     1       0.291  56.095  59.085  1.00  0.00     0.197 A 
ATOM     25  C   UNL     1      -2.091  55.826  59.389  1.00  0.00     0.138 A 
ATOM     26  C   UNL     1      -0.937  56.621  59.482  1.00  0.00     0.100 A 
ATOM     27  O   UNL     1       1.321  56.817  59.170  1.00  0.00    -0.289 OA
BRANCH  18  28
ATOM     28  O   UNL     1      -2.065  52.038  57.962  1.00  0.00    -0.490 OA
ATOM     29  C   UNL     1      -2.513  51.195  59.016  1.00  0.00     0.278 C 
ENDBRANCH  18  28
BRANCH  21  30
ATOM     30  O   UNL     1       2.770  54.865  58.219  1.00  0.00    -0.507 OA
ATOM     31  H   UNL     1       3.619  54.436  58.567  1.00  0.00     0.293 HD
ENDBRANCH  21  30
BRANCH  25  32
ATOM     32  C   UNL     1      -3.428  56.332  59.793  1.00  0.00     0.017 A 
ATOM     33  C   UNL     1      -4.376  55.436  60.321  1.00  0.00     0.012 A 
ATOM     34  C   UNL     1      -3.767  57.697  59.692  1.00  0.00     0.012 A 
ATOM     35  C   UNL     1      -5.638  55.888  60.717  1.00  0.00     0.001 A 
ATOM     36  C   UNL     1      -5.031  58.143  60.089  1.00  0.00     0.001 A 
ATOM     37  C   UNL     1      -5.966  57.240  60.599  1.00  0.00     0.000 A 
ENDBRANCH  25  32
ENDBRANCH   1  17
TORSDOF 9
ENDMDL
MODEL 8
REMARK VINA RESULT:    -3.420     17.431     20.937
REMARK INTER + INTRA:          -6.247
REMARK INTER:                  -4.818
REMARK INTRA:                  -1.429
REMARK UNBOUND:                -1.427
REMARK SMILES COc1c(O[C@H]2O[C@H](C(=O)[O-])[C@H](O)[C@H](O)[C@@H]2O)cc(O)c2c(=O)cc(-c3ccccc3)oc12
REMARK SMILES IDX 5 1 6 2 8 3 12 4 7 5 14 6 16 7 9 8 10 9 11 10 13 11 15 13
REMARK SMILES IDX 17 15 4 17 3 18 18 19 33 20 19 21 21 22 32 23 22 24 25 25
REMARK SMILES IDX 24 26 23 27 2 28 1 29 20 30 26 32 27 33 31 34 28 35 30 36
REMARK SMILES IDX 29 37
REMARK H PARENT 13 12 15 14 17 16 20 31
REMARK Flexibility Score: inf
ROOT
ATOM      1  O   UNL     1     -13.049  57.298  73.003  1.00  0.00    -0.458 OA
ENDROOT
BRANCH   1   2
ATOM      2  C   UNL     1     -12.877  58.267  74.045  1.00  0.00     0.339 C 
ATOM      3  C   UNL     1     -10.877  59.065  73.105  1.00  0.00     0.199 C 
ATOM      4  C   UNL     1     -11.467  60.451  72.744  1.00  0.00     0.180 C 
ATOM      5  O   UNL     1     -11.497  58.525  74.261  1.00  0.00    -0.328 OA
ATOM      6  C   UNL     1     -12.995  60.354  72.579  1.00  0.00     0.181 C 
ATOM      7  C   UNL     1     -13.656  59.577  73.736  1.00  0.00     0.214 C 
BRANCH   3   8
ATOM      8  C   UNL     1      -9.399  59.174  73.344  1.00  0.00     0.073 C 
ATOM      9  O   UNL     1      -8.720  60.034  72.723  1.00  0.00    -0.547 OA
ATOM     10  O   UNL     1      -8.778  58.363  74.287  1.00  0.00    -0.547 OA
ENDBRANCH   3   8
BRANCH   4  11
ATOM     11  O   UNL     1     -11.113  61.451  73.672  1.00  0.00    -0.387 OA
ATOM     12  H   UNL     1     -10.340  61.132  74.201  1.00  0.00     0.211 HD
ENDBRANCH   4  11
BRANCH   6  13
ATOM     13  O   UNL     1     -13.545  61.641  72.464  1.00  0.00    -0.387 OA
ATOM     14  H   UNL     1     -13.499  62.054  73.367  1.00  0.00     0.211 HD
ENDBRANCH   6  13
BRANCH   7  15
ATOM     15  O   UNL     1     -13.808  60.397  74.873  1.00  0.00    -0.384 OA
ATOM     16  H   UNL     1     -13.015  60.983  74.968  1.00  0.00     0.211 HD
ENDBRANCH   7  15
ENDBRANCH   1   2
BRANCH   1  17
ATOM     17  C   UNL     1     -13.308  55.927  73.178  1.00  0.00     0.172 A 
ATOM     18  C   UNL     1     -12.225  55.032  73.159  1.00  0.00     0.205 A 
ATOM     19  C   UNL     1     -14.606  55.428  73.403  1.00  0.00     0.097 A 
ATOM     20  C   UNL     1     -12.430  53.668  73.397  1.00  0.00     0.188 A 
ATOM     21  C   UNL     1     -14.824  54.061  73.623  1.00  0.00     0.134 A 
ATOM     22  C   UNL     1     -13.731  53.167  73.628  1.00  0.00     0.111 A 
ATOM     23  O   UNL     1     -11.383  52.847  73.394  1.00  0.00    -0.452 OA
ATOM     24  C   UNL     1     -13.871  51.781  73.846  1.00  0.00     0.197 A 
ATOM     25  C   UNL     1     -11.479  51.536  73.606  1.00  0.00     0.138 A 
ATOM     26  C   UNL     1     -12.740  50.964  73.833  1.00  0.00     0.100 A 
ATOM     27  O   UNL     1     -15.000  51.258  74.049  1.00  0.00    -0.289 OA
BRANCH  18  28
ATOM     28  O   UNL     1     -10.925  55.488  72.922  1.00  0.00    -0.490 OA
ATOM     29  C   UNL     1     -10.431  55.712  71.608  1.00  0.00     0.278 C 
ENDBRANCH  18  28
BRANCH  21  30
ATOM     30  O   UNL     1     -16.125  53.604  73.841  1.00  0.00    -0.507 OA
ATOM     31  H   UNL     1     -16.494  53.469  74.775  1.00  0.00     0.293 HD
ENDBRANCH  21  30
BRANCH  25  32
ATOM     32  C   UNL     1     -10.240  50.718  73.576  1.00  0.00     0.017 A 
ATOM     33  C   UNL     1     -10.255  49.419  74.117  1.00  0.00     0.012 A 
ATOM     34  C   UNL     1      -9.049  51.195  72.989  1.00  0.00     0.012 A 
ATOM     35  C   UNL     1      -9.104  48.626  74.093  1.00  0.00     0.001 A 
ATOM     36  C   UNL     1      -7.901  50.396  72.968  1.00  0.00     0.001 A 
ATOM     37  C   UNL     1      -7.928  49.114  73.521  1.00  0.00     0.000 A 
ENDBRANCH  25  32
ENDBRANCH   1  17
TORSDOF 9
ENDMDL
MODEL 9
REMARK VINA RESULT:    -3.282      2.674      4.767
REMARK INTER + INTRA:          -6.052
REMARK INTER:                  -4.910
REMARK INTRA:                  -1.141
REMARK UNBOUND:                -1.427
REMARK SMILES COc1c(O[C@H]2O[C@H](C(=O)[O-])[C@H](O)[C@H](O)[C@@H]2O)cc(O)c2c(=O)cc(-c3ccccc3)oc12
REMARK SMILES IDX 5 1 6 2 8 3 12 4 7 5 14 6 16 7 9 8 10 9 11 10 13 11 15 13
REMARK SMILES IDX 17 15 4 17 3 18 18 19 33 20 19 21 21 22 32 23 22 24 25 25
REMARK SMILES IDX 24 26 23 27 2 28 1 29 20 30 26 32 27 33 31 34 28 35 30 36
REMARK SMILES IDX 29 37
REMARK H PARENT 13 12 15 14 17 16 20 31
REMARK Flexibility Score: inf
ROOT
ATOM      1  O   UNL     1       0.611  51.336  58.445  1.00  0.00    -0.458 OA
ENDROOT
BRANCH   1   2
ATOM      2  C   UNL     1       1.127  50.008  58.606  1.00  0.00     0.339 C 
ATOM      3  C   UNL     1      -0.528  49.093  57.211  1.00  0.00     0.199 C 
ATOM      4  C   UNL     1       0.470  48.695  56.097  1.00  0.00     0.180 C 
ATOM      5  O   UNL     1       0.082  49.052  58.491  1.00  0.00    -0.328 OA
ATOM      6  C   UNL     1       1.723  49.587  56.159  1.00  0.00     0.181 C 
ATOM      7  C   UNL     1       2.272  49.718  57.595  1.00  0.00     0.214 C 
BRANCH   3   8
ATOM      8  C   UNL     1      -1.715  48.173  57.201  1.00  0.00     0.073 C 
ATOM      9  O   UNL     1      -2.782  48.525  56.632  1.00  0.00    -0.547 OA
ATOM     10  O   UNL     1      -1.629  46.910  57.774  1.00  0.00    -0.547 OA
ENDBRANCH   3   8
BRANCH   4  11
ATOM     11  O   UNL     1       0.811  47.328  56.135  1.00  0.00    -0.387 OA
ATOM     12  H   UNL     1       1.782  47.250  56.312  1.00  0.00     0.211 HD
ENDBRANCH   4  11
BRANCH   6  13
ATOM     13  O   UNL     1       2.709  49.088  55.293  1.00  0.00    -0.387 OA
ATOM     14  H   UNL     1       3.579  49.179  55.765  1.00  0.00     0.211 HD
ENDBRANCH   6  13
BRANCH   7  15
ATOM     15  O   UNL     1       3.033  48.585  57.950  1.00  0.00    -0.384 OA
ATOM     16  H   UNL     1       3.895  48.598  57.461  1.00  0.00     0.211 HD
ENDBRANCH   7  15
ENDBRANCH   1   2
BRANCH   1  17
ATOM     17  C   UNL     1       0.711  52.384  59.378  1.00  0.00     0.172 A 
ATOM     18  C   UNL     1       1.194  53.628  58.938  1.00  0.00     0.205 A 
ATOM     19  C   UNL     1       0.317  52.238  60.721  1.00  0.00     0.097 A 
ATOM     20  C   UNL     1       1.246  54.718  59.815  1.00  0.00     0.188 A 
ATOM     21  C   UNL     1       0.383  53.317  61.613  1.00  0.00     0.134 A 
ATOM     22  C   UNL     1       0.845  54.573  61.163  1.00  0.00     0.111 A 
ATOM     23  O   UNL     1       1.687  55.890  59.367  1.00  0.00    -0.452 OA
ATOM     24  C   UNL     1       0.936  55.705  61.999  1.00  0.00     0.197 A 
ATOM     25  C   UNL     1       1.777  56.979  60.125  1.00  0.00     0.138 A 
ATOM     26  C   UNL     1       1.405  56.911  61.478  1.00  0.00     0.100 A 
ATOM     27  O   UNL     1       0.607  55.653  63.215  1.00  0.00    -0.289 OA
BRANCH  18  28
ATOM     28  O   UNL     1       1.611  53.807  57.615  1.00  0.00    -0.490 OA
ATOM     29  C   UNL     1       0.708  54.185  56.584  1.00  0.00     0.278 C 
ENDBRANCH  18  28
BRANCH  21  30
ATOM     30  O   UNL     1      -0.015  53.133  62.938  1.00  0.00    -0.507 OA
ATOM     31  H   UNL     1       0.570  53.415  63.716  1.00  0.00     0.293 HD
ENDBRANCH  21  30
BRANCH  25  32
ATOM     32  C   UNL     1       2.287  58.232  59.514  1.00  0.00     0.017 A 
ATOM     33  C   UNL     1       1.574  58.827  58.457  1.00  0.00     0.012 A 
ATOM     34  C   UNL     1       3.455  58.867  59.985  1.00  0.00     0.012 A 
ATOM     35  C   UNL     1       2.029  60.012  57.870  1.00  0.00     0.001 A 
ATOM     36  C   UNL     1       3.905  60.052  59.395  1.00  0.00     0.001 A 
ATOM     37  C   UNL     1       3.194  60.622  58.337  1.00  0.00     0.000 A 
ENDBRANCH  25  32
ENDBRANCH   1  17
TORSDOF 9
ENDMDL
