MODEL 1
REMARK VINA RESULT:    -4.874      0.000      0.000
REMARK INTER + INTRA:         -10.835
REMARK INTER:                  -8.863
REMARK INTRA:                  -1.972
REMARK UNBOUND:                -1.972
REMARK SMILES CCCCCCCCCCCCCC[C@H](C)C(=O)[O-]
REMARK SMILES IDX 9 1 10 2 11 3 12 4 13 5 14 6 15 7 16 8 17 9 18 10 19 11 8 12
REMARK SMILES IDX 7 13 6 14 5 15 4 16 3 17 2 18 1 19
REMARK H PARENT
REMARK Flexibility Score: inf
ROOT
ATOM      1  C   UNL     1     101.660  88.001  89.169  1.00  0.00     0.000 C 
ENDROOT
BRANCH   1   2
ATOM      2  C   UNL     1     101.186  88.346  87.747  1.00  0.00     0.000 C 
BRANCH   2   3
ATOM      3  C   UNL     1      99.807  87.747  87.424  1.00  0.00     0.000 C 
BRANCH   3   4
ATOM      4  C   UNL     1      98.906  88.715  86.642  1.00  0.00     0.000 C 
BRANCH   4   5
ATOM      5  C   UNL     1      99.696  89.436  85.543  1.00  0.00     0.001 C 
BRANCH   5   6
ATOM      6  C   UNL     1      99.129  90.844  85.291  1.00  0.00     0.009 C 
BRANCH   6   7
ATOM      7  C   UNL     1      99.937  91.984  85.951  1.00  0.00     0.032 C 
ATOM      8  C   UNL     1     101.423  91.638  86.122  1.00  0.00     0.014 C 
BRANCH   7   9
ATOM      9  C   UNL     1      99.311  92.433  87.246  1.00  0.00     0.044 C 
ATOM     10  O   UNL     1     100.025  92.784  88.223  1.00  0.00    -0.550 OA
ATOM     11  O   UNL     1      97.929  92.410  87.385  1.00  0.00    -0.550 OA
ENDBRANCH   7   9
ENDBRANCH   6   7
ENDBRANCH   5   6
ENDBRANCH   4   5
ENDBRANCH   3   4
ENDBRANCH   2   3
ENDBRANCH   1   2
BRANCH   1  12
ATOM     12  C   UNL     1     100.759  86.964  89.858  1.00  0.00     0.000 C 
BRANCH  12  13
ATOM     13  C   UNL     1     100.949  86.933  91.385  1.00  0.00    -0.000 C 
BRANCH  13  14
ATOM     14  C   UNL     1     101.851  88.072  91.890  1.00  0.00    -0.000 C 
BRANCH  14  15
ATOM     15  C   UNL     1     101.067  89.146  92.663  1.00  0.00    -0.000 C 
BRANCH  15  16
ATOM     16  C   UNL     1      99.545  88.959  92.555  1.00  0.00    -0.000 C 
BRANCH  16  17
ATOM     17  C   UNL     1      98.780  90.292  92.563  1.00  0.00    -0.000 C 
BRANCH  17  18
ATOM     18  C   UNL     1      97.952  90.455  91.283  1.00  0.00    -0.003 C 
ATOM     19  C   UNL     1      98.796  90.188  90.041  1.00  0.00     0.004 C 
ENDBRANCH  17  18
ENDBRANCH  16  17
ENDBRANCH  15  16
ENDBRANCH  14  15
ENDBRANCH  13  14
ENDBRANCH  12  13
ENDBRANCH   1  12
TORSDOF 14
ENDMDL
MODEL 2
REMARK VINA RESULT:    -4.661      2.450      6.427
REMARK INTER + INTRA:         -10.448
REMARK INTER:                  -8.313
REMARK INTRA:                  -2.135
REMARK UNBOUND:                -1.972
REMARK SMILES CCCCCCCCCCCCCC[C@H](C)C(=O)[O-]
REMARK SMILES IDX 9 1 10 2 11 3 12 4 13 5 14 6 15 7 16 8 17 9 18 10 19 11 8 12
REMARK SMILES IDX 7 13 6 14 5 15 4 16 3 17 2 18 1 19
REMARK H PARENT
REMARK Flexibility Score: inf
ROOT
ATOM      1  C   UNL     1      99.139  92.819  87.747  1.00  0.00     0.000 C 
ENDROOT
BRANCH   1   2
ATOM      2  C   UNL     1      99.722  92.210  89.034  1.00  0.00     0.000 C 
BRANCH   2   3
ATOM      3  C   UNL     1      99.089  90.853  89.383  1.00  0.00     0.000 C 
BRANCH   3   4
ATOM      4  C   UNL     1      98.482  90.825  90.794  1.00  0.00     0.000 C 
BRANCH   4   5
ATOM      5  C   UNL     1      99.089  89.693  91.631  1.00  0.00     0.001 C 
BRANCH   5   6
ATOM      6  C   UNL     1     100.211  88.977  90.858  1.00  0.00     0.009 C 
BRANCH   6   7
ATOM      7  C   UNL     1     100.922  87.861  91.654  1.00  0.00     0.032 C 
ATOM      8  C   UNL     1     100.998  88.158  93.158  1.00  0.00     0.014 C 
BRANCH   7   9
ATOM      9  C   UNL     1     102.276  87.541  91.075  1.00  0.00     0.044 C 
ATOM     10  O   UNL     1     103.215  87.135  91.810  1.00  0.00    -0.550 OA
ATOM     11  O   UNL     1     102.510  87.746  89.721  1.00  0.00    -0.550 OA
ENDBRANCH   7   9
ENDBRANCH   6   7
ENDBRANCH   5   6
ENDBRANCH   4   5
ENDBRANCH   3   4
ENDBRANCH   2   3
ENDBRANCH   1   2
BRANCH   1  12
ATOM     12  C   UNL     1      97.799  92.181  87.345  1.00  0.00     0.000 C 
BRANCH  12  13
ATOM     13  C   UNL     1      97.836  91.562  85.936  1.00  0.00    -0.000 C 
BRANCH  13  14
ATOM     14  C   UNL     1      99.181  91.790  85.226  1.00  0.00    -0.000 C 
BRANCH  14  15
ATOM     15  C   UNL     1      99.977  90.486  85.039  1.00  0.00    -0.000 C 
BRANCH  15  16
ATOM     16  C   UNL     1     101.188  90.392  85.982  1.00  0.00    -0.000 C 
BRANCH  16  17
ATOM     17  C   UNL     1     101.085  89.215  86.965  1.00  0.00    -0.000 C 
BRANCH  17  18
ATOM     18  C   UNL     1     100.185  88.109  86.402  1.00  0.00    -0.003 C 
ATOM     19  C   UNL     1      98.967  87.882  87.291  1.00  0.00     0.004 C 
ENDBRANCH  17  18
ENDBRANCH  16  17
ENDBRANCH  15  16
ENDBRANCH  14  15
ENDBRANCH  13  14
ENDBRANCH  12  13
ENDBRANCH   1  12
TORSDOF 14
ENDMDL
MODEL 3
REMARK VINA RESULT:    -4.408     10.322     12.204
REMARK INTER + INTRA:          -9.987
REMARK INTER:                  -8.033
REMARK INTRA:                  -1.954
REMARK UNBOUND:                -1.972
REMARK SMILES CCCCCCCCCCCCCC[C@H](C)C(=O)[O-]
REMARK SMILES IDX 9 1 10 2 11 3 12 4 13 5 14 6 15 7 16 8 17 9 18 10 19 11 8 12
REMARK SMILES IDX 7 13 6 14 5 15 4 16 3 17 2 18 1 19
REMARK H PARENT
REMARK Flexibility Score: inf
ROOT
ATOM      1  C   UNL     1     104.206  97.180  97.435  1.00  0.00     0.000 C 
ENDROOT
BRANCH   1   2
ATOM      2  C   UNL     1     105.422  97.239  96.493  1.00  0.00     0.000 C 
BRANCH   2   3
ATOM      3  C   UNL     1     105.060  97.769  95.096  1.00  0.00     0.000 C 
BRANCH   3   4
ATOM      4  C   UNL     1     103.632  98.332  95.026  1.00  0.00     0.000 C 
BRANCH   4   5
ATOM      5  C   UNL     1     103.644  99.809  94.614  1.00  0.00     0.001 C 
BRANCH   5   6
ATOM      6  C   UNL     1     102.291 100.476  94.921  1.00  0.00     0.009 C 
BRANCH   6   7
ATOM      7  C   UNL     1     101.676 100.074  96.280  1.00  0.00     0.032 C 
ATOM      8  C   UNL     1     100.141 100.024  96.246  1.00  0.00     0.014 C 
BRANCH   7   9
ATOM      9  C   UNL     1     102.185 100.942  97.401  1.00  0.00     0.044 C 
ATOM     10  O   UNL     1     101.865 102.158  97.475  1.00  0.00    -0.550 OA
ATOM     11  O   UNL     1     103.062 100.409  98.338  1.00  0.00    -0.550 OA
ENDBRANCH   7   9
ENDBRANCH   6   7
ENDBRANCH   5   6
ENDBRANCH   4   5
ENDBRANCH   3   4
ENDBRANCH   2   3
ENDBRANCH   1   2
BRANCH   1  12
ATOM     12  C   UNL     1     104.015  95.792  98.069  1.00  0.00     0.000 C 
BRANCH  12  13
ATOM     13  C   UNL     1     102.812  95.738  99.027  1.00  0.00    -0.000 C 
BRANCH  13  14
ATOM     14  C   UNL     1     102.326  97.137  99.442  1.00  0.00    -0.000 C 
BRANCH  14  15
ATOM     15  C   UNL     1     100.884  97.419  98.986  1.00  0.00    -0.000 C 
BRANCH  15  16
ATOM     16  C   UNL     1     100.538  96.725  97.658  1.00  0.00    -0.000 C 
BRANCH  16  17
ATOM     17  C   UNL     1      99.405  95.697  97.803  1.00  0.00    -0.000 C 
BRANCH  17  18
ATOM     18  C   UNL     1      98.859  95.286  96.431  1.00  0.00    -0.003 C 
ATOM     19  C   UNL     1      99.279  96.278  95.351  1.00  0.00     0.004 C 
ENDBRANCH  17  18
ENDBRANCH  16  17
ENDBRANCH  15  16
ENDBRANCH  14  15
ENDBRANCH  13  14
ENDBRANCH  12  13
ENDBRANCH   1  12
TORSDOF 14
ENDMDL
MODEL 4
REMARK VINA RESULT:    -4.377     10.183     12.344
REMARK INTER + INTRA:          -9.930
REMARK INTER:                  -7.677
REMARK INTRA:                  -2.253
REMARK UNBOUND:                -1.972
REMARK SMILES CCCCCCCCCCCCCC[C@H](C)C(=O)[O-]
REMARK SMILES IDX 9 1 10 2 11 3 12 4 13 5 14 6 15 7 16 8 17 9 18 10 19 11 8 12
REMARK SMILES IDX 7 13 6 14 5 15 4 16 3 17 2 18 1 19
REMARK H PARENT
REMARK Flexibility Score: inf
ROOT
ATOM      1  C   UNL     1     102.711  97.086  99.516  1.00  0.00     0.000 C 
ENDROOT
BRANCH   1   2
ATOM      2  C   UNL     1     102.885  95.667  98.945  1.00  0.00     0.000 C 
BRANCH   2   3
ATOM      3  C   UNL     1     104.142  95.536  98.070  1.00  0.00     0.000 C 
BRANCH   3   4
ATOM      4  C   UNL     1     104.669  96.892  97.577  1.00  0.00     0.000 C 
BRANCH   4   5
ATOM      5  C   UNL     1     104.975  96.851  96.075  1.00  0.00     0.001 C 
BRANCH   5   6
ATOM      6  C   UNL     1     104.574  98.174  95.397  1.00  0.00     0.009 C 
BRANCH   6   7
ATOM      7  C   UNL     1     105.322  99.416  95.929  1.00  0.00     0.032 C 
ATOM      8  C   UNL     1     104.374 100.560  96.318  1.00  0.00     0.014 C 
BRANCH   7   9
ATOM      9  C   UNL     1     106.392  99.873  94.973  1.00  0.00     0.044 C 
ATOM     10  O   UNL     1     107.596  99.537  95.137  1.00  0.00    -0.550 OA
ATOM     11  O   UNL     1     106.059 100.721  93.923  1.00  0.00    -0.550 OA
ENDBRANCH   7   9
ENDBRANCH   6   7
ENDBRANCH   5   6
ENDBRANCH   4   5
ENDBRANCH   3   4
ENDBRANCH   2   3
ENDBRANCH   1   2
BRANCH   1  12
ATOM     12  C   UNL     1     101.392  97.743  99.074  1.00  0.00     0.000 C 
BRANCH  12  13
ATOM     13  C   UNL     1     101.607  98.881  98.061  1.00  0.00    -0.000 C 
BRANCH  13  14
ATOM     14  C   UNL     1     100.787  98.687  96.774  1.00  0.00    -0.000 C 
BRANCH  14  15
ATOM     15  C   UNL     1     100.790  97.228  96.288  1.00  0.00    -0.000 C 
BRANCH  15  16
ATOM     16  C   UNL     1      99.417  96.777  95.763  1.00  0.00    -0.000 C 
BRANCH  16  17
ATOM     17  C   UNL     1      98.511  96.219  96.872  1.00  0.00    -0.000 C 
BRANCH  17  18
ATOM     18  C   UNL     1      99.232  95.126  97.669  1.00  0.00    -0.003 C 
ATOM     19  C   UNL     1      98.669  93.746  97.348  1.00  0.00     0.004 C 
ENDBRANCH  17  18
ENDBRANCH  16  17
ENDBRANCH  15  16
ENDBRANCH  14  15
ENDBRANCH  13  14
ENDBRANCH  12  13
ENDBRANCH   1  12
TORSDOF 14
ENDMDL
MODEL 5
REMARK VINA RESULT:    -4.318      1.342      2.867
REMARK INTER + INTRA:          -9.823
REMARK INTER:                  -7.717
REMARK INTRA:                  -2.106
REMARK UNBOUND:                -1.972
REMARK SMILES CCCCCCCCCCCCCC[C@H](C)C(=O)[O-]
REMARK SMILES IDX 9 1 10 2 11 3 12 4 13 5 14 6 15 7 16 8 17 9 18 10 19 11 8 12
REMARK SMILES IDX 7 13 6 14 5 15 4 16 3 17 2 18 1 19
REMARK H PARENT
REMARK Flexibility Score: inf
ROOT
ATOM      1  C   UNL     1     101.911  87.346  91.778  1.00  0.00     0.000 C 
ENDROOT
BRANCH   1   2
ATOM      2  C   UNL     1     102.270  87.591  90.302  1.00  0.00     0.000 C 
BRANCH   2   3
ATOM      3  C   UNL     1     101.029  87.650  89.396  1.00  0.00     0.000 C 
BRANCH   3   4
ATOM      4  C   UNL     1     101.279  88.427  88.094  1.00  0.00     0.000 C 
BRANCH   4   5
ATOM      5  C   UNL     1     100.367  87.923  86.969  1.00  0.00     0.001 C 
BRANCH   5   6
ATOM      6  C   UNL     1      99.298  88.973  86.617  1.00  0.00     0.009 C 
BRANCH   6   7
ATOM      7  C   UNL     1      99.700  89.933  85.475  1.00  0.00     0.032 C 
ATOM      8  C   UNL     1     101.078  90.575  85.694  1.00  0.00     0.014 C 
BRANCH   7   9
ATOM      9  C   UNL     1      98.634  90.965  85.215  1.00  0.00     0.044 C 
ATOM     10  O   UNL     1      97.414  90.653  85.221  1.00  0.00    -0.550 OA
ATOM     11  O   UNL     1      99.002  92.271  84.911  1.00  0.00    -0.550 OA
ENDBRANCH   7   9
ENDBRANCH   6   7
ENDBRANCH   5   6
ENDBRANCH   4   5
ENDBRANCH   3   4
ENDBRANCH   2   3
ENDBRANCH   1   2
BRANCH   1  12
ATOM     12  C   UNL     1     100.450  87.703  92.099  1.00  0.00     0.000 C 
BRANCH  12  13
ATOM     13  C   UNL     1     100.317  89.037  92.855  1.00  0.00    -0.000 C 
BRANCH  13  14
ATOM     14  C   UNL     1      99.862  90.189  91.944  1.00  0.00    -0.000 C 
BRANCH  14  15
ATOM     15  C   UNL     1      98.534  89.886  91.230  1.00  0.00    -0.000 C 
BRANCH  15  16
ATOM     16  C   UNL     1      98.395  90.639  89.896  1.00  0.00    -0.000 C 
BRANCH  16  17
ATOM     17  C   UNL     1      99.687  91.362  89.486  1.00  0.00    -0.000 C 
BRANCH  17  18
ATOM     18  C   UNL     1      99.397  92.460  88.455  1.00  0.00    -0.003 C 
ATOM     19  C   UNL     1      97.903  92.750  88.365  1.00  0.00     0.004 C 
ENDBRANCH  17  18
ENDBRANCH  16  17
ENDBRANCH  15  16
ENDBRANCH  14  15
ENDBRANCH  13  14
ENDBRANCH  12  13
ENDBRANCH   1  12
TORSDOF 14
ENDMDL
MODEL 6
REMARK VINA RESULT:    -4.301     11.186     12.609
REMARK INTER + INTRA:          -9.794
REMARK INTER:                  -8.160
REMARK INTRA:                  -1.634
REMARK UNBOUND:                -1.972
REMARK SMILES CCCCCCCCCCCCCC[C@H](C)C(=O)[O-]
REMARK SMILES IDX 9 1 10 2 11 3 12 4 13 5 14 6 15 7 16 8 17 9 18 10 19 11 8 12
REMARK SMILES IDX 7 13 6 14 5 15 4 16 3 17 2 18 1 19
REMARK H PARENT
REMARK Flexibility Score: inf
ROOT
ATOM      1  C   UNL     1     104.350  96.971  97.404  1.00  0.00     0.000 C 
ENDROOT
BRANCH   1   2
ATOM      2  C   UNL     1     105.382  96.743  96.286  1.00  0.00     0.000 C 
BRANCH   2   3
ATOM      3  C   UNL     1     105.095  97.593  95.037  1.00  0.00     0.000 C 
BRANCH   3   4
ATOM      4  C   UNL     1     103.854  98.485  95.198  1.00  0.00     0.000 C 
BRANCH   4   5
ATOM      5  C   UNL     1     104.194  99.954  94.922  1.00  0.00     0.001 C 
BRANCH   5   6
ATOM      6  C   UNL     1     105.035 100.548  96.066  1.00  0.00     0.009 C 
BRANCH   6   7
ATOM      7  C   UNL     1     106.516 100.801  95.704  1.00  0.00     0.032 C 
ATOM      8  C   UNL     1     106.786 100.690  94.196  1.00  0.00     0.014 C 
BRANCH   7   9
ATOM      9  C   UNL     1     107.442  99.926  96.507  1.00  0.00     0.044 C 
ATOM     10  O   UNL     1     107.071  99.418  97.599  1.00  0.00    -0.550 OA
ATOM     11  O   UNL     1     108.744  99.716  96.066  1.00  0.00    -0.550 OA
ENDBRANCH   7   9
ENDBRANCH   6   7
ENDBRANCH   5   6
ENDBRANCH   4   5
ENDBRANCH   3   4
ENDBRANCH   2   3
ENDBRANCH   1   2
BRANCH   1  12
ATOM     12  C   UNL     1     104.026  95.685  98.182  1.00  0.00     0.000 C 
BRANCH  12  13
ATOM     13  C   UNL     1     102.673  95.757  98.911  1.00  0.00    -0.000 C 
BRANCH  13  14
ATOM     14  C   UNL     1     102.306  97.190  99.333  1.00  0.00    -0.000 C 
BRANCH  14  15
ATOM     15  C   UNL     1     100.945  97.639  98.773  1.00  0.00    -0.000 C 
BRANCH  15  16
ATOM     16  C   UNL     1     100.677  97.090  97.361  1.00  0.00    -0.000 C 
BRANCH  16  17
ATOM     17  C   UNL     1      99.300  96.419  97.236  1.00  0.00    -0.000 C 
BRANCH  17  18
ATOM     18  C   UNL     1      99.360  94.956  97.691  1.00  0.00    -0.003 C 
ATOM     19  C   UNL     1      97.967  94.415  97.992  1.00  0.00     0.004 C 
ENDBRANCH  17  18
ENDBRANCH  16  17
ENDBRANCH  15  16
ENDBRANCH  14  15
ENDBRANCH  13  14
ENDBRANCH  12  13
ENDBRANCH   1  12
TORSDOF 14
ENDMDL
MODEL 7
REMARK VINA RESULT:    -4.299     11.586     12.973
REMARK INTER + INTRA:          -9.790
REMARK INTER:                  -7.695
REMARK INTRA:                  -2.095
REMARK UNBOUND:                -1.972
REMARK SMILES CCCCCCCCCCCCCC[C@H](C)C(=O)[O-]
REMARK SMILES IDX 9 1 10 2 11 3 12 4 13 5 14 6 15 7 16 8 17 9 18 10 19 11 8 12
REMARK SMILES IDX 7 13 6 14 5 15 4 16 3 17 2 18 1 19
REMARK H PARENT
REMARK Flexibility Score: inf
ROOT
ATOM      1  C   UNL     1     102.967  96.036  98.987  1.00  0.00     0.000 C 
ENDROOT
BRANCH   1   2
ATOM      2  C   UNL     1     104.105  95.988  97.952  1.00  0.00     0.000 C 
BRANCH   2   3
ATOM      3  C   UNL     1     104.477  97.382  97.422  1.00  0.00     0.000 C 
BRANCH   3   4
ATOM      4  C   UNL     1     104.373  97.484  95.893  1.00  0.00     0.000 C 
BRANCH   4   5
ATOM      5  C   UNL     1     105.760  97.422  95.242  1.00  0.00     0.001 C 
BRANCH   5   6
ATOM      6  C   UNL     1     106.821  98.077  96.145  1.00  0.00     0.009 C 
BRANCH   6   7
ATOM      7  C   UNL     1     107.588  99.245  95.485  1.00  0.00     0.032 C 
ATOM      8  C   UNL     1     108.720  99.788  96.369  1.00  0.00     0.014 C 
BRANCH   7   9
ATOM      9  C   UNL     1     106.655 100.338  95.033  1.00  0.00     0.044 C 
ATOM     10  O   UNL     1     106.549 100.636  93.813  1.00  0.00    -0.550 OA
ATOM     11  O   UNL     1     105.938 101.064  95.977  1.00  0.00    -0.550 OA
ENDBRANCH   7   9
ENDBRANCH   6   7
ENDBRANCH   5   6
ENDBRANCH   4   5
ENDBRANCH   3   4
ENDBRANCH   2   3
ENDBRANCH   1   2
BRANCH   1  12
ATOM     12  C   UNL     1     102.430  97.459  99.211  1.00  0.00     0.000 C 
BRANCH  12  13
ATOM     13  C   UNL     1     100.955  97.608  98.798  1.00  0.00    -0.000 C 
BRANCH  13  14
ATOM     14  C   UNL     1     100.634  96.878  97.482  1.00  0.00    -0.000 C 
BRANCH  14  15
ATOM     15  C   UNL     1     100.676  97.816  96.263  1.00  0.00    -0.000 C 
BRANCH  15  16
ATOM     16  C   UNL     1     100.438  99.287  96.641  1.00  0.00    -0.000 C 
BRANCH  16  17
ATOM     17  C   UNL     1     100.857 100.261  95.529  1.00  0.00    -0.000 C 
BRANCH  17  18
ATOM     18  C   UNL     1     102.370 100.509  95.559  1.00  0.00    -0.003 C 
ATOM     19  C   UNL     1     102.985 100.333  94.174  1.00  0.00     0.004 C 
ENDBRANCH  17  18
ENDBRANCH  16  17
ENDBRANCH  15  16
ENDBRANCH  14  15
ENDBRANCH  13  14
ENDBRANCH  12  13
ENDBRANCH   1  12
TORSDOF 14
ENDMDL
MODEL 8
REMARK VINA RESULT:    -4.268     10.314     12.344
REMARK INTER + INTRA:          -9.733
REMARK INTER:                  -7.584
REMARK INTRA:                  -2.149
REMARK UNBOUND:                -1.972
REMARK SMILES CCCCCCCCCCCCCC[C@H](C)C(=O)[O-]
REMARK SMILES IDX 9 1 10 2 11 3 12 4 13 5 14 6 15 7 16 8 17 9 18 10 19 11 8 12
REMARK SMILES IDX 7 13 6 14 5 15 4 16 3 17 2 18 1 19
REMARK H PARENT
REMARK Flexibility Score: inf
ROOT
ATOM      1  C   UNL     1     103.795  95.800  98.173  1.00  0.00     0.000 C 
ENDROOT
BRANCH   1   2
ATOM      2  C   UNL     1     102.400  95.998  98.794  1.00  0.00     0.000 C 
BRANCH   2   3
ATOM      3  C   UNL     1     102.008  97.481  98.899  1.00  0.00     0.000 C 
BRANCH   3   4
ATOM      4  C   UNL     1     100.716  97.810  98.136  1.00  0.00     0.000 C 
BRANCH   4   5
ATOM      5  C   UNL     1     100.656  97.053  96.804  1.00  0.00     0.001 C 
BRANCH   5   6
ATOM      6  C   UNL     1      99.295  96.356  96.629  1.00  0.00     0.009 C 
BRANCH   6   7
ATOM      7  C   UNL     1      98.844  95.521  97.847  1.00  0.00     0.032 C 
ATOM      8  C   UNL     1      98.920  94.008  97.593  1.00  0.00     0.014 C 
BRANCH   7   9
ATOM      9  C   UNL     1      97.484  95.941  98.338  1.00  0.00     0.044 C 
ATOM     10  O   UNL     1      97.348  96.934  99.103  1.00  0.00    -0.550 OA
ATOM     11  O   UNL     1      96.366  95.194  97.987  1.00  0.00    -0.550 OA
ENDBRANCH   7   9
ENDBRANCH   6   7
ENDBRANCH   5   6
ENDBRANCH   4   5
ENDBRANCH   3   4
ENDBRANCH   2   3
ENDBRANCH   1   2
BRANCH   1  12
ATOM     12  C   UNL     1     104.373  97.100  97.590  1.00  0.00     0.000 C 
BRANCH  12  13
ATOM     13  C   UNL     1     105.112  96.875  96.259  1.00  0.00    -0.000 C 
BRANCH  13  14
ATOM     14  C   UNL     1     104.993  98.078  95.308  1.00  0.00    -0.000 C 
BRANCH  14  15
ATOM     15  C   UNL     1     103.532  98.497  95.068  1.00  0.00    -0.000 C 
BRANCH  15  16
ATOM     16  C   UNL     1     103.247  99.936  95.528  1.00  0.00    -0.000 C 
BRANCH  16  17
ATOM     17  C   UNL     1     101.965 100.515  94.909  1.00  0.00    -0.000 C 
BRANCH  17  18
ATOM     18  C   UNL     1     100.905 100.772  95.986  1.00  0.00    -0.003 C 
ATOM     19  C   UNL     1      99.531 100.284  95.536  1.00  0.00     0.004 C 
ENDBRANCH  17  18
ENDBRANCH  16  17
ENDBRANCH  15  16
ENDBRANCH  14  15
ENDBRANCH  13  14
ENDBRANCH  12  13
ENDBRANCH   1  12
TORSDOF 14
ENDMDL
MODEL 9
REMARK VINA RESULT:    -4.195      9.945     12.103
REMARK INTER + INTRA:          -9.600
REMARK INTER:                  -7.622
REMARK INTRA:                  -1.978
REMARK UNBOUND:                -1.972
REMARK SMILES CCCCCCCCCCCCCC[C@H](C)C(=O)[O-]
REMARK SMILES IDX 9 1 10 2 11 3 12 4 13 5 14 6 15 7 16 8 17 9 18 10 19 11 8 12
REMARK SMILES IDX 7 13 6 14 5 15 4 16 3 17 2 18 1 19
REMARK H PARENT
REMARK Flexibility Score: inf
ROOT
ATOM      1  C   UNL     1     100.859  96.558  97.604  1.00  0.00     0.000 C 
ENDROOT
BRANCH   1   2
ATOM      2  C   UNL     1     101.309  97.352  98.843  1.00  0.00     0.000 C 
BRANCH   2   3
ATOM      3  C   UNL     1     102.759  97.039  99.248  1.00  0.00     0.000 C 
BRANCH   3   4
ATOM      4  C   UNL     1     103.209  95.637  98.809  1.00  0.00     0.000 C 
BRANCH   4   5
ATOM      5  C   UNL     1     104.374  95.721  97.815  1.00  0.00     0.001 C 
BRANCH   5   6
ATOM      6  C   UNL     1     104.687  97.185  97.456  1.00  0.00     0.009 C 
BRANCH   6   7
ATOM      7  C   UNL     1     104.962  97.429  95.956  1.00  0.00     0.032 C 
ATOM      8  C   UNL     1     106.430  97.778  95.669  1.00  0.00     0.014 C 
BRANCH   7   9
ATOM      9  C   UNL     1     104.018  98.449  95.375  1.00  0.00     0.044 C 
ATOM     10  O   UNL     1     102.777  98.237  95.339  1.00  0.00    -0.550 OA
ATOM     11  O   UNL     1     104.526  99.618  94.822  1.00  0.00    -0.550 OA
ENDBRANCH   7   9
ENDBRANCH   6   7
ENDBRANCH   5   6
ENDBRANCH   4   5
ENDBRANCH   3   4
ENDBRANCH   2   3
ENDBRANCH   1   2
BRANCH   1  12
ATOM     12  C   UNL     1      99.658  95.642  97.893  1.00  0.00     0.000 C 
BRANCH  12  13
ATOM     13  C   UNL     1      98.811  95.362  96.639  1.00  0.00    -0.000 C 
BRANCH  13  14
ATOM     14  C   UNL     1      99.238  96.218  95.435  1.00  0.00    -0.000 C 
BRANCH  14  15
ATOM     15  C   UNL     1      98.234  97.341  95.125  1.00  0.00    -0.000 C 
BRANCH  15  16
ATOM     16  C   UNL     1      98.722  98.719  95.603  1.00  0.00    -0.000 C 
BRANCH  16  17
ATOM     17  C   UNL     1      97.744  99.388  96.581  1.00  0.00    -0.000 C 
BRANCH  17  18
ATOM     18  C   UNL     1      98.193  99.181  98.033  1.00  0.00    -0.003 C 
ATOM     19  C   UNL     1      97.250  98.238  98.772  1.00  0.00     0.004 C 
ENDBRANCH  17  18
ENDBRANCH  16  17
ENDBRANCH  15  16
ENDBRANCH  14  15
ENDBRANCH  13  14
ENDBRANCH  12  13
ENDBRANCH   1  12
TORSDOF 14
ENDMDL
