MODEL 1
REMARK VINA RESULT:    -3.793      0.000      0.000
REMARK INTER + INTRA:          -4.491
REMARK INTER:                  -4.459
REMARK INTRA:                  -0.033
REMARK UNBOUND:                -0.033
REMARK SMILES CCCCC(=O)[O-]
REMARK SMILES IDX 4 1 5 2 6 3 7 4 3 5 2 6 1 7
REMARK H PARENT
REMARK Flexibility Score: inf
ROOT
ATOM      1  C   UNL     1      14.346  34.947  13.063  1.00  0.00     0.053 C 
ENDROOT
BRANCH   1   2
ATOM      2  C   UNL     1      13.687  36.217  12.618  1.00  0.00     0.041 C 
ATOM      3  O   UNL     1      12.797  36.753  13.331  1.00  0.00    -0.550 OA
ATOM      4  O   UNL     1      14.080  36.826  11.433  1.00  0.00    -0.550 OA
ENDBRANCH   1   2
BRANCH   1   5
ATOM      5  C   UNL     1      13.325  33.921  13.579  1.00  0.00     0.006 C 
BRANCH   5   6
ATOM      6  C   UNL     1      13.269  32.620  12.757  1.00  0.00    -0.003 C 
ATOM      7  C   UNL     1      14.650  32.024  12.495  1.00  0.00     0.004 C 
ENDBRANCH   5   6
ENDBRANCH   1   5
TORSDOF 3
ENDMDL
MODEL 2
REMARK VINA RESULT:    -3.687      1.386      2.048
REMARK INTER + INTRA:          -4.366
REMARK INTER:                  -4.260
REMARK INTRA:                  -0.106
REMARK UNBOUND:                -0.033
REMARK SMILES CCCCC(=O)[O-]
REMARK SMILES IDX 4 1 5 2 6 3 7 4 3 5 2 6 1 7
REMARK H PARENT
REMARK Flexibility Score: inf
ROOT
ATOM      1  C   UNL     1      13.240  33.506  13.270  1.00  0.00     0.053 C 
ENDROOT
BRANCH   1   2
ATOM      2  C   UNL     1      13.910  34.845  13.277  1.00  0.00     0.041 C 
ATOM      3  O   UNL     1      15.166  34.925  13.324  1.00  0.00    -0.550 OA
ATOM      4  O   UNL     1      13.149  36.004  13.197  1.00  0.00    -0.550 OA
ENDBRANCH   1   2
BRANCH   1   5
ATOM      5  C   UNL     1      13.882  32.547  12.255  1.00  0.00     0.006 C 
BRANCH   5   6
ATOM      6  C   UNL     1      14.640  31.368  12.893  1.00  0.00    -0.003 C 
ATOM      7  C   UNL     1      16.156  31.551  12.862  1.00  0.00     0.004 C 
ENDBRANCH   5   6
ENDBRANCH   1   5
TORSDOF 3
ENDMDL
MODEL 3
REMARK VINA RESULT:    -3.686     13.791     14.706
REMARK INTER + INTRA:          -4.365
REMARK INTER:                  -4.344
REMARK INTRA:                  -0.021
REMARK UNBOUND:                -0.033
REMARK SMILES CCCCC(=O)[O-]
REMARK SMILES IDX 4 1 5 2 6 3 7 4 3 5 2 6 1 7
REMARK H PARENT
REMARK Flexibility Score: inf
ROOT
ATOM      1  C   UNL     1       4.193  46.053  10.690  1.00  0.00     0.053 C 
ENDROOT
BRANCH   1   2
ATOM      2  C   UNL     1       4.289  44.624  11.127  1.00  0.00     0.041 C 
ATOM      3  O   UNL     1       4.469  44.343  12.341  1.00  0.00    -0.550 OA
ATOM      4  O   UNL     1       4.147  43.602  10.197  1.00  0.00    -0.550 OA
ENDBRANCH   1   2
BRANCH   1   5
ATOM      5  C   UNL     1       4.885  46.289   9.338  1.00  0.00     0.006 C 
BRANCH   5   6
ATOM      6  C   UNL     1       5.599  47.649   9.225  1.00  0.00    -0.003 C 
ATOM      7  C   UNL     1       7.117  47.533   9.350  1.00  0.00     0.004 C 
ENDBRANCH   5   6
ENDBRANCH   1   5
TORSDOF 3
ENDMDL
MODEL 4
REMARK VINA RESULT:    -3.677     10.883     12.296
REMARK INTER + INTRA:          -4.355
REMARK INTER:                  -4.336
REMARK INTRA:                  -0.018
REMARK UNBOUND:                -0.033
REMARK SMILES CCCCC(=O)[O-]
REMARK SMILES IDX 4 1 5 2 6 3 7 4 3 5 2 6 1 7
REMARK H PARENT
REMARK Flexibility Score: inf
ROOT
ATOM      1  C   UNL     1       3.046  40.470  12.198  1.00  0.00     0.053 C 
ENDROOT
BRANCH   1   2
ATOM      2  C   UNL     1       3.731  39.211  12.634  1.00  0.00     0.041 C 
ATOM      3  O   UNL     1       3.287  38.090  12.272  1.00  0.00    -0.550 OA
ATOM      4  O   UNL     1       4.879  39.279  13.414  1.00  0.00    -0.550 OA
ENDBRANCH   1   2
BRANCH   1   5
ATOM      5  C   UNL     1       4.050  41.566  11.809  1.00  0.00     0.006 C 
BRANCH   5   6
ATOM      6  C   UNL     1       3.432  42.971  11.684  1.00  0.00    -0.003 C 
ATOM      7  C   UNL     1       4.384  44.079  12.130  1.00  0.00     0.004 C 
ENDBRANCH   5   6
ENDBRANCH   1   5
TORSDOF 3
ENDMDL
MODEL 5
REMARK VINA RESULT:    -3.623      1.719      2.148
REMARK INTER + INTRA:          -4.290
REMARK INTER:                  -4.258
REMARK INTRA:                  -0.033
REMARK UNBOUND:                -0.033
REMARK SMILES CCCCC(=O)[O-]
REMARK SMILES IDX 4 1 5 2 6 3 7 4 3 5 2 6 1 7
REMARK H PARENT
REMARK Flexibility Score: inf
ROOT
ATOM      1  C   UNL     1      13.386  33.836  13.335  1.00  0.00     0.053 C 
ENDROOT
BRANCH   1   2
ATOM      2  C   UNL     1      14.351  34.965  13.144  1.00  0.00     0.041 C 
ATOM      3  O   UNL     1      13.967  36.047  12.626  1.00  0.00    -0.550 OA
ATOM      4  O   UNL     1      15.667  34.835  13.570  1.00  0.00    -0.550 OA
ENDBRANCH   1   2
BRANCH   1   5
ATOM      5  C   UNL     1      13.840  32.563  12.604  1.00  0.00     0.006 C 
BRANCH   5   6
ATOM      6  C   UNL     1      13.621  31.265  13.403  1.00  0.00    -0.003 C 
ATOM      7  C   UNL     1      12.286  31.244  14.145  1.00  0.00     0.004 C 
ENDBRANCH   5   6
ENDBRANCH   1   5
TORSDOF 3
ENDMDL
MODEL 6
REMARK VINA RESULT:    -3.616      3.186      4.235
REMARK INTER + INTRA:          -4.283
REMARK INTER:                  -4.267
REMARK INTRA:                  -0.016
REMARK UNBOUND:                -0.033
REMARK SMILES CCCCC(=O)[O-]
REMARK SMILES IDX 4 1 5 2 6 3 7 4 3 5 2 6 1 7
REMARK H PARENT
REMARK Flexibility Score: inf
ROOT
ATOM      1  C   UNL     1      13.337  33.066  12.620  1.00  0.00     0.053 C 
ENDROOT
BRANCH   1   2
ATOM      2  C   UNL     1      13.350  31.772  13.373  1.00  0.00     0.041 C 
ATOM      3  O   UNL     1      12.377  31.458  14.109  1.00  0.00    -0.550 OA
ATOM      4  O   UNL     1      14.422  30.899  13.237  1.00  0.00    -0.550 OA
ENDBRANCH   1   2
BRANCH   1   5
ATOM      5  C   UNL     1      13.449  34.278  13.558  1.00  0.00     0.006 C 
BRANCH   5   6
ATOM      6  C   UNL     1      14.150  35.498  12.930  1.00  0.00    -0.003 C 
ATOM      7  C   UNL     1      13.205  36.679  12.716  1.00  0.00     0.004 C 
ENDBRANCH   5   6
ENDBRANCH   1   5
TORSDOF 3
ENDMDL
MODEL 7
REMARK VINA RESULT:    -3.615     13.637     14.886
REMARK INTER + INTRA:          -4.282
REMARK INTER:                  -4.254
REMARK INTRA:                  -0.028
REMARK UNBOUND:                -0.033
REMARK SMILES CCCCC(=O)[O-]
REMARK SMILES IDX 4 1 5 2 6 3 7 4 3 5 2 6 1 7
REMARK H PARENT
REMARK Flexibility Score: inf
ROOT
ATOM      1  C   UNL     1       4.783  46.677   9.209  1.00  0.00     0.053 C 
ENDROOT
BRANCH   1   2
ATOM      2  C   UNL     1       5.917  47.654   9.140  1.00  0.00     0.041 C 
ATOM      3  O   UNL     1       7.068  47.316   9.524  1.00  0.00    -0.550 OA
ATOM      4  O   UNL     1       5.709  48.925   8.619  1.00  0.00    -0.550 OA
ENDBRANCH   1   2
BRANCH   1   5
ATOM      5  C   UNL     1       4.519  46.205  10.647  1.00  0.00     0.006 C 
BRANCH   5   6
ATOM      6  C   UNL     1       4.193  44.704  10.767  1.00  0.00    -0.003 C 
ATOM      7  C   UNL     1       4.446  44.153  12.169  1.00  0.00     0.004 C 
ENDBRANCH   5   6
ENDBRANCH   1   5
TORSDOF 3
ENDMDL
MODEL 8
REMARK VINA RESULT:    -3.589     13.751     14.676
REMARK INTER + INTRA:          -4.251
REMARK INTER:                  -4.222
REMARK INTRA:                  -0.029
REMARK UNBOUND:                -0.033
REMARK SMILES CCCCC(=O)[O-]
REMARK SMILES IDX 4 1 5 2 6 3 7 4 3 5 2 6 1 7
REMARK H PARENT
REMARK Flexibility Score: inf
ROOT
ATOM      1  C   UNL     1       4.695  46.294  10.270  1.00  0.00     0.053 C 
ENDROOT
BRANCH   1   2
ATOM      2  C   UNL     1       5.279  47.174   9.208  1.00  0.00     0.041 C 
ATOM      3  O   UNL     1       4.524  47.780   8.402  1.00  0.00    -0.550 OA
ATOM      4  O   UNL     1       6.654  47.349   9.128  1.00  0.00    -0.550 OA
ENDBRANCH   1   2
BRANCH   1   5
ATOM      5  C   UNL     1       4.078  45.015   9.683  1.00  0.00     0.006 C 
BRANCH   5   6
ATOM      6  C   UNL     1       4.090  43.811  10.643  1.00  0.00    -0.003 C 
ATOM      7  C   UNL     1       4.455  44.198  12.075  1.00  0.00     0.004 C 
ENDBRANCH   5   6
ENDBRANCH   1   5
TORSDOF 3
ENDMDL
MODEL 9
REMARK VINA RESULT:    -3.473     13.122     13.996
REMARK INTER + INTRA:          -4.115
REMARK INTER:                  -4.021
REMARK INTRA:                  -0.093
REMARK UNBOUND:                -0.033
REMARK SMILES CCCCC(=O)[O-]
REMARK SMILES IDX 4 1 5 2 6 3 7 4 3 5 2 6 1 7
REMARK H PARENT
REMARK Flexibility Score: inf
ROOT
ATOM      1  C   UNL     1       2.979  43.552  11.841  1.00  0.00     0.053 C 
ENDROOT
BRANCH   1   2
ATOM      2  C   UNL     1       2.978  42.225  11.146  1.00  0.00     0.041 C 
ATOM      3  O   UNL     1       2.648  42.145   9.933  1.00  0.00    -0.550 OA
ATOM      4  O   UNL     1       3.372  41.082  11.829  1.00  0.00    -0.550 OA
ENDBRANCH   1   2
BRANCH   1   5
ATOM      5  C   UNL     1       4.358  44.228  11.785  1.00  0.00     0.006 C 
BRANCH   5   6
ATOM      6  C   UNL     1       4.376  45.557  11.007  1.00  0.00    -0.003 C 
ATOM      7  C   UNL     1       4.139  45.372   9.510  1.00  0.00     0.004 C 
ENDBRANCH   5   6
ENDBRANCH   1   5
TORSDOF 3
ENDMDL
