MODEL 1
REMARK VINA RESULT:    -4.619      0.000      0.000
REMARK INTER + INTRA:          -9.422
REMARK INTER:                  -8.399
REMARK INTRA:                  -1.023
REMARK UNBOUND:                -1.023
REMARK SMILES CCCCCCCCCCCCCC[C@H](C)C(=O)[O-]
REMARK SMILES IDX 9 1 10 2 11 3 12 4 13 5 14 6 15 7 16 8 17 9 18 10 19 11 8 12
REMARK SMILES IDX 7 13 6 14 5 15 4 16 3 17 2 18 1 19
REMARK H PARENT
REMARK Flexibility Score: inf
ROOT
ATOM      1  C   UNL     1       7.246   5.344   1.075  1.00  0.00     0.000 C 
ENDROOT
BRANCH   1   2
ATOM      2  C   UNL     1       7.574   6.737   0.509  1.00  0.00     0.000 C 
BRANCH   2   3
ATOM      3  C   UNL     1       8.844   7.395   1.084  1.00  0.00     0.000 C 
BRANCH   3   4
ATOM      4  C   UNL     1       8.863   8.936   1.045  1.00  0.00     0.000 C 
BRANCH   4   5
ATOM      5  C   UNL     1       8.000   9.619   2.121  1.00  0.00     0.001 C 
BRANCH   5   6
ATOM      6  C   UNL     1       7.791   8.736   3.365  1.00  0.00     0.009 C 
BRANCH   6   7
ATOM      7  C   UNL     1       7.440   9.557   4.625  1.00  0.00     0.032 C 
ATOM      8  C   UNL     1       8.099   8.989   5.888  1.00  0.00     0.014 C 
BRANCH   7   9
ATOM      9  C   UNL     1       5.949   9.593   4.808  1.00  0.00     0.044 C 
ATOM     10  O   UNL     1       5.432   9.182   5.880  1.00  0.00    -0.550 OA
ATOM     11  O   UNL     1       5.129  10.081   3.796  1.00  0.00    -0.550 OA
ENDBRANCH   7   9
ENDBRANCH   6   7
ENDBRANCH   5   6
ENDBRANCH   4   5
ENDBRANCH   3   4
ENDBRANCH   2   3
ENDBRANCH   1   2
BRANCH   1  12
ATOM     12  C   UNL     1       8.425   4.363   0.963  1.00  0.00     0.000 C 
BRANCH  12  13
ATOM     13  C   UNL     1       8.171   3.249  -0.067  1.00  0.00    -0.000 C 
BRANCH  13  14
ATOM     14  C   UNL     1       6.685   3.111  -0.436  1.00  0.00    -0.000 C 
BRANCH  14  15
ATOM     15  C   UNL     1       6.088   1.835   0.170  1.00  0.00    -0.000 C 
BRANCH  15  16
ATOM     16  C   UNL     1       6.404   0.610  -0.701  1.00  0.00    -0.000 C 
BRANCH  16  17
ATOM     17  C   UNL     1       6.202   0.894  -2.205  1.00  0.00    -0.000 C 
BRANCH  17  18
ATOM     18  C   UNL     1       7.438   0.579  -3.063  1.00  0.00    -0.003 C 
ATOM     19  C   UNL     1       8.667   0.217  -2.232  1.00  0.00     0.004 C 
ENDBRANCH  17  18
ENDBRANCH  16  17
ENDBRANCH  15  16
ENDBRANCH  14  15
ENDBRANCH  13  14
ENDBRANCH  12  13
ENDBRANCH   1  12
TORSDOF 14
ENDMDL
MODEL 2
REMARK VINA RESULT:    -4.398      9.406     11.241
REMARK INTER + INTRA:          -9.021
REMARK INTER:                  -6.699
REMARK INTRA:                  -2.322
REMARK UNBOUND:                -1.023
REMARK SMILES CCCCCCCCCCCCCC[C@H](C)C(=O)[O-]
REMARK SMILES IDX 9 1 10 2 11 3 12 4 13 5 14 6 15 7 16 8 17 9 18 10 19 11 8 12
REMARK SMILES IDX 7 13 6 14 5 15 4 16 3 17 2 18 1 19
REMARK H PARENT
REMARK Flexibility Score: inf
ROOT
ATOM      1  C   UNL     1       2.741   5.027   9.857  1.00  0.00     0.000 C 
ENDROOT
BRANCH   1   2
ATOM      2  C   UNL     1       1.442   5.840  10.008  1.00  0.00     0.000 C 
BRANCH   2   3
ATOM      3  C   UNL     1       1.277   6.564  11.359  1.00  0.00     0.000 C 
BRANCH   3   4
ATOM      4  C   UNL     1       0.991   8.076  11.266  1.00  0.00     0.000 C 
BRANCH   4   5
ATOM      5  C   UNL     1       0.528   8.561   9.880  1.00  0.00     0.001 C 
BRANCH   5   6
ATOM      6  C   UNL     1       1.449   9.643   9.289  1.00  0.00     0.009 C 
BRANCH   6   7
ATOM      7  C   UNL     1       2.946   9.289   9.427  1.00  0.00     0.032 C 
ATOM      8  C   UNL     1       3.788  10.493   9.867  1.00  0.00     0.014 C 
BRANCH   7   9
ATOM      9  C   UNL     1       3.466   8.762   8.119  1.00  0.00     0.044 C 
ATOM     10  O   UNL     1       4.444   9.320   7.554  1.00  0.00    -0.550 OA
ATOM     11  O   UNL     1       2.872   7.655   7.522  1.00  0.00    -0.550 OA
ENDBRANCH   7   9
ENDBRANCH   6   7
ENDBRANCH   5   6
ENDBRANCH   4   5
ENDBRANCH   3   4
ENDBRANCH   2   3
ENDBRANCH   1   2
BRANCH   1  12
ATOM     12  C   UNL     1       3.964   5.739  10.459  1.00  0.00     0.000 C 
BRANCH  12  13
ATOM     13  C   UNL     1       4.753   4.841  11.425  1.00  0.00    -0.000 C 
BRANCH  13  14
ATOM     14  C   UNL     1       3.873   4.245  12.535  1.00  0.00    -0.000 C 
BRANCH  14  15
ATOM     15  C   UNL     1       3.971   2.715  12.549  1.00  0.00    -0.000 C 
BRANCH  15  16
ATOM     16  C   UNL     1       2.639   2.080  12.979  1.00  0.00    -0.000 C 
BRANCH  16  17
ATOM     17  C   UNL     1       1.425   2.955  12.599  1.00  0.00    -0.000 C 
BRANCH  17  18
ATOM     18  C   UNL     1       0.496   2.303  11.563  1.00  0.00    -0.003 C 
ATOM     19  C   UNL     1       1.230   1.844  10.305  1.00  0.00     0.004 C 
ENDBRANCH  17  18
ENDBRANCH  16  17
ENDBRANCH  15  16
ENDBRANCH  14  15
ENDBRANCH  13  14
ENDBRANCH  12  13
ENDBRANCH   1  12
TORSDOF 14
ENDMDL
MODEL 3
REMARK VINA RESULT:    -4.370      9.096     10.993
REMARK INTER + INTRA:          -8.970
REMARK INTER:                  -7.011
REMARK INTRA:                  -1.959
REMARK UNBOUND:                -1.023
REMARK SMILES CCCCCCCCCCCCCC[C@H](C)C(=O)[O-]
REMARK SMILES IDX 9 1 10 2 11 3 12 4 13 5 14 6 15 7 16 8 17 9 18 10 19 11 8 12
REMARK SMILES IDX 7 13 6 14 5 15 4 16 3 17 2 18 1 19
REMARK H PARENT
REMARK Flexibility Score: inf
ROOT
ATOM      1  C   UNL     1       2.706   5.549  10.547  1.00  0.00     0.000 C 
ENDROOT
BRANCH   1   2
ATOM      2  C   UNL     1       1.476   6.000   9.739  1.00  0.00     0.000 C 
BRANCH   2   3
ATOM      3  C   UNL     1       0.840   7.326  10.201  1.00  0.00     0.000 C 
BRANCH   3   4
ATOM      4  C   UNL     1       0.779   8.435   9.131  1.00  0.00     0.000 C 
BRANCH   4   5
ATOM      5  C   UNL     1       1.454   9.759   9.534  1.00  0.00     0.001 C 
BRANCH   5   6
ATOM      6  C   UNL     1       2.614  10.143   8.598  1.00  0.00     0.009 C 
BRANCH   6   7
ATOM      7  C   UNL     1       3.811   9.173   8.704  1.00  0.00     0.032 C 
ATOM      8  C   UNL     1       4.282   8.991  10.153  1.00  0.00     0.014 C 
BRANCH   7   9
ATOM      9  C   UNL     1       4.950   9.678   7.863  1.00  0.00     0.044 C 
ATOM     10  O   UNL     1       4.987   9.428   6.630  1.00  0.00    -0.550 OA
ATOM     11  O   UNL     1       5.972  10.424   8.441  1.00  0.00    -0.550 OA
ENDBRANCH   7   9
ENDBRANCH   6   7
ENDBRANCH   5   6
ENDBRANCH   4   5
ENDBRANCH   3   4
ENDBRANCH   2   3
ENDBRANCH   1   2
BRANCH   1  12
ATOM     12  C   UNL     1       2.417   5.421  12.052  1.00  0.00     0.000 C 
BRANCH  12  13
ATOM     13  C   UNL     1       3.501   4.621  12.795  1.00  0.00    -0.000 C 
BRANCH  13  14
ATOM     14  C   UNL     1       4.229   3.620  11.884  1.00  0.00    -0.000 C 
BRANCH  14  15
ATOM     15  C   UNL     1       4.187   2.208  12.480  1.00  0.00    -0.000 C 
BRANCH  15  16
ATOM     16  C   UNL     1       2.842   1.526  12.191  1.00  0.00    -0.000 C 
BRANCH  16  17
ATOM     17  C   UNL     1       2.376   1.745  10.735  1.00  0.00    -0.000 C 
BRANCH  17  18
ATOM     18  C   UNL     1       0.896   2.144  10.615  1.00  0.00    -0.003 C 
ATOM     19  C   UNL     1       0.143   2.055  11.941  1.00  0.00     0.004 C 
ENDBRANCH  17  18
ENDBRANCH  16  17
ENDBRANCH  15  16
ENDBRANCH  14  15
ENDBRANCH  13  14
ENDBRANCH  12  13
ENDBRANCH   1  12
TORSDOF 14
ENDMDL
MODEL 4
REMARK VINA RESULT:    -4.347      4.064      9.059
REMARK INTER + INTRA:          -8.927
REMARK INTER:                  -7.906
REMARK INTRA:                  -1.021
REMARK UNBOUND:                -1.023
REMARK SMILES CCCCCCCCCCCCCC[C@H](C)C(=O)[O-]
REMARK SMILES IDX 9 1 10 2 11 3 12 4 13 5 14 6 15 7 16 8 17 9 18 10 19 11 8 12
REMARK SMILES IDX 7 13 6 14 5 15 4 16 3 17 2 18 1 19
REMARK H PARENT
REMARK Flexibility Score: inf
ROOT
ATOM      1  C   UNL     1       7.934   7.431   0.155  1.00  0.00     0.000 C 
ENDROOT
BRANCH   1   2
ATOM      2  C   UNL     1       7.597   6.870   1.549  1.00  0.00     0.000 C 
BRANCH   2   3
ATOM      3  C   UNL     1       8.270   5.527   1.894  1.00  0.00     0.000 C 
BRANCH   3   4
ATOM      4  C   UNL     1       8.516   4.587   0.696  1.00  0.00     0.000 C 
BRANCH   4   5
ATOM      5  C   UNL     1       7.418   3.533   0.467  1.00  0.00     0.001 C 
BRANCH   5   6
ATOM      6  C   UNL     1       7.704   2.630  -0.747  1.00  0.00     0.009 C 
BRANCH   6   7
ATOM      7  C   UNL     1       6.456   1.848  -1.213  1.00  0.00     0.032 C 
ATOM      8  C   UNL     1       5.839   1.015  -0.083  1.00  0.00     0.014 C 
BRANCH   7   9
ATOM      9  C   UNL     1       6.821   0.949  -2.361  1.00  0.00     0.044 C 
ATOM     10  O   UNL     1       6.094   0.908  -3.389  1.00  0.00    -0.550 OA
ATOM     11  O   UNL     1       7.962   0.157  -2.298  1.00  0.00    -0.550 OA
ENDBRANCH   7   9
ENDBRANCH   6   7
ENDBRANCH   5   6
ENDBRANCH   4   5
ENDBRANCH   3   4
ENDBRANCH   2   3
ENDBRANCH   1   2
BRANCH   1  12
ATOM     12  C   UNL     1       8.922   8.607   0.209  1.00  0.00     0.000 C 
BRANCH  12  13
ATOM     13  C   UNL     1       9.115   9.152   1.634  1.00  0.00    -0.000 C 
BRANCH  13  14
ATOM     14  C   UNL     1       8.816  10.656   1.740  1.00  0.00    -0.000 C 
BRANCH  14  15
ATOM     15  C   UNL     1       7.683  10.919   2.739  1.00  0.00    -0.000 C 
BRANCH  15  16
ATOM     16  C   UNL     1       7.501   9.728   3.693  1.00  0.00    -0.000 C 
BRANCH  16  17
ATOM     17  C   UNL     1       6.120   9.739   4.385  1.00  0.00    -0.000 C 
BRANCH  17  18
ATOM     18  C   UNL     1       6.201   9.784   5.919  1.00  0.00    -0.003 C 
ATOM     19  C   UNL     1       5.467  10.980   6.523  1.00  0.00     0.004 C 
ENDBRANCH  17  18
ENDBRANCH  16  17
ENDBRANCH  15  16
ENDBRANCH  14  15
ENDBRANCH  13  14
ENDBRANCH  12  13
ENDBRANCH   1  12
TORSDOF 14
ENDMDL
MODEL 5
REMARK VINA RESULT:    -4.342     10.387     12.865
REMARK INTER + INTRA:          -8.919
REMARK INTER:                  -6.335
REMARK INTRA:                  -2.584
REMARK UNBOUND:                -1.023
REMARK SMILES CCCCCCCCCCCCCC[C@H](C)C(=O)[O-]
REMARK SMILES IDX 9 1 10 2 11 3 12 4 13 5 14 6 15 7 16 8 17 9 18 10 19 11 8 12
REMARK SMILES IDX 7 13 6 14 5 15 4 16 3 17 2 18 1 19
REMARK H PARENT
REMARK Flexibility Score: inf
ROOT
ATOM      1  C   UNL     1       0.908   8.735   8.888  1.00  0.00     0.000 C 
ENDROOT
BRANCH   1   2
ATOM      2  C   UNL     1       1.961   7.817   8.241  1.00  0.00     0.000 C 
BRANCH   2   3
ATOM      3  C   UNL     1       2.379   6.600   9.090  1.00  0.00     0.000 C 
BRANCH   3   4
ATOM      4  C   UNL     1       1.232   5.900   9.846  1.00  0.00     0.000 C 
BRANCH   4   5
ATOM      5  C   UNL     1       1.684   4.847  10.874  1.00  0.00     0.001 C 
BRANCH   5   6
ATOM      6  C   UNL     1       2.793   3.926  10.332  1.00  0.00     0.009 C 
BRANCH   6   7
ATOM      7  C   UNL     1       2.411   2.431  10.403  1.00  0.00     0.032 C 
ATOM      8  C   UNL     1       0.901   2.227  10.579  1.00  0.00     0.014 C 
BRANCH   7   9
ATOM      9  C   UNL     1       3.144   1.774  11.539  1.00  0.00     0.044 C 
ATOM     10  O   UNL     1       3.083   0.525  11.695  1.00  0.00    -0.550 OA
ATOM     11  O   UNL     1       3.895   2.537  12.426  1.00  0.00    -0.550 OA
ENDBRANCH   7   9
ENDBRANCH   6   7
ENDBRANCH   5   6
ENDBRANCH   4   5
ENDBRANCH   3   4
ENDBRANCH   2   3
ENDBRANCH   1   2
BRANCH   1  12
ATOM     12  C   UNL     1       1.511  10.038   9.439  1.00  0.00     0.000 C 
BRANCH  12  13
ATOM     13  C   UNL     1       1.517  10.083  10.976  1.00  0.00    -0.000 C 
BRANCH  13  14
ATOM     14  C   UNL     1       0.534   9.080  11.602  1.00  0.00    -0.000 C 
BRANCH  14  15
ATOM     15  C   UNL     1       1.247   8.178  12.617  1.00  0.00    -0.000 C 
BRANCH  15  16
ATOM     16  C   UNL     1       2.724   8.571  12.763  1.00  0.00    -0.000 C 
BRANCH  16  17
ATOM     17  C   UNL     1       3.653   7.340  12.834  1.00  0.00    -0.000 C 
BRANCH  17  18
ATOM     18  C   UNL     1       4.626   7.234  11.649  1.00  0.00    -0.003 C 
ATOM     19  C   UNL     1       4.914   8.580  10.987  1.00  0.00     0.004 C 
ENDBRANCH  17  18
ENDBRANCH  16  17
ENDBRANCH  15  16
ENDBRANCH  14  15
ENDBRANCH  13  14
ENDBRANCH  12  13
ENDBRANCH   1  12
TORSDOF 14
ENDMDL
MODEL 6
REMARK VINA RESULT:    -4.268      9.259     10.963
REMARK INTER + INTRA:          -8.784
REMARK INTER:                  -7.057
REMARK INTRA:                  -1.726
REMARK UNBOUND:                -1.023
REMARK SMILES CCCCCCCCCCCCCC[C@H](C)C(=O)[O-]
REMARK SMILES IDX 9 1 10 2 11 3 12 4 13 5 14 6 15 7 16 8 17 9 18 10 19 11 8 12
REMARK SMILES IDX 7 13 6 14 5 15 4 16 3 17 2 18 1 19
REMARK H PARENT
REMARK Flexibility Score: inf
ROOT
ATOM      1  C   UNL     1       2.112   6.827   8.906  1.00  0.00     0.000 C 
ENDROOT
BRANCH   1   2
ATOM      2  C   UNL     1       1.438   8.089   8.336  1.00  0.00     0.000 C 
BRANCH   2   3
ATOM      3  C   UNL     1       0.539   8.855   9.327  1.00  0.00     0.000 C 
BRANCH   3   4
ATOM      4  C   UNL     1       1.163  10.129   9.931  1.00  0.00     0.000 C 
BRANCH   4   5
ATOM      5  C   UNL     1       2.461  10.598   9.249  1.00  0.00     0.001 C 
BRANCH   5   6
ATOM      6  C   UNL     1       3.701  10.416  10.143  1.00  0.00     0.009 C 
BRANCH   6   7
ATOM      7  C   UNL     1       4.923   9.884   9.363  1.00  0.00     0.032 C 
ATOM      8  C   UNL     1       4.686   9.879   7.848  1.00  0.00     0.014 C 
BRANCH   7   9
ATOM      9  C   UNL     1       5.252   8.492   9.825  1.00  0.00     0.044 C 
ATOM     10  O   UNL     1       6.000   7.754   9.131  1.00  0.00    -0.550 OA
ATOM     11  O   UNL     1       4.736   8.009  11.022  1.00  0.00    -0.550 OA
ENDBRANCH   7   9
ENDBRANCH   6   7
ENDBRANCH   5   6
ENDBRANCH   4   5
ENDBRANCH   3   4
ENDBRANCH   2   3
ENDBRANCH   1   2
BRANCH   1  12
ATOM     12  C   UNL     1       1.256   6.125   9.973  1.00  0.00     0.000 C 
BRANCH  12  13
ATOM     13  C   UNL     1       2.096   5.591  11.146  1.00  0.00    -0.000 C 
BRANCH  13  14
ATOM     14  C   UNL     1       3.196   4.617  10.693  1.00  0.00    -0.000 C 
BRANCH  14  15
ATOM     15  C   UNL     1       3.047   3.260  11.392  1.00  0.00    -0.000 C 
BRANCH  15  16
ATOM     16  C   UNL     1       2.332   2.247  10.484  1.00  0.00    -0.000 C 
BRANCH  16  17
ATOM     17  C   UNL     1       0.827   2.132  10.807  1.00  0.00    -0.000 C 
BRANCH  17  18
ATOM     18  C   UNL     1       0.493   2.386  12.285  1.00  0.00    -0.003 C 
ATOM     19  C   UNL     1      -0.636   1.498  12.805  1.00  0.00     0.004 C 
ENDBRANCH  17  18
ENDBRANCH  16  17
ENDBRANCH  15  16
ENDBRANCH  14  15
ENDBRANCH  13  14
ENDBRANCH  12  13
ENDBRANCH   1  12
TORSDOF 14
ENDMDL
MODEL 7
REMARK VINA RESULT:    -4.250      4.551      9.416
REMARK INTER + INTRA:          -8.751
REMARK INTER:                  -7.533
REMARK INTRA:                  -1.219
REMARK UNBOUND:                -1.023
REMARK SMILES CCCCCCCCCCCCCC[C@H](C)C(=O)[O-]
REMARK SMILES IDX 9 1 10 2 11 3 12 4 13 5 14 6 15 7 16 8 17 9 18 10 19 11 8 12
REMARK SMILES IDX 7 13 6 14 5 15 4 16 3 17 2 18 1 19
REMARK H PARENT
REMARK Flexibility Score: inf
ROOT
ATOM      1  C   UNL     1       8.393   5.420   2.082  1.00  0.00     0.000 C 
ENDROOT
BRANCH   1   2
ATOM      2  C   UNL     1       7.524   5.003   0.882  1.00  0.00     0.000 C 
BRANCH   2   3
ATOM      3  C   UNL     1       7.809   3.593   0.328  1.00  0.00     0.000 C 
BRANCH   3   4
ATOM      4  C   UNL     1       6.560   2.753  -0.009  1.00  0.00     0.000 C 
BRANCH   4   5
ATOM      5  C   UNL     1       6.855   1.391  -0.662  1.00  0.00     0.001 C 
BRANCH   5   6
ATOM      6  C   UNL     1       7.904   1.484  -1.784  1.00  0.00     0.009 C 
BRANCH   6   7
ATOM      7  C   UNL     1       7.377   0.959  -3.137  1.00  0.00     0.032 C 
ATOM      8  C   UNL     1       5.861   0.726  -3.117  1.00  0.00     0.014 C 
BRANCH   7   9
ATOM      9  C   UNL     1       8.078  -0.322  -3.492  1.00  0.00     0.044 C 
ATOM     10  O   UNL     1       8.997  -0.767  -2.756  1.00  0.00    -0.550 OA
ATOM     11  O   UNL     1       7.717  -1.026  -4.636  1.00  0.00    -0.550 OA
ENDBRANCH   7   9
ENDBRANCH   6   7
ENDBRANCH   5   6
ENDBRANCH   4   5
ENDBRANCH   3   4
ENDBRANCH   2   3
ENDBRANCH   1   2
BRANCH   1  12
ATOM     12  C   UNL     1       8.953   6.846   1.946  1.00  0.00     0.000 C 
BRANCH  12  13
ATOM     13  C   UNL     1       8.130   7.713   0.979  1.00  0.00    -0.000 C 
BRANCH  13  14
ATOM     14  C   UNL     1       8.568   9.187   0.985  1.00  0.00    -0.000 C 
BRANCH  14  15
ATOM     15  C   UNL     1       8.786   9.688   2.418  1.00  0.00    -0.000 C 
BRANCH  15  16
ATOM     16  C   UNL     1       7.445   9.966   3.114  1.00  0.00    -0.000 C 
BRANCH  16  17
ATOM     17  C   UNL     1       7.301   9.186   4.439  1.00  0.00    -0.000 C 
BRANCH  17  18
ATOM     18  C   UNL     1       8.640   8.917   5.144  1.00  0.00    -0.003 C 
ATOM     19  C   UNL     1       8.789   7.473   5.618  1.00  0.00     0.004 C 
ENDBRANCH  17  18
ENDBRANCH  16  17
ENDBRANCH  15  16
ENDBRANCH  14  15
ENDBRANCH  13  14
ENDBRANCH  12  13
ENDBRANCH   1  12
TORSDOF 14
ENDMDL
MODEL 8
REMARK VINA RESULT:    -4.218     10.123     12.773
REMARK INTER + INTRA:          -8.692
REMARK INTER:                  -6.451
REMARK INTRA:                  -2.242
REMARK UNBOUND:                -1.023
REMARK SMILES CCCCCCCCCCCCCC[C@H](C)C(=O)[O-]
REMARK SMILES IDX 9 1 10 2 11 3 12 4 13 5 14 6 15 7 16 8 17 9 18 10 19 11 8 12
REMARK SMILES IDX 7 13 6 14 5 15 4 16 3 17 2 18 1 19
REMARK H PARENT
REMARK Flexibility Score: inf
ROOT
ATOM      1  C   UNL     1       2.384   6.538   9.389  1.00  0.00     0.000 C 
ENDROOT
BRANCH   1   2
ATOM      2  C   UNL     1       1.282   6.489  10.463  1.00  0.00     0.000 C 
BRANCH   2   3
ATOM      3  C   UNL     1       1.641   7.166  11.800  1.00  0.00     0.000 C 
BRANCH   3   4
ATOM      4  C   UNL     1       2.103   6.210  12.919  1.00  0.00     0.000 C 
BRANCH   4   5
ATOM      5  C   UNL     1       2.738   4.897  12.425  1.00  0.00     0.001 C 
BRANCH   5   6
ATOM      6  C   UNL     1       1.907   3.657  12.799  1.00  0.00     0.009 C 
BRANCH   6   7
ATOM      7  C   UNL     1       1.205   3.021  11.579  1.00  0.00     0.032 C 
ATOM      8  C   UNL     1       0.116   2.023  11.992  1.00  0.00     0.014 C 
BRANCH   7   9
ATOM      9  C   UNL     1       2.221   2.329  10.713  1.00  0.00     0.044 C 
ATOM     10  O   UNL     1       2.612   1.167  11.002  1.00  0.00    -0.550 OA
ATOM     11  O   UNL     1       2.735   2.965   9.589  1.00  0.00    -0.550 OA
ENDBRANCH   7   9
ENDBRANCH   6   7
ENDBRANCH   5   6
ENDBRANCH   4   5
ENDBRANCH   3   4
ENDBRANCH   2   3
ENDBRANCH   1   2
BRANCH   1  12
ATOM     12  C   UNL     1       2.020   7.447   8.204  1.00  0.00     0.000 C 
BRANCH  12  13
ATOM     13  C   UNL     1       1.179   8.663   8.628  1.00  0.00    -0.000 C 
BRANCH  13  14
ATOM     14  C   UNL     1       2.029   9.924   8.852  1.00  0.00    -0.000 C 
BRANCH  14  15
ATOM     15  C   UNL     1       1.786  10.507  10.249  1.00  0.00    -0.000 C 
BRANCH  15  16
ATOM     16  C   UNL     1       3.104  10.650  11.025  1.00  0.00    -0.000 C 
BRANCH  16  17
ATOM     17  C   UNL     1       4.194   9.685  10.510  1.00  0.00    -0.000 C 
BRANCH  17  18
ATOM     18  C   UNL     1       4.848   8.845  11.619  1.00  0.00    -0.003 C 
ATOM     19  C   UNL     1       5.399   7.513  11.116  1.00  0.00     0.004 C 
ENDBRANCH  17  18
ENDBRANCH  16  17
ENDBRANCH  15  16
ENDBRANCH  14  15
ENDBRANCH  13  14
ENDBRANCH  12  13
ENDBRANCH   1  12
TORSDOF 14
ENDMDL
MODEL 9
REMARK VINA RESULT:    -4.210      9.214     11.527
REMARK INTER + INTRA:          -8.679
REMARK INTER:                  -6.447
REMARK INTRA:                  -2.232
REMARK UNBOUND:                -1.023
REMARK SMILES CCCCCCCCCCCCCC[C@H](C)C(=O)[O-]
REMARK SMILES IDX 9 1 10 2 11 3 12 4 13 5 14 6 15 7 16 8 17 9 18 10 19 11 8 12
REMARK SMILES IDX 7 13 6 14 5 15 4 16 3 17 2 18 1 19
REMARK H PARENT
REMARK Flexibility Score: inf
ROOT
ATOM      1  C   UNL     1       2.324   1.802  10.632  1.00  0.00     0.000 C 
ENDROOT
BRANCH   1   2
ATOM      2  C   UNL     1       1.157   2.703  11.075  1.00  0.00     0.000 C 
BRANCH   2   3
ATOM      3  C   UNL     1       1.231   4.160  10.577  1.00  0.00     0.000 C 
BRANCH   3   4
ATOM      4  C   UNL     1       1.651   5.198  11.638  1.00  0.00     0.000 C 
BRANCH   4   5
ATOM      5  C   UNL     1       1.223   6.644  11.330  1.00  0.00     0.001 C 
BRANCH   5   6
ATOM      6  C   UNL     1       1.354   6.999   9.838  1.00  0.00     0.009 C 
BRANCH   6   7
ATOM      7  C   UNL     1       1.805   8.459   9.612  1.00  0.00     0.032 C 
ATOM      8  C   UNL     1       0.618   9.427   9.540  1.00  0.00     0.014 C 
BRANCH   7   9
ATOM      9  C   UNL     1       2.608   8.551   8.344  1.00  0.00     0.044 C 
ATOM     10  O   UNL     1       2.785   7.529   7.630  1.00  0.00    -0.550 OA
ATOM     11  O   UNL     1       3.160   9.765   7.950  1.00  0.00    -0.550 OA
ENDBRANCH   7   9
ENDBRANCH   6   7
ENDBRANCH   5   6
ENDBRANCH   4   5
ENDBRANCH   3   4
ENDBRANCH   2   3
ENDBRANCH   1   2
BRANCH   1  12
ATOM     12  C   UNL     1       2.742   0.793  11.715  1.00  0.00     0.000 C 
BRANCH  12  13
ATOM     13  C   UNL     1       3.236   1.477  13.000  1.00  0.00    -0.000 C 
BRANCH  13  14
ATOM     14  C   UNL     1       4.675   2.003  12.876  1.00  0.00    -0.000 C 
BRANCH  14  15
ATOM     15  C   UNL     1       4.713   3.530  13.013  1.00  0.00    -0.000 C 
BRANCH  15  16
ATOM     16  C   UNL     1       5.669   4.152  11.983  1.00  0.00    -0.000 C 
BRANCH  16  17
ATOM     17  C   UNL     1       5.285   5.607  11.634  1.00  0.00    -0.000 C 
BRANCH  17  18
ATOM     18  C   UNL     1       4.945   5.814  10.149  1.00  0.00    -0.003 C 
ATOM     19  C   UNL     1       4.621   4.511   9.421  1.00  0.00     0.004 C 
ENDBRANCH  17  18
ENDBRANCH  16  17
ENDBRANCH  15  16
ENDBRANCH  14  15
ENDBRANCH  13  14
ENDBRANCH  12  13
ENDBRANCH   1  12
TORSDOF 14
ENDMDL
