MODEL 1
REMARK VINA RESULT:    -3.962      0.000      0.000
REMARK INTER + INTRA:          -5.942
REMARK INTER:                  -6.046
REMARK INTRA:                   0.104
REMARK UNBOUND:                 0.104
REMARK SMILES CC1=CCC[C@@H](C)C(=O)C[C@@H](C(C)C)C(=O)C1
REMARK SMILES IDX 8 1 9 2 6 3 7 4 5 5 4 6 3 7 2 8 1 9 10 11 11 12 15 13 16 14
REMARK SMILES IDX 17 15 12 17 13 18 14 19
REMARK H PARENT
REMARK Flexibility Score: 70.00
ROOT
ATOM      1  C   UNL     1      -8.358  72.444  24.676  1.00  0.00     0.136 C 
ATOM      2  O   UNL     1      -8.081  72.301  25.859  1.00  0.00    -0.299 OA
ENDROOT
BRANCH   1   3
ATOM      3  C   UNL     1      -9.272  73.586  24.244  1.00  0.00     0.053 C 
ATOM      4  C   UNL     1     -10.602  73.592  25.016  1.00  0.00     0.016 C 
BRANCH   3   5
ATOM      5  C   UNL     1      -9.538  73.540  22.714  1.00  0.00     0.015 C 
BRANCH   5   6
ATOM      6  C   UNL     1      -8.630  74.424  21.831  1.00  0.00     0.028 C 
BRANCH   6   7
ATOM      7  C   UNL     1      -7.693  73.749  20.853  1.00  0.00    -0.028 C 
ATOM      8  C   UNL     1      -6.478  73.206  21.116  1.00  0.00    -0.070 CG0
ATOM      9  C   UNL     1      -5.836  72.385  20.022  1.00  0.00     0.039 C 
ATOM     10  G   UNL     1      -5.691  73.426  22.401  1.00  0.00     0.000 G0
ENDBRANCH   6   7
ENDBRANCH   5   6
ENDBRANCH   3   5
ENDBRANCH   1   3
BRANCH   1  11
ATOM     11  C   UNL     1      -7.741  71.480  23.674  1.00  0.00     0.087 C 
BRANCH  11  12
ATOM     12  C   UNL     1      -6.227  71.237  23.886  1.00  0.00     0.066 C 
BRANCH  12  13
ATOM     13  C   UNL     1      -5.303  72.107  23.034  1.00  0.00     0.140 C 
ATOM     14  O   UNL     1      -4.189  71.664  22.792  1.00  0.00    -0.299 OA
BRANCH  13  15
ATOM     15  C   UNL     1      -5.709  73.430  22.398  1.00  0.00     0.106 CG0
ATOM     16  G   UNL     1      -6.505  73.202  21.120  1.00  0.00     0.000 G0
ENDBRANCH  13  15
ENDBRANCH  12  13
BRANCH  12  17
ATOM     17  C   UNL     1      -5.865  69.721  23.795  1.00  0.00    -0.006 C 
ATOM     18  C   UNL     1      -7.086  68.866  23.418  1.00  0.00     0.008 C 
ATOM     19  C   UNL     1      -5.206  69.163  25.068  1.00  0.00     0.008 C 
ENDBRANCH  12  17
ENDBRANCH  11  12
ENDBRANCH   1  11
TORSDOF 1
ENDMDL
MODEL 2
REMARK VINA RESULT:    -3.668      1.643      4.028
REMARK INTER + INTRA:          -5.493
REMARK INTER:                  -5.671
REMARK INTRA:                   0.177
REMARK UNBOUND:                 0.104
REMARK SMILES CC1=CCC[C@@H](C)C(=O)C[C@@H](C(C)C)C(=O)C1
REMARK SMILES IDX 8 1 9 2 6 3 7 4 5 5 4 6 3 7 2 8 1 9 10 11 11 12 15 13 16 14
REMARK SMILES IDX 17 15 12 17 13 18 14 19
REMARK H PARENT
REMARK Flexibility Score: 70.00
ROOT
ATOM      1  C   UNL     1      -9.418  73.201  23.674  1.00  0.00     0.136 C 
ATOM      2  O   UNL     1     -10.563  73.020  23.284  1.00  0.00    -0.299 OA
ENDROOT
BRANCH   1   3
ATOM      3  C   UNL     1      -8.966  72.602  25.002  1.00  0.00     0.053 C 
ATOM      4  C   UNL     1      -9.163  73.572  26.178  1.00  0.00     0.016 C 
BRANCH   3   5
ATOM      5  C   UNL     1      -7.485  72.138  24.930  1.00  0.00     0.015 C 
BRANCH   5   6
ATOM      6  C   UNL     1      -7.182  70.943  23.999  1.00  0.00     0.028 C 
BRANCH   6   7
ATOM      7  C   UNL     1      -5.786  70.805  23.431  1.00  0.00    -0.028 C 
ATOM      8  C   UNL     1      -5.057  71.756  22.794  1.00  0.00    -0.070 CG0
ATOM      9  C   UNL     1      -3.603  71.447  22.523  1.00  0.00     0.039 C 
ATOM     10  G   UNL     1      -5.618  73.072  22.273  1.00  0.00     0.000 G0
ENDBRANCH   6   7
ENDBRANCH   5   6
ENDBRANCH   3   5
ENDBRANCH   1   3
BRANCH   1  11
ATOM     11  C   UNL     1      -8.476  74.001  22.787  1.00  0.00     0.087 C 
BRANCH  11  12
ATOM     12  C   UNL     1      -8.174  73.329  21.426  1.00  0.00     0.066 C 
BRANCH  12  13
ATOM     13  C   UNL     1      -6.736  72.844  21.243  1.00  0.00     0.140 C 
ATOM     14  O   UNL     1      -6.465  72.292  20.187  1.00  0.00    -0.299 OA
BRANCH  13  15
ATOM     15  C   UNL     1      -5.613  73.086  22.243  1.00  0.00     0.106 CG0
ATOM     16  G   UNL     1      -5.052  71.770  22.766  1.00  0.00     0.000 G0
ENDBRANCH  13  15
ENDBRANCH  12  13
BRANCH  12  17
ATOM     17  C   UNL     1      -8.662  74.203  20.228  1.00  0.00    -0.006 C 
ATOM     18  C   UNL     1      -7.652  75.308  19.881  1.00  0.00     0.008 C 
ATOM     19  C   UNL     1     -10.059  74.813  20.432  1.00  0.00     0.008 C 
ENDBRANCH  12  17
ENDBRANCH  11  12
ENDBRANCH   1  11
TORSDOF 1
ENDMDL
MODEL 3
REMARK VINA RESULT:    -3.543      1.772      2.376
REMARK INTER + INTRA:          -5.303
REMARK INTER:                  -6.078
REMARK INTRA:                   0.775
REMARK UNBOUND:                 0.104
REMARK SMILES CC1=CCC[C@@H](C)C(=O)C[C@@H](C(C)C)C(=O)C1
REMARK SMILES IDX 8 1 9 2 6 3 7 4 5 5 4 6 3 7 2 8 1 9 10 11 11 12 15 13 16 14
REMARK SMILES IDX 17 15 12 17 13 18 14 19
REMARK H PARENT
REMARK Flexibility Score: 70.00
ROOT
ATOM      1  C   UNL     1      -8.643  72.792  26.057  1.00  0.00     0.136 C 
ATOM      2  O   UNL     1      -8.371  72.571  27.229  1.00  0.00    -0.299 OA
ENDROOT
BRANCH   1   3
ATOM      3  C   UNL     1      -9.495  74.003  25.693  1.00  0.00     0.053 C 
ATOM      4  C   UNL     1     -10.028  74.738  26.934  1.00  0.00     0.016 C 
BRANCH   3   5
ATOM      5  C   UNL     1     -10.671  73.599  24.761  1.00  0.00     0.015 C 
BRANCH   5   6
ATOM      6  C   UNL     1     -10.302  72.789  23.499  1.00  0.00     0.028 C 
BRANCH   6   7
ATOM      7  C   UNL     1     -10.088  73.533  22.198  1.00  0.00    -0.028 C 
ATOM      8  C   UNL     1      -8.926  74.051  21.726  1.00  0.00    -0.070 CG0
ATOM      9  C   UNL     1      -8.920  74.546  20.299  1.00  0.00     0.039 C 
ATOM     10  G   UNL     1      -7.661  74.233  22.553  1.00  0.00     0.000 G0
ENDBRANCH   6   7
ENDBRANCH   5   6
ENDBRANCH   3   5
ENDBRANCH   1   3
BRANCH   1  11
ATOM     11  C   UNL     1      -8.083  71.851  25.001  1.00  0.00     0.087 C 
BRANCH  11  12
ATOM     12  C   UNL     1      -6.802  72.376  24.310  1.00  0.00     0.066 C 
BRANCH  12  13
ATOM     13  C   UNL     1      -6.999  72.908  22.891  1.00  0.00     0.140 C 
ATOM     14  O   UNL     1      -6.668  72.174  21.970  1.00  0.00    -0.299 OA
BRANCH  13  15
ATOM     15  C   UNL     1      -7.660  74.238  22.554  1.00  0.00     0.106 CG0
ATOM     16  G   UNL     1      -8.929  74.028  21.738  1.00  0.00     0.000 G0
ENDBRANCH  13  15
ENDBRANCH  12  13
BRANCH  12  17
ATOM     17  C   UNL     1      -5.632  71.346  24.400  1.00  0.00    -0.006 C 
ATOM     18  C   UNL     1      -5.702  70.515  25.691  1.00  0.00     0.008 C 
ATOM     19  C   UNL     1      -4.237  71.977  24.257  1.00  0.00     0.008 C 
ENDBRANCH  12  17
ENDBRANCH  11  12
ENDBRANCH   1  11
TORSDOF 1
ENDMDL
MODEL 4
REMARK VINA RESULT:    -3.504      1.916      4.229
REMARK INTER + INTRA:          -5.244
REMARK INTER:                  -5.160
REMARK INTRA:                  -0.084
REMARK UNBOUND:                 0.104
REMARK SMILES CC1=CCC[C@@H](C)C(=O)C[C@@H](C(C)C)C(=O)C1
REMARK SMILES IDX 8 1 9 2 6 3 7 4 5 5 4 6 3 7 2 8 1 9 10 11 11 12 15 13 16 14
REMARK SMILES IDX 17 15 12 17 13 18 14 19
REMARK H PARENT
REMARK Flexibility Score: 70.00
ROOT
ATOM      1  C   UNL     1      -7.644  73.859  21.961  1.00  0.00     0.136 C 
ATOM      2  O   UNL     1      -8.217  74.916  22.182  1.00  0.00    -0.299 OA
ENDROOT
BRANCH   1   3
ATOM      3  C   UNL     1      -6.429  73.834  21.039  1.00  0.00     0.053 C 
ATOM      4  C   UNL     1      -6.597  72.839  19.878  1.00  0.00     0.016 C 
BRANCH   3   5
ATOM      5  C   UNL     1      -5.131  73.519  21.833  1.00  0.00     0.015 C 
BRANCH   5   6
ATOM      6  C   UNL     1      -4.395  72.213  21.460  1.00  0.00     0.028 C 
BRANCH   6   7
ATOM      7  C   UNL     1      -3.903  71.315  22.575  1.00  0.00    -0.028 C 
ATOM      8  C   UNL     1      -4.635  70.446  23.317  1.00  0.00    -0.070 CG0
ATOM      9  C   UNL     1      -3.877  69.495  24.214  1.00  0.00     0.039 C 
ATOM     10  G   UNL     1      -6.157  70.415  23.363  1.00  0.00     0.000 G0
ENDBRANCH   6   7
ENDBRANCH   5   6
ENDBRANCH   3   5
ENDBRANCH   1   3
BRANCH   1  11
ATOM     11  C   UNL     1      -8.158  72.605  22.653  1.00  0.00     0.087 C 
BRANCH  11  12
ATOM     12  C   UNL     1      -7.721  72.480  24.132  1.00  0.00     0.066 C 
BRANCH  12  13
ATOM     13  C   UNL     1      -6.705  71.375  24.420  1.00  0.00     0.140 C 
ATOM     14  O   UNL     1      -6.363  71.222  25.584  1.00  0.00    -0.299 OA
BRANCH  13  15
ATOM     15  C   UNL     1      -6.171  70.403  23.375  1.00  0.00     0.106 CG0
ATOM     16  G   UNL     1      -4.651  70.458  23.302  1.00  0.00     0.000 G0
ENDBRANCH  13  15
ENDBRANCH  12  13
BRANCH  12  17
ATOM     17  C   UNL     1      -8.947  72.425  25.096  1.00  0.00    -0.006 C 
ATOM     18  C   UNL     1     -10.271  72.644  24.347  1.00  0.00     0.008 C 
ATOM     19  C   UNL     1      -8.848  73.397  26.283  1.00  0.00     0.008 C 
ENDBRANCH  12  17
ENDBRANCH  11  12
ENDBRANCH   1  11
TORSDOF 1
ENDMDL
MODEL 5
REMARK VINA RESULT:    -3.391      5.813      8.042
REMARK INTER + INTRA:          -5.072
REMARK INTER:                  -4.800
REMARK INTRA:                  -0.272
REMARK UNBOUND:                 0.104
REMARK SMILES CC1=CCC[C@@H](C)C(=O)C[C@@H](C(C)C)C(=O)C1
REMARK SMILES IDX 8 1 9 2 6 3 7 4 5 5 4 6 3 7 2 8 1 9 10 11 11 12 15 13 16 14
REMARK SMILES IDX 17 15 12 17 13 18 14 19
REMARK H PARENT
REMARK Flexibility Score: 70.00
ROOT
ATOM      1  C   UNL     1      -4.981  69.061  25.356  1.00  0.00     0.136 C 
ATOM      2  O   UNL     1      -5.816  69.397  24.528  1.00  0.00    -0.299 OA
ENDROOT
BRANCH   1   3
ATOM      3  C   UNL     1      -4.478  70.074  26.379  1.00  0.00     0.053 C 
ATOM      4  C   UNL     1      -2.951  70.248  26.327  1.00  0.00     0.016 C 
BRANCH   3   5
ATOM      5  C   UNL     1      -4.926  69.687  27.816  1.00  0.00     0.015 C 
BRANCH   5   6
ATOM      6  C   UNL     1      -3.860  69.022  28.714  1.00  0.00     0.028 C 
BRANCH   6   7
ATOM      7  C   UNL     1      -4.272  67.850  29.579  1.00  0.00    -0.028 C 
ATOM      8  C   UNL     1      -4.195  66.531  29.271  1.00  0.00    -0.070 CG0
ATOM      9  C   UNL     1      -4.451  65.544  30.386  1.00  0.00     0.039 C 
ATOM     10  G   UNL     1      -3.942  65.981  27.873  1.00  0.00     0.000 G0
ENDBRANCH   6   7
ENDBRANCH   5   6
ENDBRANCH   3   5
ENDBRANCH   1   3
BRANCH   1  11
ATOM     11  C   UNL     1      -4.501  67.617  25.346  1.00  0.00     0.087 C 
BRANCH  11  12
ATOM     12  C   UNL     1      -5.574  66.596  25.793  1.00  0.00     0.066 C 
BRANCH  12  13
ATOM     13  C   UNL     1      -5.254  65.834  27.078  1.00  0.00     0.140 C 
ATOM     14  O   UNL     1      -6.068  65.000  27.449  1.00  0.00    -0.299 OA
BRANCH  13  15
ATOM     15  C   UNL     1      -3.958  65.980  27.865  1.00  0.00     0.106 CG0
ATOM     16  G   UNL     1      -4.223  66.532  29.260  1.00  0.00     0.000 G0
ENDBRANCH  13  15
ENDBRANCH  12  13
BRANCH  12  17
ATOM     17  C   UNL     1      -5.988  65.644  24.626  1.00  0.00    -0.006 C 
ATOM     18  C   UNL     1      -4.771  65.181  23.810  1.00  0.00     0.008 C 
ATOM     19  C   UNL     1      -7.055  66.236  23.690  1.00  0.00     0.008 C 
ENDBRANCH  12  17
ENDBRANCH  11  12
ENDBRANCH   1  11
TORSDOF 1
ENDMDL
MODEL 6
REMARK VINA RESULT:    -3.348     11.253     13.469
REMARK INTER + INTRA:          -5.006
REMARK INTER:                  -4.601
REMARK INTRA:                  -0.405
REMARK UNBOUND:                 0.104
REMARK SMILES CC1=CCC[C@@H](C)C(=O)C[C@@H](C(C)C)C(=O)C1
REMARK SMILES IDX 8 1 9 2 6 3 7 4 5 5 4 6 3 7 2 8 1 9 10 11 11 12 15 13 16 14
REMARK SMILES IDX 17 15 12 17 13 18 14 19
REMARK H PARENT
REMARK Flexibility Score: 70.00
ROOT
ATOM      1  C   UNL     1      -7.975  67.699  35.474  1.00  0.00     0.136 C 
ATOM      2  O   UNL     1      -8.608  66.661  35.340  1.00  0.00    -0.299 OA
ENDROOT
BRANCH   1   3
ATOM      3  C   UNL     1      -8.124  68.517  36.753  1.00  0.00     0.053 C 
ATOM      4  C   UNL     1      -9.591  68.651  37.194  1.00  0.00     0.016 C 
BRANCH   3   5
ATOM      5  C   UNL     1      -7.480  69.922  36.596  1.00  0.00     0.015 C 
BRANCH   5   6
ATOM      6  C   UNL     1      -6.220  70.201  37.445  1.00  0.00     0.028 C 
BRANCH   6   7
ATOM      7  C   UNL     1      -5.248  69.067  37.691  1.00  0.00    -0.028 C 
ATOM      8  C   UNL     1      -4.301  68.594  36.842  1.00  0.00    -0.070 CG0
ATOM      9  C   UNL     1      -3.301  67.610  37.401  1.00  0.00     0.039 C 
ATOM     10  G   UNL     1      -4.223  68.929  35.359  1.00  0.00     0.000 G0
ENDBRANCH   6   7
ENDBRANCH   5   6
ENDBRANCH   3   5
ENDBRANCH   1   3
BRANCH   1  11
ATOM     11  C   UNL     1      -7.031  68.114  34.356  1.00  0.00     0.087 C 
BRANCH  11  12
ATOM     12  C   UNL     1      -5.862  67.128  34.123  1.00  0.00     0.066 C 
BRANCH  12  13
ATOM     13  C   UNL     1      -4.480  67.655  34.503  1.00  0.00     0.140 C 
ATOM     14  O   UNL     1      -3.512  67.067  34.040  1.00  0.00    -0.299 OA
BRANCH  13  15
ATOM     15  C   UNL     1      -4.234  68.906  35.336  1.00  0.00     0.106 CG0
ATOM     16  G   UNL     1      -4.282  68.592  36.825  1.00  0.00     0.000 G0
ENDBRANCH  13  15
ENDBRANCH  12  13
BRANCH  12  17
ATOM     17  C   UNL     1      -5.892  66.525  32.682  1.00  0.00    -0.006 C 
ATOM     18  C   UNL     1      -6.506  67.503  31.668  1.00  0.00     0.008 C 
ATOM     19  C   UNL     1      -6.600  65.163  32.594  1.00  0.00     0.008 C 
ENDBRANCH  12  17
ENDBRANCH  11  12
ENDBRANCH   1  11
TORSDOF 1
ENDMDL
MODEL 7
REMARK VINA RESULT:    -3.280      3.884      6.374
REMARK INTER + INTRA:          -4.902
REMARK INTER:                  -4.618
REMARK INTRA:                  -0.284
REMARK UNBOUND:                 0.104
REMARK SMILES CC1=CCC[C@@H](C)C(=O)C[C@@H](C(C)C)C(=O)C1
REMARK SMILES IDX 8 1 9 2 6 3 7 4 5 5 4 6 3 7 2 8 1 9 10 11 11 12 15 13 16 14
REMARK SMILES IDX 17 15 12 17 13 18 14 19
REMARK H PARENT
REMARK Flexibility Score: 70.00
ROOT
ATOM      1  C   UNL     1      -5.445  69.182  23.173  1.00  0.00     0.136 C 
ATOM      2  O   UNL     1      -5.368  69.483  21.990  1.00  0.00    -0.299 OA
ENDROOT
BRANCH   1   3
ATOM      3  C   UNL     1      -6.165  70.111  24.146  1.00  0.00     0.053 C 
ATOM      4  C   UNL     1      -7.266  70.936  23.459  1.00  0.00     0.016 C 
BRANCH   3   5
ATOM      5  C   UNL     1      -5.160  71.051  24.868  1.00  0.00     0.015 C 
BRANCH   5   6
ATOM      6  C   UNL     1      -4.081  70.368  25.737  1.00  0.00     0.028 C 
BRANCH   6   7
ATOM      7  C   UNL     1      -4.500  69.738  27.048  1.00  0.00    -0.028 C 
ATOM      8  C   UNL     1      -4.325  68.450  27.437  1.00  0.00    -0.070 CG0
ATOM      9  C   UNL     1      -4.621  68.118  28.880  1.00  0.00     0.039 C 
ATOM     10  G   UNL     1      -3.925  67.312  26.508  1.00  0.00     0.000 G0
ENDBRANCH   6   7
ENDBRANCH   5   6
ENDBRANCH   3   5
ENDBRANCH   1   3
BRANCH   1  11
ATOM     11  C   UNL     1      -4.838  67.860  23.619  1.00  0.00     0.087 C 
BRANCH  11  12
ATOM     12  C   UNL     1      -5.761  67.023  24.536  1.00  0.00     0.066 C 
BRANCH  12  13
ATOM     13  C   UNL     1      -5.167  66.653  25.895  1.00  0.00     0.140 C 
ATOM     14  O   UNL     1      -5.688  65.723  26.496  1.00  0.00    -0.299 OA
BRANCH  13  15
ATOM     15  C   UNL     1      -3.926  67.299  26.497  1.00  0.00     0.106 CG0
ATOM     16  G   UNL     1      -4.300  68.451  27.420  1.00  0.00     0.000 G0
ENDBRANCH  13  15
ENDBRANCH  12  13
BRANCH  12  17
ATOM     17  C   UNL     1      -6.351  65.786  23.790  1.00  0.00    -0.006 C 
ATOM     18  C   UNL     1      -5.246  64.894  23.203  1.00  0.00     0.008 C 
ATOM     19  C   UNL     1      -7.370  66.148  22.697  1.00  0.00     0.008 C 
ENDBRANCH  12  17
ENDBRANCH  11  12
ENDBRANCH   1  11
TORSDOF 1
ENDMDL
MODEL 8
REMARK VINA RESULT:    -3.276     11.282     13.378
REMARK INTER + INTRA:          -4.895
REMARK INTER:                  -4.776
REMARK INTRA:                  -0.119
REMARK UNBOUND:                 0.104
REMARK SMILES CC1=CCC[C@@H](C)C(=O)C[C@@H](C(C)C)C(=O)C1
REMARK SMILES IDX 8 1 9 2 6 3 7 4 5 5 4 6 3 7 2 8 1 9 10 11 11 12 15 13 16 14
REMARK SMILES IDX 17 15 12 17 13 18 14 19
REMARK H PARENT
REMARK Flexibility Score: 70.00
ROOT
ATOM      1  C   UNL     1      -6.749  69.323  36.666  1.00  0.00     0.136 C 
ATOM      2  O   UNL     1      -7.061  70.303  37.329  1.00  0.00    -0.299 OA
ENDROOT
BRANCH   1   3
ATOM      3  C   UNL     1      -7.717  68.774  35.624  1.00  0.00     0.053 C 
ATOM      4  C   UNL     1      -9.004  69.610  35.524  1.00  0.00     0.016 C 
BRANCH   3   5
ATOM      5  C   UNL     1      -8.063  67.287  35.912  1.00  0.00     0.015 C 
BRANCH   5   6
ATOM      6  C   UNL     1      -7.279  66.229  35.104  1.00  0.00     0.028 C 
BRANCH   6   7
ATOM      7  C   UNL     1      -6.660  66.638  33.785  1.00  0.00    -0.028 C 
ATOM      8  C   UNL     1      -5.348  66.863  33.524  1.00  0.00    -0.070 CG0
ATOM      9  C   UNL     1      -4.950  67.036  32.077  1.00  0.00     0.039 C 
ATOM     10  G   UNL     1      -4.270  67.026  34.587  1.00  0.00     0.000 G0
ENDBRANCH   6   7
ENDBRANCH   5   6
ENDBRANCH   3   5
ENDBRANCH   1   3
BRANCH   1  11
ATOM     11  C   UNL     1      -5.375  68.711  36.894  1.00  0.00     0.087 C 
BRANCH  11  12
ATOM     12  C   UNL     1      -4.262  69.317  36.007  1.00  0.00     0.066 C 
BRANCH  12  13
ATOM     13  C   UNL     1      -3.872  68.480  34.789  1.00  0.00     0.140 C 
ATOM     14  O   UNL     1      -3.138  69.006  33.964  1.00  0.00    -0.299 OA
BRANCH  13  15
ATOM     15  C   UNL     1      -4.257  67.020  34.588  1.00  0.00     0.106 CG0
ATOM     16  G   UNL     1      -5.351  66.882  33.539  1.00  0.00     0.000 G0
ENDBRANCH  13  15
ENDBRANCH  12  13
BRANCH  12  17
ATOM     17  C   UNL     1      -3.022  69.754  36.849  1.00  0.00    -0.006 C 
ATOM     18  C   UNL     1      -1.991  68.620  36.973  1.00  0.00     0.008 C 
ATOM     19  C   UNL     1      -3.378  70.295  38.244  1.00  0.00     0.008 C 
ENDBRANCH  12  17
ENDBRANCH  11  12
ENDBRANCH   1  11
TORSDOF 1
ENDMDL
MODEL 9
REMARK VINA RESULT:    -3.015      2.542      5.832
REMARK INTER + INTRA:          -4.498
REMARK INTER:                  -4.359
REMARK INTRA:                  -0.139
REMARK UNBOUND:                 0.104
REMARK SMILES CC1=CCC[C@@H](C)C(=O)C[C@@H](C(C)C)C(=O)C1
REMARK SMILES IDX 8 1 9 2 6 3 7 4 5 5 4 6 3 7 2 8 1 9 10 11 11 12 15 13 16 14
REMARK SMILES IDX 17 15 12 17 13 18 14 19
REMARK H PARENT
REMARK Flexibility Score: 70.00
ROOT
ATOM      1  C   UNL     1      -5.872  68.380  22.690  1.00  0.00     0.136 C 
ATOM      2  O   UNL     1      -5.309  68.542  21.617  1.00  0.00    -0.299 OA
ENDROOT
BRANCH   1   3
ATOM      3  C   UNL     1      -5.871  67.002  23.345  1.00  0.00     0.053 C 
ATOM      4  C   UNL     1      -6.951  66.076  22.761  1.00  0.00     0.016 C 
BRANCH   3   5
ATOM      5  C   UNL     1      -6.038  67.116  24.886  1.00  0.00     0.015 C 
BRANCH   5   6
ATOM      6  C   UNL     1      -4.745  67.021  25.727  1.00  0.00     0.028 C 
BRANCH   6   7
ATOM      7  C   UNL     1      -3.549  67.851  25.311  1.00  0.00    -0.028 C 
ATOM      8  C   UNL     1      -3.420  69.200  25.373  1.00  0.00    -0.070 CG0
ATOM      9  C   UNL     1      -2.046  69.775  25.116  1.00  0.00     0.039 C 
ATOM     10  G   UNL     1      -4.569  70.170  25.610  1.00  0.00     0.000 G0
ENDBRANCH   6   7
ENDBRANCH   5   6
ENDBRANCH   3   5
ENDBRANCH   1   3
BRANCH   1  11
ATOM     11  C   UNL     1      -6.529  69.585  23.347  1.00  0.00     0.087 C 
BRANCH  11  12
ATOM     12  C   UNL     1      -5.693  70.884  23.252  1.00  0.00     0.066 C 
BRANCH  12  13
ATOM     13  C   UNL     1      -4.743  71.134  24.422  1.00  0.00     0.140 C 
ATOM     14  O   UNL     1      -4.142  72.199  24.434  1.00  0.00    -0.299 OA
BRANCH  13  15
ATOM     15  C   UNL     1      -4.571  70.193  25.608  1.00  0.00     0.106 CG0
ATOM     16  G   UNL     1      -3.422  69.221  25.375  1.00  0.00     0.000 G0
ENDBRANCH  13  15
ENDBRANCH  12  13
BRANCH  12  17
ATOM     17  C   UNL     1      -6.586  72.126  22.937  1.00  0.00    -0.006 C 
ATOM     18  C   UNL     1      -8.033  71.921  23.411  1.00  0.00     0.008 C 
ATOM     19  C   UNL     1      -6.571  72.541  21.456  1.00  0.00     0.008 C 
ENDBRANCH  12  17
ENDBRANCH  11  12
ENDBRANCH   1  11
TORSDOF 1
ENDMDL
