MODEL 1
REMARK VINA RESULT:     6.183      0.000      0.000
REMARK INTER + INTRA:          11.660
REMARK INTER:                  11.606
REMARK INTRA:                   0.055
REMARK UNBOUND:                 0.055
REMARK SMILES CCCCCCCCC=CCCCCCCCC(=O)[O-]
REMARK SMILES IDX 10 1 9 2 11 3 12 4 13 5 14 6 15 7 16 8 17 9 18 10 19 11
REMARK SMILES IDX 20 12 8 13 7 14 6 15 5 16 4 17 3 18 2 19 1 20
REMARK H PARENT
REMARK Flexibility Score: inf
ROOT
ATOM      1  C   UNL     1     -38.332  23.522   7.778  1.00  0.00    -0.031 C 
ATOM      2  C   UNL     1     -38.035  24.697   7.205  1.00  0.00    -0.031 C 
ENDROOT
BRANCH   1   3
ATOM      3  C   UNL     1     -39.496  23.376   8.723  1.00  0.00     0.027 C 
BRANCH   3   4
ATOM      4  C   UNL     1     -40.723  22.729   8.056  1.00  0.00     0.004 C 
BRANCH   4   5
ATOM      5  C   UNL     1     -41.736  23.734   7.475  1.00  0.00     0.000 C 
BRANCH   5   6
ATOM      6  C   UNL     1     -41.312  25.196   7.696  1.00  0.00     0.000 C 
BRANCH   6   7
ATOM      7  C   UNL     1     -42.104  26.187   6.825  1.00  0.00     0.000 C 
BRANCH   7   8
ATOM      8  C   UNL     1     -42.123  25.873   5.315  1.00  0.00     0.006 C 
BRANCH   8   9
ATOM      9  C   UNL     1     -41.953  24.379   4.982  1.00  0.00     0.053 C 
BRANCH   9  10
ATOM     10  C   UNL     1     -40.741  24.109   4.142  1.00  0.00     0.041 C 
ATOM     11  O   UNL     1     -40.647  24.595   2.984  1.00  0.00    -0.550 OA
ATOM     12  O   UNL     1     -39.693  23.355   4.655  1.00  0.00    -0.550 OA
ENDBRANCH   9  10
ENDBRANCH   8   9
ENDBRANCH   7   8
ENDBRANCH   6   7
ENDBRANCH   5   6
ENDBRANCH   4   5
ENDBRANCH   3   4
ENDBRANCH   1   3
BRANCH   2  13
ATOM     13  C   UNL     1     -36.874  24.841   6.257  1.00  0.00     0.027 C 
BRANCH  13  14
ATOM     14  C   UNL     1     -36.048  26.106   6.531  1.00  0.00     0.004 C 
BRANCH  14  15
ATOM     15  C   UNL     1     -35.985  26.441   8.032  1.00  0.00     0.000 C 
BRANCH  15  16
ATOM     16  C   UNL     1     -34.952  25.590   8.792  1.00  0.00     0.000 C 
BRANCH  16  17
ATOM     17  C   UNL     1     -33.495  25.762   8.328  1.00  0.00    -0.000 C 
BRANCH  17  18
ATOM     18  C   UNL     1     -32.756  24.426   8.165  1.00  0.00    -0.000 C 
BRANCH  18  19
ATOM     19  C   UNL     1     -31.554  24.575   7.224  1.00  0.00    -0.003 C 
ATOM     20  C   UNL     1     -30.856  25.916   7.430  1.00  0.00     0.004 C 
ENDBRANCH  18  19
ENDBRANCH  17  18
ENDBRANCH  16  17
ENDBRANCH  15  16
ENDBRANCH  14  15
ENDBRANCH  13  14
ENDBRANCH   2  13
TORSDOF 15
ENDMDL
MODEL 2
REMARK VINA RESULT:     9.149      5.482      7.598
REMARK INTER + INTRA:          17.226
REMARK INTER:                  18.142
REMARK INTRA:                  -0.917
REMARK UNBOUND:                 0.055
REMARK SMILES CCCCCCCCC=CCCCCCCCC(=O)[O-]
REMARK SMILES IDX 10 1 9 2 11 3 12 4 13 5 14 6 15 7 16 8 17 9 18 10 19 11
REMARK SMILES IDX 20 12 8 13 7 14 6 15 5 16 4 17 3 18 2 19 1 20
REMARK H PARENT
REMARK Flexibility Score: inf
ROOT
ATOM      1  C   UNL     1     -40.614  24.555   3.200  1.00  0.00    -0.031 C 
ATOM      2  C   UNL     1     -40.508  23.724   4.247  1.00  0.00    -0.031 C 
ENDROOT
BRANCH   1   3
ATOM      3  C   UNL     1     -39.557  24.615   2.129  1.00  0.00     0.027 C 
BRANCH   3   4
ATOM      4  C   UNL     1     -40.053  25.301   0.844  1.00  0.00     0.004 C 
BRANCH   4   5
ATOM      5  C   UNL     1     -39.427  26.683   0.578  1.00  0.00     0.000 C 
BRANCH   5   6
ATOM      6  C   UNL     1     -39.132  26.924  -0.912  1.00  0.00     0.000 C 
BRANCH   6   7
ATOM      7  C   UNL     1     -37.995  27.933  -1.143  1.00  0.00     0.000 C 
BRANCH   7   8
ATOM      8  C   UNL     1     -38.331  29.107  -2.083  1.00  0.00     0.006 C 
BRANCH   8   9
ATOM      9  C   UNL     1     -37.359  30.297  -1.978  1.00  0.00     0.053 C 
BRANCH   9  10
ATOM     10  C   UNL     1     -36.393  30.356  -3.122  1.00  0.00     0.041 C 
ATOM     11  O   UNL     1     -36.813  30.466  -4.305  1.00  0.00    -0.550 OA
ATOM     12  O   UNL     1     -35.025  30.331  -2.881  1.00  0.00    -0.550 OA
ENDBRANCH   9  10
ENDBRANCH   8   9
ENDBRANCH   7   8
ENDBRANCH   6   7
ENDBRANCH   5   6
ENDBRANCH   4   5
ENDBRANCH   3   4
ENDBRANCH   1   3
BRANCH   2  13
ATOM     13  C   UNL     1     -41.567  23.661   5.316  1.00  0.00     0.027 C 
BRANCH  13  14
ATOM     14  C   UNL     1     -41.721  24.991   6.067  1.00  0.00     0.004 C 
BRANCH  14  15
ATOM     15  C   UNL     1     -41.143  24.922   7.490  1.00  0.00     0.000 C 
BRANCH  15  16
ATOM     16  C   UNL     1     -40.539  23.546   7.825  1.00  0.00     0.000 C 
BRANCH  16  17
ATOM     17  C   UNL     1     -39.030  23.553   8.132  1.00  0.00    -0.000 C 
BRANCH  17  18
ATOM     18  C   UNL     1     -38.185  24.093   6.970  1.00  0.00    -0.000 C 
BRANCH  18  19
ATOM     19  C   UNL     1     -37.608  25.474   7.306  1.00  0.00    -0.003 C 
ATOM     20  C   UNL     1     -36.172  25.607   6.810  1.00  0.00     0.004 C 
ENDBRANCH  18  19
ENDBRANCH  17  18
ENDBRANCH  16  17
ENDBRANCH  15  16
ENDBRANCH  14  15
ENDBRANCH  13  14
ENDBRANCH   2  13
TORSDOF 15
ENDMDL
