MODEL 1
REMARK VINA RESULT:    -2.922      0.000      0.000
REMARK INTER + INTRA:          -3.485
REMARK INTER:                  -3.435
REMARK INTRA:                  -0.050
REMARK UNBOUND:                -0.050
REMARK SMILES CCCCC(=O)[O-]
REMARK SMILES IDX 4 1 5 2 6 3 7 4 3 5 2 6 1 7
REMARK H PARENT
REMARK Flexibility Score: inf
ROOT
ATOM      1  C   UNL     1     118.969 113.704 116.755  1.00  0.00     0.053 C 
ENDROOT
BRANCH   1   2
ATOM      2  C   UNL     1     117.660 114.411 116.602  1.00  0.00     0.041 C 
ATOM      3  O   UNL     1     116.595 113.863 116.988  1.00  0.00    -0.550 OA
ATOM      4  O   UNL     1     117.610 115.656 115.988  1.00  0.00    -0.550 OA
ENDBRANCH   1   2
BRANCH   1   5
ATOM      5  C   UNL     1     118.927 112.757 117.962  1.00  0.00     0.006 C 
BRANCH   5   6
ATOM      6  C   UNL     1     119.692 111.448 117.712  1.00  0.00    -0.003 C 
ATOM      7  C   UNL     1     120.680 111.554 116.551  1.00  0.00     0.004 C 
ENDBRANCH   5   6
ENDBRANCH   1   5
TORSDOF 3
ENDMDL
MODEL 2
REMARK VINA RESULT:    -2.864     11.671     12.436
REMARK INTER + INTRA:          -3.417
REMARK INTER:                  -3.400
REMARK INTRA:                  -0.016
REMARK UNBOUND:                -0.050
REMARK SMILES CCCCC(=O)[O-]
REMARK SMILES IDX 4 1 5 2 6 3 7 4 3 5 2 6 1 7
REMARK H PARENT
REMARK Flexibility Score: inf
ROOT
ATOM      1  C   UNL     1     120.686 107.819 106.112  1.00  0.00     0.053 C 
ENDROOT
BRANCH   1   2
ATOM      2  C   UNL     1     120.080 106.771 105.231  1.00  0.00     0.041 C 
ATOM      3  O   UNL     1     119.329 105.888 105.722  1.00  0.00    -0.550 OA
ATOM      4  O   UNL     1     120.385 106.741 103.876  1.00  0.00    -0.550 OA
ENDBRANCH   1   2
BRANCH   1   5
ATOM      5  C   UNL     1     119.587 108.609 106.836  1.00  0.00     0.006 C 
BRANCH   5   6
ATOM      6  C   UNL     1     120.138 109.833 107.585  1.00  0.00    -0.003 C 
ATOM      7  C   UNL     1     119.926 109.746 109.095  1.00  0.00     0.004 C 
ENDBRANCH   5   6
ENDBRANCH   1   5
TORSDOF 3
ENDMDL
MODEL 3
REMARK VINA RESULT:    -2.757      8.126      8.834
REMARK INTER + INTRA:          -3.290
REMARK INTER:                  -3.269
REMARK INTRA:                  -0.021
REMARK UNBOUND:                -0.050
REMARK SMILES CCCCC(=O)[O-]
REMARK SMILES IDX 4 1 5 2 6 3 7 4 3 5 2 6 1 7
REMARK H PARENT
REMARK Flexibility Score: inf
ROOT
ATOM      1  C   UNL     1     120.145 109.672 109.331  1.00  0.00     0.053 C 
ENDROOT
BRANCH   1   2
ATOM      2  C   UNL     1     120.045 109.912 107.858  1.00  0.00     0.041 C 
ATOM      3  O   UNL     1     120.226 111.066 107.391  1.00  0.00    -0.550 OA
ATOM      4  O   UNL     1     119.705 108.870 107.005  1.00  0.00    -0.550 OA
ENDBRANCH   1   2
BRANCH   1   5
ATOM      5  C   UNL     1     119.228 110.637 110.094  1.00  0.00     0.006 C 
BRANCH   5   6
ATOM      6  C   UNL     1     119.047 110.239 111.567  1.00  0.00    -0.003 C 
ATOM      7  C   UNL     1     120.376 110.001 112.282  1.00  0.00     0.004 C 
ENDBRANCH   5   6
ENDBRANCH   1   5
TORSDOF 3
ENDMDL
MODEL 4
REMARK VINA RESULT:    -2.754      3.067      4.141
REMARK INTER + INTRA:          -3.287
REMARK INTER:                  -3.215
REMARK INTRA:                  -0.072
REMARK UNBOUND:                -0.050
REMARK SMILES CCCCC(=O)[O-]
REMARK SMILES IDX 4 1 5 2 6 3 7 4 3 5 2 6 1 7
REMARK H PARENT
REMARK Flexibility Score: inf
ROOT
ATOM      1  C   UNL     1     119.704 111.477 117.745  1.00  0.00     0.053 C 
ENDROOT
BRANCH   1   2
ATOM      2  C   UNL     1     120.907 112.068 118.410  1.00  0.00     0.041 C 
ATOM      3  O   UNL     1     122.000 112.145 117.790  1.00  0.00    -0.550 OA
ATOM      4  O   UNL     1     120.834 112.491 119.731  1.00  0.00    -0.550 OA
ENDBRANCH   1   2
BRANCH   1   5
ATOM      5  C   UNL     1     118.454 112.309 118.062  1.00  0.00     0.006 C 
BRANCH   5   6
ATOM      6  C   UNL     1     118.446 113.662 117.332  1.00  0.00    -0.003 C 
ATOM      7  C   UNL     1     117.040 114.118 116.949  1.00  0.00     0.004 C 
ENDBRANCH   5   6
ENDBRANCH   1   5
TORSDOF 3
ENDMDL
MODEL 5
REMARK VINA RESULT:    -2.744      2.400      4.055
REMARK INTER + INTRA:          -3.276
REMARK INTER:                  -3.258
REMARK INTRA:                  -0.018
REMARK UNBOUND:                -0.050
REMARK SMILES CCCCC(=O)[O-]
REMARK SMILES IDX 4 1 5 2 6 3 7 4 3 5 2 6 1 7
REMARK H PARENT
REMARK Flexibility Score: inf
ROOT
ATOM      1  C   UNL     1     118.603 114.519 115.873  1.00  0.00     0.053 C 
ENDROOT
BRANCH   1   2
ATOM      2  C   UNL     1     117.838 113.914 117.008  1.00  0.00     0.041 C 
ATOM      3  O   UNL     1     116.580 113.937 117.008  1.00  0.00    -0.550 OA
ATOM      4  O   UNL     1     118.516 113.369 118.091  1.00  0.00    -0.550 OA
ENDBRANCH   1   2
BRANCH   1   5
ATOM      5  C   UNL     1     118.013 115.885 115.499  1.00  0.00     0.006 C 
BRANCH   5   6
ATOM      6  C   UNL     1     118.839 116.609 114.423  1.00  0.00    -0.003 C 
ATOM      7  C   UNL     1     119.149 118.059 114.793  1.00  0.00     0.004 C 
ENDBRANCH   5   6
ENDBRANCH   1   5
TORSDOF 3
ENDMDL
MODEL 6
REMARK VINA RESULT:    -2.737      2.842      3.932
REMARK INTER + INTRA:          -3.267
REMARK INTER:                  -3.186
REMARK INTRA:                  -0.081
REMARK UNBOUND:                -0.050
REMARK SMILES CCCCC(=O)[O-]
REMARK SMILES IDX 4 1 5 2 6 3 7 4 3 5 2 6 1 7
REMARK H PARENT
REMARK Flexibility Score: inf
ROOT
ATOM      1  C   UNL     1     119.576 111.496 117.755  1.00  0.00     0.053 C 
ENDROOT
BRANCH   1   2
ATOM      2  C   UNL     1     120.790 111.744 116.917  1.00  0.00     0.041 C 
ATOM      3  O   UNL     1     121.784 112.344 117.404  1.00  0.00    -0.550 OA
ATOM      4  O   UNL     1     120.806 111.356 115.583  1.00  0.00    -0.550 OA
ENDBRANCH   1   2
BRANCH   1   5
ATOM      5  C   UNL     1     118.950 112.825 118.197  1.00  0.00     0.006 C 
BRANCH   5   6
ATOM      6  C   UNL     1     118.551 113.713 117.008  1.00  0.00    -0.003 C 
ATOM      7  C   UNL     1     117.074 114.101 117.029  1.00  0.00     0.004 C 
ENDBRANCH   5   6
ENDBRANCH   1   5
TORSDOF 3
ENDMDL
MODEL 7
REMARK VINA RESULT:    -2.682     12.022     12.663
REMARK INTER + INTRA:          -3.202
REMARK INTER:                  -3.154
REMARK INTRA:                  -0.049
REMARK UNBOUND:                -0.050
REMARK SMILES CCCCC(=O)[O-]
REMARK SMILES IDX 4 1 5 2 6 3 7 4 3 5 2 6 1 7
REMARK H PARENT
REMARK Flexibility Score: inf
ROOT
ATOM      1  C   UNL     1     121.241 116.501 104.255  1.00  0.00     0.053 C 
ENDROOT
BRANCH   1   2
ATOM      2  C   UNL     1     120.475 117.785 104.273  1.00  0.00     0.041 C 
ATOM      3  O   UNL     1     121.083 118.887 104.251  1.00  0.00    -0.550 OA
ATOM      4  O   UNL     1     119.088 117.767 104.365  1.00  0.00    -0.550 OA
ENDBRANCH   1   2
BRANCH   1   5
ATOM      5  C   UNL     1     121.250 115.863 105.650  1.00  0.00     0.006 C 
BRANCH   5   6
ATOM      6  C   UNL     1     120.317 114.646 105.748  1.00  0.00    -0.003 C 
ATOM      7  C   UNL     1     121.056 113.363 106.125  1.00  0.00     0.004 C 
ENDBRANCH   5   6
ENDBRANCH   1   5
TORSDOF 3
ENDMDL
MODEL 8
REMARK VINA RESULT:    -2.681      1.502      2.119
REMARK INTER + INTRA:          -3.201
REMARK INTER:                  -3.115
REMARK INTRA:                  -0.086
REMARK UNBOUND:                -0.050
REMARK SMILES CCCCC(=O)[O-]
REMARK SMILES IDX 4 1 5 2 6 3 7 4 3 5 2 6 1 7
REMARK H PARENT
REMARK Flexibility Score: inf
ROOT
ATOM      1  C   UNL     1     118.843 112.588 118.221  1.00  0.00     0.053 C 
ENDROOT
BRANCH   1   2
ATOM      2  C   UNL     1     118.515 113.617 117.186  1.00  0.00     0.041 C 
ATOM      3  O   UNL     1     119.377 113.957 116.334  1.00  0.00    -0.550 OA
ATOM      4  O   UNL     1     117.272 114.238 117.192  1.00  0.00    -0.550 OA
ENDBRANCH   1   2
BRANCH   1   5
ATOM      5  C   UNL     1     119.714 111.479 117.615  1.00  0.00     0.006 C 
BRANCH   5   6
ATOM      6  C   UNL     1     121.000 111.234 118.420  1.00  0.00    -0.003 C 
ATOM      7  C   UNL     1     121.150 112.191 119.601  1.00  0.00     0.004 C 
ENDBRANCH   5   6
ENDBRANCH   1   5
TORSDOF 3
ENDMDL
MODEL 9
REMARK VINA RESULT:    -2.653      2.612      3.467
REMARK INTER + INTRA:          -3.169
REMARK INTER:                  -3.152
REMARK INTRA:                  -0.017
REMARK UNBOUND:                -0.050
REMARK SMILES CCCCC(=O)[O-]
REMARK SMILES IDX 4 1 5 2 6 3 7 4 3 5 2 6 1 7
REMARK H PARENT
REMARK Flexibility Score: inf
ROOT
ATOM      1  C   UNL     1     117.998 115.985 115.500  1.00  0.00     0.053 C 
ENDROOT
BRANCH   1   2
ATOM      2  C   UNL     1     118.877 116.481 114.396  1.00  0.00     0.041 C 
ATOM      3  O   UNL     1     119.246 117.685 114.372  1.00  0.00    -0.550 OA
ATOM      4  O   UNL     1     119.250 115.627 113.366  1.00  0.00    -0.550 OA
ENDBRANCH   1   2
BRANCH   1   5
ATOM      5  C   UNL     1     118.371 114.544 115.874  1.00  0.00     0.006 C 
BRANCH   5   6
ATOM      6  C   UNL     1     117.699 114.080 117.175  1.00  0.00    -0.003 C 
ATOM      7  C   UNL     1     118.502 113.003 117.904  1.00  0.00     0.004 C 
ENDBRANCH   5   6
ENDBRANCH   1   5
TORSDOF 3
ENDMDL
