MODEL 1
REMARK VINA RESULT:    -3.673      0.000      0.000
REMARK INTER + INTRA:          -4.360
REMARK INTER:                  -4.317
REMARK INTRA:                  -0.043
REMARK UNBOUND:                -0.043
REMARK SMILES CCCCC(=O)[O-]
REMARK SMILES IDX 4 1 5 2 6 3 7 4 3 5 2 6 1 7
REMARK H PARENT
REMARK Flexibility Score: inf
ROOT
ATOM      1  C   UNL     1       6.378  23.650  -7.347  1.00  0.00     0.053 C 
ENDROOT
BRANCH   1   2
ATOM      2  C   UNL     1       6.766  24.023  -5.952  1.00  0.00     0.041 C 
ATOM      3  O   UNL     1       7.273  23.163  -5.184  1.00  0.00    -0.550 OA
ATOM      4  O   UNL     1       6.614  25.331  -5.513  1.00  0.00    -0.550 OA
ENDBRANCH   1   2
BRANCH   1   5
ATOM      5  C   UNL     1       7.373  24.238  -8.355  1.00  0.00     0.006 C 
BRANCH   5   6
ATOM      6  C   UNL     1       8.329  23.180  -8.927  1.00  0.00    -0.003 C 
ATOM      7  C   UNL     1       7.694  22.353 -10.045  1.00  0.00     0.004 C 
ENDBRANCH   5   6
ENDBRANCH   1   5
TORSDOF 3
ENDMDL
MODEL 2
REMARK VINA RESULT:    -3.624      4.240      4.967
REMARK INTER + INTRA:          -4.302
REMARK INTER:                  -4.196
REMARK INTRA:                  -0.107
REMARK UNBOUND:                -0.043
REMARK SMILES CCCCC(=O)[O-]
REMARK SMILES IDX 4 1 5 2 6 3 7 4 3 5 2 6 1 7
REMARK H PARENT
REMARK Flexibility Score: inf
ROOT
ATOM      1  C   UNL     1      10.370  22.376  -8.135  1.00  0.00     0.053 C 
ENDROOT
BRANCH   1   2
ATOM      2  C   UNL     1      10.930  21.011  -7.890  1.00  0.00     0.041 C 
ATOM      3  O   UNL     1      12.132  20.760  -8.169  1.00  0.00    -0.550 OA
ATOM      4  O   UNL     1      10.140  20.030  -7.307  1.00  0.00    -0.550 OA
ENDBRANCH   1   2
BRANCH   1   5
ATOM      5  C   UNL     1      10.026  22.555  -9.619  1.00  0.00     0.006 C 
BRANCH   5   6
ATOM      6  C   UNL     1      11.042  23.439 -10.358  1.00  0.00    -0.003 C 
ATOM      7  C   UNL     1      11.803  24.375  -9.421  1.00  0.00     0.004 C 
ENDBRANCH   5   6
ENDBRANCH   1   5
TORSDOF 3
ENDMDL
MODEL 3
REMARK VINA RESULT:    -3.605      2.993      3.893
REMARK INTER + INTRA:          -4.281
REMARK INTER:                  -4.208
REMARK INTRA:                  -0.073
REMARK UNBOUND:                -0.043
REMARK SMILES CCCCC(=O)[O-]
REMARK SMILES IDX 4 1 5 2 6 3 7 4 3 5 2 6 1 7
REMARK H PARENT
REMARK Flexibility Score: inf
ROOT
ATOM      1  C   UNL     1      10.424  21.958  -8.463  1.00  0.00     0.053 C 
ENDROOT
BRANCH   1   2
ATOM      2  C   UNL     1       9.510  22.201  -7.304  1.00  0.00     0.041 C 
ATOM      3  O   UNL     1       8.492  22.929  -7.441  1.00  0.00    -0.550 OA
ATOM      4  O   UNL     1       9.755  21.583  -6.085  1.00  0.00    -0.550 OA
ENDBRANCH   1   2
BRANCH   1   5
ATOM      5  C   UNL     1       9.935  22.721  -9.699  1.00  0.00     0.006 C 
BRANCH   5   6
ATOM      6  C   UNL     1      11.064  23.486 -10.407  1.00  0.00    -0.003 C 
ATOM      7  C   UNL     1      11.812  24.434  -9.472  1.00  0.00     0.004 C 
ENDBRANCH   5   6
ENDBRANCH   1   5
TORSDOF 3
ENDMDL
MODEL 4
REMARK VINA RESULT:    -3.544      4.175      4.963
REMARK INTER + INTRA:          -4.209
REMARK INTER:                  -4.161
REMARK INTRA:                  -0.048
REMARK UNBOUND:                -0.043
REMARK SMILES CCCCC(=O)[O-]
REMARK SMILES IDX 4 1 5 2 6 3 7 4 3 5 2 6 1 7
REMARK H PARENT
REMARK Flexibility Score: inf
ROOT
ATOM      1  C   UNL     1      11.333  22.869  -8.496  1.00  0.00     0.053 C 
ENDROOT
BRANCH   1   2
ATOM      2  C   UNL     1      12.164  24.071  -8.813  1.00  0.00     0.041 C 
ATOM      3  O   UNL     1      11.931  24.748  -9.849  1.00  0.00    -0.550 OA
ATOM      4  O   UNL     1      13.165  24.475  -7.940  1.00  0.00    -0.550 OA
ENDBRANCH   1   2
BRANCH   1   5
ATOM      5  C   UNL     1      10.298  22.627  -9.600  1.00  0.00     0.006 C 
BRANCH   5   6
ATOM      6  C   UNL     1       8.871  22.991  -9.162  1.00  0.00    -0.003 C 
ATOM      7  C   UNL     1       7.801  22.387 -10.070  1.00  0.00     0.004 C 
ENDBRANCH   5   6
ENDBRANCH   1   5
TORSDOF 3
ENDMDL
MODEL 5
REMARK VINA RESULT:    -3.539      4.352      5.134
REMARK INTER + INTRA:          -4.202
REMARK INTER:                  -4.106
REMARK INTRA:                  -0.096
REMARK UNBOUND:                -0.043
REMARK SMILES CCCCC(=O)[O-]
REMARK SMILES IDX 4 1 5 2 6 3 7 4 3 5 2 6 1 7
REMARK H PARENT
REMARK Flexibility Score: inf
ROOT
ATOM      1  C   UNL     1       9.843  22.205  -8.928  1.00  0.00     0.053 C 
ENDROOT
BRANCH   1   2
ATOM      2  C   UNL     1      10.970  23.091  -9.354  1.00  0.00     0.041 C 
ATOM      3  O   UNL     1      11.831  23.469  -8.517  1.00  0.00    -0.550 OA
ATOM      4  O   UNL     1      11.099  23.459 -10.687  1.00  0.00    -0.550 OA
ENDBRANCH   1   2
BRANCH   1   5
ATOM      5  C   UNL     1      10.035  21.755  -7.475  1.00  0.00     0.006 C 
BRANCH   5   6
ATOM      6  C   UNL     1      10.211  20.234  -7.347  1.00  0.00    -0.003 C 
ATOM      7  C   UNL     1      11.574  19.753  -7.843  1.00  0.00     0.004 C 
ENDBRANCH   5   6
ENDBRANCH   1   5
TORSDOF 3
ENDMDL
MODEL 6
REMARK VINA RESULT:    -3.496      3.620      4.378
REMARK INTER + INTRA:          -4.152
REMARK INTER:                  -4.136
REMARK INTRA:                  -0.016
REMARK UNBOUND:                -0.043
REMARK SMILES CCCCC(=O)[O-]
REMARK SMILES IDX 4 1 5 2 6 3 7 4 3 5 2 6 1 7
REMARK H PARENT
REMARK Flexibility Score: inf
ROOT
ATOM      1  C   UNL     1       9.051  23.176  -8.963  1.00  0.00     0.053 C 
ENDROOT
BRANCH   1   2
ATOM      2  C   UNL     1      10.365  22.604  -9.390  1.00  0.00     0.041 C 
ATOM      3  O   UNL     1      10.956  23.060 -10.404  1.00  0.00    -0.550 OA
ATOM      4  O   UNL     1      10.962  21.599  -8.641  1.00  0.00    -0.550 OA
ENDBRANCH   1   2
BRANCH   1   5
ATOM      5  C   UNL     1       7.904  22.530  -9.749  1.00  0.00     0.006 C 
BRANCH   5   6
ATOM      6  C   UNL     1       6.538  23.152  -9.419  1.00  0.00    -0.003 C 
ATOM      7  C   UNL     1       5.377  22.415 -10.083  1.00  0.00     0.004 C 
ENDBRANCH   5   6
ENDBRANCH   1   5
TORSDOF 3
ENDMDL
MODEL 7
REMARK VINA RESULT:    -3.462      3.519      4.293
REMARK INTER + INTRA:          -4.112
REMARK INTER:                  -4.083
REMARK INTRA:                  -0.030
REMARK UNBOUND:                -0.043
REMARK SMILES CCCCC(=O)[O-]
REMARK SMILES IDX 4 1 5 2 6 3 7 4 3 5 2 6 1 7
REMARK H PARENT
REMARK Flexibility Score: inf
ROOT
ATOM      1  C   UNL     1       8.921  22.568  -9.775  1.00  0.00     0.053 C 
ENDROOT
BRANCH   1   2
ATOM      2  C   UNL     1      10.415  22.587  -9.708  1.00  0.00     0.041 C 
ATOM      3  O   UNL     1      11.023  21.841  -8.896  1.00  0.00    -0.550 OA
ATOM      4  O   UNL     1      11.140  23.393 -10.575  1.00  0.00    -0.550 OA
ENDBRANCH   1   2
BRANCH   1   5
ATOM      5  C   UNL     1       8.326  23.545  -8.755  1.00  0.00     0.006 C 
BRANCH   5   6
ATOM      6  C   UNL     1       6.802  23.684  -8.889  1.00  0.00    -0.003 C 
ATOM      7  C   UNL     1       6.223  22.795  -9.989  1.00  0.00     0.004 C 
ENDBRANCH   5   6
ENDBRANCH   1   5
TORSDOF 3
ENDMDL
MODEL 8
REMARK VINA RESULT:    -3.448      3.627      4.656
REMARK INTER + INTRA:          -4.096
REMARK INTER:                  -4.028
REMARK INTRA:                  -0.068
REMARK UNBOUND:                -0.043
REMARK SMILES CCCCC(=O)[O-]
REMARK SMILES IDX 4 1 5 2 6 3 7 4 3 5 2 6 1 7
REMARK H PARENT
REMARK Flexibility Score: inf
ROOT
ATOM      1  C   UNL     1       9.723  22.032  -8.487  1.00  0.00     0.053 C 
ENDROOT
BRANCH   1   2
ATOM      2  C   UNL     1      10.157  21.221  -7.308  1.00  0.00     0.041 C 
ATOM      3  O   UNL     1      10.166  21.731  -6.156  1.00  0.00    -0.550 OA
ATOM      4  O   UNL     1      10.505  19.887  -7.471  1.00  0.00    -0.550 OA
ENDBRANCH   1   2
BRANCH   1   5
ATOM      5  C   UNL     1      10.936  22.447  -9.328  1.00  0.00     0.006 C 
BRANCH   5   6
ATOM      6  C   UNL     1      11.235  23.951  -9.232  1.00  0.00    -0.003 C 
ATOM      7  C   UNL     1      12.551  24.247  -8.516  1.00  0.00     0.004 C 
ENDBRANCH   5   6
ENDBRANCH   1   5
TORSDOF 3
ENDMDL
MODEL 9
REMARK VINA RESULT:    -3.413      2.469      3.578
REMARK INTER + INTRA:          -4.055
REMARK INTER:                  -3.973
REMARK INTRA:                  -0.081
REMARK UNBOUND:                -0.043
REMARK SMILES CCCCC(=O)[O-]
REMARK SMILES IDX 4 1 5 2 6 3 7 4 3 5 2 6 1 7
REMARK H PARENT
REMARK Flexibility Score: inf
ROOT
ATOM      1  C   UNL     1       9.545  22.874  -8.503  1.00  0.00     0.053 C 
ENDROOT
BRANCH   1   2
ATOM      2  C   UNL     1       9.882  21.747  -7.580  1.00  0.00     0.041 C 
ATOM      3  O   UNL     1      10.636  20.815  -7.966  1.00  0.00    -0.550 OA
ATOM      4  O   UNL     1       9.403  21.748  -6.277  1.00  0.00    -0.550 OA
ENDBRANCH   1   2
BRANCH   1   5
ATOM      5  C   UNL     1       8.501  22.430  -9.534  1.00  0.00     0.006 C 
BRANCH   5   6
ATOM      6  C   UNL     1       7.139  23.110  -9.327  1.00  0.00    -0.003 C 
ATOM      7  C   UNL     1       7.219  24.321  -8.399  1.00  0.00     0.004 C 
ENDBRANCH   5   6
ENDBRANCH   1   5
TORSDOF 3
ENDMDL
