MODEL 1
REMARK VINA RESULT:    -5.651      0.000      0.000
REMARK INTER + INTRA:          -6.279
REMARK INTER:                  -5.982
REMARK INTRA:                  -0.297
REMARK UNBOUND:                -0.297
REMARK SMILES CC1=CC[C@@]23[C@@H]([C@@H](C(C)C)CC[C@@H]2C)[C@H]13
REMARK SMILES IDX 14 1 13 2 12 3 11 4 7 5 6 6 5 7 15 8 2 9 3 10 4 11 1 12 8 13
REMARK SMILES IDX 9 14 10 15
REMARK H PARENT
REMARK Flexibility Score: inf
ROOT
ATOM      1  C   UNL     1      30.106   6.924  36.683  1.00  0.00     0.008 C 
ATOM      2  C   UNL     1      31.210   7.461  35.760  1.00  0.00    -0.007 C 
ATOM      3  C   UNL     1      31.049   6.869  34.347  1.00  0.00     0.004 C 
ATOM      4  C   UNL     1      31.970   7.562  33.349  1.00  0.00     0.004 C 
ATOM      5  C   UNL     1      31.529   9.025  33.139  1.00  0.00    -0.004 C 
ATOM      6  C   UNL     1      31.485   9.801  34.481  1.00  0.00     0.007 C 
ATOM      7  C   UNL     1      31.274   9.014  35.782  1.00  0.00    -0.013 C 
ATOM      8  C   UNL     1      30.108   9.780  35.163  1.00  0.00     0.025 C 
ATOM      9  C   UNL     1      29.842  10.871  36.146  1.00  0.00    -0.073 C 
ATOM     10  C   UNL     1      30.668  10.845  37.186  1.00  0.00    -0.027 C 
ATOM     11  C   UNL     1      31.666   9.745  37.077  1.00  0.00     0.035 C 
ATOM     12  C   UNL     1      28.763  11.894  35.974  1.00  0.00     0.039 C 
ENDROOT
BRANCH   5  13
ATOM     13  C   UNL     1      32.406   9.787  32.100  1.00  0.00    -0.014 C 
ATOM     14  C   UNL     1      31.630  10.224  30.844  1.00  0.00     0.007 C 
ATOM     15  C   UNL     1      33.125  10.993  32.724  1.00  0.00     0.007 C 
ENDBRANCH   5  13
TORSDOF 1
ENDMDL
MODEL 2
REMARK VINA RESULT:    -5.608      3.403      7.187
REMARK INTER + INTRA:          -6.233
REMARK INTER:                  -5.910
REMARK INTRA:                  -0.323
REMARK UNBOUND:                -0.297
REMARK SMILES CC1=CC[C@@]23[C@@H]([C@@H](C(C)C)CC[C@@H]2C)[C@H]13
REMARK SMILES IDX 14 1 13 2 12 3 11 4 7 5 6 6 5 7 15 8 2 9 3 10 4 11 1 12 8 13
REMARK SMILES IDX 9 14 10 15
REMARK H PARENT
REMARK Flexibility Score: inf
ROOT
ATOM      1  C   UNL     1      31.802  11.871  26.682  1.00  0.00     0.008 C 
ATOM      2  C   UNL     1      32.376  11.261  27.969  1.00  0.00    -0.007 C 
ATOM      3  C   UNL     1      32.273  12.276  29.123  1.00  0.00     0.004 C 
ATOM      4  C   UNL     1      32.603  11.625  30.463  1.00  0.00     0.004 C 
ATOM      5  C   UNL     1      31.520  10.594  30.839  1.00  0.00    -0.004 C 
ATOM      6  C   UNL     1      31.349   9.522  29.733  1.00  0.00     0.007 C 
ATOM      7  C   UNL     1      31.732   9.883  28.290  1.00  0.00    -0.013 C 
ATOM      8  C   UNL     1      30.263   9.866  28.700  1.00  0.00     0.025 C 
ATOM      9  C   UNL     1      29.696   8.718  27.933  1.00  0.00    -0.073 C 
ATOM     10  C   UNL     1      30.602   8.095  27.186  1.00  0.00    -0.027 C 
ATOM     11  C   UNL     1      31.956   8.694  27.340  1.00  0.00     0.035 C 
ATOM     12  C   UNL     1      28.259   8.306  28.003  1.00  0.00     0.039 C 
ENDROOT
BRANCH   5  13
ATOM     13  C   UNL     1      31.774   9.914  32.219  1.00  0.00    -0.014 C 
ATOM     14  C   UNL     1      31.654   8.381  32.179  1.00  0.00     0.007 C 
ATOM     15  C   UNL     1      33.125  10.325  32.825  1.00  0.00     0.007 C 
ENDBRANCH   5  13
TORSDOF 1
ENDMDL
MODEL 3
REMARK VINA RESULT:    -5.529      2.814      5.166
REMARK INTER + INTRA:          -6.149
REMARK INTER:                  -5.856
REMARK INTRA:                  -0.293
REMARK UNBOUND:                -0.297
REMARK SMILES CC1=CC[C@@]23[C@@H]([C@@H](C(C)C)CC[C@@H]2C)[C@H]13
REMARK SMILES IDX 14 1 13 2 12 3 11 4 7 5 6 6 5 7 15 8 2 9 3 10 4 11 1 12 8 13
REMARK SMILES IDX 9 14 10 15
REMARK H PARENT
REMARK Flexibility Score: inf
ROOT
ATOM      1  C   UNL     1      32.414  11.506  33.440  1.00  0.00     0.008 C 
ATOM      2  C   UNL     1      32.563  10.229  32.600  1.00  0.00    -0.007 C 
ATOM      3  C   UNL     1      31.825   9.062  33.284  1.00  0.00     0.004 C 
ATOM      4  C   UNL     1      31.742   7.847  32.365  1.00  0.00     0.004 C 
ATOM      5  C   UNL     1      30.827   8.148  31.161  1.00  0.00    -0.004 C 
ATOM      6  C   UNL     1      31.310   9.397  30.380  1.00  0.00     0.007 C 
ATOM      7  C   UNL     1      32.135  10.458  31.123  1.00  0.00    -0.013 C 
ATOM      8  C   UNL     1      30.656  10.708  30.845  1.00  0.00     0.025 C 
ATOM      9  C   UNL     1      30.667  11.834  29.865  1.00  0.00    -0.073 C 
ATOM     10  C   UNL     1      31.894  12.233  29.548  1.00  0.00    -0.027 C 
ATOM     11  C   UNL     1      32.938  11.423  30.236  1.00  0.00     0.035 C 
ATOM     12  C   UNL     1      29.427  12.444  29.293  1.00  0.00     0.039 C 
ENDROOT
BRANCH   5  13
ATOM     13  C   UNL     1      30.665   6.934  30.195  1.00  0.00    -0.014 C 
ATOM     14  C   UNL     1      29.289   6.253  30.290  1.00  0.00     0.007 C 
ATOM     15  C   UNL     1      30.971   7.310  28.737  1.00  0.00     0.007 C 
ENDBRANCH   5  13
TORSDOF 1
ENDMDL
MODEL 4
REMARK VINA RESULT:    -5.528      2.955      5.985
REMARK INTER + INTRA:          -6.148
REMARK INTER:                  -5.885
REMARK INTRA:                  -0.262
REMARK UNBOUND:                -0.297
REMARK SMILES CC1=CC[C@@]23[C@@H]([C@@H](C(C)C)CC[C@@H]2C)[C@H]13
REMARK SMILES IDX 14 1 13 2 12 3 11 4 7 5 6 6 5 7 15 8 2 9 3 10 4 11 1 12 8 13
REMARK SMILES IDX 9 14 10 15
REMARK H PARENT
REMARK Flexibility Score: inf
ROOT
ATOM      1  C   UNL     1      33.036  13.011  30.752  1.00  0.00     0.008 C 
ATOM      2  C   UNL     1      33.125  11.488  30.929  1.00  0.00    -0.007 C 
ATOM      3  C   UNL     1      33.054  11.128  32.425  1.00  0.00     0.004 C 
ATOM      4  C   UNL     1      32.893   9.624  32.625  1.00  0.00     0.004 C 
ATOM      5  C   UNL     1      31.513   9.161  32.115  1.00  0.00    -0.004 C 
ATOM      6  C   UNL     1      31.300   9.546  30.628  1.00  0.00     0.007 C 
ATOM      7  C   UNL     1      32.073  10.745  30.058  1.00  0.00    -0.013 C 
ATOM      8  C   UNL     1      30.603  10.903  30.434  1.00  0.00     0.025 C 
ATOM      9  C   UNL     1      29.924  11.114  29.122  1.00  0.00    -0.073 C 
ATOM     10  C   UNL     1      30.764  11.083  28.093  1.00  0.00    -0.027 C 
ATOM     11  C   UNL     1      32.164  10.814  28.525  1.00  0.00     0.035 C 
ATOM     12  C   UNL     1      28.451  11.328  28.978  1.00  0.00     0.039 C 
ENDROOT
BRANCH   5  13
ATOM     13  C   UNL     1      31.263   7.636  32.322  1.00  0.00    -0.014 C 
ATOM     14  C   UNL     1      30.951   7.257  33.780  1.00  0.00     0.007 C 
ATOM     15  C   UNL     1      30.166   7.099  31.389  1.00  0.00     0.007 C 
ENDBRANCH   5  13
TORSDOF 1
ENDMDL
MODEL 5
REMARK VINA RESULT:    -5.437      2.852      5.595
REMARK INTER + INTRA:          -6.051
REMARK INTER:                  -5.730
REMARK INTRA:                  -0.321
REMARK UNBOUND:                -0.297
REMARK SMILES CC1=CC[C@@]23[C@@H]([C@@H](C(C)C)CC[C@@H]2C)[C@H]13
REMARK SMILES IDX 14 1 13 2 12 3 11 4 7 5 6 6 5 7 15 8 2 9 3 10 4 11 1 12 8 13
REMARK SMILES IDX 9 14 10 15
REMARK H PARENT
REMARK Flexibility Score: inf
ROOT
ATOM      1  C   UNL     1      29.760   6.625  30.388  1.00  0.00     0.008 C 
ATOM      2  C   UNL     1      30.061   7.870  31.234  1.00  0.00    -0.007 C 
ATOM      3  C   UNL     1      31.256   7.596  32.167  1.00  0.00     0.004 C 
ATOM      4  C   UNL     1      31.737   8.877  32.840  1.00  0.00     0.004 C 
ATOM      5  C   UNL     1      32.354   9.831  31.797  1.00  0.00    -0.004 C 
ATOM      6  C   UNL     1      31.350  10.150  30.659  1.00  0.00     0.007 C 
ATOM      7  C   UNL     1      30.237   9.138  30.351  1.00  0.00    -0.013 C 
ATOM      8  C   UNL     1      31.467   9.208  29.450  1.00  0.00     0.025 C 
ATOM      9  C   UNL     1      30.927   9.724  28.157  1.00  0.00    -0.073 C 
ATOM     10  C   UNL     1      29.621   9.962  28.199  1.00  0.00    -0.027 C 
ATOM     11  C   UNL     1      29.046   9.678  29.543  1.00  0.00     0.035 C 
ATOM     12  C   UNL     1      31.771   9.957  26.943  1.00  0.00     0.039 C 
ENDROOT
BRANCH   5  13
ATOM     13  C   UNL     1      32.903  11.150  32.422  1.00  0.00    -0.014 C 
ATOM     14  C   UNL     1      32.336  12.422  31.767  1.00  0.00     0.007 C 
ATOM     15  C   UNL     1      32.693  11.199  33.943  1.00  0.00     0.007 C 
ENDBRANCH   5  13
TORSDOF 1
ENDMDL
MODEL 6
REMARK VINA RESULT:    -5.402      3.655      6.516
REMARK INTER + INTRA:          -6.014
REMARK INTER:                  -5.717
REMARK INTRA:                  -0.297
REMARK UNBOUND:                -0.297
REMARK SMILES CC1=CC[C@@]23[C@@H]([C@@H](C(C)C)CC[C@@H]2C)[C@H]13
REMARK SMILES IDX 14 1 13 2 12 3 11 4 7 5 6 6 5 7 15 8 2 9 3 10 4 11 1 12 8 13
REMARK SMILES IDX 9 14 10 15
REMARK H PARENT
REMARK Flexibility Score: inf
ROOT
ATOM      1  C   UNL     1      31.968   9.193  32.252  1.00  0.00     0.008 C 
ATOM      2  C   UNL     1      31.550  10.389  31.383  1.00  0.00    -0.007 C 
ATOM      3  C   UNL     1      32.779  11.262  31.066  1.00  0.00     0.004 C 
ATOM      4  C   UNL     1      32.451  12.314  30.011  1.00  0.00     0.004 C 
ATOM      5  C   UNL     1      32.173  11.641  28.652  1.00  0.00    -0.004 C 
ATOM      6  C   UNL     1      31.033  10.595  28.760  1.00  0.00     0.007 C 
ATOM      7  C   UNL     1      30.763   9.936  30.121  1.00  0.00    -0.013 C 
ATOM      8  C   UNL     1      31.528   9.168  29.047  1.00  0.00     0.025 C 
ATOM      9  C   UNL     1      30.598   8.061  28.676  1.00  0.00    -0.073 C 
ATOM     10  C   UNL     1      29.453   8.099  29.349  1.00  0.00    -0.027 C 
ATOM     11  C   UNL     1      29.391   9.262  30.277  1.00  0.00     0.035 C 
ATOM     12  C   UNL     1      30.918   7.022  27.648  1.00  0.00     0.039 C 
ENDROOT
BRANCH   5  13
ATOM     13  C   UNL     1      31.867  12.661  27.514  1.00  0.00    -0.014 C 
ATOM     14  C   UNL     1      32.366  12.207  26.131  1.00  0.00     0.007 C 
ATOM     15  C   UNL     1      30.374  13.021  27.446  1.00  0.00     0.007 C 
ENDBRANCH   5  13
TORSDOF 1
ENDMDL
MODEL 7
REMARK VINA RESULT:    -5.360      3.054      7.028
REMARK INTER + INTRA:          -5.971
REMARK INTER:                  -5.763
REMARK INTRA:                  -0.208
REMARK UNBOUND:                -0.297
REMARK SMILES CC1=CC[C@@]23[C@@H]([C@@H](C(C)C)CC[C@@H]2C)[C@H]13
REMARK SMILES IDX 14 1 13 2 12 3 11 4 7 5 6 6 5 7 15 8 2 9 3 10 4 11 1 12 8 13
REMARK SMILES IDX 9 14 10 15
REMARK H PARENT
REMARK Flexibility Score: inf
ROOT
ATOM      1  C   UNL     1      29.376  12.158  27.991  1.00  0.00     0.008 C 
ATOM      2  C   UNL     1      30.539  12.154  28.994  1.00  0.00    -0.007 C 
ATOM      3  C   UNL     1      29.995  12.269  30.431  1.00  0.00     0.004 C 
ATOM      4  C   UNL     1      31.093  12.023  31.460  1.00  0.00     0.004 C 
ATOM      5  C   UNL     1      31.558  10.553  31.406  1.00  0.00    -0.004 C 
ATOM      6  C   UNL     1      32.036  10.162  29.984  1.00  0.00     0.007 C 
ATOM      7  C   UNL     1      31.481  10.936  28.779  1.00  0.00    -0.013 C 
ATOM      8  C   UNL     1      30.932   9.550  29.106  1.00  0.00     0.025 C 
ATOM      9  C   UNL     1      31.390   8.711  27.960  1.00  0.00    -0.073 C 
ATOM     10  C   UNL     1      32.106   9.392  27.072  1.00  0.00    -0.027 C 
ATOM     11  C   UNL     1      32.287  10.814  27.476  1.00  0.00     0.035 C 
ATOM     12  C   UNL     1      31.083   7.252  27.829  1.00  0.00     0.039 C 
ENDROOT
BRANCH   5  13
ATOM     13  C   UNL     1      32.658  10.219  32.459  1.00  0.00    -0.014 C 
ATOM     14  C   UNL     1      32.740  11.241  33.606  1.00  0.00     0.007 C 
ATOM     15  C   UNL     1      32.503   8.799  33.026  1.00  0.00     0.007 C 
ENDBRANCH   5  13
TORSDOF 1
ENDMDL
MODEL 8
REMARK VINA RESULT:    -5.306      1.907      3.804
REMARK INTER + INTRA:          -5.913
REMARK INTER:                  -5.658
REMARK INTRA:                  -0.255
REMARK UNBOUND:                -0.297
REMARK SMILES CC1=CC[C@@]23[C@@H]([C@@H](C(C)C)CC[C@@H]2C)[C@H]13
REMARK SMILES IDX 14 1 13 2 12 3 11 4 7 5 6 6 5 7 15 8 2 9 3 10 4 11 1 12 8 13
REMARK SMILES IDX 9 14 10 15
REMARK H PARENT
REMARK Flexibility Score: inf
ROOT
ATOM      1  C   UNL     1      29.427   6.518  31.314  1.00  0.00     0.008 C 
ATOM      2  C   UNL     1      30.611   7.324  30.759  1.00  0.00    -0.007 C 
ATOM      3  C   UNL     1      30.144   8.203  29.584  1.00  0.00     0.004 C 
ATOM      4  C   UNL     1      31.228   9.193  29.169  1.00  0.00     0.004 C 
ATOM      5  C   UNL     1      31.455  10.235  30.283  1.00  0.00    -0.004 C 
ATOM      6  C   UNL     1      31.815   9.556  31.629  1.00  0.00     0.007 C 
ATOM      7  C   UNL     1      31.343   8.116  31.879  1.00  0.00    -0.013 C 
ATOM      8  C   UNL     1      30.597   9.279  32.527  1.00  0.00     0.025 C 
ATOM      9  C   UNL     1      30.877   9.110  33.983  1.00  0.00    -0.073 C 
ATOM     10  C   UNL     1      31.657   8.066  34.243  1.00  0.00    -0.027 C 
ATOM     11  C   UNL     1      32.072   7.359  33.000  1.00  0.00     0.035 C 
ATOM     12  C   UNL     1      30.342  10.024  35.040  1.00  0.00     0.039 C 
ENDROOT
BRANCH   5  13
ATOM     13  C   UNL     1      32.527  11.305  29.911  1.00  0.00    -0.014 C 
ATOM     14  C   UNL     1      32.063  12.288  28.822  1.00  0.00     0.007 C 
ATOM     15  C   UNL     1      33.025  12.076  31.143  1.00  0.00     0.007 C 
ENDBRANCH   5  13
TORSDOF 1
ENDMDL
MODEL 9
REMARK VINA RESULT:    -5.164      3.038      6.667
REMARK INTER + INTRA:          -5.763
REMARK INTER:                  -5.502
REMARK INTRA:                  -0.262
REMARK UNBOUND:                -0.297
REMARK SMILES CC1=CC[C@@]23[C@@H]([C@@H](C(C)C)CC[C@@H]2C)[C@H]13
REMARK SMILES IDX 14 1 13 2 12 3 11 4 7 5 6 6 5 7 15 8 2 9 3 10 4 11 1 12 8 13
REMARK SMILES IDX 9 14 10 15
REMARK H PARENT
REMARK Flexibility Score: inf
ROOT
ATOM      1  C   UNL     1      29.739  10.205  27.372  1.00  0.00     0.008 C 
ATOM      2  C   UNL     1      30.870   9.969  28.384  1.00  0.00    -0.007 C 
ATOM      3  C   UNL     1      30.816  11.039  29.491  1.00  0.00     0.004 C 
ATOM      4  C   UNL     1      31.763  10.696  30.637  1.00  0.00     0.004 C 
ATOM      5  C   UNL     1      31.272   9.436  31.379  1.00  0.00    -0.004 C 
ATOM      6  C   UNL     1      31.118   8.234  30.413  1.00  0.00     0.007 C 
ATOM      7  C   UNL     1      30.865   8.511  28.923  1.00  0.00    -0.013 C 
ATOM      8  C   UNL     1      29.706   8.092  29.822  1.00  0.00     0.025 C 
ATOM      9  C   UNL     1      29.337   6.739  29.312  1.00  0.00    -0.073 C 
ATOM     10  C   UNL     1      30.102   6.338  28.303  1.00  0.00    -0.027 C 
ATOM     11  C   UNL     1      31.151   7.341  27.968  1.00  0.00     0.035 C 
ATOM     12  C   UNL     1      28.227   5.914  29.884  1.00  0.00     0.039 C 
ENDROOT
BRANCH   5  13
ATOM     13  C   UNL     1      32.174   9.047  32.590  1.00  0.00    -0.014 C 
ATOM     14  C   UNL     1      31.987   9.961  33.814  1.00  0.00     0.007 C 
ATOM     15  C   UNL     1      31.994   7.576  32.995  1.00  0.00     0.007 C 
ENDBRANCH   5  13
TORSDOF 1
ENDMDL
