MODEL 1
REMARK VINA RESULT:    -4.377      0.000      0.000
REMARK INTER + INTRA:          -7.992
REMARK INTER:                  -6.936
REMARK INTRA:                  -1.056
REMARK UNBOUND:                -1.056
REMARK SMILES CCCCCCCCCCCC(=O)[O-]
REMARK SMILES IDX 7 1 8 2 9 3 10 4 11 5 12 6 13 7 14 8 6 9 5 10 4 11 3 12 2 13
REMARK SMILES IDX 1 14
REMARK H PARENT
REMARK Flexibility Score: inf
ROOT
ATOM      1  C   UNL     1      14.990 -29.236  21.952  1.00  0.00     0.000 C 
ENDROOT
BRANCH   1   2
ATOM      2  C   UNL     1      16.306 -29.897  22.397  1.00  0.00     0.000 C 
BRANCH   2   3
ATOM      3  C   UNL     1      16.150 -31.034  23.427  1.00  0.00     0.000 C 
BRANCH   3   4
ATOM      4  C   UNL     1      16.511 -32.442  22.908  1.00  0.00     0.006 C 
BRANCH   4   5
ATOM      5  C   UNL     1      15.305 -33.375  22.715  1.00  0.00     0.053 C 
BRANCH   5   6
ATOM      6  C   UNL     1      15.280 -33.983  21.347  1.00  0.00     0.041 C 
ATOM      7  O   UNL     1      14.474 -33.557  20.479  1.00  0.00    -0.550 OA
ATOM      8  O   UNL     1      16.123 -35.044  21.042  1.00  0.00    -0.550 OA
ENDBRANCH   5   6
ENDBRANCH   4   5
ENDBRANCH   3   4
ENDBRANCH   2   3
ENDBRANCH   1   2
BRANCH   1   9
ATOM      9  C   UNL     1      14.053 -30.205  21.216  1.00  0.00     0.000 C 
BRANCH   9  10
ATOM     10  C   UNL     1      12.813 -30.522  22.062  1.00  0.00    -0.000 C 
BRANCH  10  11
ATOM     11  C   UNL     1      12.666 -29.521  23.217  1.00  0.00    -0.000 C 
BRANCH  11  12
ATOM     12  C   UNL     1      11.461 -28.584  23.037  1.00  0.00    -0.000 C 
BRANCH  12  13
ATOM     13  C   UNL     1      11.574 -27.304  23.880  1.00  0.00    -0.003 C 
ATOM     14  C   UNL     1      12.749 -27.389  24.850  1.00  0.00     0.004 C 
ENDBRANCH  12  13
ENDBRANCH  11  12
ENDBRANCH  10  11
ENDBRANCH   9  10
ENDBRANCH   1   9
TORSDOF 10
ENDMDL
MODEL 2
REMARK VINA RESULT:    -4.358      3.188      6.364
REMARK INTER + INTRA:          -7.962
REMARK INTER:                  -7.141
REMARK INTRA:                  -0.821
REMARK UNBOUND:                -1.056
REMARK SMILES CCCCCCCCCCCC(=O)[O-]
REMARK SMILES IDX 7 1 8 2 9 3 10 4 11 5 12 6 13 7 14 8 6 9 5 10 4 11 3 12 2 13
REMARK SMILES IDX 1 14
REMARK H PARENT
REMARK Flexibility Score: inf
ROOT
ATOM      1  C   UNL     1      14.621 -33.061  21.225  1.00  0.00     0.000 C 
ENDROOT
BRANCH   1   2
ATOM      2  C   UNL     1      13.717 -31.834  21.009  1.00  0.00     0.000 C 
BRANCH   2   3
ATOM      3  C   UNL     1      14.360 -30.479  21.368  1.00  0.00     0.000 C 
BRANCH   3   4
ATOM      4  C   UNL     1      14.511 -30.205  22.879  1.00  0.00     0.006 C 
BRANCH   4   5
ATOM      5  C   UNL     1      13.182 -29.996  23.622  1.00  0.00     0.053 C 
BRANCH   5   6
ATOM      6  C   UNL     1      12.661 -28.602  23.455  1.00  0.00     0.041 C 
ATOM      7  O   UNL     1      13.456 -27.647  23.256  1.00  0.00    -0.550 OA
ATOM      8  O   UNL     1      11.298 -28.353  23.554  1.00  0.00    -0.550 OA
ENDBRANCH   5   6
ENDBRANCH   4   5
ENDBRANCH   3   4
ENDBRANCH   2   3
ENDBRANCH   1   2
BRANCH   1   9
ATOM      9  C   UNL     1      14.773 -33.920  19.961  1.00  0.00     0.000 C 
BRANCH   9  10
ATOM     10  C   UNL     1      15.769 -35.064  20.189  1.00  0.00    -0.000 C 
BRANCH  10  11
ATOM     11  C   UNL     1      16.924 -34.997  19.180  1.00  0.00    -0.000 C 
BRANCH  11  12
ATOM     12  C   UNL     1      17.529 -33.588  19.066  1.00  0.00    -0.000 C 
BRANCH  12  13
ATOM     13  C   UNL     1      18.255 -33.151  20.348  1.00  0.00    -0.003 C 
ATOM     14  C   UNL     1      18.128 -31.646  20.564  1.00  0.00     0.004 C 
ENDBRANCH  12  13
ENDBRANCH  11  12
ENDBRANCH  10  11
ENDBRANCH   9  10
ENDBRANCH   1   9
TORSDOF 10
ENDMDL
MODEL 3
REMARK VINA RESULT:    -4.240      1.855      2.729
REMARK INTER + INTRA:          -7.774
REMARK INTER:                  -7.006
REMARK INTRA:                  -0.769
REMARK UNBOUND:                -1.056
REMARK SMILES CCCCCCCCCCCC(=O)[O-]
REMARK SMILES IDX 7 1 8 2 9 3 10 4 11 5 12 6 13 7 14 8 6 9 5 10 4 11 3 12 2 13
REMARK SMILES IDX 1 14
REMARK H PARENT
REMARK Flexibility Score: inf
ROOT
ATOM      1  C   UNL     1      14.671 -32.916  22.273  1.00  0.00     0.000 C 
ENDROOT
BRANCH   1   2
ATOM      2  C   UNL     1      16.198 -33.062  22.141  1.00  0.00     0.000 C 
BRANCH   2   3
ATOM      3  C   UNL     1      16.831 -32.269  20.980  1.00  0.00     0.000 C 
BRANCH   3   4
ATOM      4  C   UNL     1      17.737 -33.093  20.041  1.00  0.00     0.006 C 
BRANCH   4   5
ATOM      5  C   UNL     1      16.979 -33.891  18.968  1.00  0.00     0.053 C 
BRANCH   5   6
ATOM      6  C   UNL     1      16.808 -35.327  19.355  1.00  0.00     0.041 C 
ATOM      7  O   UNL     1      17.736 -36.153  19.154  1.00  0.00    -0.550 OA
ATOM      8  O   UNL     1      15.608 -35.761  19.905  1.00  0.00    -0.550 OA
ENDBRANCH   5   6
ENDBRANCH   4   5
ENDBRANCH   3   4
ENDBRANCH   2   3
ENDBRANCH   1   2
BRANCH   1   9
ATOM      9  C   UNL     1      14.008 -32.396  20.989  1.00  0.00     0.000 C 
BRANCH   9  10
ATOM     10  C   UNL     1      13.293 -31.062  21.240  1.00  0.00    -0.000 C 
BRANCH  10  11
ATOM     11  C   UNL     1      12.784 -30.974  22.686  1.00  0.00    -0.000 C 
BRANCH  11  12
ATOM     12  C   UNL     1      13.313 -29.735  23.425  1.00  0.00    -0.000 C 
BRANCH  12  13
ATOM     13  C   UNL     1      12.201 -28.731  23.768  1.00  0.00    -0.003 C 
ATOM     14  C   UNL     1      12.755 -27.546  24.554  1.00  0.00     0.004 C 
ENDBRANCH  12  13
ENDBRANCH  11  12
ENDBRANCH  10  11
ENDBRANCH   9  10
ENDBRANCH   1   9
TORSDOF 10
ENDMDL
MODEL 4
REMARK VINA RESULT:    -4.229      3.128      6.669
REMARK INTER + INTRA:          -7.756
REMARK INTER:                  -6.807
REMARK INTRA:                  -0.949
REMARK UNBOUND:                -1.056
REMARK SMILES CCCCCCCCCCCC(=O)[O-]
REMARK SMILES IDX 7 1 8 2 9 3 10 4 11 5 12 6 13 7 14 8 6 9 5 10 4 11 3 12 2 13
REMARK SMILES IDX 1 14
REMARK H PARENT
REMARK Flexibility Score: inf
ROOT
ATOM      1  C   UNL     1      14.936 -33.078  21.991  1.00  0.00     0.000 C 
ENDROOT
BRANCH   1   2
ATOM      2  C   UNL     1      14.029 -32.549  20.865  1.00  0.00     0.000 C 
BRANCH   2   3
ATOM      3  C   UNL     1      13.408 -31.162  21.125  1.00  0.00     0.000 C 
BRANCH   3   4
ATOM      4  C   UNL     1      12.670 -31.016  22.472  1.00  0.00     0.006 C 
BRANCH   4   5
ATOM      5  C   UNL     1      13.149 -29.836  23.332  1.00  0.00     0.053 C 
BRANCH   5   6
ATOM      6  C   UNL     1      12.315 -28.611  23.117  1.00  0.00     0.041 C 
ATOM      7  O   UNL     1      12.790 -27.470  23.357  1.00  0.00    -0.550 OA
ATOM      8  O   UNL     1      11.001 -28.731  22.684  1.00  0.00    -0.550 OA
ENDBRANCH   5   6
ENDBRANCH   4   5
ENDBRANCH   3   4
ENDBRANCH   2   3
ENDBRANCH   1   2
BRANCH   1   9
ATOM      9  C   UNL     1      16.221 -32.255  22.158  1.00  0.00     0.000 C 
BRANCH   9  10
ATOM     10  C   UNL     1      17.444 -33.034  21.658  1.00  0.00    -0.000 C 
BRANCH  10  11
ATOM     11  C   UNL     1      17.815 -32.616  20.228  1.00  0.00    -0.000 C 
BRANCH  11  12
ATOM     12  C   UNL     1      17.960 -33.817  19.280  1.00  0.00    -0.000 C 
BRANCH  12  13
ATOM     13  C   UNL     1      16.646 -34.593  19.101  1.00  0.00    -0.003 C 
ATOM     14  C   UNL     1      16.811 -36.054  19.509  1.00  0.00     0.004 C 
ENDBRANCH  12  13
ENDBRANCH  11  12
ENDBRANCH  10  11
ENDBRANCH   9  10
ENDBRANCH   1   9
TORSDOF 10
ENDMDL
MODEL 5
REMARK VINA RESULT:    -4.191      1.982      3.031
REMARK INTER + INTRA:          -7.696
REMARK INTER:                  -7.208
REMARK INTRA:                  -0.488
REMARK UNBOUND:                -1.056
REMARK SMILES CCCCCCCCCCCC(=O)[O-]
REMARK SMILES IDX 7 1 8 2 9 3 10 4 11 5 12 6 13 7 14 8 6 9 5 10 4 11 3 12 2 13
REMARK SMILES IDX 1 14
REMARK H PARENT
REMARK Flexibility Score: inf
ROOT
ATOM      1  C   UNL     1      14.993 -31.301  21.411  1.00  0.00     0.000 C 
ENDROOT
BRANCH   1   2
ATOM      2  C   UNL     1      14.243 -32.609  21.102  1.00  0.00     0.000 C 
BRANCH   2   3
ATOM      3  C   UNL     1      15.097 -33.889  21.198  1.00  0.00     0.000 C 
BRANCH   3   4
ATOM      4  C   UNL     1      15.590 -34.451  19.848  1.00  0.00     0.006 C 
BRANCH   4   5
ATOM      5  C   UNL     1      16.036 -35.921  19.898  1.00  0.00     0.053 C 
BRANCH   5   6
ATOM      6  C   UNL     1      17.405 -36.111  19.319  1.00  0.00     0.041 C 
ATOM      7  O   UNL     1      17.842 -37.270  19.094  1.00  0.00    -0.550 OA
ATOM      8  O   UNL     1      18.210 -35.009  19.062  1.00  0.00    -0.550 OA
ENDBRANCH   5   6
ENDBRANCH   4   5
ENDBRANCH   3   4
ENDBRANCH   2   3
ENDBRANCH   1   2
BRANCH   1   9
ATOM      9  C   UNL     1      15.161 -31.052  22.917  1.00  0.00     0.000 C 
BRANCH   9  10
ATOM     10  C   UNL     1      13.817 -31.161  23.648  1.00  0.00    -0.000 C 
BRANCH  10  11
ATOM     11  C   UNL     1      12.921 -29.954  23.334  1.00  0.00    -0.000 C 
BRANCH  11  12
ATOM     12  C   UNL     1      13.629 -28.612  23.580  1.00  0.00    -0.000 C 
BRANCH  12  13
ATOM     13  C   UNL     1      12.763 -27.623  24.375  1.00  0.00    -0.003 C 
ATOM     14  C   UNL     1      11.384 -27.467  23.739  1.00  0.00     0.004 C 
ENDBRANCH  12  13
ENDBRANCH  11  12
ENDBRANCH  10  11
ENDBRANCH   9  10
ENDBRANCH   1   9
TORSDOF 10
ENDMDL
MODEL 6
REMARK VINA RESULT:    -4.183      1.361      1.848
REMARK INTER + INTRA:          -7.683
REMARK INTER:                  -6.796
REMARK INTRA:                  -0.888
REMARK UNBOUND:                -1.056
REMARK SMILES CCCCCCCCCCCC(=O)[O-]
REMARK SMILES IDX 7 1 8 2 9 3 10 4 11 5 12 6 13 7 14 8 6 9 5 10 4 11 3 12 2 13
REMARK SMILES IDX 1 14
REMARK H PARENT
REMARK Flexibility Score: inf
ROOT
ATOM      1  C   UNL     1      16.235 -29.714  21.634  1.00  0.00     0.000 C 
ENDROOT
BRANCH   1   2
ATOM      2  C   UNL     1      17.357 -30.749  21.827  1.00  0.00     0.000 C 
BRANCH   2   3
ATOM      3  C   UNL     1      17.665 -31.618  20.591  1.00  0.00     0.000 C 
BRANCH   3   4
ATOM      4  C   UNL     1      17.551 -33.140  20.816  1.00  0.00     0.006 C 
BRANCH   4   5
ATOM      5  C   UNL     1      16.330 -33.569  21.646  1.00  0.00     0.053 C 
BRANCH   5   6
ATOM      6  C   UNL     1      15.170 -33.952  20.780  1.00  0.00     0.041 C 
ATOM      7  O   UNL     1      15.146 -35.075  20.212  1.00  0.00    -0.550 OA
ATOM      8  O   UNL     1      14.132 -33.053  20.571  1.00  0.00    -0.550 OA
ENDBRANCH   5   6
ENDBRANCH   4   5
ENDBRANCH   3   4
ENDBRANCH   2   3
ENDBRANCH   1   2
BRANCH   1   9
ATOM      9  C   UNL     1      15.392 -29.503  22.900  1.00  0.00     0.000 C 
BRANCH   9  10
ATOM     10  C   UNL     1      14.588 -30.764  23.242  1.00  0.00    -0.000 C 
BRANCH  10  11
ATOM     11  C   UNL     1      13.160 -30.403  23.677  1.00  0.00    -0.000 C 
BRANCH  11  12
ATOM     12  C   UNL     1      12.647 -29.115  23.013  1.00  0.00    -0.000 C 
BRANCH  12  13
ATOM     13  C   UNL     1      11.852 -28.226  23.982  1.00  0.00    -0.003 C 
ATOM     14  C   UNL     1      12.775 -27.265  24.727  1.00  0.00     0.004 C 
ENDBRANCH  12  13
ENDBRANCH  11  12
ENDBRANCH  10  11
ENDBRANCH   9  10
ENDBRANCH   1   9
TORSDOF 10
ENDMDL
MODEL 7
REMARK VINA RESULT:    -4.170      1.834      2.952
REMARK INTER + INTRA:          -7.664
REMARK INTER:                  -6.412
REMARK INTRA:                  -1.251
REMARK UNBOUND:                -1.056
REMARK SMILES CCCCCCCCCCCC(=O)[O-]
REMARK SMILES IDX 7 1 8 2 9 3 10 4 11 5 12 6 13 7 14 8 6 9 5 10 4 11 3 12 2 13
REMARK SMILES IDX 1 14
REMARK H PARENT
REMARK Flexibility Score: inf
ROOT
ATOM      1  C   UNL     1      16.559 -31.200  21.371  1.00  0.00     0.000 C 
ENDROOT
BRANCH   1   2
ATOM      2  C   UNL     1      17.246 -32.333  22.153  1.00  0.00     0.000 C 
BRANCH   2   3
ATOM      3  C   UNL     1      16.509 -33.686  22.126  1.00  0.00     0.000 C 
BRANCH   3   4
ATOM      4  C   UNL     1      15.318 -33.764  21.148  1.00  0.00     0.006 C 
BRANCH   4   5
ATOM      5  C   UNL     1      15.317 -35.011  20.249  1.00  0.00     0.053 C 
BRANCH   5   6
ATOM      6  C   UNL     1      16.510 -35.051  19.345  1.00  0.00     0.041 C 
ATOM      7  O   UNL     1      16.886 -34.010  18.744  1.00  0.00    -0.550 OA
ATOM      8  O   UNL     1      17.185 -36.247  19.137  1.00  0.00    -0.550 OA
ENDBRANCH   5   6
ENDBRANCH   4   5
ENDBRANCH   3   4
ENDBRANCH   2   3
ENDBRANCH   1   2
BRANCH   1   9
ATOM      9  C   UNL     1      16.494 -29.884  22.160  1.00  0.00     0.000 C 
BRANCH   9  10
ATOM     10  C   UNL     1      15.205 -29.115  21.844  1.00  0.00    -0.000 C 
BRANCH  10  11
ATOM     11  C   UNL     1      14.271 -29.082  23.062  1.00  0.00    -0.000 C 
BRANCH  11  12
ATOM     12  C   UNL     1      12.931 -29.786  22.798  1.00  0.00    -0.000 C 
BRANCH  12  13
ATOM     13  C   UNL     1      13.069 -31.314  22.724  1.00  0.00    -0.003 C 
ATOM     14  C   UNL     1      13.766 -31.863  23.966  1.00  0.00     0.004 C 
ENDBRANCH  12  13
ENDBRANCH  11  12
ENDBRANCH  10  11
ENDBRANCH   9  10
ENDBRANCH   1   9
TORSDOF 10
ENDMDL
MODEL 8
REMARK VINA RESULT:    -4.140      2.786      5.413
REMARK INTER + INTRA:          -7.616
REMARK INTER:                  -6.122
REMARK INTRA:                  -1.495
REMARK UNBOUND:                -1.056
REMARK SMILES CCCCCCCCCCCC(=O)[O-]
REMARK SMILES IDX 7 1 8 2 9 3 10 4 11 5 12 6 13 7 14 8 6 9 5 10 4 11 3 12 2 13
REMARK SMILES IDX 1 14
REMARK H PARENT
REMARK Flexibility Score: inf
ROOT
ATOM      1  C   UNL     1      16.528 -34.671  21.638  1.00  0.00     0.000 C 
ENDROOT
BRANCH   1   2
ATOM      2  C   UNL     1      15.885 -34.694  20.241  1.00  0.00     0.000 C 
BRANCH   2   3
ATOM      3  C   UNL     1      14.702 -33.724  20.050  1.00  0.00     0.000 C 
BRANCH   3   4
ATOM      4  C   UNL     1      14.394 -32.819  21.261  1.00  0.00     0.006 C 
BRANCH   4   5
ATOM      5  C   UNL     1      13.391 -31.692  20.973  1.00  0.00     0.053 C 
BRANCH   5   6
ATOM      6  C   UNL     1      12.932 -31.015  22.227  1.00  0.00     0.041 C 
ATOM      7  O   UNL     1      12.272 -29.944  22.165  1.00  0.00    -0.550 OA
ATOM      8  O   UNL     1      13.264 -31.547  23.466  1.00  0.00    -0.550 OA
ENDBRANCH   5   6
ENDBRANCH   4   5
ENDBRANCH   3   4
ENDBRANCH   2   3
ENDBRANCH   1   2
BRANCH   1   9
ATOM      9  C   UNL     1      18.046 -34.439  21.593  1.00  0.00     0.000 C 
BRANCH   9  10
ATOM     10  C   UNL     1      18.418 -33.435  20.494  1.00  0.00    -0.000 C 
BRANCH  10  11
ATOM     11  C   UNL     1      18.677 -32.043  21.087  1.00  0.00    -0.000 C 
BRANCH  11  12
ATOM     12  C   UNL     1      17.635 -31.006  20.639  1.00  0.00    -0.000 C 
BRANCH  12  13
ATOM     13  C   UNL     1      17.034 -30.223  21.816  1.00  0.00    -0.003 C 
ATOM     14  C   UNL     1      17.026 -31.066  23.089  1.00  0.00     0.004 C 
ENDBRANCH  12  13
ENDBRANCH  11  12
ENDBRANCH  10  11
ENDBRANCH   9  10
ENDBRANCH   1   9
TORSDOF 10
ENDMDL
MODEL 9
REMARK VINA RESULT:    -4.134      2.436      5.636
REMARK INTER + INTRA:          -7.606
REMARK INTER:                  -6.347
REMARK INTRA:                  -1.259
REMARK UNBOUND:                -1.056
REMARK SMILES CCCCCCCCCCCC(=O)[O-]
REMARK SMILES IDX 7 1 8 2 9 3 10 4 11 5 12 6 13 7 14 8 6 9 5 10 4 11 3 12 2 13
REMARK SMILES IDX 1 14
REMARK H PARENT
REMARK Flexibility Score: inf
ROOT
ATOM      1  C   UNL     1      16.360 -30.852  21.364  1.00  0.00     0.000 C 
ENDROOT
BRANCH   1   2
ATOM      2  C   UNL     1      16.170 -30.875  22.891  1.00  0.00     0.000 C 
BRANCH   2   3
ATOM      3  C   UNL     1      15.461 -32.129  23.441  1.00  0.00     0.000 C 
BRANCH   3   4
ATOM      4  C   UNL     1      13.937 -31.988  23.635  1.00  0.00     0.006 C 
BRANCH   4   5
ATOM      5  C   UNL     1      13.385 -30.588  23.324  1.00  0.00     0.053 C 
BRANCH   5   6
ATOM      6  C   UNL     1      12.509 -30.588  22.109  1.00  0.00     0.041 C 
ATOM      7  O   UNL     1      12.828 -31.267  21.098  1.00  0.00    -0.550 OA
ATOM      8  O   UNL     1      11.359 -29.810  22.080  1.00  0.00    -0.550 OA
ENDBRANCH   5   6
ENDBRANCH   4   5
ENDBRANCH   3   4
ENDBRANCH   2   3
ENDBRANCH   1   2
BRANCH   1   9
ATOM      9  C   UNL     1      17.838 -30.831  20.946  1.00  0.00     0.000 C 
BRANCH   9  10
ATOM     10  C   UNL     1      18.488 -32.205  21.151  1.00  0.00    -0.000 C 
BRANCH  10  11
ATOM     11  C   UNL     1      17.866 -33.252  20.216  1.00  0.00    -0.000 C 
BRANCH  11  12
ATOM     12  C   UNL     1      17.342 -34.483  20.972  1.00  0.00    -0.000 C 
BRANCH  12  13
ATOM     13  C   UNL     1      16.090 -35.090  20.320  1.00  0.00    -0.003 C 
ATOM     14  C   UNL     1      14.947 -34.080  20.282  1.00  0.00     0.004 C 
ENDBRANCH  12  13
ENDBRANCH  11  12
ENDBRANCH  10  11
ENDBRANCH   9  10
ENDBRANCH   1   9
TORSDOF 10
ENDMDL
