MODEL 1
REMARK VINA RESULT:    -4.142      0.000      0.000
REMARK INTER + INTRA:          -6.584
REMARK INTER:                  -6.080
REMARK INTRA:                  -0.505
REMARK UNBOUND:                -0.505
REMARK SMILES O=C([O-])CCCCCCCC(=O)[O-]
REMARK SMILES IDX 7 1 6 2 5 3 4 4 2 5 1 6 3 7 8 8 9 9 10 10 11 11 12 12 13 13
REMARK H PARENT
REMARK Flexibility Score: inf
ROOT
ATOM      1  C   UNL     1      58.304  -3.796  83.104  1.00  0.00     0.000 C 
ENDROOT
BRANCH   1   2
ATOM      2  C   UNL     1      58.073  -2.335  83.522  1.00  0.00     0.000 C 
BRANCH   2   3
ATOM      3  C   UNL     1      59.214  -1.405  83.085  1.00  0.00     0.006 C 
BRANCH   3   4
ATOM      4  C   UNL     1      60.558  -2.139  83.108  1.00  0.00     0.053 C 
BRANCH   4   5
ATOM      5  C   UNL     1      61.119  -2.251  81.726  1.00  0.00     0.041 C 
ATOM      6  O   UNL     1      61.113  -3.360  81.128  1.00  0.00    -0.550 OA
ATOM      7  O   UNL     1      61.692  -1.144  81.115  1.00  0.00    -0.550 OA
ENDBRANCH   4   5
ENDBRANCH   3   4
ENDBRANCH   2   3
ENDBRANCH   1   2
BRANCH   1   8
ATOM      8  C   UNL     1      57.677  -4.799  84.088  1.00  0.00     0.000 C 
BRANCH   8   9
ATOM      9  C   UNL     1      58.683  -5.850  84.582  1.00  0.00     0.006 C 
BRANCH   9  10
ATOM     10  C   UNL     1      60.139  -5.450  84.309  1.00  0.00     0.053 C 
BRANCH  10  11
ATOM     11  C   UNL     1      60.756  -6.375  83.308  1.00  0.00     0.041 C 
ATOM     12  O   UNL     1      61.888  -6.118  82.820  1.00  0.00    -0.550 OA
ATOM     13  O   UNL     1      60.058  -7.496  82.875  1.00  0.00    -0.550 OA
ENDBRANCH  10  11
ENDBRANCH   9  10
ENDBRANCH   8   9
ENDBRANCH   1   8
TORSDOF 8
ENDMDL
MODEL 2
REMARK VINA RESULT:    -3.887      2.588      4.389
REMARK INTER + INTRA:          -6.210
REMARK INTER:                  -5.683
REMARK INTRA:                  -0.527
REMARK UNBOUND:                -0.505
REMARK SMILES O=C([O-])CCCCCCCC(=O)[O-]
REMARK SMILES IDX 7 1 6 2 5 3 4 4 2 5 1 6 3 7 8 8 9 9 10 10 11 11 12 12 13 13
REMARK H PARENT
REMARK Flexibility Score: inf
ROOT
ATOM      1  C   UNL     1      59.447  -0.627  84.243  1.00  0.00     0.000 C 
ENDROOT
BRANCH   1   2
ATOM      2  C   UNL     1      59.865  -1.452  83.015  1.00  0.00     0.000 C 
BRANCH   2   3
ATOM      3  C   UNL     1      60.674  -2.704  83.389  1.00  0.00     0.006 C 
BRANCH   3   4
ATOM      4  C   UNL     1      60.087  -3.953  82.724  1.00  0.00     0.053 C 
BRANCH   4   5
ATOM      5  C   UNL     1      60.587  -5.190  83.400  1.00  0.00     0.041 C 
ATOM      6  O   UNL     1      59.879  -5.769  84.266  1.00  0.00    -0.550 OA
ATOM      7  O   UNL     1      61.855  -5.678  83.112  1.00  0.00    -0.550 OA
ENDBRANCH   4   5
ENDBRANCH   3   4
ENDBRANCH   2   3
ENDBRANCH   1   2
BRANCH   1   8
ATOM      8  C   UNL     1      57.919  -0.487  84.369  1.00  0.00     0.000 C 
BRANCH   8   9
ATOM      9  C   UNL     1      57.198  -1.844  84.341  1.00  0.00     0.006 C 
BRANCH   9  10
ATOM     10  C   UNL     1      56.204  -1.963  83.179  1.00  0.00     0.053 C 
BRANCH  10  11
ATOM     11  C   UNL     1      55.963  -3.401  82.844  1.00  0.00     0.041 C 
ATOM     12  O   UNL     1      54.988  -3.728  82.118  1.00  0.00    -0.550 OA
ATOM     13  O   UNL     1      56.786  -4.386  83.376  1.00  0.00    -0.550 OA
ENDBRANCH  10  11
ENDBRANCH   9  10
ENDBRANCH   8   9
ENDBRANCH   1   8
TORSDOF 8
ENDMDL
MODEL 3
REMARK VINA RESULT:    -3.886      4.338      5.966
REMARK INTER + INTRA:          -6.208
REMARK INTER:                  -5.796
REMARK INTRA:                  -0.412
REMARK UNBOUND:                -0.505
REMARK SMILES O=C([O-])CCCCCCCC(=O)[O-]
REMARK SMILES IDX 7 1 6 2 5 3 4 4 2 5 1 6 3 7 8 8 9 9 10 10 11 11 12 12 13 13
REMARK H PARENT
REMARK Flexibility Score: inf
ROOT
ATOM      1  C   UNL     1      57.509  -4.088  83.529  1.00  0.00     0.000 C 
ENDROOT
BRANCH   1   2
ATOM      2  C   UNL     1      56.488  -3.061  83.014  1.00  0.00     0.000 C 
BRANCH   2   3
ATOM      3  C   UNL     1      55.304  -3.713  82.286  1.00  0.00     0.006 C 
BRANCH   3   4
ATOM      4  C   UNL     1      54.094  -2.775  82.258  1.00  0.00     0.053 C 
BRANCH   4   5
ATOM      5  C   UNL     1      52.974  -3.385  81.476  1.00  0.00     0.041 C 
ATOM      6  O   UNL     1      52.008  -2.674  81.093  1.00  0.00    -0.550 OA
ATOM      7  O   UNL     1      52.972  -4.748  81.211  1.00  0.00    -0.550 OA
ENDBRANCH   4   5
ENDBRANCH   3   4
ENDBRANCH   2   3
ENDBRANCH   1   2
BRANCH   1   8
ATOM      8  C   UNL     1      58.953  -3.738  83.130  1.00  0.00     0.000 C 
BRANCH   8   9
ATOM      9  C   UNL     1      59.019  -2.650  82.047  1.00  0.00     0.006 C 
BRANCH   9  10
ATOM     10  C   UNL     1      60.007  -1.528  82.393  1.00  0.00     0.053 C 
BRANCH  10  11
ATOM     11  C   UNL     1      59.715  -0.977  83.754  1.00  0.00     0.041 C 
ATOM     12  O   UNL     1      60.602  -0.989  84.646  1.00  0.00    -0.550 OA
ATOM     13  O   UNL     1      58.445  -0.498  84.051  1.00  0.00    -0.550 OA
ENDBRANCH  10  11
ENDBRANCH   9  10
ENDBRANCH   8   9
ENDBRANCH   1   8
TORSDOF 8
ENDMDL
MODEL 4
REMARK VINA RESULT:    -3.873      3.629      4.773
REMARK INTER + INTRA:          -6.190
REMARK INTER:                  -5.786
REMARK INTRA:                  -0.404
REMARK UNBOUND:                -0.505
REMARK SMILES O=C([O-])CCCCCCCC(=O)[O-]
REMARK SMILES IDX 7 1 6 2 5 3 4 4 2 5 1 6 3 7 8 8 9 9 10 10 11 11 12 12 13 13
REMARK H PARENT
REMARK Flexibility Score: inf
ROOT
ATOM      1  C   UNL     1      57.557  -4.401  83.705  1.00  0.00     0.000 C 
ENDROOT
BRANCH   1   2
ATOM      2  C   UNL     1      58.957  -4.962  83.407  1.00  0.00     0.000 C 
BRANCH   2   3
ATOM      3  C   UNL     1      60.072  -3.933  83.642  1.00  0.00     0.006 C 
BRANCH   3   4
ATOM      4  C   UNL     1      60.795  -3.600  82.333  1.00  0.00     0.053 C 
BRANCH   4   5
ATOM      5  C   UNL     1      61.037  -2.128  82.227  1.00  0.00     0.041 C 
ATOM      6  O   UNL     1      61.460  -1.632  81.149  1.00  0.00    -0.550 OA
ATOM      7  O   UNL     1      60.843  -1.309  83.332  1.00  0.00    -0.550 OA
ENDBRANCH   4   5
ENDBRANCH   3   4
ENDBRANCH   2   3
ENDBRANCH   1   2
BRANCH   1   8
ATOM      8  C   UNL     1      57.489  -2.871  83.556  1.00  0.00     0.000 C 
BRANCH   8   9
ATOM      9  C   UNL     1      56.104  -2.383  83.103  1.00  0.00     0.006 C 
BRANCH   9  10
ATOM     10  C   UNL     1      55.315  -3.459  82.347  1.00  0.00     0.053 C 
BRANCH  10  11
ATOM     11  C   UNL     1      53.907  -3.008  82.116  1.00  0.00     0.041 C 
ATOM     12  O   UNL     1      53.659  -1.794  81.892  1.00  0.00    -0.550 OA
ATOM     13  O   UNL     1      52.862  -3.921  82.198  1.00  0.00    -0.550 OA
ENDBRANCH  10  11
ENDBRANCH   9  10
ENDBRANCH   8   9
ENDBRANCH   1   8
TORSDOF 8
ENDMDL
MODEL 5
REMARK VINA RESULT:    -3.847     14.114     15.382
REMARK INTER + INTRA:          -6.152
REMARK INTER:                  -5.762
REMARK INTRA:                  -0.390
REMARK UNBOUND:                -0.505
REMARK SMILES O=C([O-])CCCCCCCC(=O)[O-]
REMARK SMILES IDX 7 1 6 2 5 3 4 4 2 5 1 6 3 7 8 8 9 9 10 10 11 11 12 12 13 13
REMARK H PARENT
REMARK Flexibility Score: inf
ROOT
ATOM      1  C   UNL     1      48.995  -1.737  72.848  1.00  0.00     0.000 C 
ENDROOT
BRANCH   1   2
ATOM      2  C   UNL     1      49.174  -3.253  72.674  1.00  0.00     0.000 C 
BRANCH   2   3
ATOM      3  C   UNL     1      47.916  -4.048  73.054  1.00  0.00     0.006 C 
BRANCH   3   4
ATOM      4  C   UNL     1      48.061  -5.522  72.665  1.00  0.00     0.053 C 
BRANCH   4   5
ATOM      5  C   UNL     1      46.736  -6.214  72.726  1.00  0.00     0.041 C 
ATOM      6  O   UNL     1      46.527  -7.245  72.034  1.00  0.00    -0.550 OA
ATOM      7  O   UNL     1      45.714  -5.692  73.508  1.00  0.00    -0.550 OA
ENDBRANCH   4   5
ENDBRANCH   3   4
ENDBRANCH   2   3
ENDBRANCH   1   2
BRANCH   1   8
ATOM      8  C   UNL     1      49.897  -0.922  71.905  1.00  0.00     0.000 C 
BRANCH   8   9
ATOM      9  C   UNL     1      51.017  -0.181  72.652  1.00  0.00     0.006 C 
BRANCH   9  10
ATOM     10  C   UNL     1      52.414  -0.705  72.296  1.00  0.00     0.053 C 
BRANCH  10  11
ATOM     11  C   UNL     1      52.730  -1.931  73.093  1.00  0.00     0.041 C 
ATOM     12  O   UNL     1      53.412  -2.859  72.584  1.00  0.00    -0.550 OA
ATOM     13  O   UNL     1      52.228  -2.071  74.381  1.00  0.00    -0.550 OA
ENDBRANCH  10  11
ENDBRANCH   9  10
ENDBRANCH   8   9
ENDBRANCH   1   8
TORSDOF 8
ENDMDL
MODEL 6
REMARK VINA RESULT:    -3.810     11.999     13.303
REMARK INTER + INTRA:          -6.097
REMARK INTER:                  -5.668
REMARK INTRA:                  -0.429
REMARK UNBOUND:                -0.505
REMARK SMILES O=C([O-])CCCCCCCC(=O)[O-]
REMARK SMILES IDX 7 1 6 2 5 3 4 4 2 5 1 6 3 7 8 8 9 9 10 10 11 11 12 12 13 13
REMARK H PARENT
REMARK Flexibility Score: inf
ROOT
ATOM      1  C   UNL     1      53.158  -1.605  73.206  1.00  0.00     0.000 C 
ENDROOT
BRANCH   1   2
ATOM      2  C   UNL     1      53.335  -3.051  72.715  1.00  0.00     0.000 C 
BRANCH   2   3
ATOM      3  C   UNL     1      53.214  -4.082  73.848  1.00  0.00     0.006 C 
BRANCH   3   4
ATOM      4  C   UNL     1      54.441  -4.037  74.763  1.00  0.00     0.053 C 
BRANCH   4   5
ATOM      5  C   UNL     1      55.385  -5.150  74.431  1.00  0.00     0.041 C 
ATOM      6  O   UNL     1      56.021  -5.138  73.345  1.00  0.00    -0.550 OA
ATOM      7  O   UNL     1      55.524  -6.225  75.299  1.00  0.00    -0.550 OA
ENDBRANCH   4   5
ENDBRANCH   3   4
ENDBRANCH   2   3
ENDBRANCH   1   2
BRANCH   1   8
ATOM      8  C   UNL     1      53.046  -0.597  72.049  1.00  0.00     0.000 C 
BRANCH   8   9
ATOM      9  C   UNL     1      51.731   0.198  72.084  1.00  0.00     0.006 C 
BRANCH   9  10
ATOM     10  C   UNL     1      50.685  -0.429  73.014  1.00  0.00     0.053 C 
BRANCH  10  11
ATOM     11  C   UNL     1      49.694  -1.225  72.224  1.00  0.00     0.041 C 
ATOM     12  O   UNL     1      48.735  -0.650  71.646  1.00  0.00    -0.550 OA
ATOM     13  O   UNL     1      49.801  -2.610  72.168  1.00  0.00    -0.550 OA
ENDBRANCH  10  11
ENDBRANCH   9  10
ENDBRANCH   8   9
ENDBRANCH   1   8
TORSDOF 8
ENDMDL
MODEL 7
REMARK VINA RESULT:    -3.806     14.029     14.778
REMARK INTER + INTRA:          -6.091
REMARK INTER:                  -5.647
REMARK INTRA:                  -0.444
REMARK UNBOUND:                -0.505
REMARK SMILES O=C([O-])CCCCCCCC(=O)[O-]
REMARK SMILES IDX 7 1 6 2 5 3 4 4 2 5 1 6 3 7 8 8 9 9 10 10 11 11 12 12 13 13
REMARK H PARENT
REMARK Flexibility Score: inf
ROOT
ATOM      1  C   UNL     1      49.009  -1.729  72.081  1.00  0.00     0.000 C 
ENDROOT
BRANCH   1   2
ATOM      2  C   UNL     1      49.490  -0.428  72.745  1.00  0.00     0.000 C 
BRANCH   2   3
ATOM      3  C   UNL     1      50.985  -0.458  73.096  1.00  0.00     0.006 C 
BRANCH   3   4
ATOM      4  C   UNL     1      51.788   0.435  72.146  1.00  0.00     0.053 C 
BRANCH   4   5
ATOM      5  C   UNL     1      53.118  -0.181  71.846  1.00  0.00     0.041 C 
ATOM      6  O   UNL     1      53.965   0.445  71.154  1.00  0.00    -0.550 OA
ATOM      7  O   UNL     1      53.406  -1.466  72.288  1.00  0.00    -0.550 OA
ENDBRANCH   4   5
ENDBRANCH   3   4
ENDBRANCH   2   3
ENDBRANCH   1   2
BRANCH   1   8
ATOM      8  C   UNL     1      50.080  -2.834  72.101  1.00  0.00     0.000 C 
BRANCH   8   9
ATOM      9  C   UNL     1      49.558  -4.150  72.700  1.00  0.00     0.006 C 
BRANCH   9  10
ATOM     10  C   UNL     1      48.033  -4.164  72.860  1.00  0.00     0.053 C 
BRANCH  10  11
ATOM     11  C   UNL     1      47.511  -5.564  72.767  1.00  0.00     0.041 C 
ATOM     12  O   UNL     1      46.275  -5.786  72.840  1.00  0.00    -0.550 OA
ATOM     13  O   UNL     1      48.397  -6.629  72.650  1.00  0.00    -0.550 OA
ENDBRANCH  10  11
ENDBRANCH   9  10
ENDBRANCH   8   9
ENDBRANCH   1   8
TORSDOF 8
ENDMDL
MODEL 8
REMARK VINA RESULT:    -3.792     13.958     15.413
REMARK INTER + INTRA:          -6.070
REMARK INTER:                  -5.675
REMARK INTRA:                  -0.395
REMARK UNBOUND:                -0.505
REMARK SMILES O=C([O-])CCCCCCCC(=O)[O-]
REMARK SMILES IDX 7 1 6 2 5 3 4 4 2 5 1 6 3 7 8 8 9 9 10 10 11 11 12 12 13 13
REMARK H PARENT
REMARK Flexibility Score: inf
ROOT
ATOM      1  C   UNL     1      48.696  -0.508  72.217  1.00  0.00     0.000 C 
ENDROOT
BRANCH   1   2
ATOM      2  C   UNL     1      50.086  -1.043  71.835  1.00  0.00     0.000 C 
BRANCH   2   3
ATOM      3  C   UNL     1      51.166  -0.680  72.866  1.00  0.00     0.006 C 
BRANCH   3   4
ATOM      4  C   UNL     1      52.567  -0.868  72.278  1.00  0.00     0.053 C 
BRANCH   4   5
ATOM      5  C   UNL     1      53.121   0.441  71.811  1.00  0.00     0.041 C 
ATOM      6  O   UNL     1      52.344   1.376  71.482  1.00  0.00    -0.550 OA
ATOM      7  O   UNL     1      54.493   0.614  71.691  1.00  0.00    -0.550 OA
ENDBRANCH   4   5
ENDBRANCH   3   4
ENDBRANCH   2   3
ENDBRANCH   1   2
BRANCH   1   8
ATOM      8  C   UNL     1      48.670   0.122  73.621  1.00  0.00     0.000 C 
BRANCH   8   9
ATOM      9  C   UNL     1      48.271   1.606  73.594  1.00  0.00     0.006 C 
BRANCH   9  10
ATOM     10  C   UNL     1      49.403   2.532  74.055  1.00  0.00     0.053 C 
BRANCH  10  11
ATOM     11  C   UNL     1      48.863   3.884  74.403  1.00  0.00     0.041 C 
ATOM     12  O   UNL     1      49.443   4.923  73.992  1.00  0.00    -0.550 OA
ATOM     13  O   UNL     1      47.747   3.996  75.224  1.00  0.00    -0.550 OA
ENDBRANCH  10  11
ENDBRANCH   9  10
ENDBRANCH   8   9
ENDBRANCH   1   8
TORSDOF 8
ENDMDL
MODEL 9
REMARK VINA RESULT:    -3.710     12.513     13.598
REMARK INTER + INTRA:          -5.950
REMARK INTER:                  -5.346
REMARK INTRA:                  -0.604
REMARK UNBOUND:                -0.505
REMARK SMILES O=C([O-])CCCCCCCC(=O)[O-]
REMARK SMILES IDX 7 1 6 2 5 3 4 4 2 5 1 6 3 7 8 8 9 9 10 10 11 11 12 12 13 13
REMARK H PARENT
REMARK Flexibility Score: inf
ROOT
ATOM      1  C   UNL     1      52.314  -0.863  72.234  1.00  0.00     0.000 C 
ENDROOT
BRANCH   1   2
ATOM      2  C   UNL     1      53.133  -1.713  73.219  1.00  0.00     0.000 C 
BRANCH   2   3
ATOM      3  C   UNL     1      53.210  -3.191  72.806  1.00  0.00     0.006 C 
BRANCH   3   4
ATOM      4  C   UNL     1      52.762  -4.103  73.952  1.00  0.00     0.053 C 
BRANCH   4   5
ATOM      5  C   UNL     1      53.888  -4.986  74.390  1.00  0.00     0.041 C 
ATOM      6  O   UNL     1      53.715  -5.819  75.318  1.00  0.00    -0.550 OA
ATOM      7  O   UNL     1      55.142  -4.855  73.808  1.00  0.00    -0.550 OA
ENDBRANCH   4   5
ENDBRANCH   3   4
ENDBRANCH   2   3
ENDBRANCH   1   2
BRANCH   1   8
ATOM      8  C   UNL     1      50.935  -0.473  72.794  1.00  0.00     0.000 C 
BRANCH   8   9
ATOM      9  C   UNL     1      49.786  -1.234  72.114  1.00  0.00     0.006 C 
BRANCH   9  10
ATOM     10  C   UNL     1      48.982  -2.094  73.098  1.00  0.00     0.053 C 
BRANCH  10  11
ATOM     11  C   UNL     1      48.926  -3.513  72.626  1.00  0.00     0.041 C 
ATOM     12  O   UNL     1      49.902  -4.015  72.010  1.00  0.00    -0.550 OA
ATOM     13  O   UNL     1      47.773  -4.266  72.821  1.00  0.00    -0.550 OA
ENDBRANCH  10  11
ENDBRANCH   9  10
ENDBRANCH   8   9
ENDBRANCH   1   8
TORSDOF 8
ENDMDL
