MODEL 1
REMARK VINA RESULT:     6.369      0.000      0.000
REMARK INTER + INTRA:          14.982
REMARK INTER:                  16.050
REMARK INTRA:                  -1.069
REMARK UNBOUND:                -1.069
REMARK SMILES CCCCCCCCCCCCCCCCCCCCCCCCCCCC(=O)[O-]
REMARK SMILES IDX 15 1 16 2 17 3 18 4 19 5 20 6 21 7 22 8 23 9 24 10 25 11
REMARK SMILES IDX 26 12 27 13 28 14 29 15 30 16 14 17 13 18 12 19 11 20 10 21
REMARK SMILES IDX 9 22 8 23 7 24 6 25 5 26 4 27 3 28 2 29 1 30
REMARK H PARENT
REMARK Flexibility Score: inf
ROOT
ATOM      1  C   UNL     1     -55.652 122.202 -11.777  1.00  0.00     0.000 C 
ENDROOT
BRANCH   1   2
ATOM      2  C   UNL     1     -55.357 120.723 -12.082  1.00  0.00     0.000 C 
BRANCH   2   3
ATOM      3  C   UNL     1     -56.441 119.780 -11.535  1.00  0.00     0.000 C 
BRANCH   3   4
ATOM      4  C   UNL     1     -57.771 120.502 -11.271  1.00  0.00     0.000 C 
BRANCH   4   5
ATOM      5  C   UNL     1     -57.678 121.393 -10.025  1.00  0.00     0.000 C 
BRANCH   5   6
ATOM      6  C   UNL     1     -56.827 120.722  -8.938  1.00  0.00     0.000 C 
BRANCH   6   7
ATOM      7  C   UNL     1     -57.051 119.204  -8.862  1.00  0.00     0.000 C 
BRANCH   7   8
ATOM      8  C   UNL     1     -58.358 118.834  -8.136  1.00  0.00     0.000 C 
BRANCH   8   9
ATOM      9  C   UNL     1     -58.144 118.601  -6.631  1.00  0.00     0.000 C 
BRANCH   9  10
ATOM     10  C   UNL     1     -59.210 117.673  -6.024  1.00  0.00     0.000 C 
BRANCH  10  11
ATOM     11  C   UNL     1     -59.945 118.317  -4.837  1.00  0.00     0.000 C 
BRANCH  11  12
ATOM     12  C   UNL     1     -59.126 119.444  -4.184  1.00  0.00     0.006 C 
BRANCH  12  13
ATOM     13  C   UNL     1     -59.798 119.990  -2.916  1.00  0.00     0.053 C 
BRANCH  13  14
ATOM     14  C   UNL     1     -58.953 121.023  -2.236  1.00  0.00     0.041 C 
ATOM     15  O   UNL     1     -57.831 120.710  -1.757  1.00  0.00    -0.550 OA
ATOM     16  O   UNL     1     -59.393 122.339  -2.157  1.00  0.00    -0.550 OA
ENDBRANCH  13  14
ENDBRANCH  12  13
ENDBRANCH  11  12
ENDBRANCH  10  11
ENDBRANCH   9  10
ENDBRANCH   8   9
ENDBRANCH   7   8
ENDBRANCH   6   7
ENDBRANCH   5   6
ENDBRANCH   4   5
ENDBRANCH   3   4
ENDBRANCH   2   3
ENDBRANCH   1   2
BRANCH   1  17
ATOM     17  C   UNL     1     -54.461 123.119 -12.125  1.00  0.00     0.000 C 
BRANCH  17  18
ATOM     18  C   UNL     1     -53.534 123.409 -10.933  1.00  0.00     0.000 C 
BRANCH  18  19
ATOM     19  C   UNL     1     -54.084 122.872  -9.602  1.00  0.00     0.000 C 
BRANCH  19  20
ATOM     20  C   UNL     1     -53.333 123.434  -8.385  1.00  0.00     0.000 C 
BRANCH  20  21
ATOM     21  C   UNL     1     -51.866 122.972  -8.330  1.00  0.00     0.000 C 
BRANCH  21  22
ATOM     22  C   UNL     1     -50.882 124.152  -8.292  1.00  0.00    -0.000 C 
BRANCH  22  23
ATOM     23  C   UNL     1     -49.948 124.174  -9.516  1.00  0.00    -0.000 C 
BRANCH  23  24
ATOM     24  C   UNL     1     -48.942 123.008  -9.523  1.00  0.00    -0.000 C 
BRANCH  24  25
ATOM     25  C   UNL     1     -49.220 121.922 -10.578  1.00  0.00    -0.000 C 
BRANCH  25  26
ATOM     26  C   UNL     1     -50.371 122.291 -11.529  1.00  0.00    -0.000 C 
BRANCH  26  27
ATOM     27  C   UNL     1     -51.259 121.085 -11.888  1.00  0.00    -0.000 C 
BRANCH  27  28
ATOM     28  C   UNL     1     -51.347 119.995 -10.801  1.00  0.00    -0.000 C 
BRANCH  28  29
ATOM     29  C   UNL     1     -52.394 120.255  -9.703  1.00  0.00    -0.003 C 
ATOM     30  C   UNL     1     -53.488 119.190  -9.657  1.00  0.00     0.004 C 
ENDBRANCH  28  29
ENDBRANCH  27  28
ENDBRANCH  26  27
ENDBRANCH  25  26
ENDBRANCH  24  25
ENDBRANCH  23  24
ENDBRANCH  22  23
ENDBRANCH  21  22
ENDBRANCH  20  21
ENDBRANCH  19  20
ENDBRANCH  18  19
ENDBRANCH  17  18
ENDBRANCH   1  17
TORSDOF 26
ENDMDL
MODEL 2
REMARK VINA RESULT:     6.635      2.262      9.005
REMARK INTER + INTRA:          15.651
REMARK INTER:                  17.342
REMARK INTRA:                  -1.690
REMARK UNBOUND:                -1.069
REMARK SMILES CCCCCCCCCCCCCCCCCCCCCCCCCCCC(=O)[O-]
REMARK SMILES IDX 15 1 16 2 17 3 18 4 19 5 20 6 21 7 22 8 23 9 24 10 25 11
REMARK SMILES IDX 26 12 27 13 28 14 29 15 30 16 14 17 13 18 12 19 11 20 10 21
REMARK SMILES IDX 9 22 8 23 7 24 6 25 5 26 4 27 3 28 2 29 1 30
REMARK H PARENT
REMARK Flexibility Score: inf
ROOT
ATOM      1  C   UNL     1     -54.370 119.806 -10.714  1.00  0.00     0.000 C 
ENDROOT
BRANCH   1   2
ATOM      2  C   UNL     1     -52.860 120.062 -10.867  1.00  0.00     0.000 C 
BRANCH   2   3
ATOM      3  C   UNL     1     -52.549 121.155 -11.903  1.00  0.00     0.000 C 
BRANCH   3   4
ATOM      4  C   UNL     1     -51.040 121.343 -12.124  1.00  0.00     0.000 C 
BRANCH   4   5
ATOM      5  C   UNL     1     -50.280 121.322 -10.792  1.00  0.00     0.000 C 
BRANCH   5   6
ATOM      6  C   UNL     1     -48.876 121.921 -10.956  1.00  0.00     0.000 C 
BRANCH   6   7
ATOM      7  C   UNL     1     -48.881 123.235 -11.752  1.00  0.00     0.000 C 
BRANCH   7   8
ATOM      8  C   UNL     1     -48.933 124.477 -10.843  1.00  0.00     0.000 C 
BRANCH   8   9
ATOM      9  C   UNL     1     -48.958 124.108  -9.351  1.00  0.00     0.000 C 
BRANCH   9  10
ATOM     10  C   UNL     1     -49.915 125.000  -8.542  1.00  0.00     0.000 C 
BRANCH  10  11
ATOM     11  C   UNL     1     -50.940 124.186  -7.736  1.00  0.00     0.000 C 
BRANCH  11  12
ATOM     12  C   UNL     1     -51.787 123.262  -8.629  1.00  0.00     0.006 C 
BRANCH  12  13
ATOM     13  C   UNL     1     -53.284 123.594  -8.553  1.00  0.00     0.053 C 
BRANCH  13  14
ATOM     14  C   UNL     1     -54.122 122.362  -8.391  1.00  0.00     0.041 C 
ATOM     15  O   UNL     1     -55.377 122.438  -8.452  1.00  0.00    -0.550 OA
ATOM     16  O   UNL     1     -53.514 121.127  -8.203  1.00  0.00    -0.550 OA
ENDBRANCH  13  14
ENDBRANCH  12  13
ENDBRANCH  11  12
ENDBRANCH  10  11
ENDBRANCH   9  10
ENDBRANCH   8   9
ENDBRANCH   7   8
ENDBRANCH   6   7
ENDBRANCH   5   6
ENDBRANCH   4   5
ENDBRANCH   3   4
ENDBRANCH   2   3
ENDBRANCH   1   2
BRANCH   1  17
ATOM     17  C   UNL     1     -55.186 120.418 -11.871  1.00  0.00     0.000 C 
BRANCH  17  18
ATOM     18  C   UNL     1     -56.484 121.107 -11.418  1.00  0.00     0.000 C 
BRANCH  18  19
ATOM     19  C   UNL     1     -57.700 120.168 -11.442  1.00  0.00     0.000 C 
BRANCH  19  20
ATOM     20  C   UNL     1     -58.463 120.157 -10.107  1.00  0.00     0.000 C 
BRANCH  20  21
ATOM     21  C   UNL     1     -57.611 119.620  -8.945  1.00  0.00     0.000 C 
BRANCH  21  22
ATOM     22  C   UNL     1     -58.329 118.514  -8.155  1.00  0.00    -0.000 C 
BRANCH  22  23
ATOM     23  C   UNL     1     -58.324 118.782  -6.638  1.00  0.00    -0.000 C 
BRANCH  23  24
ATOM     24  C   UNL     1     -59.590 118.262  -5.934  1.00  0.00    -0.000 C 
BRANCH  24  25
ATOM     25  C   UNL     1     -59.570 118.379  -4.399  1.00  0.00    -0.000 C 
BRANCH  25  26
ATOM     26  C   UNL     1     -58.939 119.693  -3.907  1.00  0.00    -0.000 C 
BRANCH  26  27
ATOM     27  C   UNL     1     -59.467 120.130  -2.529  1.00  0.00    -0.000 C 
BRANCH  27  28
ATOM     28  C   UNL     1     -59.586 121.655  -2.333  1.00  0.00    -0.000 C 
BRANCH  28  29
ATOM     29  C   UNL     1     -59.668 122.474  -3.634  1.00  0.00    -0.003 C 
ATOM     30  C   UNL     1     -58.927 123.807  -3.548  1.00  0.00     0.004 C 
ENDBRANCH  28  29
ENDBRANCH  27  28
ENDBRANCH  26  27
ENDBRANCH  25  26
ENDBRANCH  24  25
ENDBRANCH  23  24
ENDBRANCH  22  23
ENDBRANCH  21  22
ENDBRANCH  20  21
ENDBRANCH  19  20
ENDBRANCH  18  19
ENDBRANCH  17  18
ENDBRANCH   1  17
TORSDOF 26
ENDMDL
MODEL 3
REMARK VINA RESULT:     6.889      1.291      3.062
REMARK INTER + INTRA:          16.292
REMARK INTER:                  16.894
REMARK INTRA:                  -0.602
REMARK UNBOUND:                -1.069
REMARK SMILES CCCCCCCCCCCCCCCCCCCCCCCCCCCC(=O)[O-]
REMARK SMILES IDX 15 1 16 2 17 3 18 4 19 5 20 6 21 7 22 8 23 9 24 10 25 11
REMARK SMILES IDX 26 12 27 13 28 14 29 15 30 16 14 17 13 18 12 19 11 20 10 21
REMARK SMILES IDX 9 22 8 23 7 24 6 25 5 26 4 27 3 28 2 29 1 30
REMARK H PARENT
REMARK Flexibility Score: inf
ROOT
ATOM      1  C   UNL     1     -55.972 119.612 -10.394  1.00  0.00     0.000 C 
ENDROOT
BRANCH   1   2
ATOM      2  C   UNL     1     -57.096 120.580 -10.802  1.00  0.00     0.000 C 
BRANCH   2   3
ATOM      3  C   UNL     1     -57.034 121.913 -10.039  1.00  0.00     0.000 C 
BRANCH   3   4
ATOM      4  C   UNL     1     -57.274 121.739  -8.531  1.00  0.00     0.000 C 
BRANCH   4   5
ATOM      5  C   UNL     1     -56.749 120.383  -8.041  1.00  0.00     0.000 C 
BRANCH   5   6
ATOM      6  C   UNL     1     -57.911 119.443  -7.692  1.00  0.00     0.000 C 
BRANCH   6   7
ATOM      7  C   UNL     1     -57.887 118.989  -6.224  1.00  0.00     0.000 C 
BRANCH   7   8
ATOM      8  C   UNL     1     -59.071 118.072  -5.868  1.00  0.00     0.000 C 
BRANCH   8   9
ATOM      9  C   UNL     1     -59.826 118.553  -4.618  1.00  0.00     0.000 C 
BRANCH   9  10
ATOM     10  C   UNL     1     -59.029 119.596  -3.816  1.00  0.00     0.000 C 
BRANCH  10  11
ATOM     11  C   UNL     1     -59.643 119.871  -2.433  1.00  0.00     0.000 C 
BRANCH  11  12
ATOM     12  C   UNL     1     -59.015 121.098  -1.748  1.00  0.00     0.006 C 
BRANCH  12  13
ATOM     13  C   UNL     1     -59.803 122.385  -2.029  1.00  0.00     0.053 C 
BRANCH  13  14
ATOM     14  C   UNL     1     -59.618 122.857  -3.438  1.00  0.00     0.041 C 
ATOM     15  O   UNL     1     -60.581 123.370  -4.066  1.00  0.00    -0.550 OA
ATOM     16  O   UNL     1     -58.374 122.757  -4.048  1.00  0.00    -0.550 OA
ENDBRANCH  13  14
ENDBRANCH  12  13
ENDBRANCH  11  12
ENDBRANCH  10  11
ENDBRANCH   9  10
ENDBRANCH   8   9
ENDBRANCH   7   8
ENDBRANCH   6   7
ENDBRANCH   5   6
ENDBRANCH   4   5
ENDBRANCH   3   4
ENDBRANCH   2   3
ENDBRANCH   1   2
BRANCH   1  17
ATOM     17  C   UNL     1     -54.684 119.834 -11.214  1.00  0.00     0.000 C 
BRANCH  17  18
ATOM     18  C   UNL     1     -54.652 121.175 -11.966  1.00  0.00     0.000 C 
BRANCH  18  19
ATOM     19  C   UNL     1     -53.231 121.738 -12.125  1.00  0.00     0.000 C 
BRANCH  19  20
ATOM     20  C   UNL     1     -52.151 120.650 -12.013  1.00  0.00     0.000 C 
BRANCH  20  21
ATOM     21  C   UNL     1     -50.725 121.219 -12.122  1.00  0.00     0.000 C 
BRANCH  21  22
ATOM     22  C   UNL     1     -50.007 121.263 -10.764  1.00  0.00    -0.000 C 
BRANCH  22  23
ATOM     23  C   UNL     1     -48.875 122.307 -10.735  1.00  0.00    -0.000 C 
BRANCH  23  24
ATOM     24  C   UNL     1     -49.387 123.738 -10.491  1.00  0.00    -0.000 C 
BRANCH  24  25
ATOM     25  C   UNL     1     -49.341 124.199  -9.023  1.00  0.00    -0.000 C 
BRANCH  25  26
ATOM     26  C   UNL     1     -50.628 123.867  -8.250  1.00  0.00    -0.000 C 
BRANCH  26  27
ATOM     27  C   UNL     1     -51.768 123.384  -9.166  1.00  0.00    -0.000 C 
BRANCH  27  28
ATOM     28  C   UNL     1     -53.182 123.506  -8.563  1.00  0.00    -0.000 C 
BRANCH  28  29
ATOM     29  C   UNL     1     -53.855 122.167  -8.209  1.00  0.00    -0.003 C 
ATOM     30  C   UNL     1     -53.025 120.954  -8.623  1.00  0.00     0.004 C 
ENDBRANCH  28  29
ENDBRANCH  27  28
ENDBRANCH  26  27
ENDBRANCH  25  26
ENDBRANCH  24  25
ENDBRANCH  23  24
ENDBRANCH  22  23
ENDBRANCH  21  22
ENDBRANCH  20  21
ENDBRANCH  19  20
ENDBRANCH  18  19
ENDBRANCH  17  18
ENDBRANCH   1  17
TORSDOF 26
ENDMDL
MODEL 4
REMARK VINA RESULT:     7.647      1.148      2.381
REMARK INTER + INTRA:          18.202
REMARK INTER:                  17.785
REMARK INTRA:                   0.417
REMARK UNBOUND:                -1.069
REMARK SMILES CCCCCCCCCCCCCCCCCCCCCCCCCCCC(=O)[O-]
REMARK SMILES IDX 15 1 16 2 17 3 18 4 19 5 20 6 21 7 22 8 23 9 24 10 25 11
REMARK SMILES IDX 26 12 27 13 28 14 29 15 30 16 14 17 13 18 12 19 11 20 10 21
REMARK SMILES IDX 9 22 8 23 7 24 6 25 5 26 4 27 3 28 2 29 1 30
REMARK H PARENT
REMARK Flexibility Score: inf
ROOT
ATOM      1  C   UNL     1     -53.649 122.107  -8.484  1.00  0.00     0.000 C 
ENDROOT
BRANCH   1   2
ATOM      2  C   UNL     1     -55.127 122.133  -8.912  1.00  0.00     0.000 C 
BRANCH   2   3
ATOM      3  C   UNL     1     -55.298 122.205 -10.438  1.00  0.00     0.000 C 
BRANCH   3   4
ATOM      4  C   UNL     1     -55.182 120.827 -11.108  1.00  0.00     0.000 C 
BRANCH   4   5
ATOM      5  C   UNL     1     -56.461 120.005 -10.905  1.00  0.00     0.000 C 
BRANCH   5   6
ATOM      6  C   UNL     1     -57.037 120.230  -9.500  1.00  0.00     0.000 C 
BRANCH   6   7
ATOM      7  C   UNL     1     -57.920 119.064  -9.027  1.00  0.00     0.000 C 
BRANCH   7   8
ATOM      8  C   UNL     1     -58.278 119.161  -7.534  1.00  0.00     0.000 C 
BRANCH   8   9
ATOM      9  C   UNL     1     -58.815 117.834  -6.974  1.00  0.00     0.000 C 
BRANCH   9  10
ATOM     10  C   UNL     1     -59.253 117.951  -5.504  1.00  0.00     0.000 C 
BRANCH  10  11
ATOM     11  C   UNL     1     -58.746 119.241  -4.839  1.00  0.00     0.000 C 
BRANCH  11  12
ATOM     12  C   UNL     1     -59.791 119.864  -3.897  1.00  0.00     0.006 C 
BRANCH  12  13
ATOM     13  C   UNL     1     -59.402 119.713  -2.419  1.00  0.00     0.053 C 
BRANCH  13  14
ATOM     14  C   UNL     1     -58.547 120.850  -1.948  1.00  0.00     0.041 C 
ATOM     15  O   UNL     1     -57.515 120.625  -1.264  1.00  0.00    -0.550 OA
ATOM     16  O   UNL     1     -58.877 122.156  -2.289  1.00  0.00    -0.550 OA
ENDBRANCH  13  14
ENDBRANCH  12  13
ENDBRANCH  11  12
ENDBRANCH  10  11
ENDBRANCH   9  10
ENDBRANCH   8   9
ENDBRANCH   7   8
ENDBRANCH   6   7
ENDBRANCH   5   6
ENDBRANCH   4   5
ENDBRANCH   3   4
ENDBRANCH   2   3
ENDBRANCH   1   2
BRANCH   1  17
ATOM     17  C   UNL     1     -53.013 123.513  -8.496  1.00  0.00     0.000 C 
BRANCH  17  18
ATOM     18  C   UNL     1     -51.476 123.498  -8.560  1.00  0.00     0.000 C 
BRANCH  18  19
ATOM     19  C   UNL     1     -50.835 124.679  -7.816  1.00  0.00     0.000 C 
BRANCH  19  20
ATOM     20  C   UNL     1     -49.361 124.886  -8.199  1.00  0.00     0.000 C 
BRANCH  20  21
ATOM     21  C   UNL     1     -48.943 124.043  -9.416  1.00  0.00     0.000 C 
BRANCH  21  22
ATOM     22  C   UNL     1     -48.878 124.873 -10.708  1.00  0.00    -0.000 C 
BRANCH  22  23
ATOM     23  C   UNL     1     -48.929 123.994 -11.971  1.00  0.00    -0.000 C 
BRANCH  23  24
ATOM     24  C   UNL     1     -49.935 122.835 -11.854  1.00  0.00    -0.000 C 
BRANCH  24  25
ATOM     25  C   UNL     1     -49.339 121.511 -11.345  1.00  0.00    -0.000 C 
BRANCH  25  26
ATOM     26  C   UNL     1     -50.154 120.889 -10.198  1.00  0.00    -0.000 C 
BRANCH  26  27
ATOM     27  C   UNL     1     -51.597 120.543 -10.608  1.00  0.00    -0.000 C 
BRANCH  27  28
ATOM     28  C   UNL     1     -52.515 120.106  -9.449  1.00  0.00    -0.000 C 
BRANCH  28  29
ATOM     29  C   UNL     1     -52.439 118.612  -9.087  1.00  0.00    -0.003 C 
ATOM     30  C   UNL     1     -51.189 118.255  -8.283  1.00  0.00     0.004 C 
ENDBRANCH  28  29
ENDBRANCH  27  28
ENDBRANCH  26  27
ENDBRANCH  25  26
ENDBRANCH  24  25
ENDBRANCH  23  24
ENDBRANCH  22  23
ENDBRANCH  21  22
ENDBRANCH  20  21
ENDBRANCH  19  20
ENDBRANCH  18  19
ENDBRANCH  17  18
ENDBRANCH   1  17
TORSDOF 26
ENDMDL
MODEL 5
REMARK VINA RESULT:     7.762      3.335     10.001
REMARK INTER + INTRA:          18.492
REMARK INTER:                  18.819
REMARK INTRA:                  -0.327
REMARK UNBOUND:                -1.069
REMARK SMILES CCCCCCCCCCCCCCCCCCCCCCCCCCCC(=O)[O-]
REMARK SMILES IDX 15 1 16 2 17 3 18 4 19 5 20 6 21 7 22 8 23 9 24 10 25 11
REMARK SMILES IDX 26 12 27 13 28 14 29 15 30 16 14 17 13 18 12 19 11 20 10 21
REMARK SMILES IDX 9 22 8 23 7 24 6 25 5 26 4 27 3 28 2 29 1 30
REMARK H PARENT
REMARK Flexibility Score: inf
ROOT
ATOM      1  C   UNL     1     -55.899 119.840 -10.567  1.00  0.00     0.000 C 
ENDROOT
BRANCH   1   2
ATOM      2  C   UNL     1     -55.228 120.318 -11.867  1.00  0.00     0.000 C 
BRANCH   2   3
ATOM      3  C   UNL     1     -55.361 121.835 -12.076  1.00  0.00     0.000 C 
BRANCH   3   4
ATOM      4  C   UNL     1     -53.999 122.544 -12.125  1.00  0.00     0.000 C 
BRANCH   4   5
ATOM      5  C   UNL     1     -53.688 123.238 -10.792  1.00  0.00     0.000 C 
BRANCH   5   6
ATOM      6  C   UNL     1     -53.619 122.216  -9.649  1.00  0.00     0.000 C 
BRANCH   6   7
ATOM      7  C   UNL     1     -53.003 122.800  -8.368  1.00  0.00     0.000 C 
BRANCH   7   8
ATOM      8  C   UNL     1     -51.465 122.832  -8.413  1.00  0.00     0.000 C 
BRANCH   8   9
ATOM      9  C   UNL     1     -50.905 124.254  -8.244  1.00  0.00     0.000 C 
BRANCH   9  10
ATOM     10  C   UNL     1     -49.732 124.540  -9.197  1.00  0.00     0.000 C 
BRANCH  10  11
ATOM     11  C   UNL     1     -49.116 123.256  -9.775  1.00  0.00     0.000 C 
BRANCH  11  12
ATOM     12  C   UNL     1     -48.890 123.348 -11.295  1.00  0.00     0.006 C 
BRANCH  12  13
ATOM     13  C   UNL     1     -49.785 122.374 -12.074  1.00  0.00     0.053 C 
BRANCH  13  14
ATOM     14  C   UNL     1     -50.236 121.226 -11.224  1.00  0.00     0.041 C 
ATOM     15  O   UNL     1     -49.525 120.833 -10.261  1.00  0.00    -0.550 OA
ATOM     16  O   UNL     1     -51.455 120.609 -11.477  1.00  0.00    -0.550 OA
ENDBRANCH  13  14
ENDBRANCH  12  13
ENDBRANCH  11  12
ENDBRANCH  10  11
ENDBRANCH   9  10
ENDBRANCH   8   9
ENDBRANCH   7   8
ENDBRANCH   6   7
ENDBRANCH   5   6
ENDBRANCH   4   5
ENDBRANCH   3   4
ENDBRANCH   2   3
ENDBRANCH   1   2
BRANCH   1  17
ATOM     17  C   UNL     1     -56.944 120.847 -10.045  1.00  0.00     0.000 C 
BRANCH  17  18
ATOM     18  C   UNL     1     -57.458 120.530  -8.630  1.00  0.00     0.000 C 
BRANCH  18  19
ATOM     19  C   UNL     1     -57.971 119.088  -8.489  1.00  0.00     0.000 C 
BRANCH  19  20
ATOM     20  C   UNL     1     -58.216 118.691  -7.025  1.00  0.00     0.000 C 
BRANCH  20  21
ATOM     21  C   UNL     1     -59.300 117.608  -6.880  1.00  0.00     0.000 C 
BRANCH  21  22
ATOM     22  C   UNL     1     -59.548 117.221  -5.414  1.00  0.00    -0.000 C 
BRANCH  22  23
ATOM     23  C   UNL     1     -60.107 118.392  -4.586  1.00  0.00    -0.000 C 
BRANCH  23  24
ATOM     24  C   UNL     1     -59.021 119.398  -4.162  1.00  0.00    -0.000 C 
BRANCH  24  25
ATOM     25  C   UNL     1     -59.481 120.454  -3.142  1.00  0.00    -0.000 C 
BRANCH  25  26
ATOM     26  C   UNL     1     -58.471 121.601  -2.970  1.00  0.00    -0.000 C 
BRANCH  26  27
ATOM     27  C   UNL     1     -59.111 122.883  -2.407  1.00  0.00    -0.000 C 
BRANCH  27  28
ATOM     28  C   UNL     1     -60.329 122.652  -1.489  1.00  0.00    -0.000 C 
BRANCH  28  29
ATOM     29  C   UNL     1     -60.600 123.777  -0.473  1.00  0.00    -0.003 C 
ATOM     30  C   UNL     1     -61.893 123.571   0.315  1.00  0.00     0.004 C 
ENDBRANCH  28  29
ENDBRANCH  27  28
ENDBRANCH  26  27
ENDBRANCH  25  26
ENDBRANCH  24  25
ENDBRANCH  23  24
ENDBRANCH  22  23
ENDBRANCH  21  22
ENDBRANCH  20  21
ENDBRANCH  19  20
ENDBRANCH  18  19
ENDBRANCH  17  18
ENDBRANCH   1  17
TORSDOF 26
ENDMDL
MODEL 6
REMARK VINA RESULT:     7.806      1.276      3.435
REMARK INTER + INTRA:          18.602
REMARK INTER:                  19.821
REMARK INTRA:                  -1.219
REMARK UNBOUND:                -1.069
REMARK SMILES CCCCCCCCCCCCCCCCCCCCCCCCCCCC(=O)[O-]
REMARK SMILES IDX 15 1 16 2 17 3 18 4 19 5 20 6 21 7 22 8 23 9 24 10 25 11
REMARK SMILES IDX 26 12 27 13 28 14 29 15 30 16 14 17 13 18 12 19 11 20 10 21
REMARK SMILES IDX 9 22 8 23 7 24 6 25 5 26 4 27 3 28 2 29 1 30
REMARK H PARENT
REMARK Flexibility Score: inf
ROOT
ATOM      1  C   UNL     1     -56.679 122.149 -11.543  1.00  0.00     0.000 C 
ENDROOT
BRANCH   1   2
ATOM      2  C   UNL     1     -56.370 120.748 -12.099  1.00  0.00     0.000 C 
BRANCH   2   3
ATOM      3  C   UNL     1     -57.210 119.649 -11.429  1.00  0.00     0.000 C 
BRANCH   3   4
ATOM      4  C   UNL     1     -56.836 119.439  -9.954  1.00  0.00     0.000 C 
BRANCH   4   5
ATOM      5  C   UNL     1     -58.060 119.608  -9.044  1.00  0.00     0.000 C 
BRANCH   5   6
ATOM      6  C   UNL     1     -58.257 118.369  -8.160  1.00  0.00     0.000 C 
BRANCH   6   7
ATOM      7  C   UNL     1     -59.451 118.506  -7.203  1.00  0.00     0.000 C 
BRANCH   7   8
ATOM      8  C   UNL     1     -59.661 117.253  -6.334  1.00  0.00     0.000 C 
BRANCH   8   9
ATOM      9  C   UNL     1     -59.253 117.483  -4.870  1.00  0.00     0.000 C 
BRANCH   9  10
ATOM     10  C   UNL     1     -59.906 118.741  -4.270  1.00  0.00     0.000 C 
BRANCH  10  11
ATOM     11  C   UNL     1     -58.887 119.660  -3.576  1.00  0.00     0.000 C 
BRANCH  11  12
ATOM     12  C   UNL     1     -59.469 120.339  -2.324  1.00  0.00     0.006 C 
BRANCH  12  13
ATOM     13  C   UNL     1     -58.900 121.749  -2.111  1.00  0.00     0.053 C 
BRANCH  13  14
ATOM     14  C   UNL     1     -59.952 122.804  -2.258  1.00  0.00     0.041 C 
ATOM     15  O   UNL     1     -60.641 123.155  -1.264  1.00  0.00    -0.550 OA
ATOM     16  O   UNL     1     -60.152 123.422  -3.486  1.00  0.00    -0.550 OA
ENDBRANCH  13  14
ENDBRANCH  12  13
ENDBRANCH  11  12
ENDBRANCH  10  11
ENDBRANCH   9  10
ENDBRANCH   8   9
ENDBRANCH   7   8
ENDBRANCH   6   7
ENDBRANCH   5   6
ENDBRANCH   4   5
ENDBRANCH   3   4
ENDBRANCH   2   3
ENDBRANCH   1   2
BRANCH   1  17
ATOM     17  C   UNL     1     -55.424 123.045 -11.488  1.00  0.00     0.000 C 
BRANCH  17  18
ATOM     18  C   UNL     1     -54.178 122.406 -12.124  1.00  0.00     0.000 C 
BRANCH  18  19
ATOM     19  C   UNL     1     -52.864 122.932 -11.524  1.00  0.00     0.000 C 
BRANCH  19  20
ATOM     20  C   UNL     1     -51.643 122.112 -11.969  1.00  0.00     0.000 C 
BRANCH  20  21
ATOM     21  C   UNL     1     -51.422 120.862 -11.099  1.00  0.00     0.000 C 
BRANCH  21  22
ATOM     22  C   UNL     1     -52.607 119.885 -11.166  1.00  0.00    -0.000 C 
BRANCH  22  23
ATOM     23  C   UNL     1     -53.503 119.966  -9.917  1.00  0.00    -0.000 C 
BRANCH  23  24
ATOM     24  C   UNL     1     -52.857 120.759  -8.766  1.00  0.00    -0.000 C 
BRANCH  24  25
ATOM     25  C   UNL     1     -53.274 122.238  -8.686  1.00  0.00    -0.000 C 
BRANCH  25  26
ATOM     26  C   UNL     1     -52.338 123.077  -7.800  1.00  0.00    -0.000 C 
BRANCH  26  27
ATOM     27  C   UNL     1     -51.514 124.101  -8.601  1.00  0.00    -0.000 C 
BRANCH  27  28
ATOM     28  C   UNL     1     -50.139 124.446  -7.996  1.00  0.00    -0.000 C 
BRANCH  28  29
ATOM     29  C   UNL     1     -48.957 124.366  -8.979  1.00  0.00    -0.003 C 
ATOM     30  C   UNL     1     -49.191 123.370 -10.113  1.00  0.00     0.004 C 
ENDBRANCH  28  29
ENDBRANCH  27  28
ENDBRANCH  26  27
ENDBRANCH  25  26
ENDBRANCH  24  25
ENDBRANCH  23  24
ENDBRANCH  22  23
ENDBRANCH  21  22
ENDBRANCH  20  21
ENDBRANCH  19  20
ENDBRANCH  18  19
ENDBRANCH  17  18
ENDBRANCH   1  17
TORSDOF 26
ENDMDL
MODEL 7
REMARK VINA RESULT:     7.811      1.136      2.009
REMARK INTER + INTRA:          18.614
REMARK INTER:                  18.869
REMARK INTRA:                  -0.255
REMARK UNBOUND:                -1.069
REMARK SMILES CCCCCCCCCCCCCCCCCCCCCCCCCCCC(=O)[O-]
REMARK SMILES IDX 15 1 16 2 17 3 18 4 19 5 20 6 21 7 22 8 23 9 24 10 25 11
REMARK SMILES IDX 26 12 27 13 28 14 29 15 30 16 14 17 13 18 12 19 11 20 10 21
REMARK SMILES IDX 9 22 8 23 7 24 6 25 5 26 4 27 3 28 2 29 1 30
REMARK H PARENT
REMARK Flexibility Score: inf
ROOT
ATOM      1  C   UNL     1     -56.036 121.720 -11.122  1.00  0.00     0.000 C 
ENDROOT
BRANCH   1   2
ATOM      2  C   UNL     1     -56.390 120.397 -11.824  1.00  0.00     0.000 C 
BRANCH   2   3
ATOM      3  C   UNL     1     -56.811 119.298 -10.835  1.00  0.00     0.000 C 
BRANCH   3   4
ATOM      4  C   UNL     1     -57.146 119.856  -9.443  1.00  0.00     0.000 C 
BRANCH   4   5
ATOM      5  C   UNL     1     -58.418 119.209  -8.880  1.00  0.00     0.000 C 
BRANCH   5   6
ATOM      6  C   UNL     1     -58.100 118.379  -7.629  1.00  0.00     0.000 C 
BRANCH   6   7
ATOM      7  C   UNL     1     -59.364 117.916  -6.888  1.00  0.00     0.000 C 
BRANCH   7   8
ATOM      8  C   UNL     1     -59.356 118.310  -5.400  1.00  0.00     0.000 C 
BRANCH   8   9
ATOM      9  C   UNL     1     -58.229 119.301  -5.065  1.00  0.00     0.000 C 
BRANCH   9  10
ATOM     10  C   UNL     1     -58.643 120.317  -3.987  1.00  0.00     0.000 C 
BRANCH  10  11
ATOM     11  C   UNL     1     -59.625 119.724  -2.963  1.00  0.00     0.000 C 
BRANCH  11  12
ATOM     12  C   UNL     1     -59.472 120.358  -1.570  1.00  0.00     0.006 C 
BRANCH  12  13
ATOM     13  C   UNL     1     -58.928 121.792  -1.642  1.00  0.00     0.053 C 
BRANCH  13  14
ATOM     14  C   UNL     1     -59.985 122.771  -2.053  1.00  0.00     0.041 C 
ATOM     15  O   UNL     1     -60.788 123.232  -1.201  1.00  0.00    -0.550 OA
ATOM     16  O   UNL     1     -60.063 123.196  -3.374  1.00  0.00    -0.550 OA
ENDBRANCH  13  14
ENDBRANCH  12  13
ENDBRANCH  11  12
ENDBRANCH  10  11
ENDBRANCH   9  10
ENDBRANCH   8   9
ENDBRANCH   7   8
ENDBRANCH   6   7
ENDBRANCH   5   6
ENDBRANCH   4   5
ENDBRANCH   3   4
ENDBRANCH   2   3
ENDBRANCH   1   2
BRANCH   1  17
ATOM     17  C   UNL     1     -55.629 122.821 -12.122  1.00  0.00     0.000 C 
BRANCH  17  18
ATOM     18  C   UNL     1     -54.129 123.163 -12.092  1.00  0.00     0.000 C 
BRANCH  18  19
ATOM     19  C   UNL     1     -53.498 122.960 -10.706  1.00  0.00     0.000 C 
BRANCH  19  20
ATOM     20  C   UNL     1     -54.400 123.464  -9.568  1.00  0.00     0.000 C 
BRANCH  20  21
ATOM     21  C   UNL     1     -53.731 123.346  -8.188  1.00  0.00     0.000 C 
BRANCH  21  22
ATOM     22  C   UNL     1     -52.257 122.923  -8.286  1.00  0.00    -0.000 C 
BRANCH  22  23
ATOM     23  C   UNL     1     -51.413 123.928  -9.092  1.00  0.00    -0.000 C 
BRANCH  23  24
ATOM     24  C   UNL     1     -49.907 123.608  -9.059  1.00  0.00    -0.000 C 
BRANCH  24  25
ATOM     25  C   UNL     1     -49.485 122.397  -9.910  1.00  0.00    -0.000 C 
BRANCH  25  26
ATOM     26  C   UNL     1     -50.432 122.138 -11.094  1.00  0.00    -0.000 C 
BRANCH  26  27
ATOM     27  C   UNL     1     -51.066 120.735 -11.057  1.00  0.00    -0.000 C 
BRANCH  27  28
ATOM     28  C   UNL     1     -50.985 120.021  -9.693  1.00  0.00    -0.000 C 
BRANCH  28  29
ATOM     29  C   UNL     1     -52.285 119.329  -9.244  1.00  0.00    -0.003 C 
ATOM     30  C   UNL     1     -53.542 120.052  -9.721  1.00  0.00     0.004 C 
ENDBRANCH  28  29
ENDBRANCH  27  28
ENDBRANCH  26  27
ENDBRANCH  25  26
ENDBRANCH  24  25
ENDBRANCH  23  24
ENDBRANCH  22  23
ENDBRANCH  21  22
ENDBRANCH  20  21
ENDBRANCH  19  20
ENDBRANCH  18  19
ENDBRANCH  17  18
ENDBRANCH   1  17
TORSDOF 26
ENDMDL
MODEL 8
REMARK VINA RESULT:     7.822      3.116      8.920
REMARK INTER + INTRA:          18.641
REMARK INTER:                  20.760
REMARK INTRA:                  -2.118
REMARK UNBOUND:                -1.069
REMARK SMILES CCCCCCCCCCCCCCCCCCCCCCCCCCCC(=O)[O-]
REMARK SMILES IDX 15 1 16 2 17 3 18 4 19 5 20 6 21 7 22 8 23 9 24 10 25 11
REMARK SMILES IDX 26 12 27 13 28 14 29 15 30 16 14 17 13 18 12 19 11 20 10 21
REMARK SMILES IDX 9 22 8 23 7 24 6 25 5 26 4 27 3 28 2 29 1 30
REMARK H PARENT
REMARK Flexibility Score: inf
ROOT
ATOM      1  C   UNL     1     -54.090 119.597 -10.770  1.00  0.00     0.000 C 
ENDROOT
BRANCH   1   2
ATOM      2  C   UNL     1     -52.595 119.960 -10.802  1.00  0.00     0.000 C 
BRANCH   2   3
ATOM      3  C   UNL     1     -52.198 120.717 -12.080  1.00  0.00     0.000 C 
BRANCH   3   4
ATOM      4  C   UNL     1     -50.700 121.050 -12.125  1.00  0.00     0.000 C 
BRANCH   4   5
ATOM      5  C   UNL     1     -50.081 121.004 -10.721  1.00  0.00     0.000 C 
BRANCH   5   6
ATOM      6  C   UNL     1     -48.876 121.950 -10.626  1.00  0.00     0.000 C 
BRANCH   6   7
ATOM      7  C   UNL     1     -49.048 123.218 -11.476  1.00  0.00     0.000 C 
BRANCH   7   8
ATOM      8  C   UNL     1     -49.308 124.472 -10.622  1.00  0.00     0.000 C 
BRANCH   8   9
ATOM      9  C   UNL     1     -49.139 124.200  -9.118  1.00  0.00     0.000 C 
BRANCH   9  10
ATOM     10  C   UNL     1     -50.434 124.455  -8.327  1.00  0.00     0.000 C 
BRANCH  10  11
ATOM     11  C   UNL     1     -51.358 123.226  -8.299  1.00  0.00     0.000 C 
BRANCH  11  12
ATOM     12  C   UNL     1     -52.846 123.615  -8.239  1.00  0.00     0.006 C 
BRANCH  12  13
ATOM     13  C   UNL     1     -53.714 122.725  -9.139  1.00  0.00     0.053 C 
BRANCH  13  14
ATOM     14  C   UNL     1     -54.160 123.444 -10.375  1.00  0.00     0.041 C 
ATOM     15  O   UNL     1     -54.728 122.814 -11.305  1.00  0.00    -0.550 OA
ATOM     16  O   UNL     1     -53.974 124.817 -10.486  1.00  0.00    -0.550 OA
ENDBRANCH  13  14
ENDBRANCH  12  13
ENDBRANCH  11  12
ENDBRANCH  10  11
ENDBRANCH   9  10
ENDBRANCH   8   9
ENDBRANCH   7   8
ENDBRANCH   6   7
ENDBRANCH   5   6
ENDBRANCH   4   5
ENDBRANCH   3   4
ENDBRANCH   2   3
ENDBRANCH   1   2
BRANCH   1  17
ATOM     17  C   UNL     1     -54.783 119.859 -12.124  1.00  0.00     0.000 C 
BRANCH  17  18
ATOM     18  C   UNL     1     -56.189 120.470 -11.993  1.00  0.00     0.000 C 
BRANCH  18  19
ATOM     19  C   UNL     1     -57.125 119.633 -11.107  1.00  0.00     0.000 C 
BRANCH  19  20
ATOM     20  C   UNL     1     -57.786 120.466  -9.997  1.00  0.00     0.000 C 
BRANCH  20  21
ATOM     21  C   UNL     1     -56.964 120.474  -8.697  1.00  0.00     0.000 C 
BRANCH  21  22
ATOM     22  C   UNL     1     -56.784 121.890  -8.127  1.00  0.00    -0.000 C 
BRANCH  22  23
ATOM     23  C   UNL     1     -57.050 121.948  -6.611  1.00  0.00    -0.000 C 
BRANCH  23  24
ATOM     24  C   UNL     1     -57.973 123.113  -6.209  1.00  0.00    -0.000 C 
BRANCH  24  25
ATOM     25  C   UNL     1     -58.308 123.183  -4.708  1.00  0.00    -0.000 C 
BRANCH  25  26
ATOM     26  C   UNL     1     -58.232 121.813  -4.013  1.00  0.00    -0.000 C 
BRANCH  26  27
ATOM     27  C   UNL     1     -59.411 121.562  -3.055  1.00  0.00    -0.000 C 
BRANCH  27  28
ATOM     28  C   UNL     1     -59.289 122.250  -1.681  1.00  0.00    -0.000 C 
BRANCH  28  29
ATOM     29  C   UNL     1     -60.204 123.473  -1.483  1.00  0.00    -0.003 C 
ATOM     30  C   UNL     1     -61.023 123.404  -0.195  1.00  0.00     0.004 C 
ENDBRANCH  28  29
ENDBRANCH  27  28
ENDBRANCH  26  27
ENDBRANCH  25  26
ENDBRANCH  24  25
ENDBRANCH  23  24
ENDBRANCH  22  23
ENDBRANCH  21  22
ENDBRANCH  20  21
ENDBRANCH  19  20
ENDBRANCH  18  19
ENDBRANCH  17  18
ENDBRANCH   1  17
TORSDOF 26
ENDMDL
MODEL 9
REMARK VINA RESULT:     7.897      1.662      2.330
REMARK INTER + INTRA:          18.831
REMARK INTER:                  18.814
REMARK INTRA:                   0.017
REMARK UNBOUND:                -1.069
REMARK SMILES CCCCCCCCCCCCCCCCCCCCCCCCCCCC(=O)[O-]
REMARK SMILES IDX 15 1 16 2 17 3 18 4 19 5 20 6 21 7 22 8 23 9 24 10 25 11
REMARK SMILES IDX 26 12 27 13 28 14 29 15 30 16 14 17 13 18 12 19 11 20 10 21
REMARK SMILES IDX 9 22 8 23 7 24 6 25 5 26 4 27 3 28 2 29 1 30
REMARK H PARENT
REMARK Flexibility Score: inf
ROOT
ATOM      1  C   UNL     1     -55.882 122.018 -11.427  1.00  0.00     0.000 C 
ENDROOT
BRANCH   1   2
ATOM      2  C   UNL     1     -55.540 120.689 -12.125  1.00  0.00     0.000 C 
BRANCH   2   3
ATOM      3  C   UNL     1     -56.420 119.525 -11.641  1.00  0.00     0.000 C 
BRANCH   3   4
ATOM      4  C   UNL     1     -57.548 119.989 -10.707  1.00  0.00     0.000 C 
BRANCH   4   5
ATOM      5  C   UNL     1     -57.076 120.028  -9.247  1.00  0.00     0.000 C 
BRANCH   5   6
ATOM      6  C   UNL     1     -56.754 121.466  -8.817  1.00  0.00     0.000 C 
BRANCH   6   7
ATOM      7  C   UNL     1     -57.024 121.713  -7.325  1.00  0.00     0.000 C 
BRANCH   7   8
ATOM      8  C   UNL     1     -58.019 122.864  -7.087  1.00  0.00     0.000 C 
BRANCH   8   9
ATOM      9  C   UNL     1     -57.827 123.526  -5.712  1.00  0.00     0.000 C 
BRANCH   9  10
ATOM     10  C   UNL     1     -59.161 123.953  -5.076  1.00  0.00     0.000 C 
BRANCH  10  11
ATOM     11  C   UNL     1     -59.695 122.916  -4.074  1.00  0.00     0.000 C 
BRANCH  11  12
ATOM     12  C   UNL     1     -59.382 123.296  -2.616  1.00  0.00     0.006 C 
BRANCH  12  13
ATOM     13  C   UNL     1     -59.715 122.162  -1.637  1.00  0.00     0.053 C 
BRANCH  13  14
ATOM     14  C   UNL     1     -59.054 120.875  -2.026  1.00  0.00     0.041 C 
ATOM     15  O   UNL     1     -58.024 120.483  -1.418  1.00  0.00    -0.550 OA
ATOM     16  O   UNL     1     -59.593 120.095  -3.042  1.00  0.00    -0.550 OA
ENDBRANCH  13  14
ENDBRANCH  12  13
ENDBRANCH  11  12
ENDBRANCH  10  11
ENDBRANCH   9  10
ENDBRANCH   8   9
ENDBRANCH   7   8
ENDBRANCH   6   7
ENDBRANCH   5   6
ENDBRANCH   4   5
ENDBRANCH   3   4
ENDBRANCH   2   3
ENDBRANCH   1   2
BRANCH   1  17
ATOM     17  C   UNL     1     -55.191 123.223 -12.098  1.00  0.00     0.000 C 
BRANCH  17  18
ATOM     18  C   UNL     1     -53.710 123.382 -11.714  1.00  0.00     0.000 C 
BRANCH  18  19
ATOM     19  C   UNL     1     -53.516 124.015 -10.327  1.00  0.00     0.000 C 
BRANCH  19  20
ATOM     20  C   UNL     1     -53.362 122.964  -9.216  1.00  0.00     0.000 C 
BRANCH  20  21
ATOM     21  C   UNL     1     -52.397 123.415  -8.106  1.00  0.00     0.000 C 
BRANCH  21  22
ATOM     22  C   UNL     1     -50.931 123.091  -8.436  1.00  0.00    -0.000 C 
BRANCH  22  23
ATOM     23  C   UNL     1     -50.264 124.194  -9.278  1.00  0.00    -0.000 C 
BRANCH  23  24
ATOM     24  C   UNL     1     -48.935 123.743  -9.912  1.00  0.00    -0.000 C 
BRANCH  24  25
ATOM     25  C   UNL     1     -49.073 123.062 -11.285  1.00  0.00    -0.000 C 
BRANCH  25  26
ATOM     26  C   UNL     1     -48.875 121.538 -11.220  1.00  0.00    -0.000 C 
BRANCH  26  27
ATOM     27  C   UNL     1     -50.173 120.755 -11.492  1.00  0.00    -0.000 C 
BRANCH  27  28
ATOM     28  C   UNL     1     -51.347 121.096 -10.552  1.00  0.00    -0.000 C 
BRANCH  28  29
ATOM     29  C   UNL     1     -51.903 119.907  -9.747  1.00  0.00    -0.003 C 
ATOM     30  C   UNL     1     -53.417 119.970  -9.558  1.00  0.00     0.004 C 
ENDBRANCH  28  29
ENDBRANCH  27  28
ENDBRANCH  26  27
ENDBRANCH  25  26
ENDBRANCH  24  25
ENDBRANCH  23  24
ENDBRANCH  22  23
ENDBRANCH  21  22
ENDBRANCH  20  21
ENDBRANCH  19  20
ENDBRANCH  18  19
ENDBRANCH  17  18
ENDBRANCH   1  17
TORSDOF 26
ENDMDL
