MODEL 1
REMARK VINA RESULT:    -0.814      0.000      0.000
REMARK INTER + INTRA:          -1.417
REMARK INTER:                  -1.147
REMARK INTRA:                  -0.270
REMARK UNBOUND:                -0.270
REMARK SMILES CCCCCCCCC(=O)[O-]
REMARK SMILES IDX 6 1 7 2 8 3 9 4 10 5 11 6 5 7 4 8 3 9 2 10 1 11
REMARK H PARENT
REMARK Flexibility Score: inf
ROOT
ATOM      1  C   UNL     1      18.966  20.790  49.717  1.00  0.00     0.000 C 
ENDROOT
BRANCH   1   2
ATOM      2  C   UNL     1      20.207  19.931  50.021  1.00  0.00     0.006 C 
BRANCH   2   3
ATOM      3  C   UNL     1      21.296  20.729  50.749  1.00  0.00     0.053 C 
BRANCH   3   4
ATOM      4  C   UNL     1      21.291  20.459  52.223  1.00  0.00     0.041 C 
ATOM      5  O   UNL     1      22.302  20.736  52.922  1.00  0.00    -0.550 OA
ATOM      6  O   UNL     1      20.182  19.875  52.821  1.00  0.00    -0.550 OA
ENDBRANCH   3   4
ENDBRANCH   2   3
ENDBRANCH   1   2
BRANCH   1   7
ATOM      7  C   UNL     1      17.658  19.986  49.793  1.00  0.00     0.000 C 
BRANCH   7   8
ATOM      8  C   UNL     1      17.111  19.875  51.224  1.00  0.00    -0.000 C 
BRANCH   8   9
ATOM      9  C   UNL     1      15.701  20.477  51.320  1.00  0.00    -0.000 C 
BRANCH   9  10
ATOM     10  C   UNL     1      14.886  19.892  52.484  1.00  0.00    -0.003 C 
ATOM     11  C   UNL     1      15.656  19.893  53.804  1.00  0.00     0.004 C 
ENDBRANCH   9  10
ENDBRANCH   8   9
ENDBRANCH   7   8
ENDBRANCH   1   7
TORSDOF 7
ENDMDL
MODEL 2
REMARK VINA RESULT:    -0.678      2.322      4.866
REMARK INTER + INTRA:          -1.226
REMARK INTER:                  -0.817
REMARK INTRA:                  -0.409
REMARK UNBOUND:                -0.270
REMARK SMILES CCCCCCCCC(=O)[O-]
REMARK SMILES IDX 6 1 7 2 8 3 9 4 10 5 11 6 5 7 4 8 3 9 2 10 1 11
REMARK H PARENT
REMARK Flexibility Score: inf
ROOT
ATOM      1  C   UNL     1      17.847  21.222  49.389  1.00  0.00     0.000 C 
ENDROOT
BRANCH   1   2
ATOM      2  C   UNL     1      17.359  20.544  50.682  1.00  0.00     0.006 C 
BRANCH   2   3
ATOM      3  C   UNL     1      15.934  20.972  51.056  1.00  0.00     0.053 C 
BRANCH   3   4
ATOM      4  C   UNL     1      15.420  20.218  52.245  1.00  0.00     0.041 C 
ATOM      5  O   UNL     1      14.210  19.875  52.304  1.00  0.00    -0.550 OA
ATOM      6  O   UNL     1      16.271  19.920  53.301  1.00  0.00    -0.550 OA
ENDBRANCH   3   4
ENDBRANCH   2   3
ENDBRANCH   1   2
BRANCH   1   7
ATOM      7  C   UNL     1      19.124  20.577  48.829  1.00  0.00     0.000 C 
BRANCH   7   8
ATOM      8  C   UNL     1      19.960  19.875  49.911  1.00  0.00    -0.000 C 
BRANCH   8   9
ATOM      9  C   UNL     1      21.028  20.822  50.478  1.00  0.00    -0.000 C 
BRANCH   9  10
ATOM     10  C   UNL     1      21.222  20.654  51.992  1.00  0.00    -0.003 C 
ATOM     11  C   UNL     1      20.084  19.878  52.653  1.00  0.00     0.004 C 
ENDBRANCH   9  10
ENDBRANCH   8   9
ENDBRANCH   7   8
ENDBRANCH   1   7
TORSDOF 7
ENDMDL
MODEL 3
REMARK VINA RESULT:    -0.018     18.617     19.649
REMARK INTER + INTRA:          -0.295
REMARK INTER:                   0.084
REMARK INTRA:                  -0.379
REMARK UNBOUND:                -0.270
REMARK SMILES CCCCCCCCC(=O)[O-]
REMARK SMILES IDX 6 1 7 2 8 3 9 4 10 5 11 6 5 7 4 8 3 9 2 10 1 11
REMARK H PARENT
REMARK Flexibility Score: inf
ROOT
ATOM      1  C   UNL     1      15.827  38.976  45.761  1.00  0.00     0.000 C 
ENDROOT
BRANCH   1   2
ATOM      2  C   UNL     1      14.713  39.707  46.531  1.00  0.00     0.006 C 
BRANCH   2   3
ATOM      3  C   UNL     1      14.460  39.085  47.911  1.00  0.00     0.053 C 
BRANCH   3   4
ATOM      4  C   UNL     1      14.084  37.639  47.808  1.00  0.00     0.041 C 
ATOM      5  O   UNL     1      13.012  37.301  47.241  1.00  0.00    -0.550 OA
ATOM      6  O   UNL     1      14.903  36.665  48.365  1.00  0.00    -0.550 OA
ENDBRANCH   3   4
ENDBRANCH   2   3
ENDBRANCH   1   2
BRANCH   1   7
ATOM      7  C   UNL     1      17.178  39.022  46.491  1.00  0.00     0.000 C 
BRANCH   7   8
ATOM      8  C   UNL     1      17.961  37.704  46.378  1.00  0.00    -0.000 C 
BRANCH   8   9
ATOM      9  C   UNL     1      19.432  37.905  46.772  1.00  0.00    -0.000 C 
BRANCH   9  10
ATOM     10  C   UNL     1      19.742  39.353  47.178  1.00  0.00    -0.003 C 
ATOM     11  C   UNL     1      20.495  40.124  46.094  1.00  0.00     0.004 C 
ENDBRANCH   9  10
ENDBRANCH   8   9
ENDBRANCH   7   8
ENDBRANCH   1   7
TORSDOF 7
ENDMDL
MODEL 4
REMARK VINA RESULT:     0.327      0.928      1.457
REMARK INTER + INTRA:           0.190
REMARK INTER:                   0.547
REMARK INTRA:                  -0.357
REMARK UNBOUND:                -0.270
REMARK SMILES CCCCCCCCC(=O)[O-]
REMARK SMILES IDX 6 1 7 2 8 3 9 4 10 5 11 6 5 7 4 8 3 9 2 10 1 11
REMARK H PARENT
REMARK Flexibility Score: inf
ROOT
ATOM      1  C   UNL     1      18.054  21.385  49.370  1.00  0.00     0.000 C 
ENDROOT
BRANCH   1   2
ATOM      2  C   UNL     1      19.583  21.206  49.361  1.00  0.00     0.006 C 
BRANCH   2   3
ATOM      3  C   UNL     1      20.023  19.954  50.131  1.00  0.00     0.053 C 
BRANCH   3   4
ATOM      4  C   UNL     1      20.252  20.246  51.583  1.00  0.00     0.041 C 
ATOM      5  O   UNL     1      19.410  19.880  52.445  1.00  0.00    -0.550 OA
ATOM      6  O   UNL     1      21.382  20.948  51.982  1.00  0.00    -0.550 OA
ENDBRANCH   3   4
ENDBRANCH   2   3
ENDBRANCH   1   2
BRANCH   1   7
ATOM      7  C   UNL     1      17.303  20.049  49.468  1.00  0.00     0.000 C 
BRANCH   7   8
ATOM      8  C   UNL     1      16.569  19.875  50.807  1.00  0.00    -0.000 C 
BRANCH   8   9
ATOM      9  C   UNL     1      15.959  21.205  51.274  1.00  0.00    -0.000 C 
BRANCH   9  10
ATOM     10  C   UNL     1      15.039  21.037  52.493  1.00  0.00    -0.003 C 
ATOM     11  C   UNL     1      15.472  19.893  53.408  1.00  0.00     0.004 C 
ENDBRANCH   9  10
ENDBRANCH   8   9
ENDBRANCH   7   8
ENDBRANCH   1   7
TORSDOF 7
ENDMDL
MODEL 5
REMARK VINA RESULT:     0.379     18.155     19.196
REMARK INTER + INTRA:           0.263
REMARK INTER:                   0.647
REMARK INTRA:                  -0.384
REMARK UNBOUND:                -0.270
REMARK SMILES CCCCCCCCC(=O)[O-]
REMARK SMILES IDX 6 1 7 2 8 3 9 4 10 5 11 6 5 7 4 8 3 9 2 10 1 11
REMARK H PARENT
REMARK Flexibility Score: inf
ROOT
ATOM      1  C   UNL     1      14.866  39.580  46.409  1.00  0.00     0.000 C 
ENDROOT
BRANCH   1   2
ATOM      2  C   UNL     1      14.320  38.844  47.646  1.00  0.00     0.006 C 
BRANCH   2   3
ATOM      3  C   UNL     1      13.377  37.695  47.265  1.00  0.00     0.053 C 
BRANCH   3   4
ATOM      4  C   UNL     1      13.792  36.402  47.898  1.00  0.00     0.041 C 
ATOM      5  O   UNL     1      13.064  35.380  47.789  1.00  0.00    -0.550 OA
ATOM      6  O   UNL     1      14.967  36.332  48.633  1.00  0.00    -0.550 OA
ENDBRANCH   3   4
ENDBRANCH   2   3
ENDBRANCH   1   2
BRANCH   1   7
ATOM      7  C   UNL     1      16.112  38.901  45.819  1.00  0.00     0.000 C 
BRANCH   7   8
ATOM      8  C   UNL     1      17.088  38.408  46.899  1.00  0.00    -0.000 C 
BRANCH   8   9
ATOM      9  C   UNL     1      18.405  37.930  46.270  1.00  0.00    -0.000 C 
BRANCH   9  10
ATOM     10  C   UNL     1      19.641  38.441  47.026  1.00  0.00    -0.003 C 
ATOM     11  C   UNL     1      19.960  39.904  46.721  1.00  0.00     0.004 C 
ENDBRANCH   9  10
ENDBRANCH   8   9
ENDBRANCH   7   8
ENDBRANCH   1   7
TORSDOF 7
ENDMDL
MODEL 6
REMARK VINA RESULT:     0.824     18.214     18.792
REMARK INTER + INTRA:           0.891
REMARK INTER:                   1.369
REMARK INTRA:                  -0.479
REMARK UNBOUND:                -0.270
REMARK SMILES CCCCCCCCC(=O)[O-]
REMARK SMILES IDX 6 1 7 2 8 3 9 4 10 5 11 6 5 7 4 8 3 9 2 10 1 11
REMARK H PARENT
REMARK Flexibility Score: inf
ROOT
ATOM      1  C   UNL     1      15.931  39.004  45.958  1.00  0.00     0.000 C 
ENDROOT
BRANCH   1   2
ATOM      2  C   UNL     1      17.011  38.269  46.772  1.00  0.00     0.006 C 
BRANCH   2   3
ATOM      3  C   UNL     1      18.332  38.147  46.002  1.00  0.00     0.053 C 
BRANCH   3   4
ATOM      4  C   UNL     1      19.491  38.658  46.802  1.00  0.00     0.041 C 
ATOM      5  O   UNL     1      20.230  37.856  47.432  1.00  0.00    -0.550 OA
ATOM      6  O   UNL     1      19.740  40.022  46.875  1.00  0.00    -0.550 OA
ENDBRANCH   3   4
ENDBRANCH   2   3
ENDBRANCH   1   2
BRANCH   1   7
ATOM      7  C   UNL     1      14.950  39.785  46.845  1.00  0.00     0.000 C 
BRANCH   7   8
ATOM      8  C   UNL     1      14.213  38.886  47.852  1.00  0.00    -0.000 C 
BRANCH   8   9
ATOM      9  C   UNL     1      13.367  37.830  47.126  1.00  0.00    -0.000 C 
BRANCH   9  10
ATOM     10  C   UNL     1      13.346  36.483  47.862  1.00  0.00    -0.003 C 
ATOM     11  C   UNL     1      14.693  36.130  48.490  1.00  0.00     0.004 C 
ENDBRANCH   9  10
ENDBRANCH   8   9
ENDBRANCH   7   8
ENDBRANCH   1   7
TORSDOF 7
ENDMDL
MODEL 7
REMARK VINA RESULT:     1.181     18.257     19.345
REMARK INTER + INTRA:           1.394
REMARK INTER:                   1.646
REMARK INTRA:                  -0.252
REMARK UNBOUND:                -0.270
REMARK SMILES CCCCCCCCC(=O)[O-]
REMARK SMILES IDX 6 1 7 2 8 3 9 4 10 5 11 6 5 7 4 8 3 9 2 10 1 11
REMARK H PARENT
REMARK Flexibility Score: inf
ROOT
ATOM      1  C   UNL     1      17.203  38.303  46.352  1.00  0.00     0.000 C 
ENDROOT
BRANCH   1   2
ATOM      2  C   UNL     1      16.070  38.295  47.394  1.00  0.00     0.006 C 
BRANCH   2   3
ATOM      3  C   UNL     1      15.158  39.522  47.264  1.00  0.00     0.053 C 
BRANCH   3   4
ATOM      4  C   UNL     1      13.832  39.168  46.663  1.00  0.00     0.041 C 
ATOM      5  O   UNL     1      13.207  40.010  45.966  1.00  0.00    -0.550 OA
ATOM      6  O   UNL     1      13.272  37.919  46.898  1.00  0.00    -0.550 OA
ENDBRANCH   3   4
ENDBRANCH   2   3
ENDBRANCH   1   2
BRANCH   1   7
ATOM      7  C   UNL     1      18.539  38.787  46.935  1.00  0.00     0.000 C 
BRANCH   7   8
ATOM      8  C   UNL     1      19.659  37.742  46.808  1.00  0.00    -0.000 C 
BRANCH   8   9
ATOM      9  C   UNL     1      19.353  36.746  45.679  1.00  0.00    -0.000 C 
BRANCH   9  10
ATOM     10  C   UNL     1      20.260  35.507  45.723  1.00  0.00    -0.003 C 
ATOM     11  C   UNL     1      20.798  35.118  44.347  1.00  0.00     0.004 C 
ENDBRANCH   9  10
ENDBRANCH   8   9
ENDBRANCH   7   8
ENDBRANCH   1   7
TORSDOF 7
ENDMDL
