MODEL 1
REMARK VINA RESULT:    -5.596      0.000      0.000
REMARK INTER + INTRA:         -13.060
REMARK INTER:                 -10.830
REMARK INTRA:                  -2.230
REMARK UNBOUND:                -2.230
REMARK SMILES CCCCCCCCCCCCCCCCCC(=O)[O-]
REMARK SMILES IDX 10 1 11 2 12 3 13 4 14 5 15 6 16 7 17 8 18 9 19 10 20 11
REMARK SMILES IDX 9 12 8 13 7 14 6 15 5 16 4 17 3 18 2 19 1 20
REMARK H PARENT
REMARK Flexibility Score: inf
ROOT
ATOM      1  C   UNL     1      -2.801   5.870 -20.684  1.00  0.00     0.000 C 
ENDROOT
BRANCH   1   2
ATOM      2  C   UNL     1      -2.475   4.421 -20.290  1.00  0.00     0.000 C 
BRANCH   2   3
ATOM      3  C   UNL     1      -2.104   4.326 -18.806  1.00  0.00     0.000 C 
BRANCH   3   4
ATOM      4  C   UNL     1      -0.608   4.586 -18.593  1.00  0.00     0.000 C 
BRANCH   4   5
ATOM      5  C   UNL     1      -0.381   5.899 -17.827  1.00  0.00     0.000 C 
BRANCH   5   6
ATOM      6  C   UNL     1      -1.694   6.536 -17.346  1.00  0.00     0.000 C 
BRANCH   6   7
ATOM      7  C   UNL     1      -1.827   8.009 -17.769  1.00  0.00     0.006 C 
BRANCH   7   8
ATOM      8  C   UNL     1      -2.746   8.802 -16.830  1.00  0.00     0.053 C 
BRANCH   8   9
ATOM      9  C   UNL     1      -3.331  10.002 -17.508  1.00  0.00     0.041 C 
ATOM     10  O   UNL     1      -2.710  10.564 -18.448  1.00  0.00    -0.550 OA
ATOM     11  O   UNL     1      -4.545  10.523 -17.077  1.00  0.00    -0.550 OA
ENDBRANCH   8   9
ENDBRANCH   7   8
ENDBRANCH   6   7
ENDBRANCH   5   6
ENDBRANCH   4   5
ENDBRANCH   3   4
ENDBRANCH   2   3
ENDBRANCH   1   2
BRANCH   1  12
ATOM     12  C   UNL     1      -3.426   5.974 -22.084  1.00  0.00     0.000 C 
BRANCH  12  13
ATOM     13  C   UNL     1      -4.402   7.158 -22.209  1.00  0.00    -0.000 C 
BRANCH  13  14
ATOM     14  C   UNL     1      -5.693   6.786 -22.957  1.00  0.00    -0.000 C 
BRANCH  14  15
ATOM     15  C   UNL     1      -6.931   6.805 -22.043  1.00  0.00    -0.000 C 
BRANCH  15  16
ATOM     16  C   UNL     1      -6.890   7.954 -21.021  1.00  0.00    -0.000 C 
BRANCH  16  17
ATOM     17  C   UNL     1      -7.956   7.803 -19.922  1.00  0.00    -0.000 C 
BRANCH  17  18
ATOM     18  C   UNL     1      -7.355   7.441 -18.552  1.00  0.00    -0.000 C 
BRANCH  18  19
ATOM     19  C   UNL     1      -5.820   7.344 -18.522  1.00  0.00    -0.003 C 
ATOM     20  C   UNL     1      -5.314   6.007 -17.982  1.00  0.00     0.004 C 
ENDBRANCH  18  19
ENDBRANCH  17  18
ENDBRANCH  16  17
ENDBRANCH  15  16
ENDBRANCH  14  15
ENDBRANCH  13  14
ENDBRANCH  12  13
ENDBRANCH   1  12
TORSDOF 16
ENDMDL
MODEL 2
REMARK VINA RESULT:    -5.550      1.547      5.261
REMARK INTER + INTRA:         -12.971
REMARK INTER:                 -10.018
REMARK INTRA:                  -2.953
REMARK UNBOUND:                -2.230
REMARK SMILES CCCCCCCCCCCCCCCCCC(=O)[O-]
REMARK SMILES IDX 10 1 11 2 12 3 13 4 14 5 15 6 16 7 17 8 18 9 19 10 20 11
REMARK SMILES IDX 9 12 8 13 7 14 6 15 5 16 4 17 3 18 2 19 1 20
REMARK H PARENT
REMARK Flexibility Score: inf
ROOT
ATOM      1  C   UNL     1      -6.831   6.187 -17.751  1.00  0.00     0.000 C 
ENDROOT
BRANCH   1   2
ATOM      2  C   UNL     1      -7.323   7.502 -18.374  1.00  0.00     0.000 C 
BRANCH   2   3
ATOM      3  C   UNL     1      -7.858   7.272 -19.792  1.00  0.00     0.000 C 
BRANCH   3   4
ATOM      4  C   UNL     1      -7.222   8.249 -20.788  1.00  0.00     0.000 C 
BRANCH   4   5
ATOM      5  C   UNL     1      -6.946   9.607 -20.125  1.00  0.00     0.000 C 
BRANCH   5   6
ATOM      6  C   UNL     1      -5.657  10.265 -20.642  1.00  0.00     0.000 C 
BRANCH   6   7
ATOM      7  C   UNL     1      -4.925  11.069 -19.554  1.00  0.00     0.006 C 
BRANCH   7   8
ATOM      8  C   UNL     1      -5.579  10.910 -18.175  1.00  0.00     0.053 C 
BRANCH   8   9
ATOM      9  C   UNL     1      -4.623  11.229 -17.066  1.00  0.00     0.041 C 
ATOM     10  O   UNL     1      -4.889  12.145 -16.245  1.00  0.00    -0.550 OA
ATOM     11  O   UNL     1      -3.422  10.539 -16.963  1.00  0.00    -0.550 OA
ENDBRANCH   8   9
ENDBRANCH   7   8
ENDBRANCH   6   7
ENDBRANCH   5   6
ENDBRANCH   4   5
ENDBRANCH   3   4
ENDBRANCH   2   3
ENDBRANCH   1   2
BRANCH   1  12
ATOM     12  C   UNL     1      -5.329   5.953 -17.973  1.00  0.00     0.000 C 
BRANCH  12  13
ATOM     13  C   UNL     1      -4.520   7.263 -17.971  1.00  0.00    -0.000 C 
BRANCH  13  14
ATOM     14  C   UNL     1      -3.718   7.466 -19.267  1.00  0.00    -0.000 C 
BRANCH  14  15
ATOM     15  C   UNL     1      -3.990   6.365 -20.308  1.00  0.00    -0.000 C 
BRANCH  15  16
ATOM     16  C   UNL     1      -2.724   5.568 -20.666  1.00  0.00    -0.000 C 
BRANCH  16  17
ATOM     17  C   UNL     1      -2.673   4.198 -19.967  1.00  0.00    -0.000 C 
BRANCH  17  18
ATOM     18  C   UNL     1      -1.420   4.021 -19.090  1.00  0.00    -0.000 C 
BRANCH  18  19
ATOM     19  C   UNL     1      -1.333   4.971 -17.883  1.00  0.00    -0.003 C 
ATOM     20  C   UNL     1      -0.256   6.044 -18.041  1.00  0.00     0.004 C 
ENDBRANCH  18  19
ENDBRANCH  17  18
ENDBRANCH  16  17
ENDBRANCH  15  16
ENDBRANCH  14  15
ENDBRANCH  13  14
ENDBRANCH  12  13
ENDBRANCH   1  12
TORSDOF 16
ENDMDL
MODEL 3
REMARK VINA RESULT:    -5.493      1.517      5.412
REMARK INTER + INTRA:         -12.860
REMARK INTER:                  -9.959
REMARK INTRA:                  -2.901
REMARK UNBOUND:                -2.230
REMARK SMILES CCCCCCCCCCCCCCCCCC(=O)[O-]
REMARK SMILES IDX 10 1 11 2 12 3 13 4 14 5 15 6 16 7 17 8 18 9 19 10 20 11
REMARK SMILES IDX 9 12 8 13 7 14 6 15 5 16 4 17 3 18 2 19 1 20
REMARK H PARENT
REMARK Flexibility Score: inf
ROOT
ATOM      1  C   UNL     1      -3.206   8.015 -17.865  1.00  0.00     0.000 C 
ENDROOT
BRANCH   1   2
ATOM      2  C   UNL     1      -4.612   7.692 -17.337  1.00  0.00     0.000 C 
BRANCH   2   3
ATOM      3  C   UNL     1      -4.944   6.208 -17.533  1.00  0.00     0.000 C 
BRANCH   3   4
ATOM      4  C   UNL     1      -6.447   6.006 -17.764  1.00  0.00     0.000 C 
BRANCH   4   5
ATOM      5  C   UNL     1      -7.100   7.292 -18.293  1.00  0.00     0.000 C 
BRANCH   5   6
ATOM      6  C   UNL     1      -7.480   7.193 -19.778  1.00  0.00     0.000 C 
BRANCH   6   7
ATOM      7  C   UNL     1      -7.282   8.521 -20.530  1.00  0.00     0.006 C 
BRANCH   7   8
ATOM      8  C   UNL     1      -6.782   9.640 -19.608  1.00  0.00     0.053 C 
BRANCH   8   9
ATOM      9  C   UNL     1      -5.452  10.170 -20.049  1.00  0.00     0.041 C 
ATOM     10  O   UNL     1      -4.786  10.921 -19.288  1.00  0.00    -0.550 OA
ATOM     11  O   UNL     1      -4.965   9.866 -21.314  1.00  0.00    -0.550 OA
ENDBRANCH   8   9
ENDBRANCH   7   8
ENDBRANCH   6   7
ENDBRANCH   5   6
ENDBRANCH   4   5
ENDBRANCH   3   4
ENDBRANCH   2   3
ENDBRANCH   1   2
BRANCH   1  12
ATOM     12  C   UNL     1      -2.139   7.043 -17.338  1.00  0.00     0.000 C 
BRANCH  12  13
ATOM     13  C   UNL     1      -0.748   7.309 -17.941  1.00  0.00    -0.000 C 
BRANCH  13  14
ATOM     14  C   UNL     1      -0.048   6.021 -18.407  1.00  0.00    -0.000 C 
BRANCH  14  15
ATOM     15  C   UNL     1      -0.901   4.764 -18.160  1.00  0.00    -0.000 C 
BRANCH  15  16
ATOM     16  C   UNL     1      -1.334   4.080 -19.468  1.00  0.00    -0.000 C 
BRANCH  16  17
ATOM     17  C   UNL     1      -2.744   4.501 -19.914  1.00  0.00    -0.000 C 
BRANCH  17  18
ATOM     18  C   UNL     1      -2.728   5.635 -20.956  1.00  0.00    -0.000 C 
BRANCH  18  19
ATOM     19  C   UNL     1      -4.045   6.419 -21.082  1.00  0.00    -0.003 C 
ATOM     20  C   UNL     1      -4.459   6.666 -22.533  1.00  0.00     0.004 C 
ENDBRANCH  18  19
ENDBRANCH  17  18
ENDBRANCH  16  17
ENDBRANCH  15  16
ENDBRANCH  14  15
ENDBRANCH  13  14
ENDBRANCH  12  13
ENDBRANCH   1  12
TORSDOF 16
ENDMDL
MODEL 4
REMARK VINA RESULT:    -5.486      1.499      4.709
REMARK INTER + INTRA:         -12.847
REMARK INTER:                 -10.169
REMARK INTRA:                  -2.678
REMARK UNBOUND:                -2.230
REMARK SMILES CCCCCCCCCCCCCCCCCC(=O)[O-]
REMARK SMILES IDX 10 1 11 2 12 3 13 4 14 5 15 6 16 7 17 8 18 9 19 10 20 11
REMARK SMILES IDX 9 12 8 13 7 14 6 15 5 16 4 17 3 18 2 19 1 20
REMARK H PARENT
REMARK Flexibility Score: inf
ROOT
ATOM      1  C   UNL     1      -1.620   3.821 -18.624  1.00  0.00     0.000 C 
ENDROOT
BRANCH   1   2
ATOM      2  C   UNL     1      -2.778   4.125 -19.587  1.00  0.00     0.000 C 
BRANCH   2   3
ATOM      3  C   UNL     1      -2.359   5.157 -20.640  1.00  0.00     0.000 C 
BRANCH   3   4
ATOM      4  C   UNL     1      -3.498   6.143 -20.929  1.00  0.00     0.000 C 
BRANCH   4   5
ATOM      5  C   UNL     1      -3.778   6.233 -22.437  1.00  0.00     0.000 C 
BRANCH   5   6
ATOM      6  C   UNL     1      -5.206   6.709 -22.745  1.00  0.00     0.000 C 
BRANCH   6   7
ATOM      7  C   UNL     1      -6.062   6.875 -21.477  1.00  0.00     0.006 C 
BRANCH   7   8
ATOM      8  C   UNL     1      -6.753   8.244 -21.418  1.00  0.00     0.053 C 
BRANCH   8   9
ATOM      9  C   UNL     1      -5.976   9.222 -20.591  1.00  0.00     0.041 C 
ATOM     10  O   UNL     1      -6.445   9.641 -19.500  1.00  0.00    -0.550 OA
ATOM     11  O   UNL     1      -4.753   9.700 -21.043  1.00  0.00    -0.550 OA
ENDBRANCH   8   9
ENDBRANCH   7   8
ENDBRANCH   6   7
ENDBRANCH   5   6
ENDBRANCH   4   5
ENDBRANCH   3   4
ENDBRANCH   2   3
ENDBRANCH   1   2
BRANCH   1  12
ATOM     12  C   UNL     1      -0.519   4.893 -18.666  1.00  0.00     0.000 C 
BRANCH  12  13
ATOM     13  C   UNL     1      -0.629   5.899 -17.508  1.00  0.00    -0.000 C 
BRANCH  13  14
ATOM     14  C   UNL     1      -0.902   7.333 -17.991  1.00  0.00    -0.000 C 
BRANCH  14  15
ATOM     15  C   UNL     1      -2.151   7.949 -17.336  1.00  0.00    -0.000 C 
BRANCH  15  16
ATOM     16  C   UNL     1      -3.220   6.895 -17.001  1.00  0.00    -0.000 C 
BRANCH  16  17
ATOM     17  C   UNL     1      -4.589   7.228 -17.620  1.00  0.00    -0.000 C 
BRANCH  17  18
ATOM     18  C   UNL     1      -5.456   5.978 -17.860  1.00  0.00    -0.000 C 
BRANCH  18  19
ATOM     19  C   UNL     1      -6.953   6.158 -17.557  1.00  0.00    -0.003 C 
ATOM     20  C   UNL     1      -7.273   7.497 -16.892  1.00  0.00     0.004 C 
ENDBRANCH  18  19
ENDBRANCH  17  18
ENDBRANCH  16  17
ENDBRANCH  15  16
ENDBRANCH  14  15
ENDBRANCH  13  14
ENDBRANCH  12  13
ENDBRANCH   1  12
TORSDOF 16
ENDMDL
MODEL 5
REMARK VINA RESULT:    -5.483      1.134      4.596
REMARK INTER + INTRA:         -12.843
REMARK INTER:                 -10.545
REMARK INTRA:                  -2.298
REMARK UNBOUND:                -2.230
REMARK SMILES CCCCCCCCCCCCCCCCCC(=O)[O-]
REMARK SMILES IDX 10 1 11 2 12 3 13 4 14 5 15 6 16 7 17 8 18 9 19 10 20 11
REMARK SMILES IDX 9 12 8 13 7 14 6 15 5 16 4 17 3 18 2 19 1 20
REMARK H PARENT
REMARK Flexibility Score: inf
ROOT
ATOM      1  C   UNL     1      -6.687   7.445 -22.689  1.00  0.00     0.000 C 
ENDROOT
BRANCH   1   2
ATOM      2  C   UNL     1      -6.794   7.085 -21.199  1.00  0.00     0.000 C 
BRANCH   2   3
ATOM      3  C   UNL     1      -7.236   8.298 -20.372  1.00  0.00     0.000 C 
BRANCH   3   4
ATOM      4  C   UNL     1      -6.872   8.118 -18.893  1.00  0.00     0.000 C 
BRANCH   4   5
ATOM      5  C   UNL     1      -5.742   7.091 -18.725  1.00  0.00     0.000 C 
BRANCH   5   6
ATOM      6  C   UNL     1      -4.502   7.684 -18.040  1.00  0.00     0.000 C 
BRANCH   6   7
ATOM      7  C   UNL     1      -3.796   8.743 -18.904  1.00  0.00     0.006 C 
BRANCH   7   8
ATOM      8  C   UNL     1      -3.331   9.949 -18.078  1.00  0.00     0.053 C 
BRANCH   8   9
ATOM      9  C   UNL     1      -3.599  11.243 -18.783  1.00  0.00     0.041 C 
ATOM     10  O   UNL     1      -2.712  12.136 -18.827  1.00  0.00    -0.550 OA
ATOM     11  O   UNL     1      -4.841  11.477 -19.360  1.00  0.00    -0.550 OA
ENDBRANCH   8   9
ENDBRANCH   7   8
ENDBRANCH   6   7
ENDBRANCH   5   6
ENDBRANCH   4   5
ENDBRANCH   3   4
ENDBRANCH   2   3
ENDBRANCH   1   2
BRANCH   1  12
ATOM     12  C   UNL     1      -5.488   6.771 -23.374  1.00  0.00     0.000 C 
BRANCH  12  13
ATOM     13  C   UNL     1      -4.170   6.992 -22.611  1.00  0.00    -0.000 C 
BRANCH  13  14
ATOM     14  C   UNL     1      -3.545   5.678 -22.113  1.00  0.00    -0.000 C 
BRANCH  14  15
ATOM     15  C   UNL     1      -2.755   5.859 -20.806  1.00  0.00    -0.000 C 
BRANCH  15  16
ATOM     16  C   UNL     1      -2.806   4.611 -19.909  1.00  0.00    -0.000 C 
BRANCH  16  17
ATOM     17  C   UNL     1      -1.406   4.076 -19.563  1.00  0.00    -0.000 C 
BRANCH  17  18
ATOM     18  C   UNL     1      -1.047   4.259 -18.077  1.00  0.00    -0.000 C 
BRANCH  18  19
ATOM     19  C   UNL     1      -1.422   5.628 -17.482  1.00  0.00    -0.003 C 
ATOM     20  C   UNL     1      -0.513   6.759 -17.961  1.00  0.00     0.004 C 
ENDBRANCH  18  19
ENDBRANCH  17  18
ENDBRANCH  16  17
ENDBRANCH  15  16
ENDBRANCH  14  15
ENDBRANCH  13  14
ENDBRANCH  12  13
ENDBRANCH   1  12
TORSDOF 16
ENDMDL
MODEL 6
REMARK VINA RESULT:    -5.478      1.969      3.920
REMARK INTER + INTRA:         -12.833
REMARK INTER:                 -10.417
REMARK INTRA:                  -2.416
REMARK UNBOUND:                -2.230
REMARK SMILES CCCCCCCCCCCCCCCCCC(=O)[O-]
REMARK SMILES IDX 10 1 11 2 12 3 13 4 14 5 15 6 16 7 17 8 18 9 19 10 20 11
REMARK SMILES IDX 9 12 8 13 7 14 6 15 5 16 4 17 3 18 2 19 1 20
REMARK H PARENT
REMARK Flexibility Score: inf
ROOT
ATOM      1  C   UNL     1      -1.151   4.716 -18.125  1.00  0.00     0.000 C 
ENDROOT
BRANCH   1   2
ATOM      2  C   UNL     1      -0.154   5.885 -18.147  1.00  0.00     0.000 C 
BRANCH   2   3
ATOM      3  C   UNL     1      -0.878   7.226 -17.979  1.00  0.00     0.000 C 
BRANCH   3   4
ATOM      4  C   UNL     1      -2.283   7.026 -17.397  1.00  0.00     0.000 C 
BRANCH   4   5
ATOM      5  C   UNL     1      -3.250   8.102 -17.914  1.00  0.00     0.000 C 
BRANCH   5   6
ATOM      6  C   UNL     1      -4.716   7.788 -17.578  1.00  0.00     0.000 C 
BRANCH   6   7
ATOM      7  C   UNL     1      -5.110   6.345 -17.935  1.00  0.00     0.006 C 
BRANCH   7   8
ATOM      8  C   UNL     1      -6.618   6.101 -17.786  1.00  0.00     0.053 C 
BRANCH   8   9
ATOM      9  C   UNL     1      -7.135   6.605 -16.473  1.00  0.00     0.041 C 
ATOM     10  O   UNL     1      -7.868   7.629 -16.433  1.00  0.00    -0.550 OA
ATOM     11  O   UNL     1      -6.776   5.968 -15.292  1.00  0.00    -0.550 OA
ENDBRANCH   8   9
ENDBRANCH   7   8
ENDBRANCH   6   7
ENDBRANCH   5   6
ENDBRANCH   4   5
ENDBRANCH   3   4
ENDBRANCH   2   3
ENDBRANCH   1   2
BRANCH   1  12
ATOM     12  C   UNL     1      -1.386   4.114 -19.519  1.00  0.00     0.000 C 
BRANCH  12  13
ATOM     13  C   UNL     1      -2.768   4.475 -20.092  1.00  0.00    -0.000 C 
BRANCH  13  14
ATOM     14  C   UNL     1      -2.771   5.825 -20.827  1.00  0.00    -0.000 C 
BRANCH  14  15
ATOM     15  C   UNL     1      -3.782   5.863 -21.988  1.00  0.00    -0.000 C 
BRANCH  15  16
ATOM     16  C   UNL     1      -4.498   7.219 -22.101  1.00  0.00    -0.000 C 
BRANCH  16  17
ATOM     17  C   UNL     1      -6.000   7.069 -22.398  1.00  0.00    -0.000 C 
BRANCH  17  18
ATOM     18  C   UNL     1      -6.871   7.172 -21.132  1.00  0.00    -0.000 C 
BRANCH  18  19
ATOM     19  C   UNL     1      -7.589   8.520 -20.946  1.00  0.00    -0.003 C 
ATOM     20  C   UNL     1      -6.760   9.537 -20.163  1.00  0.00     0.004 C 
ENDBRANCH  18  19
ENDBRANCH  17  18
ENDBRANCH  16  17
ENDBRANCH  15  16
ENDBRANCH  14  15
ENDBRANCH  13  14
ENDBRANCH  12  13
ENDBRANCH   1  12
TORSDOF 16
ENDMDL
MODEL 7
REMARK VINA RESULT:    -5.477      1.914      5.605
REMARK INTER + INTRA:         -12.830
REMARK INTER:                 -10.630
REMARK INTRA:                  -2.200
REMARK UNBOUND:                -2.230
REMARK SMILES CCCCCCCCCCCCCCCCCC(=O)[O-]
REMARK SMILES IDX 10 1 11 2 12 3 13 4 14 5 15 6 16 7 17 8 18 9 19 10 20 11
REMARK SMILES IDX 9 12 8 13 7 14 6 15 5 16 4 17 3 18 2 19 1 20
REMARK H PARENT
REMARK Flexibility Score: inf
ROOT
ATOM      1  C   UNL     1      -4.071   6.381 -21.070  1.00  0.00     0.000 C 
ENDROOT
BRANCH   1   2
ATOM      2  C   UNL     1      -4.240   7.118 -22.408  1.00  0.00     0.000 C 
BRANCH   2   3
ATOM      3  C   UNL     1      -5.603   6.808 -23.038  1.00  0.00     0.000 C 
BRANCH   3   4
ATOM      4  C   UNL     1      -6.711   6.794 -21.977  1.00  0.00     0.000 C 
BRANCH   4   5
ATOM      5  C   UNL     1      -7.210   8.217 -21.685  1.00  0.00     0.000 C 
BRANCH   5   6
ATOM      6  C   UNL     1      -7.586   8.420 -20.209  1.00  0.00     0.000 C 
BRANCH   6   7
ATOM      7  C   UNL     1      -7.602   7.102 -19.416  1.00  0.00     0.006 C 
BRANCH   7   8
ATOM      8  C   UNL     1      -6.541   7.078 -18.308  1.00  0.00     0.053 C 
BRANCH   8   9
ATOM      9  C   UNL     1      -7.161   7.071 -16.945  1.00  0.00     0.041 C 
ATOM     10  O   UNL     1      -7.115   6.032 -16.234  1.00  0.00    -0.550 OA
ATOM     11  O   UNL     1      -7.821   8.198 -16.474  1.00  0.00    -0.550 OA
ENDBRANCH   8   9
ENDBRANCH   7   8
ENDBRANCH   6   7
ENDBRANCH   5   6
ENDBRANCH   4   5
ENDBRANCH   3   4
ENDBRANCH   2   3
ENDBRANCH   1   2
BRANCH   1  12
ATOM     12  C   UNL     1      -2.770   5.566 -21.005  1.00  0.00     0.000 C 
BRANCH  12  13
ATOM     13  C   UNL     1      -2.774   4.536 -19.862  1.00  0.00    -0.000 C 
BRANCH  13  14
ATOM     14  C   UNL     1      -1.370   3.995 -19.547  1.00  0.00    -0.000 C 
BRANCH  14  15
ATOM     15  C   UNL     1      -0.702   4.736 -18.375  1.00  0.00    -0.000 C 
BRANCH  15  16
ATOM     16  C   UNL     1      -0.229   6.148 -18.765  1.00  0.00    -0.000 C 
BRANCH  16  17
ATOM     17  C   UNL     1      -0.676   7.218 -17.753  1.00  0.00    -0.000 C 
BRANCH  17  18
ATOM     18  C   UNL     1      -2.155   7.612 -17.915  1.00  0.00    -0.000 C 
BRANCH  18  19
ATOM     19  C   UNL     1      -3.017   7.432 -16.654  1.00  0.00    -0.003 C 
ATOM     20  C   UNL     1      -3.484   5.991 -16.448  1.00  0.00     0.004 C 
ENDBRANCH  18  19
ENDBRANCH  17  18
ENDBRANCH  16  17
ENDBRANCH  15  16
ENDBRANCH  14  15
ENDBRANCH  13  14
ENDBRANCH  12  13
ENDBRANCH   1  12
TORSDOF 16
ENDMDL
MODEL 8
REMARK VINA RESULT:    -5.407      1.460      2.215
REMARK INTER + INTRA:         -12.695
REMARK INTER:                 -10.480
REMARK INTRA:                  -2.215
REMARK UNBOUND:                -2.230
REMARK SMILES CCCCCCCCCCCCCCCCCC(=O)[O-]
REMARK SMILES IDX 10 1 11 2 12 3 13 4 14 5 15 6 16 7 17 8 18 9 19 10 20 11
REMARK SMILES IDX 9 12 8 13 7 14 6 15 5 16 4 17 3 18 2 19 1 20
REMARK H PARENT
REMARK Flexibility Score: inf
ROOT
ATOM      1  C   UNL     1      -3.920   6.492 -20.753  1.00  0.00     0.000 C 
ENDROOT
BRANCH   1   2
ATOM      2  C   UNL     1      -2.707   5.583 -21.009  1.00  0.00     0.000 C 
BRANCH   2   3
ATOM      3  C   UNL     1      -2.689   4.404 -20.030  1.00  0.00     0.000 C 
BRANCH   3   4
ATOM      4  C   UNL     1      -1.273   4.151 -19.498  1.00  0.00     0.000 C 
BRANCH   4   5
ATOM      5  C   UNL     1      -1.066   4.834 -18.137  1.00  0.00     0.000 C 
BRANCH   5   6
ATOM      6  C   UNL     1      -0.299   6.160 -18.253  1.00  0.00     0.000 C 
BRANCH   6   7
ATOM      7  C   UNL     1      -1.173   7.382 -17.919  1.00  0.00     0.006 C 
BRANCH   7   8
ATOM      8  C   UNL     1      -2.514   6.981 -17.290  1.00  0.00     0.053 C 
BRANCH   8   9
ATOM      9  C   UNL     1      -3.082   8.081 -16.446  1.00  0.00     0.041 C 
ATOM     10  O   UNL     1      -2.703   9.270 -16.616  1.00  0.00    -0.550 OA
ATOM     11  O   UNL     1      -4.001   7.788 -15.447  1.00  0.00    -0.550 OA
ENDBRANCH   8   9
ENDBRANCH   7   8
ENDBRANCH   6   7
ENDBRANCH   5   6
ENDBRANCH   4   5
ENDBRANCH   3   4
ENDBRANCH   2   3
ENDBRANCH   1   2
BRANCH   1  12
ATOM     12  C   UNL     1      -4.257   7.381 -21.961  1.00  0.00     0.000 C 
BRANCH  12  13
ATOM     13  C   UNL     1      -5.372   6.787 -22.839  1.00  0.00    -0.000 C 
BRANCH  13  14
ATOM     14  C   UNL     1      -6.723   6.708 -22.108  1.00  0.00    -0.000 C 
BRANCH  14  15
ATOM     15  C   UNL     1      -7.160   8.065 -21.528  1.00  0.00    -0.000 C 
BRANCH  15  16
ATOM     16  C   UNL     1      -7.623   7.958 -20.065  1.00  0.00    -0.000 C 
BRANCH  16  17
ATOM     17  C   UNL     1      -6.539   8.406 -19.070  1.00  0.00    -0.000 C 
BRANCH  17  18
ATOM     18  C   UNL     1      -6.113   9.872 -19.269  1.00  0.00    -0.000 C 
BRANCH  18  19
ATOM     19  C   UNL     1      -4.639  10.073 -19.661  1.00  0.00    -0.003 C 
ATOM     20  C   UNL     1      -4.032  11.347 -19.075  1.00  0.00     0.004 C 
ENDBRANCH  18  19
ENDBRANCH  17  18
ENDBRANCH  16  17
ENDBRANCH  15  16
ENDBRANCH  14  15
ENDBRANCH  13  14
ENDBRANCH  12  13
ENDBRANCH   1  12
TORSDOF 16
ENDMDL
MODEL 9
REMARK VINA RESULT:    -5.400      2.027      4.950
REMARK INTER + INTRA:         -12.681
REMARK INTER:                 -10.120
REMARK INTRA:                  -2.561
REMARK UNBOUND:                -2.230
REMARK SMILES CCCCCCCCCCCCCCCCCC(=O)[O-]
REMARK SMILES IDX 10 1 11 2 12 3 13 4 14 5 15 6 16 7 17 8 18 9 19 10 20 11
REMARK SMILES IDX 9 12 8 13 7 14 6 15 5 16 4 17 3 18 2 19 1 20
REMARK H PARENT
REMARK Flexibility Score: inf
ROOT
ATOM      1  C   UNL     1      -6.683   8.343 -21.283  1.00  0.00     0.000 C 
ENDROOT
BRANCH   1   2
ATOM      2  C   UNL     1      -6.878   7.248 -22.343  1.00  0.00     0.000 C 
BRANCH   2   3
ATOM      3  C   UNL     1      -5.531   6.673 -22.794  1.00  0.00     0.000 C 
BRANCH   3   4
ATOM      4  C   UNL     1      -4.505   6.713 -21.654  1.00  0.00     0.000 C 
BRANCH   4   5
ATOM      5  C   UNL     1      -3.495   5.563 -21.783  1.00  0.00     0.000 C 
BRANCH   5   6
ATOM      6  C   UNL     1      -2.449   5.567 -20.658  1.00  0.00     0.000 C 
BRANCH   6   7
ATOM      7  C   UNL     1      -2.553   4.332 -19.747  1.00  0.00     0.006 C 
BRANCH   7   8
ATOM      8  C   UNL     1      -1.320   4.167 -18.850  1.00  0.00     0.053 C 
BRANCH   8   9
ATOM      9  C   UNL     1      -1.138   5.339 -17.935  1.00  0.00     0.041 C 
ATOM     10  O   UNL     1      -1.922   5.513 -16.965  1.00  0.00    -0.550 OA
ATOM     11  O   UNL     1      -0.126   6.259 -18.176  1.00  0.00    -0.550 OA
ENDBRANCH   8   9
ENDBRANCH   7   8
ENDBRANCH   6   7
ENDBRANCH   5   6
ENDBRANCH   4   5
ENDBRANCH   3   4
ENDBRANCH   2   3
ENDBRANCH   1   2
BRANCH   1  12
ATOM     12  C   UNL     1      -7.773   8.318 -20.200  1.00  0.00     0.000 C 
BRANCH  12  13
ATOM     13  C   UNL     1      -7.533   7.224 -19.144  1.00  0.00    -0.000 C 
BRANCH  13  14
ATOM     14  C   UNL     1      -7.522   7.777 -17.710  1.00  0.00    -0.000 C 
BRANCH  14  15
ATOM     15  C   UNL     1      -6.109   8.161 -17.236  1.00  0.00    -0.000 C 
BRANCH  15  16
ATOM     16  C   UNL     1      -5.022   7.246 -17.826  1.00  0.00    -0.000 C 
BRANCH  16  17
ATOM     17  C   UNL     1      -3.857   8.038 -18.443  1.00  0.00    -0.000 C 
BRANCH  17  18
ATOM     18  C   UNL     1      -3.981   9.556 -18.219  1.00  0.00    -0.000 C 
BRANCH  18  19
ATOM     19  C   UNL     1      -4.137  10.391 -19.502  1.00  0.00    -0.003 C 
ATOM     20  C   UNL     1      -5.360  11.308 -19.476  1.00  0.00     0.004 C 
ENDBRANCH  18  19
ENDBRANCH  17  18
ENDBRANCH  16  17
ENDBRANCH  15  16
ENDBRANCH  14  15
ENDBRANCH  13  14
ENDBRANCH  12  13
ENDBRANCH   1  12
TORSDOF 16
ENDMDL
