MODEL 1
REMARK VINA RESULT:    -3.991      0.000      0.000
REMARK INTER + INTRA:          -3.991
REMARK INTER:                  -3.991
REMARK INTRA:                   0.000
REMARK UNBOUND:                 0.000
REMARK SMILES O=c1ccc2ccccc2o1
REMARK SMILES IDX 7 1 8 2 9 3 10 4 5 5 6 6 4 7 3 8 2 9 1 10 11 11
REMARK H PARENT
REMARK Flexibility Score: inf
ROOT
ATOM      1  C   UNL     1      11.450  40.007 150.579  1.00  0.00     0.001 A 
ATOM      2  C   UNL     1      10.326  39.385 151.136  1.00  0.00     0.004 A 
ATOM      3  C   UNL     1       9.812  39.829 152.359  1.00  0.00     0.048 A 
ATOM      4  C   UNL     1      10.417  40.897 153.028  1.00  0.00     0.138 A 
ATOM      5  C   UNL     1      11.551  41.526 152.465  1.00  0.00     0.018 A 
ATOM      6  C   UNL     1      12.063  41.076 151.239  1.00  0.00     0.012 A 
ATOM      7  C   UNL     1      12.135  42.591 153.157  1.00  0.00     0.019 A 
ATOM      8  C   UNL     1      11.587  43.001 154.372  1.00  0.00     0.094 A 
ATOM      9  C   UNL     1      10.464  42.331 154.870  1.00  0.00     0.336 A 
ATOM     10  O   UNL     1       9.955  42.686 155.965  1.00  0.00    -0.246 OA
ATOM     11  O   UNL     1       9.927  41.320 154.191  1.00  0.00    -0.423 OA
ENDROOT
TORSDOF 0
ENDMDL
MODEL 2
REMARK VINA RESULT:    -3.875      1.712      3.874
REMARK INTER + INTRA:          -3.875
REMARK INTER:                  -3.875
REMARK INTRA:                   0.000
REMARK UNBOUND:                 0.000
REMARK SMILES O=c1ccc2ccccc2o1
REMARK SMILES IDX 7 1 8 2 9 3 10 4 5 5 6 6 4 7 3 8 2 9 1 10 11 11
REMARK H PARENT
REMARK Flexibility Score: inf
ROOT
ATOM      1  C   UNL     1      11.366  43.121 154.135  1.00  0.00     0.001 A 
ATOM      2  C   UNL     1      10.289  42.380 154.636  1.00  0.00     0.004 A 
ATOM      3  C   UNL     1       9.851  41.234 153.965  1.00  0.00     0.048 A 
ATOM      4  C   UNL     1      10.489  40.822 152.791  1.00  0.00     0.138 A 
ATOM      5  C   UNL     1      11.577  41.569 152.284  1.00  0.00     0.018 A 
ATOM      6  C   UNL     1      12.011  42.719 152.961  1.00  0.00     0.012 A 
ATOM      7  C   UNL     1      12.194  41.134 151.108  1.00  0.00     0.019 A 
ATOM      8  C   UNL     1      11.725  39.984 150.473  1.00  0.00     0.094 A 
ATOM      9  C   UNL     1      10.643  39.295 151.032  1.00  0.00     0.336 A 
ATOM     10  O   UNL     1      10.205  38.255 150.474  1.00  0.00    -0.246 OA
ATOM     11  O   UNL     1      10.073  39.731 152.153  1.00  0.00    -0.423 OA
ENDROOT
TORSDOF 0
ENDMDL
MODEL 3
REMARK VINA RESULT:    -3.769      2.054      4.399
REMARK INTER + INTRA:          -3.769
REMARK INTER:                  -3.769
REMARK INTRA:                   0.000
REMARK UNBOUND:                 0.000
REMARK SMILES O=c1ccc2ccccc2o1
REMARK SMILES IDX 7 1 8 2 9 3 10 4 5 5 6 6 4 7 3 8 2 9 1 10 11 11
REMARK H PARENT
REMARK Flexibility Score: inf
ROOT
ATOM      1  C   UNL     1      10.524  42.808 154.597  1.00  0.00     0.001 A 
ATOM      2  C   UNL     1      11.678  43.356 154.024  1.00  0.00     0.004 A 
ATOM      3  C   UNL     1      12.263  42.751 152.907  1.00  0.00     0.048 A 
ATOM      4  C   UNL     1      11.698  41.595 152.359  1.00  0.00     0.138 A 
ATOM      5  C   UNL     1      10.532  41.041 152.937  1.00  0.00     0.018 A 
ATOM      6  C   UNL     1       9.950  41.653 154.057  1.00  0.00     0.012 A 
ATOM      7  C   UNL     1       9.990  39.886 152.368  1.00  0.00     0.019 A 
ATOM      8  C   UNL     1      10.608  39.317 151.254  1.00  0.00     0.094 A 
ATOM      9  C   UNL     1      11.759  39.919 150.735  1.00  0.00     0.336 A 
ATOM     10  O   UNL     1      12.330  39.420 149.731  1.00  0.00    -0.246 OA
ATOM     11  O   UNL     1      12.255  41.019 151.297  1.00  0.00    -0.423 OA
ENDROOT
TORSDOF 0
ENDMDL
MODEL 4
REMARK VINA RESULT:    -3.737      1.572      2.307
REMARK INTER + INTRA:          -3.737
REMARK INTER:                  -3.737
REMARK INTRA:                   0.000
REMARK UNBOUND:                 0.000
REMARK SMILES O=c1ccc2ccccc2o1
REMARK SMILES IDX 7 1 8 2 9 3 10 4 5 5 6 6 4 7 3 8 2 9 1 10 11 11
REMARK H PARENT
REMARK Flexibility Score: inf
ROOT
ATOM      1  C   UNL     1       9.939  39.307 151.439  1.00  0.00     0.001 A 
ATOM      2  C   UNL     1      11.135  39.553 150.754  1.00  0.00     0.004 A 
ATOM      3  C   UNL     1      11.995  40.568 151.185  1.00  0.00     0.048 A 
ATOM      4  C   UNL     1      11.664  41.342 152.302  1.00  0.00     0.138 A 
ATOM      5  C   UNL     1      10.456  41.094 152.994  1.00  0.00     0.018 A 
ATOM      6  C   UNL     1       9.597  40.075 152.557  1.00  0.00     0.012 A 
ATOM      7  C   UNL     1      10.151  41.883 154.107  1.00  0.00     0.019 A 
ATOM      8  C   UNL     1      11.040  42.883 154.501  1.00  0.00     0.094 A 
ATOM      9  C   UNL     1      12.217  43.072 153.768  1.00  0.00     0.336 A 
ATOM     10  O   UNL     1      13.031  43.970 154.108  1.00  0.00    -0.246 OA
ATOM     11  O   UNL     1      12.483  42.307 152.712  1.00  0.00    -0.423 OA
ENDROOT
TORSDOF 0
ENDMDL
MODEL 5
REMARK VINA RESULT:    -3.697      1.567      2.648
REMARK INTER + INTRA:          -3.697
REMARK INTER:                  -3.697
REMARK INTRA:                   0.000
REMARK UNBOUND:                 0.000
REMARK SMILES O=c1ccc2ccccc2o1
REMARK SMILES IDX 7 1 8 2 9 3 10 4 5 5 6 6 4 7 3 8 2 9 1 10 11 11
REMARK H PARENT
REMARK Flexibility Score: inf
ROOT
ATOM      1  C   UNL     1      10.658  38.620 149.657  1.00  0.00     0.001 A 
ATOM      2  C   UNL     1      11.900  39.049 150.140  1.00  0.00     0.004 A 
ATOM      3  C   UNL     1      11.971  39.839 151.292  1.00  0.00     0.048 A 
ATOM      4  C   UNL     1      10.801  40.203 151.967  1.00  0.00     0.138 A 
ATOM      5  C   UNL     1       9.547  39.770 151.479  1.00  0.00     0.018 A 
ATOM      6  C   UNL     1       9.482  38.978 150.323  1.00  0.00     0.012 A 
ATOM      7  C   UNL     1       8.395  40.150 152.173  1.00  0.00     0.019 A 
ATOM      8  C   UNL     1       8.514  40.938 153.318  1.00  0.00     0.094 A 
ATOM      9  C   UNL     1       9.788  41.330 153.742  1.00  0.00     0.336 A 
ATOM     10  O   UNL     1       9.916  42.041 154.772  1.00  0.00    -0.246 OA
ATOM     11  O   UNL     1      10.869  40.954 153.062  1.00  0.00    -0.423 OA
ENDROOT
TORSDOF 0
ENDMDL
MODEL 6
REMARK VINA RESULT:    -3.680     14.636     15.100
REMARK INTER + INTRA:          -3.680
REMARK INTER:                  -3.680
REMARK INTRA:                   0.000
REMARK UNBOUND:                 0.000
REMARK SMILES O=c1ccc2ccccc2o1
REMARK SMILES IDX 7 1 8 2 9 3 10 4 5 5 6 6 4 7 3 8 2 9 1 10 11 11
REMARK H PARENT
REMARK Flexibility Score: inf
ROOT
ATOM      1  C   UNL     1      13.107  37.731 139.050  1.00  0.00     0.001 A 
ATOM      2  C   UNL     1      12.990  36.348 138.873  1.00  0.00     0.004 A 
ATOM      3  C   UNL     1      11.727  35.761 138.735  1.00  0.00     0.048 A 
ATOM      4  C   UNL     1      10.577  36.556 138.774  1.00  0.00     0.138 A 
ATOM      5  C   UNL     1      10.695  37.954 138.952  1.00  0.00     0.018 A 
ATOM      6  C   UNL     1      11.964  38.536 139.090  1.00  0.00     0.012 A 
ATOM      7  C   UNL     1       9.528  38.722 138.988  1.00  0.00     0.019 A 
ATOM      8  C   UNL     1       8.290  38.094 138.845  1.00  0.00     0.094 A 
ATOM      9  C   UNL     1       8.250  36.706 138.672  1.00  0.00     0.336 A 
ATOM     10  O   UNL     1       7.143  36.122 138.542  1.00  0.00    -0.246 OA
ATOM     11  O   UNL     1       9.376  35.998 138.642  1.00  0.00    -0.423 OA
ENDROOT
TORSDOF 0
ENDMDL
MODEL 7
REMARK VINA RESULT:    -3.638      1.845      2.377
REMARK INTER + INTRA:          -3.638
REMARK INTER:                  -3.638
REMARK INTRA:                   0.000
REMARK UNBOUND:                 0.000
REMARK SMILES O=c1ccc2ccccc2o1
REMARK SMILES IDX 7 1 8 2 9 3 10 4 5 5 6 6 4 7 3 8 2 9 1 10 11 11
REMARK H PARENT
REMARK Flexibility Score: inf
ROOT
ATOM      1  C   UNL     1      12.141  39.851 148.756  1.00  0.00     0.001 A 
ATOM      2  C   UNL     1      11.923  38.962 149.815  1.00  0.00     0.004 A 
ATOM      3  C   UNL     1      11.832  39.441 151.127  1.00  0.00     0.048 A 
ATOM      4  C   UNL     1      11.958  40.810 151.385  1.00  0.00     0.138 A 
ATOM      5  C   UNL     1      12.178  41.708 150.315  1.00  0.00     0.018 A 
ATOM      6  C   UNL     1      12.269  41.222 149.002  1.00  0.00     0.012 A 
ATOM      7  C   UNL     1      12.301  43.070 150.603  1.00  0.00     0.019 A 
ATOM      8  C   UNL     1      12.202  43.502 151.925  1.00  0.00     0.094 A 
ATOM      9  C   UNL     1      11.985  42.555 152.933  1.00  0.00     0.336 A 
ATOM     10  O   UNL     1      11.893  42.926 154.132  1.00  0.00    -0.246 OA
ATOM     11  O   UNL     1      11.871  41.264 152.632  1.00  0.00    -0.423 OA
ENDROOT
TORSDOF 0
ENDMDL
MODEL 8
REMARK VINA RESULT:    -3.624     14.748     14.983
REMARK INTER + INTRA:          -3.624
REMARK INTER:                  -3.624
REMARK INTRA:                   0.000
REMARK UNBOUND:                 0.000
REMARK SMILES O=c1ccc2ccccc2o1
REMARK SMILES IDX 7 1 8 2 9 3 10 4 5 5 6 6 4 7 3 8 2 9 1 10 11 11
REMARK H PARENT
REMARK Flexibility Score: inf
ROOT
ATOM      1  C   UNL     1      12.804  35.535 139.455  1.00  0.00     0.001 A 
ATOM      2  C   UNL     1      12.761  36.778 138.812  1.00  0.00     0.004 A 
ATOM      3  C   UNL     1      11.534  37.410 138.587  1.00  0.00     0.048 A 
ATOM      4  C   UNL     1      10.344  36.803 139.005  1.00  0.00     0.138 A 
ATOM      5  C   UNL     1      10.388  35.548 139.655  1.00  0.00     0.018 A 
ATOM      6  C   UNL     1      11.621  34.919 139.877  1.00  0.00     0.012 A 
ATOM      7  C   UNL     1       9.183  34.966 140.060  1.00  0.00     0.019 A 
ATOM      8  C   UNL     1       7.983  35.634 139.816  1.00  0.00     0.094 A 
ATOM      9  C   UNL     1       8.017  36.873 139.167  1.00  0.00     0.336 A 
ATOM     10  O   UNL     1       6.945  37.491 138.937  1.00  0.00    -0.246 OA
ATOM     11  O   UNL     1       9.178  37.406 138.791  1.00  0.00    -0.423 OA
ENDROOT
TORSDOF 0
ENDMDL
MODEL 9
REMARK VINA RESULT:    -3.592     19.560     20.841
REMARK INTER + INTRA:          -3.592
REMARK INTER:                  -3.592
REMARK INTRA:                   0.000
REMARK UNBOUND:                 0.000
REMARK SMILES O=c1ccc2ccccc2o1
REMARK SMILES IDX 7 1 8 2 9 3 10 4 5 5 6 6 4 7 3 8 2 9 1 10 11 11
REMARK H PARENT
REMARK Flexibility Score: inf
ROOT
ATOM      1  C   UNL     1      -6.698  40.112 142.269  1.00  0.00     0.001 A 
ATOM      2  C   UNL     1      -5.370  39.678 142.194  1.00  0.00     0.004 A 
ATOM      3  C   UNL     1      -4.460  40.339 141.362  1.00  0.00     0.048 A 
ATOM      4  C   UNL     1      -4.875  41.437 140.601  1.00  0.00     0.138 A 
ATOM      5  C   UNL     1      -6.216  41.876 140.677  1.00  0.00     0.018 A 
ATOM      6  C   UNL     1      -7.124  41.209 141.512  1.00  0.00     0.012 A 
ATOM      7  C   UNL     1      -6.602  42.975 139.904  1.00  0.00     0.019 A 
ATOM      8  C   UNL     1      -5.660  43.604 139.090  1.00  0.00     0.094 A 
ATOM      9  C   UNL     1      -4.350  43.114 139.065  1.00  0.00     0.336 A 
ATOM     10  O   UNL     1      -3.486  43.668 138.336  1.00  0.00    -0.246 OA
ATOM     11  O   UNL     1      -4.009  42.065 139.810  1.00  0.00    -0.423 OA
ENDROOT
TORSDOF 0
ENDMDL
