MODEL 1
REMARK VINA RESULT:    -4.518      0.000      0.000
REMARK INTER + INTRA:          -4.879
REMARK INTER:                  -4.782
REMARK INTRA:                  -0.097
REMARK UNBOUND:                -0.097
REMARK SMILES C=C(C)[C@@H]1CC=C(C)C(=O)C1
REMARK SMILES IDX 8 1 7 2 6 3 5 4 4 5 11 6 9 7 10 8 2 9 1 10 3 11
REMARK H PARENT
REMARK Flexibility Score: inf
ROOT
ATOM      1  C   UNL     1      -2.545  28.500  50.385  1.00  0.00     0.048 C 
ATOM      2  C   UNL     1      -1.574  28.068  51.450  1.00  0.00    -0.012 C 
ATOM      3  C   UNL     1      -1.538  26.782  51.840  1.00  0.00    -0.019 C 
ATOM      4  C   UNL     1      -0.573  26.293  52.887  1.00  0.00     0.036 C 
ATOM      5  C   UNL     1      -0.290  27.386  53.934  1.00  0.00     0.025 C 
ATOM      6  C   UNL     1       0.200  28.673  53.246  1.00  0.00     0.089 C 
ATOM      7  C   UNL     1      -0.748  29.082  52.152  1.00  0.00     0.158 C 
ATOM      8  O   UNL     1      -0.806  30.294  51.812  1.00  0.00    -0.295 OA
ENDROOT
BRANCH   5   9
ATOM      9  C   UNL     1       0.699  26.907  54.988  1.00  0.00    -0.077 C 
ATOM     10  C   UNL     1       2.017  27.095  54.809  1.00  0.00     0.008 C 
ATOM     11  C   UNL     1       0.234  26.215  56.245  1.00  0.00     0.039 C 
ENDBRANCH   5   9
TORSDOF 1
ENDMDL
MODEL 2
REMARK VINA RESULT:    -4.402      0.307      1.088
REMARK INTER + INTRA:          -4.757
REMARK INTER:                  -4.670
REMARK INTRA:                  -0.087
REMARK UNBOUND:                -0.097
REMARK SMILES C=C(C)[C@@H]1CC=C(C)C(=O)C1
REMARK SMILES IDX 8 1 7 2 6 3 5 4 4 5 11 6 9 7 10 8 2 9 1 10 3 11
REMARK H PARENT
REMARK Flexibility Score: inf
ROOT
ATOM      1  C   UNL     1      -2.770  28.424  50.528  1.00  0.00     0.048 C 
ATOM      2  C   UNL     1      -1.775  28.012  51.580  1.00  0.00    -0.012 C 
ATOM      3  C   UNL     1      -1.582  26.709  51.844  1.00  0.00    -0.019 C 
ATOM      4  C   UNL     1      -0.586  26.242  52.872  1.00  0.00     0.036 C 
ATOM      5  C   UNL     1      -0.471  27.250  54.030  1.00  0.00     0.025 C 
ATOM      6  C   UNL     1      -0.135  28.652  53.488  1.00  0.00     0.089 C 
ATOM      7  C   UNL     1      -1.103  29.046  52.406  1.00  0.00     0.158 C 
ATOM      8  O   UNL     1      -1.310  30.269  52.184  1.00  0.00    -0.295 OA
ENDROOT
BRANCH   5   9
ATOM      9  C   UNL     1       0.548  26.796  55.067  1.00  0.00    -0.077 C 
ATOM     10  C   UNL     1       0.144  26.127  56.159  1.00  0.00     0.008 C 
ATOM     11  C   UNL     1       2.020  27.081  54.899  1.00  0.00     0.039 C 
ENDBRANCH   5   9
TORSDOF 1
ENDMDL
MODEL 3
REMARK VINA RESULT:    -4.318      1.502      2.112
REMARK INTER + INTRA:          -4.667
REMARK INTER:                  -4.580
REMARK INTRA:                  -0.087
REMARK UNBOUND:                -0.097
REMARK SMILES C=C(C)[C@@H]1CC=C(C)C(=O)C1
REMARK SMILES IDX 8 1 7 2 6 3 5 4 4 5 11 6 9 7 10 8 2 9 1 10 3 11
REMARK H PARENT
REMARK Flexibility Score: inf
ROOT
ATOM      1  C   UNL     1      -1.899  28.463  50.248  1.00  0.00     0.048 C 
ATOM      2  C   UNL     1      -1.391  28.058  51.604  1.00  0.00    -0.012 C 
ATOM      3  C   UNL     1      -0.941  28.995  52.456  1.00  0.00    -0.019 C 
ATOM      4  C   UNL     1      -0.438  28.648  53.833  1.00  0.00     0.036 C 
ATOM      5  C   UNL     1       0.233  27.262  53.843  1.00  0.00     0.025 C 
ATOM      6  C   UNL     1      -0.728  26.196  53.288  1.00  0.00     0.089 C 
ATOM      7  C   UNL     1      -1.272  26.620  51.951  1.00  0.00     0.158 C 
ATOM      8  O   UNL     1      -1.660  25.738  51.139  1.00  0.00    -0.295 OA
ENDROOT
BRANCH   5   9
ATOM      9  C   UNL     1       0.729  26.893  55.236  1.00  0.00    -0.077 C 
ATOM     10  C   UNL     1       2.042  26.934  55.516  1.00  0.00     0.008 C 
ATOM     11  C   UNL     1      -0.228  26.475  56.324  1.00  0.00     0.039 C 
ENDBRANCH   5   9
TORSDOF 1
ENDMDL
MODEL 4
REMARK VINA RESULT:    -3.991      2.076      4.519
REMARK INTER + INTRA:          -4.322
REMARK INTER:                  -4.226
REMARK INTRA:                  -0.096
REMARK UNBOUND:                -0.097
REMARK SMILES C=C(C)[C@@H]1CC=C(C)C(=O)C1
REMARK SMILES IDX 8 1 7 2 6 3 5 4 4 5 11 6 9 7 10 8 2 9 1 10 3 11
REMARK H PARENT
REMARK Flexibility Score: inf
ROOT
ATOM      1  C   UNL     1      -0.214  26.090  56.903  1.00  0.00     0.048 C 
ATOM      2  C   UNL     1      -0.289  27.023  55.726  1.00  0.00    -0.012 C 
ATOM      3  C   UNL     1      -1.457  27.608  55.409  1.00  0.00    -0.019 C 
ATOM      4  C   UNL     1      -1.583  28.564  54.253  1.00  0.00     0.036 C 
ATOM      5  C   UNL     1      -0.619  28.185  53.113  1.00  0.00     0.025 C 
ATOM      6  C   UNL     1       0.825  28.096  53.640  1.00  0.00     0.089 C 
ATOM      7  C   UNL     1       0.893  27.197  54.845  1.00  0.00     0.158 C 
ATOM      8  O   UNL     1       1.979  26.621  55.119  1.00  0.00    -0.295 OA
ENDROOT
BRANCH   5   9
ATOM      9  C   UNL     1      -0.726  29.158  51.946  1.00  0.00    -0.077 C 
ATOM     10  C   UNL     1      -0.259  30.411  52.068  1.00  0.00     0.008 C 
ATOM     11  C   UNL     1      -1.353  28.747  50.637  1.00  0.00     0.039 C 
ENDBRANCH   5   9
TORSDOF 1
ENDMDL
MODEL 5
REMARK VINA RESULT:    -3.962      1.588      4.533
REMARK INTER + INTRA:          -4.291
REMARK INTER:                  -4.204
REMARK INTRA:                  -0.087
REMARK UNBOUND:                -0.097
REMARK SMILES C=C(C)[C@@H]1CC=C(C)C(=O)C1
REMARK SMILES IDX 8 1 7 2 6 3 5 4 4 5 11 6 9 7 10 8 2 9 1 10 3 11
REMARK H PARENT
REMARK Flexibility Score: inf
ROOT
ATOM      1  C   UNL     1      -0.022  26.146  54.678  1.00  0.00     0.048 C 
ATOM      2  C   UNL     1      -0.815  26.820  53.592  1.00  0.00    -0.012 C 
ATOM      3  C   UNL     1      -0.948  26.226  52.393  1.00  0.00    -0.019 C 
ATOM      4  C   UNL     1      -1.745  26.848  51.278  1.00  0.00     0.036 C 
ATOM      5  C   UNL     1      -1.667  28.385  51.331  1.00  0.00     0.025 C 
ATOM      6  C   UNL     1      -2.105  28.896  52.716  1.00  0.00     0.089 C 
ATOM      7  C   UNL     1      -1.344  28.190  53.805  1.00  0.00     0.158 C 
ATOM      8  O   UNL     1      -1.190  28.764  54.916  1.00  0.00    -0.295 OA
ENDROOT
BRANCH   5   9
ATOM      9  C   UNL     1      -2.487  29.024  50.218  1.00  0.00    -0.077 C 
ATOM     10  C   UNL     1      -1.895  29.837  49.327  1.00  0.00     0.008 C 
ATOM     11  C   UNL     1      -3.968  28.768  50.086  1.00  0.00     0.039 C 
ENDBRANCH   5   9
TORSDOF 1
ENDMDL
MODEL 6
REMARK VINA RESULT:    -3.928      1.963      2.618
REMARK INTER + INTRA:          -4.255
REMARK INTER:                  -4.158
REMARK INTRA:                  -0.097
REMARK UNBOUND:                -0.097
REMARK SMILES C=C(C)[C@@H]1CC=C(C)C(=O)C1
REMARK SMILES IDX 8 1 7 2 6 3 5 4 4 5 11 6 9 7 10 8 2 9 1 10 3 11
REMARK H PARENT
REMARK Flexibility Score: inf
ROOT
ATOM      1  C   UNL     1      -3.960  27.813  52.295  1.00  0.00     0.048 C 
ATOM      2  C   UNL     1      -2.645  27.521  52.964  1.00  0.00    -0.012 C 
ATOM      3  C   UNL     1      -2.259  28.248  54.026  1.00  0.00    -0.019 C 
ATOM      4  C   UNL     1      -0.961  27.986  54.744  1.00  0.00     0.036 C 
ATOM      5  C   UNL     1       0.118  27.478  53.770  1.00  0.00     0.025 C 
ATOM      6  C   UNL     1      -0.387  26.239  53.009  1.00  0.00     0.089 C 
ATOM      7  C   UNL     1      -1.724  26.516  52.376  1.00  0.00     0.158 C 
ATOM      8  O   UNL     1      -2.069  25.857  51.359  1.00  0.00    -0.295 OA
ENDROOT
BRANCH   5   9
ATOM      9  C   UNL     1       1.429  27.192  54.490  1.00  0.00    -0.077 C 
ATOM     10  C   UNL     1       1.419  26.649  55.718  1.00  0.00     0.008 C 
ATOM     11  C   UNL     1       2.760  27.507  53.853  1.00  0.00     0.039 C 
ENDBRANCH   5   9
TORSDOF 1
ENDMDL
MODEL 7
REMARK VINA RESULT:    -3.898      1.970      4.384
REMARK INTER + INTRA:          -4.223
REMARK INTER:                  -4.135
REMARK INTRA:                  -0.088
REMARK UNBOUND:                -0.097
REMARK SMILES C=C(C)[C@@H]1CC=C(C)C(=O)C1
REMARK SMILES IDX 8 1 7 2 6 3 5 4 4 5 11 6 9 7 10 8 2 9 1 10 3 11
REMARK H PARENT
REMARK Flexibility Score: inf
ROOT
ATOM      1  C   UNL     1      -0.232  25.942  57.021  1.00  0.00     0.048 C 
ATOM      2  C   UNL     1      -0.455  26.617  55.695  1.00  0.00    -0.012 C 
ATOM      3  C   UNL     1       0.304  26.281  54.638  1.00  0.00    -0.019 C 
ATOM      4  C   UNL     1       0.111  26.911  53.284  1.00  0.00     0.036 C 
ATOM      5  C   UNL     1      -0.360  28.371  53.416  1.00  0.00     0.025 C 
ATOM      6  C   UNL     1      -1.631  28.449  54.281  1.00  0.00     0.089 C 
ATOM      7  C   UNL     1      -1.424  27.736  55.589  1.00  0.00     0.158 C 
ATOM      8  O   UNL     1      -2.111  28.077  56.589  1.00  0.00    -0.295 OA
ENDROOT
BRANCH   5   9
ATOM      9  C   UNL     1      -0.577  29.013  52.051  1.00  0.00    -0.077 C 
ATOM     10  C   UNL     1       0.029  30.173  51.749  1.00  0.00     0.008 C 
ATOM     11  C   UNL     1      -1.466  28.373  51.014  1.00  0.00     0.039 C 
ENDBRANCH   5   9
TORSDOF 1
ENDMDL
MODEL 8
REMARK VINA RESULT:    -3.730      1.896      5.117
REMARK INTER + INTRA:          -4.046
REMARK INTER:                  -3.949
REMARK INTRA:                  -0.097
REMARK UNBOUND:                -0.097
REMARK SMILES C=C(C)[C@@H]1CC=C(C)C(=O)C1
REMARK SMILES IDX 8 1 7 2 6 3 5 4 4 5 11 6 9 7 10 8 2 9 1 10 3 11
REMARK H PARENT
REMARK Flexibility Score: inf
ROOT
ATOM      1  C   UNL     1      -0.583  26.363  52.874  1.00  0.00     0.048 C 
ATOM      2  C   UNL     1      -1.255  27.499  52.152  1.00  0.00    -0.012 C 
ATOM      3  C   UNL     1      -2.237  27.244  51.271  1.00  0.00    -0.019 C 
ATOM      4  C   UNL     1      -2.956  28.344  50.536  1.00  0.00     0.036 C 
ATOM      5  C   UNL     1      -2.018  29.535  50.265  1.00  0.00     0.025 C 
ATOM      6  C   UNL     1      -1.385  30.028  51.579  1.00  0.00     0.089 C 
ATOM      7  C   UNL     1      -0.751  28.885  52.323  1.00  0.00     0.158 C 
ATOM      8  O   UNL     1       0.194  29.122  53.122  1.00  0.00    -0.295 OA
ENDROOT
BRANCH   5   9
ATOM      9  C   UNL     1      -2.740  30.661  49.538  1.00  0.00    -0.077 C 
ATOM     10  C   UNL     1      -3.542  31.496  50.219  1.00  0.00     0.008 C 
ATOM     11  C   UNL     1      -2.580  30.868  48.053  1.00  0.00     0.039 C 
ENDBRANCH   5   9
TORSDOF 1
ENDMDL
MODEL 9
REMARK VINA RESULT:    -3.623      2.010      2.418
REMARK INTER + INTRA:          -3.932
REMARK INTER:                  -3.834
REMARK INTRA:                  -0.098
REMARK UNBOUND:                -0.097
REMARK SMILES C=C(C)[C@@H]1CC=C(C)C(=O)C1
REMARK SMILES IDX 8 1 7 2 6 3 5 4 4 5 11 6 9 7 10 8 2 9 1 10 3 11
REMARK H PARENT
REMARK Flexibility Score: inf
ROOT
ATOM      1  C   UNL     1      -3.366  29.557  52.423  1.00  0.00     0.048 C 
ATOM      2  C   UNL     1      -2.273  28.940  53.251  1.00  0.00    -0.012 C 
ATOM      3  C   UNL     1      -1.005  28.955  52.805  1.00  0.00    -0.019 C 
ATOM      4  C   UNL     1       0.130  28.368  53.602  1.00  0.00     0.036 C 
ATOM      5  C   UNL     1      -0.342  27.159  54.430  1.00  0.00     0.025 C 
ATOM      6  C   UNL     1      -1.537  27.551  55.319  1.00  0.00     0.089 C 
ATOM      7  C   UNL     1      -2.613  28.209  54.498  1.00  0.00     0.158 C 
ATOM      8  O   UNL     1      -3.806  28.162  54.900  1.00  0.00    -0.295 OA
ENDROOT
BRANCH   5   9
ATOM      9  C   UNL     1       0.794  26.570  55.255  1.00  0.00    -0.077 C 
ATOM     10  C   UNL     1       2.045  27.035  55.107  1.00  0.00     0.008 C 
ATOM     11  C   UNL     1       0.551  25.460  56.247  1.00  0.00     0.039 C 
ENDBRANCH   5   9
TORSDOF 1
ENDMDL
