MODEL 1
REMARK VINA RESULT:    -4.308      0.000      0.000
REMARK INTER + INTRA:          -6.318
REMARK INTER:                  -5.818
REMARK INTRA:                  -0.499
REMARK UNBOUND:                -0.499
REMARK SMILES C[C@@H](O)[C@@H](O)[C@@H](O)[C@@H](O)C=O
REMARK SMILES IDX 4 1 2 2 1 3 3 4 6 6 8 7 10 8 11 9 9 10 7 12 5 14
REMARK H PARENT 3 5 9 11 7 13 5 15
REMARK Flexibility Score: inf
ROOT
ATOM      1  C   UNL     1     -20.418   0.389   9.356  1.00  0.00     0.174 C 
ENDROOT
BRANCH   1   2
ATOM      2  C   UNL     1     -21.118   1.456   8.474  1.00  0.00     0.142 C 
ATOM      3  C   UNL     1     -21.721   2.575   9.331  1.00  0.00     0.041 C 
BRANCH   2   4
ATOM      4  O   UNL     1     -20.191   2.017   7.581  1.00  0.00    -0.391 OA
ATOM      5  H   UNL     1     -20.185   2.996   7.748  1.00  0.00     0.211 HD
ENDBRANCH   2   4
ENDBRANCH   1   2
BRANCH   1   6
ATOM      6  C   UNL     1     -20.518  -1.037   8.743  1.00  0.00     0.181 C 
BRANCH   6   7
ATOM      7  C   UNL     1     -19.772  -2.099   9.592  1.00  0.00     0.209 C 
BRANCH   7   8
ATOM      8  C   UNL     1     -19.202  -3.204   8.745  1.00  0.00     0.258 C 
ATOM      9  O   UNL     1     -19.518  -4.367   8.941  1.00  0.00    -0.300 OA
ENDBRANCH   7   8
BRANCH   7  10
ATOM     10  O   UNL     1     -20.639  -2.658  10.544  1.00  0.00    -0.383 OA
ATOM     11  H   UNL     1     -21.530  -2.732  10.112  1.00  0.00     0.211 HD
ENDBRANCH   7  10
ENDBRANCH   6   7
BRANCH   6  12
ATOM     12  O   UNL     1     -20.006  -1.027   7.433  1.00  0.00    -0.387 OA
ATOM     13  H   UNL     1     -19.592  -0.136   7.288  1.00  0.00     0.211 HD
ENDBRANCH   6  12
ENDBRANCH   1   6
BRANCH   1  14
ATOM     14  O   UNL     1     -20.955   0.403  10.657  1.00  0.00    -0.388 OA
ATOM     15  H   UNL     1     -20.238   0.108  11.278  1.00  0.00     0.211 HD
ENDBRANCH   1  14
TORSDOF 8
ENDMDL
MODEL 2
REMARK VINA RESULT:    -4.297      1.400      4.624
REMARK INTER + INTRA:          -6.304
REMARK INTER:                  -5.789
REMARK INTRA:                  -0.514
REMARK UNBOUND:                -0.499
REMARK SMILES C[C@@H](O)[C@@H](O)[C@@H](O)[C@@H](O)C=O
REMARK SMILES IDX 4 1 2 2 1 3 3 4 6 6 8 7 10 8 11 9 9 10 7 12 5 14
REMARK H PARENT 3 5 9 11 7 13 5 15
REMARK Flexibility Score: inf
ROOT
ATOM      1  C   UNL     1     -20.614  -0.751   9.276  1.00  0.00     0.174 C 
ENDROOT
BRANCH   1   2
ATOM      2  C   UNL     1     -19.746  -1.778   8.502  1.00  0.00     0.142 C 
ATOM      3  C   UNL     1     -19.458  -3.017   9.357  1.00  0.00     0.041 C 
BRANCH   2   4
ATOM      4  O   UNL     1     -20.413  -2.177   7.332  1.00  0.00    -0.391 OA
ATOM      5  H   UNL     1     -20.740  -1.351   6.890  1.00  0.00     0.211 HD
ENDBRANCH   2   4
ENDBRANCH   1   2
BRANCH   1   6
ATOM      6  C   UNL     1     -20.400   0.702   8.768  1.00  0.00     0.181 C 
BRANCH   6   7
ATOM      7  C   UNL     1     -21.355   1.715   9.450  1.00  0.00     0.209 C 
BRANCH   7   8
ATOM      8  C   UNL     1     -21.557   2.954   8.620  1.00  0.00     0.258 C 
ATOM      9  O   UNL     1     -21.974   3.984   9.126  1.00  0.00    -0.300 OA
ENDBRANCH   7   8
BRANCH   7  10
ATOM     10  O   UNL     1     -20.850   2.090  10.707  1.00  0.00    -0.383 OA
ATOM     11  H   UNL     1     -21.025   3.062  10.807  1.00  0.00     0.211 HD
ENDBRANCH   7  10
ENDBRANCH   6   7
BRANCH   6  12
ATOM     12  O   UNL     1     -20.573   0.748   7.373  1.00  0.00    -0.387 OA
ATOM     13  H   UNL     1     -19.999   0.037   6.984  1.00  0.00     0.211 HD
ENDBRANCH   6  12
ENDBRANCH   1   6
BRANCH   1  14
ATOM     14  O   UNL     1     -20.350  -0.832  10.657  1.00  0.00    -0.388 OA
ATOM     15  H   UNL     1     -19.512  -1.354  10.770  1.00  0.00     0.211 HD
ENDBRANCH   1  14
TORSDOF 8
ENDMDL
MODEL 3
REMARK VINA RESULT:    -4.095      1.326      4.747
REMARK INTER + INTRA:          -6.031
REMARK INTER:                  -5.490
REMARK INTRA:                  -0.540
REMARK UNBOUND:                -0.499
REMARK SMILES C[C@@H](O)[C@@H](O)[C@@H](O)[C@@H](O)C=O
REMARK SMILES IDX 4 1 2 2 1 3 3 4 6 6 8 7 10 8 11 9 9 10 7 12 5 14
REMARK H PARENT 3 5 9 11 7 13 5 15
REMARK Flexibility Score: inf
ROOT
ATOM      1  C   UNL     1     -19.898  -1.410   8.467  1.00  0.00     0.174 C 
ENDROOT
BRANCH   1   2
ATOM      2  C   UNL     1     -19.786  -2.472   9.593  1.00  0.00     0.142 C 
ATOM      3  C   UNL     1     -19.259  -3.804   9.047  1.00  0.00     0.041 C 
BRANCH   2   4
ATOM      4  O   UNL     1     -18.913  -2.013  10.593  1.00  0.00    -0.391 OA
ATOM      5  H   UNL     1     -18.029  -1.874  10.163  1.00  0.00     0.211 HD
ENDBRANCH   2   4
ENDBRANCH   1   2
BRANCH   1   6
ATOM      6  C   UNL     1     -20.769  -0.193   8.891  1.00  0.00     0.181 C 
BRANCH   6   7
ATOM      7  C   UNL     1     -20.432   1.086   8.082  1.00  0.00     0.209 C 
BRANCH   7   8
ATOM      8  C   UNL     1     -21.170   2.293   8.595  1.00  0.00     0.258 C 
ATOM      9  O   UNL     1     -21.931   2.202   9.545  1.00  0.00    -0.300 OA
ENDBRANCH   7   8
BRANCH   7  10
ATOM     10  O   UNL     1     -20.750   0.903   6.726  1.00  0.00    -0.383 OA
ATOM     11  H   UNL     1     -20.752   1.802   6.308  1.00  0.00     0.211 HD
ENDBRANCH   7  10
ENDBRANCH   6   7
BRANCH   6  12
ATOM     12  O   UNL     1     -20.602   0.054  10.265  1.00  0.00    -0.387 OA
ATOM     13  H   UNL     1     -21.498   0.277  10.632  1.00  0.00     0.211 HD
ENDBRANCH   6  12
ENDBRANCH   1   6
BRANCH   1  14
ATOM     14  O   UNL     1     -20.410  -1.995   7.293  1.00  0.00    -0.388 OA
ATOM     15  H   UNL     1     -20.218  -2.969   7.338  1.00  0.00     0.211 HD
ENDBRANCH   1  14
TORSDOF 8
ENDMDL
MODEL 4
REMARK VINA RESULT:    -4.048      0.991      2.526
REMARK INTER + INTRA:          -5.968
REMARK INTER:                  -5.343
REMARK INTRA:                  -0.624
REMARK UNBOUND:                -0.499
REMARK SMILES C[C@@H](O)[C@@H](O)[C@@H](O)[C@@H](O)C=O
REMARK SMILES IDX 4 1 2 2 1 3 3 4 6 6 8 7 10 8 11 9 9 10 7 12 5 14
REMARK H PARENT 3 5 9 11 7 13 5 15
REMARK Flexibility Score: inf
ROOT
ATOM      1  C   UNL     1     -21.089   1.371   8.537  1.00  0.00     0.174 C 
ENDROOT
BRANCH   1   2
ATOM      2  C   UNL     1     -21.541   2.322   9.677  1.00  0.00     0.142 C 
ATOM      3  C   UNL     1     -21.950   3.693   9.127  1.00  0.00     0.041 C 
BRANCH   2   4
ATOM      4  O   UNL     1     -22.634   1.761  10.358  1.00  0.00    -0.391 OA
ATOM      5  H   UNL     1     -23.414   1.816   9.747  1.00  0.00     0.211 HD
ENDBRANCH   2   4
ENDBRANCH   1   2
BRANCH   1   6
ATOM      6  C   UNL     1     -20.317   0.134   9.075  1.00  0.00     0.181 C 
BRANCH   6   7
ATOM      7  C   UNL     1     -20.500  -1.115   8.174  1.00  0.00     0.209 C 
BRANCH   7   8
ATOM      8  C   UNL     1     -19.670  -2.280   8.642  1.00  0.00     0.258 C 
ATOM      9  O   UNL     1     -19.372  -2.400   9.820  1.00  0.00    -0.300 OA
ENDBRANCH   7   8
BRANCH   7  10
ATOM     10  O   UNL     1     -20.149  -0.814   6.847  1.00  0.00    -0.383 OA
ATOM     11  H   UNL     1     -20.612  -1.475   6.271  1.00  0.00     0.211 HD
ENDBRANCH   7  10
ENDBRANCH   6   7
BRANCH   6  12
ATOM     12  O   UNL     1     -20.739  -0.157  10.385  1.00  0.00    -0.387 OA
ATOM     13  H   UNL     1     -21.669   0.179  10.473  1.00  0.00     0.211 HD
ENDBRANCH   6  12
ENDBRANCH   1   6
BRANCH   1  14
ATOM     14  O   UNL     1     -20.304   2.071   7.601  1.00  0.00    -0.388 OA
ATOM     15  H   UNL     1     -20.869   2.796   7.222  1.00  0.00     0.211 HD
ENDBRANCH   1  14
TORSDOF 8
ENDMDL
MODEL 5
REMARK VINA RESULT:    -3.878      1.898      4.132
REMARK INTER + INTRA:          -5.737
REMARK INTER:                  -5.152
REMARK INTRA:                  -0.585
REMARK UNBOUND:                -0.499
REMARK SMILES C[C@@H](O)[C@@H](O)[C@@H](O)[C@@H](O)C=O
REMARK SMILES IDX 4 1 2 2 1 3 3 4 6 6 8 7 10 8 11 9 9 10 7 12 5 14
REMARK H PARENT 3 5 9 11 7 13 5 15
REMARK Flexibility Score: inf
ROOT
ATOM      1  C   UNL     1     -20.387   0.557   8.847  1.00  0.00     0.174 C 
ENDROOT
BRANCH   1   2
ATOM      2  C   UNL     1     -20.599  -0.530   7.761  1.00  0.00     0.142 C 
ATOM      3  C   UNL     1     -19.831  -0.191   6.479  1.00  0.00     0.041 C 
BRANCH   2   4
ATOM      4  O   UNL     1     -20.157  -1.774   8.241  1.00  0.00    -0.391 OA
ATOM      5  H   UNL     1     -19.218  -1.651   8.538  1.00  0.00     0.211 HD
ENDBRANCH   2   4
ENDBRANCH   1   2
BRANCH   1   6
ATOM      6  C   UNL     1     -21.106   0.206  10.180  1.00  0.00     0.181 C 
BRANCH   6   7
ATOM      7  C   UNL     1     -21.522   1.469  10.978  1.00  0.00     0.209 C 
BRANCH   7   8
ATOM      8  C   UNL     1     -21.120   1.384  12.426  1.00  0.00     0.258 C 
ATOM      9  O   UNL     1     -21.503   0.460  13.127  1.00  0.00    -0.300 OA
ENDBRANCH   7   8
BRANCH   7  10
ATOM     10  O   UNL     1     -22.912   1.655  10.905  1.00  0.00    -0.383 OA
ATOM     11  H   UNL     1     -23.296   1.288  11.743  1.00  0.00     0.211 HD
ENDBRANCH   7  10
ENDBRANCH   6   7
BRANCH   6  12
ATOM     12  O   UNL     1     -20.272  -0.605  10.970  1.00  0.00    -0.387 OA
ATOM     13  H   UNL     1     -19.873  -1.287  10.369  1.00  0.00     0.211 HD
ENDBRANCH   6  12
ENDBRANCH   1   6
BRANCH   1  14
ATOM     14  O   UNL     1     -20.816   1.811   8.372  1.00  0.00    -0.388 OA
ATOM     15  H   UNL     1     -20.917   2.409   9.160  1.00  0.00     0.211 HD
ENDBRANCH   1  14
TORSDOF 8
ENDMDL
MODEL 6
REMARK VINA RESULT:    -3.831      1.527      2.739
REMARK INTER + INTRA:          -5.674
REMARK INTER:                  -4.996
REMARK INTRA:                  -0.678
REMARK UNBOUND:                -0.499
REMARK SMILES C[C@@H](O)[C@@H](O)[C@@H](O)[C@@H](O)C=O
REMARK SMILES IDX 4 1 2 2 1 3 3 4 6 6 8 7 10 8 11 9 9 10 7 12 5 14
REMARK H PARENT 3 5 9 11 7 13 5 15
REMARK Flexibility Score: inf
ROOT
ATOM      1  C   UNL     1     -20.767  -0.531   8.413  1.00  0.00     0.174 C 
ENDROOT
BRANCH   1   2
ATOM      2  C   UNL     1     -20.318   0.748   7.656  1.00  0.00     0.142 C 
ATOM      3  C   UNL     1     -20.863   0.764   6.223  1.00  0.00     0.041 C 
BRANCH   2   4
ATOM      4  O   UNL     1     -20.782   1.888   8.332  1.00  0.00    -0.391 OA
ATOM      5  H   UNL     1     -20.669   1.713   9.303  1.00  0.00     0.211 HD
ENDBRANCH   2   4
ENDBRANCH   1   2
BRANCH   1   6
ATOM      6  C   UNL     1     -20.196  -0.590   9.857  1.00  0.00     0.181 C 
BRANCH   6   7
ATOM      7  C   UNL     1     -20.105  -2.040  10.399  1.00  0.00     0.209 C 
BRANCH   7   8
ATOM      8  C   UNL     1     -19.899  -2.078  11.889  1.00  0.00     0.258 C 
ATOM      9  O   UNL     1     -20.853  -2.138  12.649  1.00  0.00    -0.300 OA
ENDBRANCH   7   8
BRANCH   7  10
ATOM     10  O   UNL     1     -19.048  -2.726   9.778  1.00  0.00    -0.383 OA
ATOM     11  H   UNL     1     -18.250  -2.140   9.840  1.00  0.00     0.211 HD
ENDBRANCH   7  10
ENDBRANCH   6   7
BRANCH   6  12
ATOM     12  O   UNL     1     -20.991   0.191  10.715  1.00  0.00    -0.387 OA
ATOM     13  H   UNL     1     -21.903  -0.201  10.704  1.00  0.00     0.211 HD
ENDBRANCH   6  12
ENDBRANCH   1   6
BRANCH   1  14
ATOM     14  O   UNL     1     -20.396  -1.681   7.690  1.00  0.00    -0.388 OA
ATOM     15  H   UNL     1     -21.204  -2.004   7.211  1.00  0.00     0.211 HD
ENDBRANCH   1  14
TORSDOF 8
ENDMDL
MODEL 7
REMARK VINA RESULT:    -3.300      1.599      3.925
REMARK INTER + INTRA:          -4.957
REMARK INTER:                  -4.261
REMARK INTRA:                  -0.696
REMARK UNBOUND:                -0.499
REMARK SMILES C[C@@H](O)[C@@H](O)[C@@H](O)[C@@H](O)C=O
REMARK SMILES IDX 4 1 2 2 1 3 3 4 6 6 8 7 10 8 11 9 9 10 7 12 5 14
REMARK H PARENT 3 5 9 11 7 13 5 15
REMARK Flexibility Score: inf
ROOT
ATOM      1  C   UNL     1     -20.810  -0.790  10.164  1.00  0.00     0.174 C 
ENDROOT
BRANCH   1   2
ATOM      2  C   UNL     1     -20.192  -1.953  10.983  1.00  0.00     0.142 C 
ATOM      3  C   UNL     1     -20.387  -1.736  12.488  1.00  0.00     0.041 C 
BRANCH   2   4
ATOM      4  O   UNL     1     -20.797  -3.166  10.616  1.00  0.00    -0.391 OA
ATOM      5  H   UNL     1     -21.701  -2.945  10.270  1.00  0.00     0.211 HD
ENDBRANCH   2   4
ENDBRANCH   1   2
BRANCH   1   6
ATOM      6  C   UNL     1     -20.156  -0.646   8.761  1.00  0.00     0.181 C 
BRANCH   6   7
ATOM      7  C   UNL     1     -20.816   0.471   7.911  1.00  0.00     0.209 C 
BRANCH   7   8
ATOM      8  C   UNL     1     -20.531   0.310   6.442  1.00  0.00     0.258 C 
ATOM      9  O   UNL     1     -19.475  -0.169   6.060  1.00  0.00    -0.300 OA
ENDBRANCH   7   8
BRANCH   7  10
ATOM     10  O   UNL     1     -20.359   1.732   8.326  1.00  0.00    -0.383 OA
ATOM     11  H   UNL     1     -21.056   2.106   8.927  1.00  0.00     0.211 HD
ENDBRANCH   7  10
ENDBRANCH   6   7
BRANCH   6  12
ATOM     12  O   UNL     1     -20.227  -1.872   8.076  1.00  0.00    -0.387 OA
ATOM     13  H   UNL     1     -21.190  -2.078   7.945  1.00  0.00     0.211 HD
ENDBRANCH   6  12
ENDBRANCH   1   6
BRANCH   1  14
ATOM     14  O   UNL     1     -20.708   0.419  10.879  1.00  0.00    -0.388 OA
ATOM     15  H   UNL     1     -21.423   0.416  11.570  1.00  0.00     0.211 HD
ENDBRANCH   1  14
TORSDOF 8
ENDMDL
MODEL 8
REMARK VINA RESULT:    -3.197      1.629      2.502
REMARK INTER + INTRA:          -4.818
REMARK INTER:                  -4.366
REMARK INTRA:                  -0.452
REMARK UNBOUND:                -0.499
REMARK SMILES C[C@@H](O)[C@@H](O)[C@@H](O)[C@@H](O)C=O
REMARK SMILES IDX 4 1 2 2 1 3 3 4 6 6 8 7 10 8 11 9 9 10 7 12 5 14
REMARK H PARENT 3 5 9 11 7 13 5 15
REMARK Flexibility Score: inf
ROOT
ATOM      1  C   UNL     1     -20.165  -0.430   9.333  1.00  0.00     0.174 C 
ENDROOT
BRANCH   1   2
ATOM      2  C   UNL     1     -20.653  -0.007   7.921  1.00  0.00     0.142 C 
ATOM      3  C   UNL     1     -20.664   1.518   7.773  1.00  0.00     0.041 C 
BRANCH   2   4
ATOM      4  O   UNL     1     -19.806  -0.553   6.943  1.00  0.00    -0.391 OA
ATOM      5  H   UNL     1     -20.212  -1.412   6.656  1.00  0.00     0.211 HD
ENDBRANCH   2   4
ENDBRANCH   1   2
BRANCH   1   6
ATOM      6  C   UNL     1     -20.360  -1.950   9.591  1.00  0.00     0.181 C 
BRANCH   6   7
ATOM      7  C   UNL     1     -19.753  -2.403  10.944  1.00  0.00     0.209 C 
BRANCH   7   8
ATOM      8  C   UNL     1     -20.724  -2.249  12.083  1.00  0.00     0.258 C 
ATOM      9  O   UNL     1     -20.606  -1.336  12.885  1.00  0.00    -0.300 OA
ENDBRANCH   7   8
BRANCH   7  10
ATOM     10  O   UNL     1     -18.596  -1.660  11.232  1.00  0.00    -0.383 OA
ATOM     11  H   UNL     1     -18.849  -0.702  11.175  1.00  0.00     0.211 HD
ENDBRANCH   7  10
ENDBRANCH   6   7
BRANCH   6  12
ATOM     12  O   UNL     1     -19.787  -2.688   8.540  1.00  0.00    -0.387 OA
ATOM     13  H   UNL     1     -20.053  -3.636   8.671  1.00  0.00     0.211 HD
ENDBRANCH   6  12
ENDBRANCH   1   6
BRANCH   1  14
ATOM     14  O   UNL     1     -20.823   0.325  10.322  1.00  0.00    -0.388 OA
ATOM     15  H   UNL     1     -20.125   0.707  10.918  1.00  0.00     0.211 HD
ENDBRANCH   1  14
TORSDOF 8
ENDMDL
MODEL 9
REMARK VINA RESULT:    -3.108      2.048      3.515
REMARK INTER + INTRA:          -4.698
REMARK INTER:                  -4.123
REMARK INTRA:                  -0.575
REMARK UNBOUND:                -0.499
REMARK SMILES C[C@@H](O)[C@@H](O)[C@@H](O)[C@@H](O)C=O
REMARK SMILES IDX 4 1 2 2 1 3 3 4 6 6 8 7 10 8 11 9 9 10 7 12 5 14
REMARK H PARENT 3 5 9 11 7 13 5 15
REMARK Flexibility Score: inf
ROOT
ATOM      1  C   UNL     1     -21.281   1.049  10.370  1.00  0.00     0.174 C 
ENDROOT
BRANCH   1   2
ATOM      2  C   UNL     1     -20.757   0.848  11.817  1.00  0.00     0.142 C 
ATOM      3  C   UNL     1     -21.519   1.732  12.811  1.00  0.00     0.041 C 
BRANCH   2   4
ATOM      4  O   UNL     1     -20.908  -0.496  12.195  1.00  0.00    -0.391 OA
ATOM      5  H   UNL     1     -20.465  -0.600  13.077  1.00  0.00     0.211 HD
ENDBRANCH   2   4
ENDBRANCH   1   2
BRANCH   1   6
ATOM      6  C   UNL     1     -20.402   0.313   9.320  1.00  0.00     0.181 C 
BRANCH   6   7
ATOM      7  C   UNL     1     -20.768   0.704   7.864  1.00  0.00     0.209 C 
BRANCH   7   8
ATOM      8  C   UNL     1     -20.134  -0.213   6.853  1.00  0.00     0.258 C 
ATOM      9  O   UNL     1     -20.383  -1.408   6.852  1.00  0.00    -0.300 OA
ENDBRANCH   7   8
BRANCH   7  10
ATOM     10  O   UNL     1     -20.362   2.022   7.598  1.00  0.00    -0.383 OA
ATOM     11  H   UNL     1     -19.685   1.973   6.874  1.00  0.00     0.211 HD
ENDBRANCH   7  10
ENDBRANCH   6   7
BRANCH   6  12
ATOM     12  O   UNL     1     -20.528  -1.078   9.486  1.00  0.00    -0.387 OA
ATOM     13  H   UNL     1     -21.495  -1.294   9.421  1.00  0.00     0.211 HD
ENDBRANCH   6  12
ENDBRANCH   1   6
BRANCH   1  14
ATOM     14  O   UNL     1     -21.363   2.421  10.068  1.00  0.00    -0.388 OA
ATOM     15  H   UNL     1     -21.026   2.921  10.858  1.00  0.00     0.211 HD
ENDBRANCH   1  14
TORSDOF 8
ENDMDL
