MODEL 1
REMARK VINA RESULT:    -6.915      0.000      0.000
REMARK INTER + INTRA:          -8.352
REMARK INTER:                  -8.127
REMARK INTRA:                  -0.224
REMARK UNBOUND:                -0.224
REMARK SMILES O=c1c(O)c(-c2ccc(O)c(O)c2)oc2cc(O)ccc12
REMARK SMILES IDX 5 1 3 2 2 3 1 4 21 5 15 6 14 7 16 8 17 9 19 10 20 11 6 12
REMARK SMILES IDX 7 13 8 14 9 15 13 16 11 17 10 18 12 20 4 22 18 24
REMARK H PARENT 10 19 12 21 4 23 18 25
REMARK Flexibility Score: inf
ROOT
ATOM      1  C   UNL     1     185.077 207.878 193.922  1.00  0.00     0.180 A 
ATOM      2  C   UNL     1     184.773 208.884 192.981  1.00  0.00     0.208 A 
ATOM      3  C   UNL     1     185.215 210.194 193.225  1.00  0.00     0.235 A 
ATOM      4  O   UNL     1     184.946 211.113 192.403  1.00  0.00    -0.285 OA
ATOM      5  C   UNL     1     185.963 210.465 194.381  1.00  0.00     0.069 A 
ATOM      6  C   UNL     1     186.246 209.398 195.261  1.00  0.00     0.142 A 
ATOM      7  O   UNL     1     185.801 208.175 194.998  1.00  0.00    -0.452 OA
ATOM      8  C   UNL     1     186.997 209.628 196.419  1.00  0.00     0.094 A 
ATOM      9  C   UNL     1     187.469 210.912 196.712  1.00  0.00     0.119 A 
ATOM     10  C   UNL     1     187.188 211.973 195.842  1.00  0.00     0.047 A 
ATOM     11  C   UNL     1     186.440 211.754 194.681  1.00  0.00     0.020 A 
ENDROOT
BRANCH   1  12
ATOM     12  C   UNL     1     184.630 206.477 193.746  1.00  0.00     0.025 A 
ATOM     13  C   UNL     1     183.637 205.917 194.566  1.00  0.00     0.016 A 
ATOM     14  C   UNL     1     183.248 204.585 194.397  1.00  0.00     0.051 A 
ATOM     15  C   UNL     1     183.856 203.791 193.417  1.00  0.00     0.157 A 
ATOM     16  C   UNL     1     185.252 205.671 192.778  1.00  0.00     0.062 A 
ATOM     17  C   UNL     1     184.865 204.336 192.605  1.00  0.00     0.158 A 
BRANCH  15  18
ATOM     18  O   UNL     1     183.465 202.463 193.249  1.00  0.00    -0.504 OA
ATOM     19  H   UNL     1     182.636 202.216 192.720  1.00  0.00     0.293 HD
ENDBRANCH  15  18
BRANCH  17  20
ATOM     20  O   UNL     1     185.494 203.570 191.625  1.00  0.00    -0.504 OA
ATOM     21  H   UNL     1     185.000 202.861 191.095  1.00  0.00     0.293 HD
ENDBRANCH  17  20
ENDBRANCH   1  12
BRANCH   2  22
ATOM     22  O   UNL     1     184.069 208.574 191.815  1.00  0.00    -0.502 OA
ATOM     23  H   UNL     1     184.447 208.745 190.892  1.00  0.00     0.293 HD
ENDBRANCH   2  22
BRANCH   9  24
ATOM     24  O   UNL     1     188.214 211.121 197.870  1.00  0.00    -0.508 OA
ATOM     25  H   UNL     1     188.104 211.961 198.426  1.00  0.00     0.293 HD
ENDBRANCH   9  24
TORSDOF 5
ENDMDL
MODEL 2
REMARK VINA RESULT:    -6.818      1.419      3.308
REMARK INTER + INTRA:          -8.238
REMARK INTER:                  -8.015
REMARK INTRA:                  -0.223
REMARK UNBOUND:                -0.224
REMARK SMILES O=c1c(O)c(-c2ccc(O)c(O)c2)oc2cc(O)ccc12
REMARK SMILES IDX 5 1 3 2 2 3 1 4 21 5 15 6 14 7 16 8 17 9 19 10 20 11 6 12
REMARK SMILES IDX 7 13 8 14 9 15 13 16 11 17 10 18 12 20 4 22 18 24
REMARK H PARENT 10 19 12 21 4 23 18 25
REMARK Flexibility Score: inf
ROOT
ATOM      1  C   UNL     1     184.914 207.999 193.556  1.00  0.00     0.180 A 
ATOM      2  C   UNL     1     185.697 208.552 194.591  1.00  0.00     0.208 A 
ATOM      3  C   UNL     1     186.032 209.914 194.532  1.00  0.00     0.235 A 
ATOM      4  O   UNL     1     186.740 210.430 195.441  1.00  0.00    -0.285 OA
ATOM      5  C   UNL     1     185.566 210.693 193.462  1.00  0.00     0.069 A 
ATOM      6  C   UNL     1     184.767 210.070 192.478  1.00  0.00     0.142 A 
ATOM      7  O   UNL     1     184.481 208.776 192.567  1.00  0.00    -0.452 OA
ATOM      8  C   UNL     1     184.276 210.816 191.401  1.00  0.00     0.094 A 
ATOM      9  C   UNL     1     184.573 212.179 191.292  1.00  0.00     0.119 A 
ATOM     10  C   UNL     1     185.366 212.799 192.266  1.00  0.00     0.047 A 
ATOM     11  C   UNL     1     185.861 212.064 193.346  1.00  0.00     0.020 A 
ENDROOT
BRANCH   1  12
ATOM     12  C   UNL     1     184.535 206.568 193.536  1.00  0.00     0.025 A 
ATOM     13  C   UNL     1     183.604 206.044 194.448  1.00  0.00     0.016 A 
ATOM     14  C   UNL     1     183.279 204.685 194.426  1.00  0.00     0.051 A 
ATOM     15  C   UNL     1     183.891 203.828 193.502  1.00  0.00     0.157 A 
ATOM     16  C   UNL     1     185.162 205.700 192.626  1.00  0.00     0.062 A 
ATOM     17  C   UNL     1     184.839 204.338 192.600  1.00  0.00     0.158 A 
BRANCH  15  18
ATOM     18  O   UNL     1     183.564 202.473 193.481  1.00  0.00    -0.504 OA
ATOM     19  H   UNL     1     183.553 201.916 194.328  1.00  0.00     0.293 HD
ENDBRANCH  15  18
BRANCH  17  20
ATOM     20  O   UNL     1     185.471 203.510 191.674  1.00  0.00    -0.504 OA
ATOM     21  H   UNL     1     185.358 203.634 190.675  1.00  0.00     0.293 HD
ENDBRANCH  17  20
ENDBRANCH   1  12
BRANCH   2  22
ATOM     22  O   UNL     1     186.105 207.763 195.669  1.00  0.00    -0.502 OA
ATOM     23  H   UNL     1     187.078 207.537 195.836  1.00  0.00     0.293 HD
ENDBRANCH   2  22
BRANCH   9  24
ATOM     24  O   UNL     1     184.075 212.905 190.213  1.00  0.00    -0.508 OA
ATOM     25  H   UNL     1     183.140 213.295 190.224  1.00  0.00     0.293 HD
ENDBRANCH   9  24
TORSDOF 5
ENDMDL
MODEL 3
REMARK VINA RESULT:    -6.631      3.842      7.104
REMARK INTER + INTRA:          -8.018
REMARK INTER:                  -7.703
REMARK INTRA:                  -0.315
REMARK UNBOUND:                -0.224
REMARK SMILES O=c1c(O)c(-c2ccc(O)c(O)c2)oc2cc(O)ccc12
REMARK SMILES IDX 5 1 3 2 2 3 1 4 21 5 15 6 14 7 16 8 17 9 19 10 20 11 6 12
REMARK SMILES IDX 7 13 8 14 9 15 13 16 11 17 10 18 12 20 4 22 18 24
REMARK H PARENT 10 19 12 21 4 23 18 25
REMARK Flexibility Score: inf
ROOT
ATOM      1  C   UNL     1     183.350 211.073 191.390  1.00  0.00     0.180 A 
ATOM      2  C   UNL     1     183.476 209.983 190.502  1.00  0.00     0.208 A 
ATOM      3  C   UNL     1     184.177 208.844 190.924  1.00  0.00     0.235 A 
ATOM      4  O   UNL     1     184.312 207.861 190.145  1.00  0.00    -0.285 OA
ATOM      5  C   UNL     1     184.714 208.806 192.221  1.00  0.00     0.069 A 
ATOM      6  C   UNL     1     184.525 209.927 193.057  1.00  0.00     0.142 A 
ATOM      7  O   UNL     1     183.863 210.990 192.615  1.00  0.00    -0.452 OA
ATOM      8  C   UNL     1     185.037 209.922 194.359  1.00  0.00     0.094 A 
ATOM      9  C   UNL     1     185.741 208.811 194.838  1.00  0.00     0.119 A 
ATOM     10  C   UNL     1     185.932 207.698 194.009  1.00  0.00     0.047 A 
ATOM     11  C   UNL     1     185.423 207.692 192.707  1.00  0.00     0.020 A 
ENDROOT
BRANCH   1  12
ATOM     12  C   UNL     1     182.643 212.317 191.012  1.00  0.00     0.025 A 
ATOM     13  C   UNL     1     183.282 213.328 190.275  1.00  0.00     0.016 A 
ATOM     14  C   UNL     1     182.601 214.504 189.950  1.00  0.00     0.051 A 
ATOM     15  C   UNL     1     181.278 214.694 190.368  1.00  0.00     0.157 A 
ATOM     16  C   UNL     1     181.322 212.520 191.447  1.00  0.00     0.062 A 
ATOM     17  C   UNL     1     180.636 213.697 191.123  1.00  0.00     0.158 A 
BRANCH  15  18
ATOM     18  O   UNL     1     180.600 215.867 190.041  1.00  0.00    -0.504 OA
ATOM     19  H   UNL     1     179.632 215.856 189.743  1.00  0.00     0.293 HD
ENDBRANCH  15  18
BRANCH  17  20
ATOM     20  O   UNL     1     179.323 213.858 191.560  1.00  0.00    -0.504 OA
ATOM     21  H   UNL     1     178.991 214.727 191.962  1.00  0.00     0.293 HD
ENDBRANCH  17  20
ENDBRANCH   1  12
BRANCH   2  22
ATOM     22  O   UNL     1     182.888 210.031 189.235  1.00  0.00    -0.502 OA
ATOM     23  H   UNL     1     183.370 209.716 188.403  1.00  0.00     0.293 HD
ENDBRANCH   2  22
BRANCH   9  24
ATOM     24  O   UNL     1     186.244 208.826 196.136  1.00  0.00    -0.508 OA
ATOM     25  H   UNL     1     187.226 208.662 196.324  1.00  0.00     0.293 HD
ENDBRANCH   9  24
TORSDOF 5
ENDMDL
MODEL 4
REMARK VINA RESULT:    -6.595      4.189      5.348
REMARK INTER + INTRA:          -7.976
REMARK INTER:                  -7.717
REMARK INTRA:                  -0.259
REMARK UNBOUND:                -0.224
REMARK SMILES O=c1c(O)c(-c2ccc(O)c(O)c2)oc2cc(O)ccc12
REMARK SMILES IDX 5 1 3 2 2 3 1 4 21 5 15 6 14 7 16 8 17 9 19 10 20 11 6 12
REMARK SMILES IDX 7 13 8 14 9 15 13 16 11 17 10 18 12 20 4 22 18 24
REMARK H PARENT 10 19 12 21 4 23 18 25
REMARK Flexibility Score: inf
ROOT
ATOM      1  C   UNL     1     182.294 210.004 193.742  1.00  0.00     0.180 A 
ATOM      2  C   UNL     1     181.077 209.530 194.276  1.00  0.00     0.208 A 
ATOM      3  C   UNL     1     180.229 210.435 194.934  1.00  0.00     0.235 A 
ATOM      4  O   UNL     1     179.140 210.033 195.429  1.00  0.00    -0.285 OA
ATOM      5  C   UNL     1     180.600 211.786 195.025  1.00  0.00     0.069 A 
ATOM      6  C   UNL     1     181.823 212.185 194.443  1.00  0.00     0.142 A 
ATOM      7  O   UNL     1     182.600 211.295 193.838  1.00  0.00    -0.452 OA
ATOM      8  C   UNL     1     182.222 213.525 194.505  1.00  0.00     0.094 A 
ATOM      9  C   UNL     1     181.415 214.473 195.144  1.00  0.00     0.119 A 
ATOM     10  C   UNL     1     180.202 214.080 195.723  1.00  0.00     0.047 A 
ATOM     11  C   UNL     1     179.793 212.744 195.666  1.00  0.00     0.020 A 
ENDROOT
BRANCH   1  12
ATOM     12  C   UNL     1     183.250 209.109 193.051  1.00  0.00     0.025 A 
ATOM     13  C   UNL     1     184.034 208.185 193.763  1.00  0.00     0.016 A 
ATOM     14  C   UNL     1     184.947 207.368 193.092  1.00  0.00     0.051 A 
ATOM     15  C   UNL     1     185.100 207.470 191.703  1.00  0.00     0.157 A 
ATOM     16  C   UNL     1     183.421 209.222 191.661  1.00  0.00     0.062 A 
ATOM     17  C   UNL     1     184.335 208.404 190.985  1.00  0.00     0.158 A 
BRANCH  15  18
ATOM     18  O   UNL     1     186.010 206.651 191.036  1.00  0.00    -0.504 OA
ATOM     19  H   UNL     1     186.703 207.033 190.404  1.00  0.00     0.293 HD
ENDBRANCH  15  18
BRANCH  17  20
ATOM     20  O   UNL     1     184.468 208.535 189.604  1.00  0.00    -0.504 OA
ATOM     21  H   UNL     1     183.907 209.187 189.068  1.00  0.00     0.293 HD
ENDBRANCH  17  20
ENDBRANCH   1  12
BRANCH   2  22
ATOM     22  O   UNL     1     180.712 208.190 194.127  1.00  0.00    -0.502 OA
ATOM     23  H   UNL     1     180.213 207.681 194.846  1.00  0.00     0.293 HD
ENDBRANCH   2  22
BRANCH   9  24
ATOM     24  O   UNL     1     181.829 215.802 195.196  1.00  0.00    -0.508 OA
ATOM     25  H   UNL     1     181.427 216.456 195.858  1.00  0.00     0.293 HD
ENDBRANCH   9  24
TORSDOF 5
ENDMDL
MODEL 5
REMARK VINA RESULT:    -6.588      3.870      5.760
REMARK INTER + INTRA:          -7.967
REMARK INTER:                  -7.840
REMARK INTRA:                  -0.127
REMARK UNBOUND:                -0.224
REMARK SMILES O=c1c(O)c(-c2ccc(O)c(O)c2)oc2cc(O)ccc12
REMARK SMILES IDX 5 1 3 2 2 3 1 4 21 5 15 6 14 7 16 8 17 9 19 10 20 11 6 12
REMARK SMILES IDX 7 13 8 14 9 15 13 16 11 17 10 18 12 20 4 22 18 24
REMARK H PARENT 10 19 12 21 4 23 18 25
REMARK Flexibility Score: inf
ROOT
ATOM      1  C   UNL     1     183.924 211.174 191.823  1.00  0.00     0.180 A 
ATOM      2  C   UNL     1     184.874 212.206 191.981  1.00  0.00     0.208 A 
ATOM      3  C   UNL     1     184.434 213.538 191.968  1.00  0.00     0.235 A 
ATOM      4  O   UNL     1     185.265 214.479 192.097  1.00  0.00    -0.285 OA
ATOM      5  C   UNL     1     183.065 213.811 191.820  1.00  0.00     0.069 A 
ATOM      6  C   UNL     1     182.175 212.722 191.692  1.00  0.00     0.142 A 
ATOM      7  O   UNL     1     182.634 211.476 191.700  1.00  0.00    -0.452 OA
ATOM      8  C   UNL     1     180.802 212.954 191.552  1.00  0.00     0.094 A 
ATOM      9  C   UNL     1     180.305 214.262 191.537  1.00  0.00     0.119 A 
ATOM     10  C   UNL     1     181.185 215.344 191.663  1.00  0.00     0.047 A 
ATOM     11  C   UNL     1     182.558 215.124 191.804  1.00  0.00     0.020 A 
ENDROOT
BRANCH   1  12
ATOM     12  C   UNL     1     184.312 209.745 191.807  1.00  0.00     0.025 A 
ATOM     13  C   UNL     1     184.927 209.141 192.916  1.00  0.00     0.016 A 
ATOM     14  C   UNL     1     185.305 207.796 192.869  1.00  0.00     0.051 A 
ATOM     15  C   UNL     1     185.087 207.041 191.709  1.00  0.00     0.157 A 
ATOM     16  C   UNL     1     184.113 208.990 190.639  1.00  0.00     0.062 A 
ATOM     17  C   UNL     1     184.490 207.642 190.588  1.00  0.00     0.158 A 
BRANCH  15  18
ATOM     18  O   UNL     1     185.463 205.699 191.666  1.00  0.00    -0.504 OA
ATOM     19  H   UNL     1     186.372 205.414 191.320  1.00  0.00     0.293 HD
ENDBRANCH  15  18
BRANCH  17  20
ATOM     20  O   UNL     1     184.266 206.920 189.417  1.00  0.00    -0.504 OA
ATOM     21  H   UNL     1     184.353 207.341 188.500  1.00  0.00     0.293 HD
ENDBRANCH  17  20
ENDBRANCH   1  12
BRANCH   2  22
ATOM     22  O   UNL     1     186.224 211.902 192.176  1.00  0.00    -0.502 OA
ATOM     23  H   UNL     1     186.874 212.562 192.582  1.00  0.00     0.293 HD
ENDBRANCH   2  22
BRANCH   9  24
ATOM     24  O   UNL     1     178.935 214.472 191.396  1.00  0.00    -0.508 OA
ATOM     25  H   UNL     1     178.541 215.406 191.396  1.00  0.00     0.293 HD
ENDBRANCH   9  24
TORSDOF 5
ENDMDL
MODEL 6
REMARK VINA RESULT:    -6.533      4.022      5.517
REMARK INTER + INTRA:          -7.903
REMARK INTER:                  -7.619
REMARK INTRA:                  -0.284
REMARK UNBOUND:                -0.224
REMARK SMILES O=c1c(O)c(-c2ccc(O)c(O)c2)oc2cc(O)ccc12
REMARK SMILES IDX 5 1 3 2 2 3 1 4 21 5 15 6 14 7 16 8 17 9 19 10 20 11 6 12
REMARK SMILES IDX 7 13 8 14 9 15 13 16 11 17 10 18 12 20 4 22 18 24
REMARK H PARENT 10 19 12 21 4 23 18 25
REMARK Flexibility Score: inf
ROOT
ATOM      1  C   UNL     1     183.296 210.685 193.729  1.00  0.00     0.180 A 
ATOM      2  C   UNL     1     184.250 211.461 194.422  1.00  0.00     0.208 A 
ATOM      3  C   UNL     1     183.818 212.281 195.476  1.00  0.00     0.235 A 
ATOM      4  O   UNL     1     184.650 212.992 196.105  1.00  0.00    -0.285 OA
ATOM      5  C   UNL     1     182.459 212.293 195.828  1.00  0.00     0.069 A 
ATOM      6  C   UNL     1     181.571 211.470 195.101  1.00  0.00     0.142 A 
ATOM      7  O   UNL     1     182.020 210.716 194.104  1.00  0.00    -0.452 OA
ATOM      8  C   UNL     1     180.211 211.449 195.428  1.00  0.00     0.094 A 
ATOM      9  C   UNL     1     179.723 212.242 196.472  1.00  0.00     0.119 A 
ATOM     10  C   UNL     1     180.601 213.060 197.194  1.00  0.00     0.047 A 
ATOM     11  C   UNL     1     181.962 213.089 196.877  1.00  0.00     0.020 A 
ENDROOT
BRANCH   1  12
ATOM     12  C   UNL     1     183.670 209.810 192.594  1.00  0.00     0.025 A 
ATOM     13  C   UNL     1     184.255 208.551 192.803  1.00  0.00     0.016 A 
ATOM     14  C   UNL     1     184.621 207.753 191.716  1.00  0.00     0.051 A 
ATOM     15  C   UNL     1     184.420 208.207 190.406  1.00  0.00     0.157 A 
ATOM     16  C   UNL     1     183.489 210.271 191.279  1.00  0.00     0.062 A 
ATOM     17  C   UNL     1     183.854 209.474 190.187  1.00  0.00     0.158 A 
BRANCH  15  18
ATOM     18  O   UNL     1     184.785 207.408 189.323  1.00  0.00    -0.504 OA
ATOM     19  H   UNL     1     184.571 207.676 188.370  1.00  0.00     0.293 HD
ENDBRANCH  15  18
BRANCH  17  20
ATOM     20  O   UNL     1     183.648 209.958 188.897  1.00  0.00    -0.504 OA
ATOM     21  H   UNL     1     184.413 210.265 188.308  1.00  0.00     0.293 HD
ENDBRANCH  17  20
ENDBRANCH   1  12
BRANCH   2  22
ATOM     22  O   UNL     1     185.602 211.390 194.082  1.00  0.00    -0.502 OA
ATOM     23  H   UNL     1     186.316 211.895 194.591  1.00  0.00     0.293 HD
ENDBRANCH   2  22
BRANCH   9  24
ATOM     24  O   UNL     1     178.366 212.207 196.782  1.00  0.00    -0.508 OA
ATOM     25  H   UNL     1     178.030 212.434 197.711  1.00  0.00     0.293 HD
ENDBRANCH   9  24
TORSDOF 5
ENDMDL
MODEL 7
REMARK VINA RESULT:    -6.467      5.023      6.369
REMARK INTER + INTRA:          -7.826
REMARK INTER:                  -7.604
REMARK INTRA:                  -0.222
REMARK UNBOUND:                -0.224
REMARK SMILES O=c1c(O)c(-c2ccc(O)c(O)c2)oc2cc(O)ccc12
REMARK SMILES IDX 5 1 3 2 2 3 1 4 21 5 15 6 14 7 16 8 17 9 19 10 20 11 6 12
REMARK SMILES IDX 7 13 8 14 9 15 13 16 11 17 10 18 12 20 4 22 18 24
REMARK H PARENT 10 19 12 21 4 23 18 25
REMARK Flexibility Score: inf
ROOT
ATOM      1  C   UNL     1     181.439 210.862 193.783  1.00  0.00     0.180 A 
ATOM      2  C   UNL     1     180.555 210.004 194.471  1.00  0.00     0.208 A 
ATOM      3  C   UNL     1     179.856 210.503 195.581  1.00  0.00     0.235 A 
ATOM      4  O   UNL     1     179.067 209.753 196.220  1.00  0.00    -0.285 OA
ATOM      5  C   UNL     1     180.035 211.841 195.965  1.00  0.00     0.069 A 
ATOM      6  C   UNL     1     180.920 212.641 195.210  1.00  0.00     0.142 A 
ATOM      7  O   UNL     1     181.570 212.127 194.172  1.00  0.00    -0.452 OA
ATOM      8  C   UNL     1     181.118 213.983 195.556  1.00  0.00     0.094 A 
ATOM      9  C   UNL     1     180.445 214.537 196.650  1.00  0.00     0.119 A 
ATOM     10  C   UNL     1     179.568 213.745 197.402  1.00  0.00     0.047 A 
ATOM     11  C   UNL     1     179.361 212.404 197.065  1.00  0.00     0.020 A 
ENDROOT
BRANCH   1  12
ATOM     12  C   UNL     1     182.227 210.405 192.616  1.00  0.00     0.025 A 
ATOM     13  C   UNL     1     181.906 210.815 191.311  1.00  0.00     0.016 A 
ATOM     14  C   UNL     1     182.650 210.352 190.222  1.00  0.00     0.051 A 
ATOM     15  C   UNL     1     183.714 209.463 190.419  1.00  0.00     0.157 A 
ATOM     16  C   UNL     1     183.282 209.497 192.807  1.00  0.00     0.062 A 
ATOM     17  C   UNL     1     184.030 209.031 191.719  1.00  0.00     0.158 A 
BRANCH  15  18
ATOM     18  O   UNL     1     184.455 209.004 189.331  1.00  0.00    -0.504 OA
ATOM     19  H   UNL     1     184.571 208.014 189.147  1.00  0.00     0.293 HD
ENDBRANCH  15  18
BRANCH  17  20
ATOM     20  O   UNL     1     185.078 208.142 191.948  1.00  0.00    -0.504 OA
ATOM     21  H   UNL     1     185.974 208.234 191.484  1.00  0.00     0.293 HD
ENDBRANCH  17  20
ENDBRANCH   1  12
BRANCH   2  22
ATOM     22  O   UNL     1     180.359 208.691 194.036  1.00  0.00    -0.502 OA
ATOM     23  H   UNL     1     181.010 208.224 193.417  1.00  0.00     0.293 HD
ENDBRANCH   2  22
BRANCH   9  24
ATOM     24  O   UNL     1     180.656 215.873 196.980  1.00  0.00    -0.508 OA
ATOM     25  H   UNL     1     179.992 216.390 197.545  1.00  0.00     0.293 HD
ENDBRANCH   9  24
TORSDOF 5
ENDMDL
MODEL 8
REMARK VINA RESULT:    -6.348      4.455      6.149
REMARK INTER + INTRA:          -7.685
REMARK INTER:                  -7.491
REMARK INTRA:                  -0.194
REMARK UNBOUND:                -0.224
REMARK SMILES O=c1c(O)c(-c2ccc(O)c(O)c2)oc2cc(O)ccc12
REMARK SMILES IDX 5 1 3 2 2 3 1 4 21 5 15 6 14 7 16 8 17 9 19 10 20 11 6 12
REMARK SMILES IDX 7 13 8 14 9 15 13 16 11 17 10 18 12 20 4 22 18 24
REMARK H PARENT 10 19 12 21 4 23 18 25
REMARK Flexibility Score: inf
ROOT
ATOM      1  C   UNL     1     182.469 211.149 191.943  1.00  0.00     0.180 A 
ATOM      2  C   UNL     1     181.188 211.177 192.533  1.00  0.00     0.208 A 
ATOM      3  C   UNL     1     180.487 212.393 192.569  1.00  0.00     0.235 A 
ATOM      4  O   UNL     1     179.343 212.446 193.101  1.00  0.00    -0.285 OA
ATOM      5  C   UNL     1     181.064 213.539 192.001  1.00  0.00     0.069 A 
ATOM      6  C   UNL     1     182.340 213.423 191.408  1.00  0.00     0.142 A 
ATOM      7  O   UNL     1     182.974 212.256 191.404  1.00  0.00    -0.452 OA
ATOM      8  C   UNL     1     182.944 214.541 190.824  1.00  0.00     0.094 A 
ATOM      9  C   UNL     1     182.291 215.778 190.825  1.00  0.00     0.119 A 
ATOM     10  C   UNL     1     181.026 215.897 191.414  1.00  0.00     0.047 A 
ATOM     11  C   UNL     1     180.412 214.786 192.000  1.00  0.00     0.020 A 
ENDROOT
BRANCH   1  12
ATOM     12  C   UNL     1     183.280 209.911 191.884  1.00  0.00     0.025 A 
ATOM     13  C   UNL     1     183.770 209.300 193.050  1.00  0.00     0.016 A 
ATOM     14  C   UNL     1     184.552 208.145 192.967  1.00  0.00     0.051 A 
ATOM     15  C   UNL     1     184.868 207.593 191.719  1.00  0.00     0.157 A 
ATOM     16  C   UNL     1     183.615 209.365 190.633  1.00  0.00     0.062 A 
ATOM     17  C   UNL     1     184.399 208.208 190.546  1.00  0.00     0.158 A 
BRANCH  15  18
ATOM     18  O   UNL     1     185.647 206.439 191.640  1.00  0.00    -0.504 OA
ATOM     19  H   UNL     1     185.417 205.686 191.003  1.00  0.00     0.293 HD
ENDBRANCH  15  18
BRANCH  17  20
ATOM     20  O   UNL     1     184.701 207.688 189.289  1.00  0.00    -0.504 OA
ATOM     21  H   UNL     1     185.405 206.970 189.158  1.00  0.00     0.293 HD
ENDBRANCH  17  20
ENDBRANCH   1  12
BRANCH   2  22
ATOM     22  O   UNL     1     180.619 210.010 193.046  1.00  0.00    -0.502 OA
ATOM     23  H   UNL     1     180.780 209.101 192.631  1.00  0.00     0.293 HD
ENDBRANCH   2  22
BRANCH   9  24
ATOM     24  O   UNL     1     182.908 216.880 190.239  1.00  0.00    -0.508 OA
ATOM     25  H   UNL     1     182.398 217.737 190.055  1.00  0.00     0.293 HD
ENDBRANCH   9  24
TORSDOF 5
ENDMDL
MODEL 9
REMARK VINA RESULT:    -6.274      5.735      8.735
REMARK INTER + INTRA:          -7.599
REMARK INTER:                  -7.287
REMARK INTRA:                  -0.312
REMARK UNBOUND:                -0.224
REMARK SMILES O=c1c(O)c(-c2ccc(O)c(O)c2)oc2cc(O)ccc12
REMARK SMILES IDX 5 1 3 2 2 3 1 4 21 5 15 6 14 7 16 8 17 9 19 10 20 11 6 12
REMARK SMILES IDX 7 13 8 14 9 15 13 16 11 17 10 18 12 20 4 22 18 24
REMARK H PARENT 10 19 12 21 4 23 18 25
REMARK Flexibility Score: inf
ROOT
ATOM      1  C   UNL     1     183.300 213.301 189.651  1.00  0.00     0.180 A 
ATOM      2  C   UNL     1     182.326 214.295 189.888  1.00  0.00     0.208 A 
ATOM      3  C   UNL     1     181.341 214.058 190.858  1.00  0.00     0.235 A 
ATOM      4  O   UNL     1     180.453 214.927 191.081  1.00  0.00    -0.285 OA
ATOM      5  C   UNL     1     181.359 212.855 191.581  1.00  0.00     0.069 A 
ATOM      6  C   UNL     1     182.381 211.922 191.302  1.00  0.00     0.142 A 
ATOM      7  O   UNL     1     183.290 212.181 190.368  1.00  0.00    -0.452 OA
ATOM      8  C   UNL     1     182.438 210.715 192.009  1.00  0.00     0.094 A 
ATOM      9  C   UNL     1     181.485 210.427 192.992  1.00  0.00     0.119 A 
ATOM     10  C   UNL     1     180.470 211.350 193.270  1.00  0.00     0.047 A 
ATOM     11  C   UNL     1     180.404 212.559 192.571  1.00  0.00     0.020 A 
ENDROOT
BRANCH   1  12
ATOM     12  C   UNL     1     184.360 213.467 188.631  1.00  0.00     0.025 A 
ATOM     13  C   UNL     1     185.559 214.138 188.924  1.00  0.00     0.016 A 
ATOM     14  C   UNL     1     186.536 214.303 187.938  1.00  0.00     0.051 A 
ATOM     15  C   UNL     1     186.323 213.814 186.643  1.00  0.00     0.157 A 
ATOM     16  C   UNL     1     184.142 212.996 187.325  1.00  0.00     0.062 A 
ATOM     17  C   UNL     1     185.118 213.160 186.335  1.00  0.00     0.158 A 
BRANCH  15  18
ATOM     18  O   UNL     1     187.300 213.978 185.662  1.00  0.00    -0.504 OA
ATOM     19  H   UNL     1     187.056 214.115 184.688  1.00  0.00     0.293 HD
ENDBRANCH  15  18
BRANCH  17  20
ATOM     20  O   UNL     1     184.872 212.668 185.054  1.00  0.00    -0.504 OA
ATOM     21  H   UNL     1     183.946 212.677 184.642  1.00  0.00     0.293 HD
ENDBRANCH  17  20
ENDBRANCH   1  12
BRANCH   2  22
ATOM     22  O   UNL     1     182.363 215.503 189.187  1.00  0.00    -0.502 OA
ATOM     23  H   UNL     1     182.626 216.376 189.626  1.00  0.00     0.293 HD
ENDBRANCH   2  22
BRANCH   9  24
ATOM     24  O   UNL     1     181.558 209.221 193.684  1.00  0.00    -0.508 OA
ATOM     25  H   UNL     1     181.031 208.408 193.387  1.00  0.00     0.293 HD
ENDBRANCH   9  24
TORSDOF 5
ENDMDL
