MODEL 1
REMARK VINA RESULT:    -3.093      0.000      0.000
REMARK INTER + INTRA:          -3.673
REMARK INTER:                  -3.636
REMARK INTRA:                  -0.037
REMARK UNBOUND:                -0.037
REMARK SMILES O=C([O-])CCC(=O)[O-]
REMARK SMILES IDX 4 1 2 2 1 3 3 4 5 5 6 6 7 7 8 8
REMARK H PARENT
REMARK Flexibility Score: inf
ROOT
ATOM      1  C   UNL     1      42.124  51.753   8.387  1.00  0.00     0.059 C 
ENDROOT
BRANCH   1   2
ATOM      2  C   UNL     1      40.874  52.408   8.883  1.00  0.00     0.042 C 
ATOM      3  O   UNL     1      39.801  51.752   8.953  1.00  0.00    -0.550 OA
ATOM      4  O   UNL     1      40.903  53.727   9.314  1.00  0.00    -0.550 OA
ENDBRANCH   1   2
BRANCH   1   5
ATOM      5  C   UNL     1      42.054  50.239   8.597  1.00  0.00     0.059 C 
BRANCH   5   6
ATOM      6  C   UNL     1      43.427  49.673   8.780  1.00  0.00     0.042 C 
ATOM      7  O   UNL     1      43.598  48.639   9.477  1.00  0.00    -0.550 OA
ATOM      8  O   UNL     1      44.524  50.315   8.219  1.00  0.00    -0.550 OA
ENDBRANCH   5   6
ENDBRANCH   1   5
TORSDOF 3
ENDMDL
MODEL 2
REMARK VINA RESULT:    -2.959      1.419      4.470
REMARK INTER + INTRA:          -3.514
REMARK INTER:                  -3.478
REMARK INTRA:                  -0.036
REMARK UNBOUND:                -0.037
REMARK SMILES O=C([O-])CCC(=O)[O-]
REMARK SMILES IDX 4 1 2 2 1 3 3 4 5 5 6 6 7 7 8 8
REMARK H PARENT
REMARK Flexibility Score: inf
ROOT
ATOM      1  C   UNL     1      43.791  49.872   8.508  1.00  0.00     0.059 C 
ENDROOT
BRANCH   1   2
ATOM      2  C   UNL     1      44.275  48.569   9.062  1.00  0.00     0.042 C 
ATOM      3  O   UNL     1      44.299  48.380  10.307  1.00  0.00    -0.550 OA
ATOM      4  O   UNL     1      44.653  47.545   8.203  1.00  0.00    -0.550 OA
ENDBRANCH   1   2
BRANCH   1   5
ATOM      5  C   UNL     1      42.268  49.968   8.623  1.00  0.00     0.059 C 
BRANCH   5   6
ATOM      6  C   UNL     1      41.826  51.394   8.523  1.00  0.00     0.042 C 
ATOM      7  O   UNL     1      42.576  52.254   7.991  1.00  0.00    -0.550 OA
ATOM      8  O   UNL     1      40.605  51.783   9.060  1.00  0.00    -0.550 OA
ENDBRANCH   5   6
ENDBRANCH   1   5
TORSDOF 3
ENDMDL
MODEL 3
REMARK VINA RESULT:    -2.877     18.578     19.448
REMARK INTER + INTRA:          -3.419
REMARK INTER:                  -3.364
REMARK INTRA:                  -0.055
REMARK UNBOUND:                -0.037
REMARK SMILES O=C([O-])CCC(=O)[O-]
REMARK SMILES IDX 4 1 2 2 1 3 3 4 5 5 6 6 7 7 8 8
REMARK H PARENT
REMARK Flexibility Score: inf
ROOT
ATOM      1  C   UNL     1      31.182  51.415  23.982  1.00  0.00     0.059 C 
ENDROOT
BRANCH   1   2
ATOM      2  C   UNL     1      31.967  50.612  24.971  1.00  0.00     0.042 C 
ATOM      3  O   UNL     1      31.506  50.405  26.125  1.00  0.00    -0.550 OA
ATOM      4  O   UNL     1      33.183  50.052  24.604  1.00  0.00    -0.550 OA
ENDBRANCH   1   2
BRANCH   1   5
ATOM      5  C   UNL     1      30.524  52.613  24.668  1.00  0.00     0.059 C 
BRANCH   5   6
ATOM      6  C   UNL     1      31.373  53.835  24.511  1.00  0.00     0.042 C 
ATOM      7  O   UNL     1      30.960  54.810  23.830  1.00  0.00    -0.550 OA
ATOM      8  O   UNL     1      32.640  53.879  25.078  1.00  0.00    -0.550 OA
ENDBRANCH   5   6
ENDBRANCH   1   5
TORSDOF 3
ENDMDL
MODEL 4
REMARK VINA RESULT:    -2.862     18.484     19.201
REMARK INTER + INTRA:          -3.401
REMARK INTER:                  -3.304
REMARK INTRA:                  -0.097
REMARK UNBOUND:                -0.037
REMARK SMILES O=C([O-])CCC(=O)[O-]
REMARK SMILES IDX 4 1 2 2 1 3 3 4 5 5 6 6 7 7 8 8
REMARK H PARENT
REMARK Flexibility Score: inf
ROOT
ATOM      1  C   UNL     1      30.478  52.551  24.690  1.00  0.00     0.059 C 
ENDROOT
BRANCH   1   2
ATOM      2  C   UNL     1      31.297  53.803  24.715  1.00  0.00     0.042 C 
ATOM      3  O   UNL     1      32.215  53.942  25.566  1.00  0.00    -0.550 OA
ATOM      4  O   UNL     1      31.080  54.795  23.768  1.00  0.00    -0.550 OA
ENDBRANCH   1   2
BRANCH   1   5
ATOM      5  C   UNL     1      31.208  51.450  23.919  1.00  0.00     0.059 C 
BRANCH   5   6
ATOM      6  C   UNL     1      31.982  50.579  24.857  1.00  0.00     0.042 C 
ATOM      7  O   UNL     1      31.524  50.316  26.000  1.00  0.00    -0.550 OA
ATOM      8  O   UNL     1      33.231  50.097  24.488  1.00  0.00    -0.550 OA
ENDBRANCH   5   6
ENDBRANCH   1   5
TORSDOF 3
ENDMDL
MODEL 5
REMARK VINA RESULT:    -2.831     19.127     19.936
REMARK INTER + INTRA:          -3.364
REMARK INTER:                  -3.185
REMARK INTRA:                  -0.179
REMARK UNBOUND:                -0.037
REMARK SMILES O=C([O-])CCC(=O)[O-]
REMARK SMILES IDX 4 1 2 2 1 3 3 4 5 5 6 6 7 7 8 8
REMARK H PARENT
REMARK Flexibility Score: inf
ROOT
ATOM      1  C   UNL     1      31.658  53.328  25.700  1.00  0.00     0.059 C 
ENDROOT
BRANCH   1   2
ATOM      2  C   UNL     1      30.767  54.301  24.995  1.00  0.00     0.042 C 
ATOM      3  O   UNL     1      31.098  54.763  23.871  1.00  0.00    -0.550 OA
ATOM      4  O   UNL     1      29.548  54.660  25.555  1.00  0.00    -0.550 OA
ENDBRANCH   1   2
BRANCH   1   5
ATOM      5  C   UNL     1      31.851  52.068  24.853  1.00  0.00     0.059 C 
BRANCH   5   6
ATOM      6  C   UNL     1      30.541  51.378  24.640  1.00  0.00     0.042 C 
ATOM      7  O   UNL     1      30.071  51.256  23.478  1.00  0.00    -0.550 OA
ATOM      8  O   UNL     1      29.816  50.910  25.729  1.00  0.00    -0.550 OA
ENDBRANCH   5   6
ENDBRANCH   1   5
TORSDOF 3
ENDMDL
MODEL 6
REMARK VINA RESULT:    -2.823     10.264     11.779
REMARK INTER + INTRA:          -3.355
REMARK INTER:                  -3.229
REMARK INTRA:                  -0.126
REMARK UNBOUND:                -0.037
REMARK SMILES O=C([O-])CCC(=O)[O-]
REMARK SMILES IDX 4 1 2 2 1 3 3 4 5 5 6 6 7 7 8 8
REMARK H PARENT
REMARK Flexibility Score: inf
ROOT
ATOM      1  C   UNL     1      31.771  48.260   7.205  1.00  0.00     0.059 C 
ENDROOT
BRANCH   1   2
ATOM      2  C   UNL     1      31.828  49.674   7.690  1.00  0.00     0.042 C 
ATOM      3  O   UNL     1      32.927  50.287   7.727  1.00  0.00    -0.550 OA
ATOM      4  O   UNL     1      30.660  50.332   8.055  1.00  0.00    -0.550 OA
ENDBRANCH   1   2
BRANCH   1   5
ATOM      5  C   UNL     1      31.721  47.291   8.388  1.00  0.00     0.059 C 
BRANCH   5   6
ATOM      6  C   UNL     1      30.318  46.828   8.624  1.00  0.00     0.042 C 
ATOM      7  O   UNL     1      29.858  45.846   7.985  1.00  0.00    -0.550 OA
ATOM      8  O   UNL     1      29.501  47.511   9.517  1.00  0.00    -0.550 OA
ENDBRANCH   5   6
ENDBRANCH   1   5
TORSDOF 3
ENDMDL
MODEL 7
REMARK VINA RESULT:    -2.799     19.120     20.098
REMARK INTER + INTRA:          -3.327
REMARK INTER:                  -3.165
REMARK INTRA:                  -0.161
REMARK UNBOUND:                -0.037
REMARK SMILES O=C([O-])CCC(=O)[O-]
REMARK SMILES IDX 4 1 2 2 1 3 3 4 5 5 6 6 7 7 8 8
REMARK H PARENT
REMARK Flexibility Score: inf
ROOT
ATOM      1  C   UNL     1      31.929  52.315  24.958  1.00  0.00     0.059 C 
ENDROOT
BRANCH   1   2
ATOM      2  C   UNL     1      30.788  51.370  24.749  1.00  0.00     0.042 C 
ATOM      3  O   UNL     1      30.318  50.721  25.720  1.00  0.00    -0.550 OA
ATOM      4  O   UNL     1      30.212  51.241  23.492  1.00  0.00    -0.550 OA
ENDBRANCH   1   2
BRANCH   1   5
ATOM      5  C   UNL     1      31.468  53.543  25.746  1.00  0.00     0.059 C 
BRANCH   5   6
ATOM      6  C   UNL     1      30.635  54.436  24.882  1.00  0.00     0.042 C 
ATOM      7  O   UNL     1      31.079  54.839  23.775  1.00  0.00    -0.550 OA
ATOM      8  O   UNL     1      29.388  54.862  25.320  1.00  0.00    -0.550 OA
ENDBRANCH   5   6
ENDBRANCH   1   5
TORSDOF 3
ENDMDL
MODEL 8
REMARK VINA RESULT:    -2.791     18.212     18.839
REMARK INTER + INTRA:          -3.318
REMARK INTER:                  -3.266
REMARK INTRA:                  -0.052
REMARK UNBOUND:                -0.037
REMARK SMILES O=C([O-])CCC(=O)[O-]
REMARK SMILES IDX 4 1 2 2 1 3 3 4 5 5 6 6 7 7 8 8
REMARK H PARENT
REMARK Flexibility Score: inf
ROOT
ATOM      1  C   UNL     1      32.251  51.371  25.013  1.00  0.00     0.059 C 
ENDROOT
BRANCH   1   2
ATOM      2  C   UNL     1      30.929  51.441  24.317  1.00  0.00     0.042 C 
ATOM      3  O   UNL     1      30.866  51.800  23.112  1.00  0.00    -0.550 OA
ATOM      4  O   UNL     1      29.771  51.062  24.984  1.00  0.00    -0.550 OA
ENDBRANCH   1   2
BRANCH   1   5
ATOM      5  C   UNL     1      32.425  50.013  25.696  1.00  0.00     0.059 C 
BRANCH   5   6
ATOM      6  C   UNL     1      33.595  49.283  25.116  1.00  0.00     0.042 C 
ATOM      7  O   UNL     1      34.620  49.916  24.753  1.00  0.00    -0.550 OA
ATOM      8  O   UNL     1      33.534  47.907  24.933  1.00  0.00    -0.550 OA
ENDBRANCH   5   6
ENDBRANCH   1   5
TORSDOF 3
ENDMDL
MODEL 9
REMARK VINA RESULT:    -2.774     10.342     11.986
REMARK INTER + INTRA:          -3.298
REMARK INTER:                  -3.173
REMARK INTRA:                  -0.125
REMARK UNBOUND:                -0.037
REMARK SMILES O=C([O-])CCC(=O)[O-]
REMARK SMILES IDX 4 1 2 2 1 3 3 4 5 5 6 6 7 7 8 8
REMARK H PARENT
REMARK Flexibility Score: inf
ROOT
ATOM      1  C   UNL     1      31.592  47.331   8.383  1.00  0.00     0.059 C 
ENDROOT
BRANCH   1   2
ATOM      2  C   UNL     1      30.187  46.885   8.637  1.00  0.00     0.042 C 
ATOM      3  O   UNL     1      29.727  45.874   8.044  1.00  0.00    -0.550 OA
ATOM      4  O   UNL     1      29.401  47.556   9.564  1.00  0.00    -0.550 OA
ENDBRANCH   1   2
BRANCH   1   5
ATOM      5  C   UNL     1      31.636  48.324   7.220  1.00  0.00     0.059 C 
BRANCH   5   6
ATOM      6  C   UNL     1      31.737  49.726   7.733  1.00  0.00     0.042 C 
ATOM      7  O   UNL     1      32.860  50.287   7.827  1.00  0.00    -0.550 OA
ATOM      8  O   UNL     1      30.594  50.396   8.152  1.00  0.00    -0.550 OA
ENDBRANCH   5   6
ENDBRANCH   1   5
TORSDOF 3
ENDMDL
