MODEL 1
REMARK VINA RESULT:    -4.539      0.000      0.000
REMARK INTER + INTRA:          -9.830
REMARK INTER:                  -8.520
REMARK INTRA:                  -1.310
REMARK UNBOUND:                -1.310
REMARK SMILES CCCCCCCCC=CCCCCCCCC(=O)[O-]
REMARK SMILES IDX 10 1 9 2 11 3 12 4 13 5 14 6 15 7 16 8 17 9 18 10 19 11
REMARK SMILES IDX 20 12 8 13 7 14 6 15 5 16 4 17 3 18 2 19 1 20
REMARK H PARENT
REMARK Flexibility Score: inf
ROOT
ATOM      1  C   UNL     1     131.195 132.984 130.455  1.00  0.00    -0.031 C 
ATOM      2  C   UNL     1     132.190 133.423 131.241  1.00  0.00    -0.031 C 
ENDROOT
BRANCH   1   3
ATOM      3  C   UNL     1     131.463 132.375 129.109  1.00  0.00     0.027 C 
BRANCH   3   4
ATOM      4  C   UNL     1     130.504 132.943 128.056  1.00  0.00     0.004 C 
BRANCH   4   5
ATOM      5  C   UNL     1     129.042 132.630 128.405  1.00  0.00     0.000 C 
BRANCH   5   6
ATOM      6  C   UNL     1     128.253 132.070 127.217  1.00  0.00     0.000 C 
BRANCH   6   7
ATOM      7  C   UNL     1     129.075 131.116 126.326  1.00  0.00     0.000 C 
BRANCH   7   8
ATOM      8  C   UNL     1     128.297 130.554 125.114  1.00  0.00     0.006 C 
BRANCH   8   9
ATOM      9  C   UNL     1     128.815 131.060 123.760  1.00  0.00     0.053 C 
BRANCH   9  10
ATOM     10  C   UNL     1     129.400 129.957 122.938  1.00  0.00     0.041 C 
ATOM     11  O   UNL     1     128.655 129.217 122.245  1.00  0.00    -0.550 OA
ATOM     12  O   UNL     1     130.775 129.766 122.912  1.00  0.00    -0.550 OA
ENDBRANCH   9  10
ENDBRANCH   8   9
ENDBRANCH   7   8
ENDBRANCH   6   7
ENDBRANCH   5   6
ENDBRANCH   4   5
ENDBRANCH   3   4
ENDBRANCH   1   3
BRANCH   2  13
ATOM     13  C   UNL     1     131.936 133.950 132.629  1.00  0.00     0.027 C 
BRANCH  13  14
ATOM     14  C   UNL     1     133.175 133.776 133.521  1.00  0.00     0.004 C 
BRANCH  14  15
ATOM     15  C   UNL     1     133.916 135.092 133.804  1.00  0.00     0.000 C 
BRANCH  15  16
ATOM     16  C   UNL     1     132.994 136.206 134.338  1.00  0.00     0.000 C 
BRANCH  16  17
ATOM     17  C   UNL     1     133.142 137.507 133.539  1.00  0.00    -0.000 C 
BRANCH  17  18
ATOM     18  C   UNL     1     132.851 137.299 132.041  1.00  0.00    -0.000 C 
BRANCH  18  19
ATOM     19  C   UNL     1     131.481 137.836 131.604  1.00  0.00    -0.003 C 
ATOM     20  C   UNL     1     130.775 136.924 130.605  1.00  0.00     0.004 C 
ENDBRANCH  18  19
ENDBRANCH  17  18
ENDBRANCH  16  17
ENDBRANCH  15  16
ENDBRANCH  14  15
ENDBRANCH  13  14
ENDBRANCH   2  13
TORSDOF 15
ENDMDL
MODEL 2
REMARK VINA RESULT:    -4.513      4.651      8.675
REMARK INTER + INTRA:          -9.780
REMARK INTER:                  -7.891
REMARK INTRA:                  -1.889
REMARK UNBOUND:                -1.310
REMARK SMILES CCCCCCCCC=CCCCCCCCC(=O)[O-]
REMARK SMILES IDX 10 1 9 2 11 3 12 4 13 5 14 6 15 7 16 8 17 9 18 10 19 11
REMARK SMILES IDX 20 12 8 13 7 14 6 15 5 16 4 17 3 18 2 19 1 20
REMARK H PARENT
REMARK Flexibility Score: inf
ROOT
ATOM      1  C   UNL     1     131.110 135.484 130.149  1.00  0.00    -0.031 C 
ATOM      2  C   UNL     1     131.003 134.301 130.772  1.00  0.00    -0.031 C 
ENDROOT
BRANCH   1   3
ATOM      3  C   UNL     1     130.573 136.748 130.758  1.00  0.00     0.027 C 
BRANCH   3   4
ATOM      4  C   UNL     1     131.709 137.739 131.042  1.00  0.00     0.004 C 
BRANCH   4   5
ATOM      5  C   UNL     1     131.938 137.908 132.550  1.00  0.00     0.000 C 
BRANCH   5   6
ATOM      6  C   UNL     1     133.334 137.458 132.994  1.00  0.00     0.000 C 
BRANCH   6   7
ATOM      7  C   UNL     1     133.541 135.931 132.924  1.00  0.00     0.000 C 
BRANCH   7   8
ATOM      8  C   UNL     1     132.696 135.132 133.942  1.00  0.00     0.006 C 
BRANCH   8   9
ATOM      9  C   UNL     1     132.850 133.609 133.812  1.00  0.00     0.053 C 
BRANCH   9  10
ATOM     10  C   UNL     1     133.387 132.993 135.063  1.00  0.00     0.041 C 
ATOM     11  O   UNL     1     134.520 132.446 135.067  1.00  0.00    -0.550 OA
ATOM     12  O   UNL     1     132.648 133.052 136.237  1.00  0.00    -0.550 OA
ENDBRANCH   9  10
ENDBRANCH   8   9
ENDBRANCH   7   8
ENDBRANCH   6   7
ENDBRANCH   5   6
ENDBRANCH   4   5
ENDBRANCH   3   4
ENDBRANCH   1   3
BRANCH   2  13
ATOM     13  C   UNL     1     131.618 133.046 130.211  1.00  0.00     0.027 C 
BRANCH  13  14
ATOM     14  C   UNL     1     130.871 132.578 128.953  1.00  0.00     0.004 C 
BRANCH  14  15
ATOM     15  C   UNL     1     130.170 131.222 129.125  1.00  0.00     0.000 C 
BRANCH  15  16
ATOM     16  C   UNL     1     129.468 130.733 127.843  1.00  0.00     0.000 C 
BRANCH  16  17
ATOM     17  C   UNL     1     128.698 131.861 127.143  1.00  0.00    -0.000 C 
BRANCH  17  18
ATOM     18  C   UNL     1     127.514 132.362 127.991  1.00  0.00    -0.000 C 
BRANCH  18  19
ATOM     19  C   UNL     1     127.218 133.857 127.804  1.00  0.00    -0.003 C 
ATOM     20  C   UNL     1     127.775 134.720 128.933  1.00  0.00     0.004 C 
ENDBRANCH  18  19
ENDBRANCH  17  18
ENDBRANCH  16  17
ENDBRANCH  15  16
ENDBRANCH  14  15
ENDBRANCH  13  14
ENDBRANCH   2  13
TORSDOF 15
ENDMDL
MODEL 3
REMARK VINA RESULT:    -4.499      2.780      5.239
REMARK INTER + INTRA:          -9.754
REMARK INTER:                  -8.204
REMARK INTRA:                  -1.550
REMARK UNBOUND:                -1.310
REMARK SMILES CCCCCCCCC=CCCCCCCCC(=O)[O-]
REMARK SMILES IDX 10 1 9 2 11 3 12 4 13 5 14 6 15 7 16 8 17 9 18 10 19 11
REMARK SMILES IDX 20 12 8 13 7 14 6 15 5 16 4 17 3 18 2 19 1 20
REMARK H PARENT
REMARK Flexibility Score: inf
ROOT
ATOM      1  C   UNL     1     132.121 136.988 132.347  1.00  0.00    -0.031 C 
ATOM      2  C   UNL     1     133.437 136.731 132.386  1.00  0.00    -0.031 C 
ENDROOT
BRANCH   1   3
ATOM      3  C   UNL     1     131.506 137.786 131.235  1.00  0.00     0.027 C 
BRANCH   3   4
ATOM      4  C   UNL     1     130.467 136.951 130.477  1.00  0.00     0.004 C 
BRANCH   4   5
ATOM      5  C   UNL     1     130.520 135.476 130.900  1.00  0.00     0.000 C 
BRANCH   5   6
ATOM      6  C   UNL     1     131.405 134.626 129.981  1.00  0.00     0.000 C 
BRANCH   6   7
ATOM      7  C   UNL     1     131.504 133.149 130.415  1.00  0.00     0.000 C 
BRANCH   7   8
ATOM      8  C   UNL     1     131.141 132.139 129.303  1.00  0.00     0.006 C 
BRANCH   8   9
ATOM      9  C   UNL     1     130.277 132.737 128.183  1.00  0.00     0.053 C 
BRANCH   9  10
ATOM     10  C   UNL     1     129.127 131.850 127.831  1.00  0.00     0.041 C 
ATOM     11  O   UNL     1     129.186 130.613 128.054  1.00  0.00    -0.550 OA
ATOM     12  O   UNL     1     127.973 132.395 127.285  1.00  0.00    -0.550 OA
ENDBRANCH   9  10
ENDBRANCH   8   9
ENDBRANCH   7   8
ENDBRANCH   6   7
ENDBRANCH   5   6
ENDBRANCH   4   5
ENDBRANCH   3   4
ENDBRANCH   1   3
BRANCH   2  13
ATOM     13  C   UNL     1     134.047 135.854 133.449  1.00  0.00     0.027 C 
BRANCH  13  14
ATOM     14  C   UNL     1     133.471 134.431 133.390  1.00  0.00     0.004 C 
BRANCH  14  15
ATOM     15  C   UNL     1     132.395 134.162 134.452  1.00  0.00     0.000 C 
BRANCH  15  16
ATOM     16  C   UNL     1     132.019 132.671 134.573  1.00  0.00     0.000 C 
BRANCH  16  17
ATOM     17  C   UNL     1     130.688 132.356 133.880  1.00  0.00    -0.000 C 
BRANCH  17  18
ATOM     18  C   UNL     1     129.928 131.215 134.584  1.00  0.00    -0.000 C 
BRANCH  18  19
ATOM     19  C   UNL     1     128.754 131.703 135.443  1.00  0.00    -0.003 C 
ATOM     20  C   UNL     1     129.061 131.684 136.938  1.00  0.00     0.004 C 
ENDBRANCH  18  19
ENDBRANCH  17  18
ENDBRANCH  16  17
ENDBRANCH  15  16
ENDBRANCH  14  15
ENDBRANCH  13  14
ENDBRANCH   2  13
TORSDOF 15
ENDMDL
MODEL 4
REMARK VINA RESULT:    -4.498      3.996      9.506
REMARK INTER + INTRA:          -9.753
REMARK INTER:                  -8.942
REMARK INTRA:                  -0.811
REMARK UNBOUND:                -1.310
REMARK SMILES CCCCCCCCC=CCCCCCCCC(=O)[O-]
REMARK SMILES IDX 10 1 9 2 11 3 12 4 13 5 14 6 15 7 16 8 17 9 18 10 19 11
REMARK SMILES IDX 20 12 8 13 7 14 6 15 5 16 4 17 3 18 2 19 1 20
REMARK H PARENT
REMARK Flexibility Score: inf
ROOT
ATOM      1  C   UNL     1     130.326 132.327 128.632  1.00  0.00    -0.031 C 
ATOM      2  C   UNL     1     129.253 132.546 127.858  1.00  0.00    -0.031 C 
ENDROOT
BRANCH   1   3
ATOM      3  C   UNL     1     130.987 133.437 129.397  1.00  0.00     0.027 C 
BRANCH   3   4
ATOM      4  C   UNL     1     130.022 134.613 129.591  1.00  0.00     0.004 C 
BRANCH   4   5
ATOM      5  C   UNL     1     130.451 135.498 130.770  1.00  0.00     0.000 C 
BRANCH   5   6
ATOM      6  C   UNL     1     130.679 136.958 130.365  1.00  0.00     0.000 C 
BRANCH   6   7
ATOM      7  C   UNL     1     131.055 137.875 131.547  1.00  0.00     0.000 C 
BRANCH   7   8
ATOM      8  C   UNL     1     132.576 137.995 131.795  1.00  0.00     0.006 C 
BRANCH   8   9
ATOM      9  C   UNL     1     133.071 137.183 133.002  1.00  0.00     0.053 C 
BRANCH   9  10
ATOM     10  C   UNL     1     133.418 135.779 132.626  1.00  0.00     0.041 C 
ATOM     11  O   UNL     1     134.021 135.540 131.547  1.00  0.00    -0.550 OA
ATOM     12  O   UNL     1     133.104 134.734 133.483  1.00  0.00    -0.550 OA
ENDBRANCH   9  10
ENDBRANCH   8   9
ENDBRANCH   7   8
ENDBRANCH   6   7
ENDBRANCH   5   6
ENDBRANCH   4   5
ENDBRANCH   3   4
ENDBRANCH   1   3
BRANCH   2  13
ATOM     13  C   UNL     1     128.530 131.424 127.160  1.00  0.00     0.027 C 
BRANCH  13  14
ATOM     14  C   UNL     1     129.277 130.990 125.890  1.00  0.00     0.004 C 
BRANCH  14  15
ATOM     15  C   UNL     1     128.353 130.752 124.687  1.00  0.00     0.000 C 
BRANCH  15  16
ATOM     16  C   UNL     1     129.118 130.484 123.375  1.00  0.00     0.000 C 
BRANCH  16  17
ATOM     17  C   UNL     1     130.637 130.463 123.589  1.00  0.00    -0.000 C 
BRANCH  17  18
ATOM     18  C   UNL     1     131.399 130.981 122.355  1.00  0.00    -0.000 C 
BRANCH  18  19
ATOM     19  C   UNL     1     132.863 131.340 122.647  1.00  0.00    -0.003 C 
ATOM     20  C   UNL     1     133.278 132.681 122.046  1.00  0.00     0.004 C 
ENDBRANCH  18  19
ENDBRANCH  17  18
ENDBRANCH  16  17
ENDBRANCH  15  16
ENDBRANCH  14  15
ENDBRANCH  13  14
ENDBRANCH   2  13
TORSDOF 15
ENDMDL
MODEL 5
REMARK VINA RESULT:    -4.492     11.821     14.125
REMARK INTER + INTRA:          -9.740
REMARK INTER:                  -7.834
REMARK INTRA:                  -1.906
REMARK UNBOUND:                -1.310
REMARK SMILES CCCCCCCCC=CCCCCCCCC(=O)[O-]
REMARK SMILES IDX 10 1 9 2 11 3 12 4 13 5 14 6 15 7 16 8 17 9 18 10 19 11
REMARK SMILES IDX 20 12 8 13 7 14 6 15 5 16 4 17 3 18 2 19 1 20
REMARK H PARENT
REMARK Flexibility Score: inf
ROOT
ATOM      1  C   UNL     1     123.422 118.882 132.382  1.00  0.00    -0.031 C 
ATOM      2  C   UNL     1     122.098 118.990 132.195  1.00  0.00    -0.031 C 
ENDROOT
BRANCH   1   3
ATOM      3  C   UNL     1     124.253 117.913 131.592  1.00  0.00     0.027 C 
BRANCH   3   4
ATOM      4  C   UNL     1     125.140 118.654 130.584  1.00  0.00     0.004 C 
BRANCH   4   5
ATOM      5  C   UNL     1     125.269 120.142 130.942  1.00  0.00     0.000 C 
BRANCH   5   6
ATOM      6  C   UNL     1     124.978 121.067 129.755  1.00  0.00     0.000 C 
BRANCH   6   7
ATOM      7  C   UNL     1     124.280 122.383 130.155  1.00  0.00     0.000 C 
BRANCH   7   8
ATOM      8  C   UNL     1     124.801 123.628 129.403  1.00  0.00     0.006 C 
BRANCH   8   9
ATOM      9  C   UNL     1     125.523 123.299 128.088  1.00  0.00     0.053 C 
BRANCH   9  10
ATOM     10  C   UNL     1     126.764 124.113 127.912  1.00  0.00     0.041 C 
ATOM     11  O   UNL     1     127.800 123.594 127.422  1.00  0.00    -0.550 OA
ATOM     12  O   UNL     1     126.766 125.457 128.260  1.00  0.00    -0.550 OA
ENDBRANCH   9  10
ENDBRANCH   8   9
ENDBRANCH   7   8
ENDBRANCH   6   7
ENDBRANCH   5   6
ENDBRANCH   4   5
ENDBRANCH   3   4
ENDBRANCH   1   3
BRANCH   2  13
ATOM     13  C   UNL     1     121.272 120.022 132.918  1.00  0.00     0.027 C 
BRANCH  13  14
ATOM     14  C   UNL     1     121.805 121.439 132.655  1.00  0.00     0.004 C 
BRANCH  14  15
ATOM     15  C   UNL     1     122.339 122.136 133.916  1.00  0.00     0.000 C 
BRANCH  15  16
ATOM     16  C   UNL     1     123.849 121.919 134.137  1.00  0.00     0.000 C 
BRANCH  16  17
ATOM     17  C   UNL     1     124.682 123.094 133.610  1.00  0.00    -0.000 C 
BRANCH  17  18
ATOM     18  C   UNL     1     125.503 123.765 134.727  1.00  0.00    -0.000 C 
BRANCH  18  19
ATOM     19  C   UNL     1     125.096 125.221 134.994  1.00  0.00    -0.003 C 
ATOM     20  C   UNL     1     123.725 125.344 135.654  1.00  0.00     0.004 C 
ENDBRANCH  18  19
ENDBRANCH  17  18
ENDBRANCH  16  17
ENDBRANCH  15  16
ENDBRANCH  14  15
ENDBRANCH  13  14
ENDBRANCH   2  13
TORSDOF 15
ENDMDL
MODEL 6
REMARK VINA RESULT:    -4.402      5.018      8.295
REMARK INTER + INTRA:          -9.572
REMARK INTER:                  -8.239
REMARK INTRA:                  -1.333
REMARK UNBOUND:                -1.310
REMARK SMILES CCCCCCCCC=CCCCCCCCC(=O)[O-]
REMARK SMILES IDX 10 1 9 2 11 3 12 4 13 5 14 6 15 7 16 8 17 9 18 10 19 11
REMARK SMILES IDX 20 12 8 13 7 14 6 15 5 16 4 17 3 18 2 19 1 20
REMARK H PARENT
REMARK Flexibility Score: inf
ROOT
ATOM      1  C   UNL     1     131.937 133.526 132.883  1.00  0.00    -0.031 C 
ATOM      2  C   UNL     1     132.216 134.800 132.568  1.00  0.00    -0.031 C 
ENDROOT
BRANCH   1   3
ATOM      3  C   UNL     1     132.157 132.990 134.268  1.00  0.00     0.027 C 
BRANCH   3   4
ATOM      4  C   UNL     1     131.979 134.097 135.314  1.00  0.00     0.004 C 
BRANCH   4   5
ATOM      5  C   UNL     1     130.864 133.749 136.311  1.00  0.00     0.000 C 
BRANCH   5   6
ATOM      6  C   UNL     1     130.553 132.249 136.355  1.00  0.00     0.000 C 
BRANCH   6   7
ATOM      7  C   UNL     1     129.105 131.907 135.949  1.00  0.00     0.000 C 
BRANCH   7   8
ATOM      8  C   UNL     1     128.547 130.628 136.613  1.00  0.00     0.006 C 
BRANCH   8   9
ATOM      9  C   UNL     1     127.580 129.838 135.718  1.00  0.00     0.053 C 
BRANCH   9  10
ATOM     10  C   UNL     1     128.267 128.719 135.004  1.00  0.00     0.041 C 
ATOM     11  O   UNL     1     129.507 128.548 135.135  1.00  0.00    -0.550 OA
ATOM     12  O   UNL     1     127.531 127.842 134.219  1.00  0.00    -0.550 OA
ENDBRANCH   9  10
ENDBRANCH   8   9
ENDBRANCH   7   8
ENDBRANCH   6   7
ENDBRANCH   5   6
ENDBRANCH   4   5
ENDBRANCH   3   4
ENDBRANCH   1   3
BRANCH   2  13
ATOM     13  C   UNL     1     131.912 135.370 131.207  1.00  0.00     0.027 C 
BRANCH  13  14
ATOM     14  C   UNL     1     130.695 134.676 130.577  1.00  0.00     0.004 C 
BRANCH  14  15
ATOM     15  C   UNL     1     131.014 133.960 129.256  1.00  0.00     0.000 C 
BRANCH  15  16
ATOM     16  C   UNL     1     131.328 132.461 129.437  1.00  0.00     0.000 C 
BRANCH  16  17
ATOM     17  C   UNL     1     130.226 131.567 128.855  1.00  0.00    -0.000 C 
BRANCH  17  18
ATOM     18  C   UNL     1     129.490 132.250 127.685  1.00  0.00    -0.000 C 
BRANCH  18  19
ATOM     19  C   UNL     1     127.968 132.312 127.874  1.00  0.00    -0.003 C 
ATOM     20  C   UNL     1     127.449 133.736 128.059  1.00  0.00     0.004 C 
ENDBRANCH  18  19
ENDBRANCH  17  18
ENDBRANCH  16  17
ENDBRANCH  15  16
ENDBRANCH  14  15
ENDBRANCH  13  14
ENDBRANCH   2  13
TORSDOF 15
ENDMDL
MODEL 7
REMARK VINA RESULT:    -4.354      5.428      8.129
REMARK INTER + INTRA:          -9.481
REMARK INTER:                  -8.135
REMARK INTRA:                  -1.346
REMARK UNBOUND:                -1.310
REMARK SMILES CCCCCCCCC=CCCCCCCCC(=O)[O-]
REMARK SMILES IDX 10 1 9 2 11 3 12 4 13 5 14 6 15 7 16 8 17 9 18 10 19 11
REMARK SMILES IDX 20 12 8 13 7 14 6 15 5 16 4 17 3 18 2 19 1 20
REMARK H PARENT
REMARK Flexibility Score: inf
ROOT
ATOM      1  C   UNL     1     131.125 133.340 135.124  1.00  0.00    -0.031 C 
ATOM      2  C   UNL     1     131.633 133.093 133.907  1.00  0.00    -0.031 C 
ENDROOT
BRANCH   1   3
ATOM      3  C   UNL     1     130.328 132.310 135.870  1.00  0.00     0.027 C 
BRANCH   3   4
ATOM      4  C   UNL     1     129.328 131.616 134.937  1.00  0.00     0.004 C 
BRANCH   4   5
ATOM      5  C   UNL     1     128.010 131.306 135.661  1.00  0.00     0.000 C 
BRANCH   5   6
ATOM      6  C   UNL     1     128.221 130.581 136.995  1.00  0.00     0.000 C 
BRANCH   6   7
ATOM      7  C   UNL     1     127.869 129.080 136.944  1.00  0.00     0.000 C 
BRANCH   7   8
ATOM      8  C   UNL     1     129.080 128.156 136.681  1.00  0.00     0.006 C 
BRANCH   8   9
ATOM      9  C   UNL     1     128.976 127.357 135.374  1.00  0.00     0.053 C 
BRANCH   9  10
ATOM     10  C   UNL     1     129.705 128.024 134.252  1.00  0.00     0.041 C 
ATOM     11  O   UNL     1     129.074 128.461 133.255  1.00  0.00    -0.550 OA
ATOM     12  O   UNL     1     131.081 128.192 134.322  1.00  0.00    -0.550 OA
ENDBRANCH   9  10
ENDBRANCH   8   9
ENDBRANCH   7   8
ENDBRANCH   6   7
ENDBRANCH   5   6
ENDBRANCH   4   5
ENDBRANCH   3   4
ENDBRANCH   1   3
BRANCH   2  13
ATOM     13  C   UNL     1     132.510 134.087 133.192  1.00  0.00     0.027 C 
BRANCH  13  14
ATOM     14  C   UNL     1     132.707 133.692 131.720  1.00  0.00     0.004 C 
BRANCH  14  15
ATOM     15  C   UNL     1     131.403 133.296 131.012  1.00  0.00     0.000 C 
BRANCH  15  16
ATOM     16  C   UNL     1     131.125 134.124 129.742  1.00  0.00     0.000 C 
BRANCH  16  17
ATOM     17  C   UNL     1     130.686 133.243 128.565  1.00  0.00    -0.000 C 
BRANCH  17  18
ATOM     18  C   UNL     1     130.562 131.762 128.971  1.00  0.00    -0.000 C 
BRANCH  18  19
ATOM     19  C   UNL     1     129.535 130.985 128.136  1.00  0.00    -0.003 C 
ATOM     20  C   UNL     1     128.398 131.864 127.621  1.00  0.00     0.004 C 
ENDBRANCH  18  19
ENDBRANCH  17  18
ENDBRANCH  16  17
ENDBRANCH  15  16
ENDBRANCH  14  15
ENDBRANCH  13  14
ENDBRANCH   2  13
TORSDOF 15
ENDMDL
MODEL 8
REMARK VINA RESULT:    -4.342     12.767     15.848
REMARK INTER + INTRA:          -9.459
REMARK INTER:                  -7.101
REMARK INTRA:                  -2.358
REMARK UNBOUND:                -1.310
REMARK SMILES CCCCCCCCC=CCCCCCCCC(=O)[O-]
REMARK SMILES IDX 10 1 9 2 11 3 12 4 13 5 14 6 15 7 16 8 17 9 18 10 19 11
REMARK SMILES IDX 20 12 8 13 7 14 6 15 5 16 4 17 3 18 2 19 1 20
REMARK H PARENT
REMARK Flexibility Score: inf
ROOT
ATOM      1  C   UNL     1     124.302 122.031 132.522  1.00  0.00    -0.031 C 
ATOM      2  C   UNL     1     123.989 122.215 131.230  1.00  0.00    -0.031 C 
ENDROOT
BRANCH   1   3
ATOM      3  C   UNL     1     123.525 122.691 133.624  1.00  0.00     0.027 C 
BRANCH   3   4
ATOM      4  C   UNL     1     123.644 121.892 134.927  1.00  0.00     0.004 C 
BRANCH   4   5
ATOM      5  C   UNL     1     124.172 122.768 136.072  1.00  0.00     0.000 C 
BRANCH   5   6
ATOM      6  C   UNL     1     125.693 122.679 136.237  1.00  0.00     0.000 C 
BRANCH   6   7
ATOM      7  C   UNL     1     126.463 123.752 135.441  1.00  0.00     0.000 C 
BRANCH   7   8
ATOM      8  C   UNL     1     126.003 125.200 135.723  1.00  0.00     0.006 C 
BRANCH   8   9
ATOM      9  C   UNL     1     125.585 125.971 134.462  1.00  0.00     0.053 C 
BRANCH   9  10
ATOM     10  C   UNL     1     125.529 127.445 134.702  1.00  0.00     0.041 C 
ATOM     11  O   UNL     1     126.238 127.970 135.600  1.00  0.00    -0.550 OA
ATOM     12  O   UNL     1     124.718 128.247 133.911  1.00  0.00    -0.550 OA
ENDBRANCH   9  10
ENDBRANCH   8   9
ENDBRANCH   7   8
ENDBRANCH   6   7
ENDBRANCH   5   6
ENDBRANCH   4   5
ENDBRANCH   3   4
ENDBRANCH   1   3
BRANCH   2  13
ATOM     13  C   UNL     1     124.706 121.485 130.124  1.00  0.00     0.027 C 
BRANCH  13  14
ATOM     14  C   UNL     1     125.593 120.364 130.687  1.00  0.00     0.004 C 
BRANCH  14  15
ATOM     15  C   UNL     1     125.129 118.956 130.285  1.00  0.00     0.000 C 
BRANCH  15  16
ATOM     16  C   UNL     1     124.752 118.072 131.491  1.00  0.00     0.000 C 
BRANCH  16  17
ATOM     17  C   UNL     1     123.245 118.101 131.777  1.00  0.00    -0.000 C 
BRANCH  17  18
ATOM     18  C   UNL     1     122.936 118.663 133.177  1.00  0.00    -0.000 C 
BRANCH  18  19
ATOM     19  C   UNL     1     121.590 119.397 133.257  1.00  0.00    -0.003 C 
ATOM     20  C   UNL     1     121.135 119.953 131.910  1.00  0.00     0.004 C 
ENDBRANCH  18  19
ENDBRANCH  17  18
ENDBRANCH  16  17
ENDBRANCH  15  16
ENDBRANCH  14  15
ENDBRANCH  13  14
ENDBRANCH   2  13
TORSDOF 15
ENDMDL
MODEL 9
REMARK VINA RESULT:    -4.326      4.233      6.472
REMARK INTER + INTRA:          -9.429
REMARK INTER:                  -8.075
REMARK INTRA:                  -1.354
REMARK UNBOUND:                -1.310
REMARK SMILES CCCCCCCCC=CCCCCCCCC(=O)[O-]
REMARK SMILES IDX 10 1 9 2 11 3 12 4 13 5 14 6 15 7 16 8 17 9 18 10 19 11
REMARK SMILES IDX 20 12 8 13 7 14 6 15 5 16 4 17 3 18 2 19 1 20
REMARK H PARENT
REMARK Flexibility Score: inf
ROOT
ATOM      1  C   UNL     1     131.317 133.197 133.531  1.00  0.00    -0.031 C 
ATOM      2  C   UNL     1     130.918 132.822 134.755  1.00  0.00    -0.031 C 
ENDROOT
BRANCH   1   3
ATOM      3  C   UNL     1     132.711 133.692 133.273  1.00  0.00     0.027 C 
BRANCH   3   4
ATOM      4  C   UNL     1     132.849 134.199 131.832  1.00  0.00     0.004 C 
BRANCH   4   5
ATOM      5  C   UNL     1     131.733 135.193 131.480  1.00  0.00     0.000 C 
BRANCH   5   6
ATOM      6  C   UNL     1     131.002 134.831 130.183  1.00  0.00     0.000 C 
BRANCH   6   7
ATOM      7  C   UNL     1     131.213 133.367 129.744  1.00  0.00     0.000 C 
BRANCH   7   8
ATOM      8  C   UNL     1     130.798 133.079 128.283  1.00  0.00     0.006 C 
BRANCH   8   9
ATOM      9  C   UNL     1     129.305 132.761 128.116  1.00  0.00     0.053 C 
BRANCH   9  10
ATOM     10  C   UNL     1     129.084 131.385 127.576  1.00  0.00     0.041 C 
ATOM     11  O   UNL     1     129.040 131.190 126.334  1.00  0.00    -0.550 OA
ATOM     12  O   UNL     1     128.957 130.311 128.446  1.00  0.00    -0.550 OA
ENDBRANCH   9  10
ENDBRANCH   8   9
ENDBRANCH   7   8
ENDBRANCH   6   7
ENDBRANCH   5   6
ENDBRANCH   4   5
ENDBRANCH   3   4
ENDBRANCH   1   3
BRANCH   2  13
ATOM     13  C   UNL     1     129.552 132.238 135.004  1.00  0.00     0.027 C 
BRANCH  13  14
ATOM     14  C   UNL     1     129.625 131.061 135.989  1.00  0.00     0.004 C 
BRANCH  14  15
ATOM     15  C   UNL     1     130.741 130.058 135.663  1.00  0.00     0.000 C 
BRANCH  15  16
ATOM     16  C   UNL     1     130.216 128.640 135.360  1.00  0.00     0.000 C 
BRANCH  16  17
ATOM     17  C   UNL     1     130.186 128.348 133.854  1.00  0.00    -0.000 C 
BRANCH  17  18
ATOM     18  C   UNL     1     128.751 128.364 133.293  1.00  0.00    -0.000 C 
BRANCH  18  19
ATOM     19  C   UNL     1     127.698 127.875 134.297  1.00  0.00    -0.003 C 
ATOM     20  C   UNL     1     126.540 127.136 133.631  1.00  0.00     0.004 C 
ENDBRANCH  18  19
ENDBRANCH  17  18
ENDBRANCH  16  17
ENDBRANCH  15  16
ENDBRANCH  14  15
ENDBRANCH  13  14
ENDBRANCH   2  13
TORSDOF 15
ENDMDL
