MODEL 1
REMARK VINA RESULT:    -4.469      0.000      0.000
REMARK INTER + INTRA:          -7.029
REMARK INTER:                  -6.168
REMARK INTRA:                  -0.861
REMARK UNBOUND:                -0.861
REMARK SMILES CCCCc1cccc(O)c1CCCC
REMARK SMILES IDX 5 1 11 2 9 3 8 4 7 5 6 6 4 7 3 8 2 9 1 10 12 11 13 12 14 13
REMARK SMILES IDX 15 14 10 15
REMARK H PARENT 10 16
REMARK Flexibility Score: inf
ROOT
ATOM      1  C   UNL     1       3.706  -7.226   4.808  1.00  0.00    -0.041 A 
ATOM      2  C   UNL     1       4.864  -7.940   4.376  1.00  0.00    -0.003 A 
ATOM      3  C   UNL     1       4.695  -9.196   3.744  1.00  0.00     0.119 A 
ATOM      4  C   UNL     1       3.413  -9.716   3.532  1.00  0.00     0.046 A 
ATOM      5  C   UNL     1       2.290  -9.004   3.936  1.00  0.00     0.004 A 
ATOM      6  C   UNL     1       2.433  -7.772   4.566  1.00  0.00     0.004 A 
ENDROOT
BRANCH   1   7
ATOM      7  C   UNL     1       3.762  -5.899   5.541  1.00  0.00     0.036 C 
BRANCH   7   8
ATOM      8  C   UNL     1       2.347  -5.376   5.845  1.00  0.00     0.004 C 
BRANCH   8   9
ATOM      9  C   UNL     1       2.265  -3.843   5.814  1.00  0.00    -0.003 C 
ATOM     10  C   UNL     1       3.641  -3.180   5.778  1.00  0.00     0.004 C 
ENDBRANCH   8   9
ENDBRANCH   7   8
ENDBRANCH   1   7
BRANCH   2  11
ATOM     11  C   UNL     1       6.274  -7.392   4.554  1.00  0.00     0.040 C 
BRANCH  11  12
ATOM     12  C   UNL     1       6.805  -6.659   3.308  1.00  0.00     0.005 C 
BRANCH  12  13
ATOM     13  C   UNL     1       7.656  -5.419   3.625  1.00  0.00    -0.003 C 
ATOM     14  C   UNL     1       6.848  -4.305   4.290  1.00  0.00     0.004 C 
ENDBRANCH  12  13
ENDBRANCH  11  12
ENDBRANCH   2  11
BRANCH   3  15
ATOM     15  O   UNL     1       5.803  -9.930   3.319  1.00  0.00    -0.508 OA
ATOM     16  H   UNL     1       5.969 -10.879   3.635  1.00  0.00     0.293 HD
ENDBRANCH   3  15
TORSDOF 7
ENDMDL
MODEL 2
REMARK VINA RESULT:    -4.421      2.088      4.185
REMARK INTER + INTRA:          -6.963
REMARK INTER:                  -6.007
REMARK INTRA:                  -0.956
REMARK UNBOUND:                -0.861
REMARK SMILES CCCCc1cccc(O)c1CCCC
REMARK SMILES IDX 5 1 11 2 9 3 8 4 7 5 6 6 4 7 3 8 2 9 1 10 12 11 13 12 14 13
REMARK SMILES IDX 15 14 10 15
REMARK H PARENT 10 16
REMARK Flexibility Score: inf
ROOT
ATOM      1  C   UNL     1       3.937  -6.735   5.190  1.00  0.00    -0.041 A 
ATOM      2  C   UNL     1       2.717  -6.098   5.570  1.00  0.00    -0.003 A 
ATOM      3  C   UNL     1       1.489  -6.688   5.182  1.00  0.00     0.119 A 
ATOM      4  C   UNL     1       1.477  -7.883   4.454  1.00  0.00     0.046 A 
ATOM      5  C   UNL     1       2.668  -8.509   4.107  1.00  0.00     0.004 A 
ATOM      6  C   UNL     1       3.886  -7.943   4.471  1.00  0.00     0.004 A 
ENDROOT
BRANCH   1   7
ATOM      7  C   UNL     1       5.311  -6.173   5.502  1.00  0.00     0.036 C 
BRANCH   7   8
ATOM      8  C   UNL     1       6.333  -6.587   4.429  1.00  0.00     0.004 C 
BRANCH   8   9
ATOM      9  C   UNL     1       7.137  -5.395   3.888  1.00  0.00    -0.003 C 
ATOM     10  C   UNL     1       7.865  -5.718   2.584  1.00  0.00     0.004 C 
ENDBRANCH   8   9
ENDBRANCH   7   8
ENDBRANCH   1   7
BRANCH   2  11
ATOM     11  C   UNL     1       2.688  -4.818   6.393  1.00  0.00     0.040 C 
BRANCH  11  12
ATOM     12  C   UNL     1       2.788  -3.540   5.539  1.00  0.00     0.005 C 
BRANCH  12  13
ATOM     13  C   UNL     1       3.977  -2.635   5.901  1.00  0.00    -0.003 C 
ATOM     14  C   UNL     1       4.957  -2.459   4.741  1.00  0.00     0.004 C 
ENDBRANCH  12  13
ENDBRANCH  11  12
ENDBRANCH   2  11
BRANCH   3  15
ATOM     15  O   UNL     1       0.277  -6.089   5.524  1.00  0.00    -0.508 OA
ATOM     16  H   UNL     1       0.098  -5.106   5.351  1.00  0.00     0.293 HD
ENDBRANCH   3  15
TORSDOF 7
ENDMDL
MODEL 3
REMARK VINA RESULT:    -4.303     18.330     20.756
REMARK INTER + INTRA:          -6.799
REMARK INTER:                  -5.970
REMARK INTRA:                  -0.830
REMARK UNBOUND:                -0.861
REMARK SMILES CCCCc1cccc(O)c1CCCC
REMARK SMILES IDX 5 1 11 2 9 3 8 4 7 5 6 6 4 7 3 8 2 9 1 10 12 11 13 12 14 13
REMARK SMILES IDX 15 14 10 15
REMARK H PARENT 10 16
REMARK Flexibility Score: inf
ROOT
ATOM      1  C   UNL     1      -5.513   8.363  -4.212  1.00  0.00    -0.041 A 
ATOM      2  C   UNL     1      -6.809   7.891  -3.843  1.00  0.00    -0.003 A 
ATOM      3  C   UNL     1      -6.958   6.536  -3.455  1.00  0.00     0.119 A 
ATOM      4  C   UNL     1      -5.847   5.684  -3.419  1.00  0.00     0.046 A 
ATOM      5  C   UNL     1      -4.586   6.157  -3.759  1.00  0.00     0.004 A 
ATOM      6  C   UNL     1      -4.418   7.482  -4.150  1.00  0.00     0.004 A 
ENDROOT
BRANCH   1   7
ATOM      7  C   UNL     1      -5.239   9.775  -4.693  1.00  0.00     0.036 C 
BRANCH   7   8
ATOM      8  C   UNL     1      -5.094   9.818  -6.225  1.00  0.00     0.004 C 
BRANCH   8   9
ATOM      9  C   UNL     1      -3.644  10.049  -6.674  1.00  0.00    -0.003 C 
ATOM     10  C   UNL     1      -3.503  10.125  -8.194  1.00  0.00     0.004 C 
ENDBRANCH   8   9
ENDBRANCH   7   8
ENDBRANCH   1   7
BRANCH   2  11
ATOM     11  C   UNL     1      -8.034   8.795  -3.834  1.00  0.00     0.040 C 
BRANCH  11  12
ATOM     12  C   UNL     1      -8.019   9.829  -2.693  1.00  0.00     0.005 C 
BRANCH  12  13
ATOM     13  C   UNL     1      -7.616   9.251  -1.326  1.00  0.00    -0.003 C 
ATOM     14  C   UNL     1      -6.312   9.847  -0.797  1.00  0.00     0.004 C 
ENDBRANCH  12  13
ENDBRANCH  11  12
ENDBRANCH   2  11
BRANCH   3  15
ATOM     15  O   UNL     1      -8.209   6.035  -3.100  1.00  0.00    -0.508 OA
ATOM     16  H   UNL     1      -8.580   5.184  -3.506  1.00  0.00     0.293 HD
ENDBRANCH   3  15
TORSDOF 7
ENDMDL
MODEL 4
REMARK VINA RESULT:    -4.281      2.300      4.618
REMARK INTER + INTRA:          -6.770
REMARK INTER:                  -5.861
REMARK INTRA:                  -0.908
REMARK UNBOUND:                -0.861
REMARK SMILES CCCCc1cccc(O)c1CCCC
REMARK SMILES IDX 5 1 11 2 9 3 8 4 7 5 6 6 4 7 3 8 2 9 1 10 12 11 13 12 14 13
REMARK SMILES IDX 15 14 10 15
REMARK H PARENT 10 16
REMARK Flexibility Score: inf
ROOT
ATOM      1  C   UNL     1       4.116  -4.335   5.822  1.00  0.00    -0.041 A 
ATOM      2  C   UNL     1       5.489  -4.233   5.446  1.00  0.00    -0.003 A 
ATOM      3  C   UNL     1       5.946  -3.033   4.847  1.00  0.00     0.119 A 
ATOM      4  C   UNL     1       5.066  -1.963   4.645  1.00  0.00     0.046 A 
ATOM      5  C   UNL     1       3.736  -2.063   5.034  1.00  0.00     0.004 A 
ATOM      6  C   UNL     1       3.264  -3.235   5.618  1.00  0.00     0.004 A 
ENDROOT
BRANCH   1   7
ATOM      7  C   UNL     1       3.501  -5.585   6.424  1.00  0.00     0.036 C 
BRANCH   7   8
ATOM      8  C   UNL     1       2.470  -6.208   5.466  1.00  0.00     0.004 C 
BRANCH   8   9
ATOM      9  C   UNL     1       3.032  -7.414   4.698  1.00  0.00    -0.003 C 
ATOM     10  C   UNL     1       1.945  -8.403   4.278  1.00  0.00     0.004 C 
ENDBRANCH   8   9
ENDBRANCH   7   8
ENDBRANCH   1   7
BRANCH   2  11
ATOM     11  C   UNL     1       6.486  -5.359   5.683  1.00  0.00     0.040 C 
BRANCH  11  12
ATOM     12  C   UNL     1       6.590  -6.341   4.501  1.00  0.00     0.005 C 
BRANCH  12  13
ATOM     13  C   UNL     1       7.948  -6.315   3.781  1.00  0.00    -0.003 C 
ATOM     14  C   UNL     1       7.854  -5.742   2.367  1.00  0.00     0.004 C 
ENDBRANCH  12  13
ENDBRANCH  11  12
ENDBRANCH   2  11
BRANCH   3  15
ATOM     15  O   UNL     1       7.277  -2.900   4.455  1.00  0.00    -0.508 OA
ATOM     16  H   UNL     1       7.887  -2.199   4.861  1.00  0.00     0.293 HD
ENDBRANCH   3  15
TORSDOF 7
ENDMDL
MODEL 5
REMARK VINA RESULT:    -4.274      2.093      4.995
REMARK INTER + INTRA:          -6.759
REMARK INTER:                  -5.765
REMARK INTRA:                  -0.994
REMARK UNBOUND:                -0.861
REMARK SMILES CCCCc1cccc(O)c1CCCC
REMARK SMILES IDX 5 1 11 2 9 3 8 4 7 5 6 6 4 7 3 8 2 9 1 10 12 11 13 12 14 13
REMARK SMILES IDX 15 14 10 15
REMARK H PARENT 10 16
REMARK Flexibility Score: inf
ROOT
ATOM      1  C   UNL     1       5.588  -6.306   4.860  1.00  0.00    -0.041 A 
ATOM      2  C   UNL     1       5.826  -4.932   5.169  1.00  0.00    -0.003 A 
ATOM      3  C   UNL     1       6.866  -4.250   4.491  1.00  0.00     0.119 A 
ATOM      4  C   UNL     1       7.635  -4.911   3.526  1.00  0.00     0.046 A 
ATOM      5  C   UNL     1       7.383  -6.242   3.216  1.00  0.00     0.004 A 
ATOM      6  C   UNL     1       6.370  -6.933   3.874  1.00  0.00     0.004 A 
ENDROOT
BRANCH   1   7
ATOM      7  C   UNL     1       4.538  -7.153   5.554  1.00  0.00     0.036 C 
BRANCH   7   8
ATOM      8  C   UNL     1       3.211  -7.133   4.775  1.00  0.00     0.004 C 
BRANCH   8   9
ATOM      9  C   UNL     1       2.696  -8.544   4.450  1.00  0.00    -0.003 C 
ATOM     10  C   UNL     1       3.635  -9.315   3.523  1.00  0.00     0.004 C 
ENDBRANCH   8   9
ENDBRANCH   7   8
ENDBRANCH   1   7
BRANCH   2  11
ATOM     11  C   UNL     1       4.988  -4.168   6.185  1.00  0.00     0.040 C 
BRANCH  11  12
ATOM     12  C   UNL     1       3.694  -3.581   5.592  1.00  0.00     0.005 C 
BRANCH  12  13
ATOM     13  C   UNL     1       2.440  -3.839   6.443  1.00  0.00    -0.003 C 
ATOM     14  C   UNL     1       1.174  -3.976   5.597  1.00  0.00     0.004 C 
ENDBRANCH  12  13
ENDBRANCH  11  12
ENDBRANCH   2  11
BRANCH   3  15
ATOM     15  O   UNL     1       7.137  -2.912   4.774  1.00  0.00    -0.508 OA
ATOM     16  H   UNL     1       7.900  -2.415   4.329  1.00  0.00     0.293 HD
ENDBRANCH   3  15
TORSDOF 7
ENDMDL
MODEL 6
REMARK VINA RESULT:    -4.262      1.214      4.098
REMARK INTER + INTRA:          -6.744
REMARK INTER:                  -5.859
REMARK INTRA:                  -0.885
REMARK UNBOUND:                -0.861
REMARK SMILES CCCCc1cccc(O)c1CCCC
REMARK SMILES IDX 5 1 11 2 9 3 8 4 7 5 6 6 4 7 3 8 2 9 1 10 12 11 13 12 14 13
REMARK SMILES IDX 15 14 10 15
REMARK H PARENT 10 16
REMARK Flexibility Score: inf
ROOT
ATOM      1  C   UNL     1       5.793  -4.934   5.225  1.00  0.00    -0.041 A 
ATOM      2  C   UNL     1       5.550  -6.307   4.921  1.00  0.00    -0.003 A 
ATOM      3  C   UNL     1       6.349  -6.941   3.937  1.00  0.00     0.119 A 
ATOM      4  C   UNL     1       7.368  -6.233   3.290  1.00  0.00     0.046 A 
ATOM      5  C   UNL     1       7.613  -4.902   3.607  1.00  0.00     0.004 A 
ATOM      6  C   UNL     1       6.836  -4.259   4.565  1.00  0.00     0.004 A 
ENDROOT
BRANCH   1   7
ATOM      7  C   UNL     1       4.972  -4.136   6.220  1.00  0.00     0.036 C 
BRANCH   7   8
ATOM      8  C   UNL     1       3.892  -3.305   5.504  1.00  0.00     0.004 C 
BRANCH   8   9
ATOM      9  C   UNL     1       2.593  -3.201   6.316  1.00  0.00    -0.003 C 
ATOM     10  C   UNL     1       1.411  -3.883   5.627  1.00  0.00     0.004 C 
ENDBRANCH   8   9
ENDBRANCH   7   8
ENDBRANCH   1   7
BRANCH   2  11
ATOM     11  C   UNL     1       4.476  -7.121   5.629  1.00  0.00     0.040 C 
BRANCH  11  12
ATOM     12  C   UNL     1       3.107  -7.070   4.924  1.00  0.00     0.005 C 
BRANCH  12  13
ATOM     13  C   UNL     1       2.698  -8.391   4.252  1.00  0.00    -0.003 C 
ATOM     14  C   UNL     1       1.181  -8.566   4.175  1.00  0.00     0.004 C 
ENDBRANCH  12  13
ENDBRANCH  11  12
ENDBRANCH   2  11
BRANCH   3  15
ATOM     15  O   UNL     1       6.134  -8.277   3.604  1.00  0.00    -0.508 OA
ATOM     16  H   UNL     1       5.840  -8.960   4.292  1.00  0.00     0.293 HD
ENDBRANCH   3  15
TORSDOF 7
ENDMDL
MODEL 7
REMARK VINA RESULT:    -4.203      6.560      9.605
REMARK INTER + INTRA:          -6.661
REMARK INTER:                  -5.782
REMARK INTRA:                  -0.879
REMARK UNBOUND:                -0.861
REMARK SMILES CCCCc1cccc(O)c1CCCC
REMARK SMILES IDX 5 1 11 2 9 3 8 4 7 5 6 6 4 7 3 8 2 9 1 10 12 11 13 12 14 13
REMARK SMILES IDX 15 14 10 15
REMARK H PARENT 10 16
REMARK Flexibility Score: inf
ROOT
ATOM      1  C   UNL     1       4.339   1.825   6.298  1.00  0.00    -0.041 A 
ATOM      2  C   UNL     1       5.472   2.616   5.938  1.00  0.00    -0.003 A 
ATOM      3  C   UNL     1       5.275   3.764   5.132  1.00  0.00     0.119 A 
ATOM      4  C   UNL     1       3.989   4.121   4.711  1.00  0.00     0.046 A 
ATOM      5  C   UNL     1       2.889   3.358   5.083  1.00  0.00     0.004 A 
ATOM      6  C   UNL     1       3.060   2.223   5.869  1.00  0.00     0.004 A 
ENDROOT
BRANCH   1   7
ATOM      7  C   UNL     1       4.430   0.548   7.112  1.00  0.00     0.036 C 
BRANCH   7   8
ATOM      8  C   UNL     1       4.026  -0.674   6.269  1.00  0.00     0.004 C 
BRANCH   8   9
ATOM      9  C   UNL     1       5.240  -1.444   5.727  1.00  0.00    -0.003 C 
ATOM     10  C   UNL     1       4.974  -2.079   4.362  1.00  0.00     0.004 C 
ENDBRANCH   8   9
ENDBRANCH   7   8
ENDBRANCH   1   7
BRANCH   2  11
ATOM     11  C   UNL     1       6.881   2.281   6.407  1.00  0.00     0.040 C 
BRANCH  11  12
ATOM     12  C   UNL     1       7.652   1.378   5.427  1.00  0.00     0.005 C 
BRANCH  12  13
ATOM     13  C   UNL     1       8.993   1.962   4.956  1.00  0.00    -0.003 C 
ATOM     14  C   UNL     1       9.536   1.262   3.710  1.00  0.00     0.004 C 
ENDBRANCH  12  13
ENDBRANCH  11  12
ENDBRANCH   2  11
BRANCH   3  15
ATOM     15  O   UNL     1       6.358   4.555   4.750  1.00  0.00    -0.508 OA
ATOM     16  H   UNL     1       6.907   5.074   5.427  1.00  0.00     0.293 HD
ENDBRANCH   3  15
TORSDOF 7
ENDMDL
MODEL 8
REMARK VINA RESULT:    -4.189      1.398      2.040
REMARK INTER + INTRA:          -6.643
REMARK INTER:                  -5.820
REMARK INTRA:                  -0.823
REMARK UNBOUND:                -0.861
REMARK SMILES CCCCc1cccc(O)c1CCCC
REMARK SMILES IDX 5 1 11 2 9 3 8 4 7 5 6 6 4 7 3 8 2 9 1 10 12 11 13 12 14 13
REMARK SMILES IDX 15 14 10 15
REMARK H PARENT 10 16
REMARK Flexibility Score: inf
ROOT
ATOM      1  C   UNL     1       3.225  -6.786   5.272  1.00  0.00    -0.041 A 
ATOM      2  C   UNL     1       4.633  -6.933   5.085  1.00  0.00    -0.003 A 
ATOM      3  C   UNL     1       5.110  -8.026   4.320  1.00  0.00     0.119 A 
ATOM      4  C   UNL     1       4.212  -8.933   3.745  1.00  0.00     0.046 A 
ATOM      5  C   UNL     1       2.842  -8.770   3.913  1.00  0.00     0.004 A 
ATOM      6  C   UNL     1       2.352  -7.708   4.667  1.00  0.00     0.004 A 
ENDROOT
BRANCH   1   7
ATOM      7  C   UNL     1       2.599  -5.688   6.111  1.00  0.00     0.036 C 
BRANCH   7   8
ATOM      8  C   UNL     1       1.178  -5.360   5.619  1.00  0.00     0.004 C 
BRANCH   8   9
ATOM      9  C   UNL     1       0.845  -3.864   5.732  1.00  0.00    -0.003 C 
ATOM     10  C   UNL     1      -0.443  -3.605   6.512  1.00  0.00     0.004 C 
ENDBRANCH   8   9
ENDBRANCH   7   8
ENDBRANCH   1   7
BRANCH   2  11
ATOM     11  C   UNL     1       5.639  -5.947   5.662  1.00  0.00     0.040 C 
BRANCH  11  12
ATOM     12  C   UNL     1       5.875  -4.720   4.762  1.00  0.00     0.005 C 
BRANCH  12  13
ATOM     13  C   UNL     1       5.710  -3.372   5.484  1.00  0.00    -0.003 C 
ATOM     14  C   UNL     1       4.746  -2.432   4.760  1.00  0.00     0.004 C 
ENDBRANCH  12  13
ENDBRANCH  11  12
ENDBRANCH   2  11
BRANCH   3  15
ATOM     15  O   UNL     1       6.478  -8.210   4.125  1.00  0.00    -0.508 OA
ATOM     16  H   UNL     1       6.946  -7.897   3.282  1.00  0.00     0.293 HD
ENDBRANCH   3  15
TORSDOF 7
ENDMDL
MODEL 9
REMARK VINA RESULT:    -4.170      2.206      5.064
REMARK INTER + INTRA:          -6.616
REMARK INTER:                  -5.702
REMARK INTRA:                  -0.914
REMARK UNBOUND:                -0.861
REMARK SMILES CCCCc1cccc(O)c1CCCC
REMARK SMILES IDX 5 1 11 2 9 3 8 4 7 5 6 6 4 7 3 8 2 9 1 10 12 11 13 12 14 13
REMARK SMILES IDX 15 14 10 15
REMARK H PARENT 10 16
REMARK Flexibility Score: inf
ROOT
ATOM      1  C   UNL     1       3.454  -5.814   5.706  1.00  0.00    -0.041 A 
ATOM      2  C   UNL     1       2.174  -6.440   5.615  1.00  0.00    -0.003 A 
ATOM      3  C   UNL     1       1.014  -5.627   5.615  1.00  0.00     0.119 A 
ATOM      4  C   UNL     1       1.126  -4.234   5.688  1.00  0.00     0.046 A 
ATOM      5  C   UNL     1       2.376  -3.631   5.754  1.00  0.00     0.004 A 
ATOM      6  C   UNL     1       3.529  -4.411   5.762  1.00  0.00     0.004 A 
ENDROOT
BRANCH   1   7
ATOM      7  C   UNL     1       4.762  -6.580   5.765  1.00  0.00     0.036 C 
BRANCH   7   8
ATOM      8  C   UNL     1       5.870  -5.838   4.995  1.00  0.00     0.004 C 
BRANCH   8   9
ATOM      9  C   UNL     1       6.615  -6.751   4.009  1.00  0.00    -0.003 C 
ATOM     10  C   UNL     1       7.510  -5.971   3.046  1.00  0.00     0.004 C 
ENDBRANCH   8   9
ENDBRANCH   7   8
ENDBRANCH   1   7
BRANCH   2  11
ATOM     11  C   UNL     1       2.012  -7.950   5.497  1.00  0.00     0.040 C 
BRANCH  11  12
ATOM     12  C   UNL     1       1.918  -8.441   4.040  1.00  0.00     0.005 C 
BRANCH  12  13
ATOM     13  C   UNL     1       2.739  -9.708   3.751  1.00  0.00    -0.003 C 
ATOM     14  C   UNL     1       4.163  -9.395   3.291  1.00  0.00     0.004 C 
ENDBRANCH  12  13
ENDBRANCH  11  12
ENDBRANCH   2  11
BRANCH   3  15
ATOM     15  O   UNL     1      -0.254  -6.203   5.540  1.00  0.00    -0.508 OA
ATOM     16  H   UNL     1      -0.540  -6.765   4.747  1.00  0.00     0.293 HD
ENDBRANCH   3  15
TORSDOF 7
ENDMDL
