MODEL 1
REMARK VINA RESULT:    -2.994      0.000      0.000
REMARK INTER + INTRA:          -3.081
REMARK INTER:                  -3.081
REMARK INTRA:                   0.000
REMARK UNBOUND:                 0.000
REMARK SMILES CC1(C)[C@H]2CC[C@](C)(C2)[C@H]1O
REMARK SMILES IDX 1 1 2 2 4 3 5 4 6 5 7 6 9 7 10 8 8 9 3 10 11 11
REMARK H PARENT 11 12
REMARK Flexibility Score: inf
ROOT
ATOM      1  C   UNL     1     113.599 113.552 114.219  1.00  0.00     0.014 C 
ATOM      2  C   UNL     1     114.567 113.985 113.088  1.00  0.00    -0.006 C 
ATOM      3  C   UNL     1     114.329 115.456 112.599  1.00  0.00    -0.002 C 
ATOM      4  C   UNL     1     114.247 116.434 113.790  1.00  0.00     0.005 C 
ATOM      5  C   UNL     1     115.684 116.425 114.336  1.00  0.00     0.010 C 
ATOM      6  C   UNL     1     116.431 115.532 113.316  1.00  0.00    -0.006 C 
ATOM      7  C   UNL     1     115.686 115.843 112.036  1.00  0.00     0.013 C 
ATOM      8  C   UNL     1     116.067 114.041 113.533  1.00  0.00     0.126 C 
ATOM      9  C   UNL     1     117.938 115.801 113.243  1.00  0.00     0.014 C 
ATOM     10  C   UNL     1     114.377 112.996 111.913  1.00  0.00     0.014 C 
ENDROOT
BRANCH   8  11
ATOM     11  O   UNL     1     116.276 113.653 114.868  1.00  0.00    -0.392 OA
ATOM     12  H   UNL     1     115.380 113.460 115.249  1.00  0.00     0.211 HD
ENDBRANCH   8  11
TORSDOF 1
ENDMDL
MODEL 2
REMARK VINA RESULT:    -2.986      9.572     11.266
REMARK INTER + INTRA:          -3.074
REMARK INTER:                  -3.074
REMARK INTRA:                   0.000
REMARK UNBOUND:                 0.000
REMARK SMILES CC1(C)[C@H]2CC[C@](C)(C2)[C@H]1O
REMARK SMILES IDX 1 1 2 2 4 3 5 4 6 5 7 6 9 7 10 8 8 9 3 10 11 11
REMARK H PARENT 11 12
REMARK Flexibility Score: inf
ROOT
ATOM      1  C   UNL     1     113.811 124.108 118.059  1.00  0.00     0.014 C 
ATOM      2  C   UNL     1     112.500 123.705 117.337  1.00  0.00    -0.006 C 
ATOM      3  C   UNL     1     111.208 124.201 118.076  1.00  0.00    -0.002 C 
ATOM      4  C   UNL     1     111.313 125.698 118.436  1.00  0.00     0.005 C 
ATOM      5  C   UNL     1     111.272 126.382 117.061  1.00  0.00     0.010 C 
ATOM      6  C   UNL     1     111.033 125.196 116.096  1.00  0.00    -0.006 C 
ATOM      7  C   UNL     1     110.189 124.274 116.950  1.00  0.00     0.013 C 
ATOM      8  C   UNL     1     112.330 124.365 115.928  1.00  0.00     0.126 C 
ATOM      9  C   UNL     1     110.374 125.596 114.772  1.00  0.00     0.014 C 
ATOM     10  C   UNL     1     112.490 122.160 117.228  1.00  0.00     0.014 C 
ENDROOT
BRANCH   8  11
ATOM     11  O   UNL     1     113.412 125.178 115.550  1.00  0.00    -0.392 OA
ATOM     12  H   UNL     1     114.209 124.827 116.027  1.00  0.00     0.211 HD
ENDBRANCH   8  11
TORSDOF 1
ENDMDL
MODEL 3
REMARK VINA RESULT:    -2.971      6.470      8.808
REMARK INTER + INTRA:          -3.058
REMARK INTER:                  -3.058
REMARK INTRA:                   0.000
REMARK UNBOUND:                 0.000
REMARK SMILES CC1(C)[C@H]2CC[C@](C)(C2)[C@H]1O
REMARK SMILES IDX 1 1 2 2 4 3 5 4 6 5 7 6 9 7 10 8 8 9 3 10 11 11
REMARK H PARENT 11 12
REMARK Flexibility Score: inf
ROOT
ATOM      1  C   UNL     1     111.209 111.959 116.471  1.00  0.00     0.014 C 
ATOM      2  C   UNL     1     110.054 111.635 117.454  1.00  0.00    -0.006 C 
ATOM      3  C   UNL     1     108.837 112.616 117.325  1.00  0.00    -0.002 C 
ATOM      4  C   UNL     1     108.405 112.777 115.852  1.00  0.00     0.005 C 
ATOM      5  C   UNL     1     107.836 111.391 115.512  1.00  0.00     0.010 C 
ATOM      6  C   UNL     1     107.910 110.649 116.868  1.00  0.00    -0.006 C 
ATOM      7  C   UNL     1     107.680 111.780 117.847  1.00  0.00     0.013 C 
ATOM      8  C   UNL     1     109.373 110.252 117.190  1.00  0.00     0.126 C 
ATOM      9  C   UNL     1     106.908 109.497 117.000  1.00  0.00     0.014 C 
ATOM     10  C   UNL     1     110.638 111.698 118.887  1.00  0.00     0.014 C 
ENDROOT
BRANCH   8  11
ATOM     11  O   UNL     1     109.951 109.530 116.131  1.00  0.00    -0.392 OA
ATOM     12  H   UNL     1     110.721 110.067 115.810  1.00  0.00     0.211 HD
ENDBRANCH   8  11
TORSDOF 1
ENDMDL
MODEL 4
REMARK VINA RESULT:    -2.950      3.437      4.545
REMARK INTER + INTRA:          -3.036
REMARK INTER:                  -3.036
REMARK INTRA:                   0.000
REMARK UNBOUND:                 0.000
REMARK SMILES CC1(C)[C@H]2CC[C@](C)(C2)[C@H]1O
REMARK SMILES IDX 1 1 2 2 4 3 5 4 6 5 7 6 9 7 10 8 8 9 3 10 11 11
REMARK H PARENT 11 12
REMARK Flexibility Score: inf
ROOT
ATOM      1  C   UNL     1     115.707 119.172 114.366  1.00  0.00     0.014 C 
ATOM      2  C   UNL     1     116.426 118.869 113.026  1.00  0.00    -0.006 C 
ATOM      3  C   UNL     1     117.750 119.688 112.834  1.00  0.00    -0.002 C 
ATOM      4  C   UNL     1     118.649 119.593 114.085  1.00  0.00     0.005 C 
ATOM      5  C   UNL     1     119.088 118.121 114.078  1.00  0.00     0.010 C 
ATOM      6  C   UNL     1     118.477 117.588 112.760  1.00  0.00    -0.006 C 
ATOM      7  C   UNL     1     118.544 118.815 111.876  1.00  0.00     0.013 C 
ATOM      8  C   UNL     1     116.946 117.398 112.911  1.00  0.00     0.126 C 
ATOM      9  C   UNL     1     119.203 116.367 112.187  1.00  0.00     0.014 C 
ATOM     10  C   UNL     1     115.431 119.194 111.886  1.00  0.00     0.014 C 
ENDROOT
BRANCH   8  11
ATOM     11  O   UNL     1     116.638 116.600 114.026  1.00  0.00    -0.392 OA
ATOM     12  H   UNL     1     117.019 117.062 114.817  1.00  0.00     0.211 HD
ENDBRANCH   8  11
TORSDOF 1
ENDMDL
MODEL 5
REMARK VINA RESULT:    -2.918     10.729     12.537
REMARK INTER + INTRA:          -3.003
REMARK INTER:                  -3.003
REMARK INTRA:                   0.000
REMARK UNBOUND:                 0.000
REMARK SMILES CC1(C)[C@H]2CC[C@](C)(C2)[C@H]1O
REMARK SMILES IDX 1 1 2 2 4 3 5 4 6 5 7 6 9 7 10 8 8 9 3 10 11 11
REMARK H PARENT 11 12
REMARK Flexibility Score: inf
ROOT
ATOM      1  C   UNL     1     122.018 121.808 117.146  1.00  0.00     0.014 C 
ATOM      2  C   UNL     1     123.319 122.071 117.948  1.00  0.00    -0.006 C 
ATOM      3  C   UNL     1     124.345 120.887 117.871  1.00  0.00    -0.002 C 
ATOM      4  C   UNL     1     124.566 120.436 116.411  1.00  0.00     0.005 C 
ATOM      5  C   UNL     1     125.297 121.637 115.792  1.00  0.00     0.010 C 
ATOM      6  C   UNL     1     125.504 122.575 117.005  1.00  0.00    -0.006 C 
ATOM      7  C   UNL     1     125.671 121.580 118.134  1.00  0.00     0.013 C 
ATOM      8  C   UNL     1     124.169 123.262 117.392  1.00  0.00     0.126 C 
ATOM      9  C   UNL     1     126.680 123.544 116.848  1.00  0.00     0.014 C 
ATOM     10  C   UNL     1     122.910 122.325 119.419  1.00  0.00     0.014 C 
ENDROOT
BRANCH   8  11
ATOM     11  O   UNL     1     123.587 123.906 116.287  1.00  0.00    -0.392 OA
ATOM     12  H   UNL     1     123.251 123.189 115.687  1.00  0.00     0.211 HD
ENDBRANCH   8  11
TORSDOF 1
ENDMDL
MODEL 6
REMARK VINA RESULT:    -2.909      2.226      3.664
REMARK INTER + INTRA:          -2.994
REMARK INTER:                  -2.994
REMARK INTRA:                   0.000
REMARK UNBOUND:                 0.000
REMARK SMILES CC1(C)[C@H]2CC[C@](C)(C2)[C@H]1O
REMARK SMILES IDX 1 1 2 2 4 3 5 4 6 5 7 6 9 7 10 8 8 9 3 10 11 11
REMARK H PARENT 11 12
REMARK Flexibility Score: inf
ROOT
ATOM      1  C   UNL     1     119.391 113.644 114.012  1.00  0.00     0.014 C 
ATOM      2  C   UNL     1     118.975 114.751 113.009  1.00  0.00    -0.006 C 
ATOM      3  C   UNL     1     117.550 114.525 112.392  1.00  0.00    -0.002 C 
ATOM      4  C   UNL     1     116.509 114.225 113.491  1.00  0.00     0.005 C 
ATOM      5  C   UNL     1     116.411 115.563 114.240  1.00  0.00     0.010 C 
ATOM      6  C   UNL     1     117.322 116.492 113.403  1.00  0.00    -0.006 C 
ATOM      7  C   UNL     1     117.127 115.934 112.010  1.00  0.00     0.013 C 
ATOM      8  C   UNL     1     118.815 116.163 113.663  1.00  0.00     0.126 C 
ATOM      9  C   UNL     1     116.980 117.979 113.533  1.00  0.00     0.014 C 
ATOM     10  C   UNL     1     120.041 114.781 111.886  1.00  0.00     0.014 C 
ENDROOT
BRANCH   8  11
ATOM     11  O   UNL     1     119.111 116.187 115.037  1.00  0.00    -0.392 OA
ATOM     12  H   UNL     1     119.182 115.241 115.327  1.00  0.00     0.211 HD
ENDBRANCH   8  11
TORSDOF 1
ENDMDL
MODEL 7
REMARK VINA RESULT:    -2.896      7.918      9.062
REMARK INTER + INTRA:          -2.980
REMARK INTER:                  -2.980
REMARK INTRA:                   0.000
REMARK UNBOUND:                 0.000
REMARK SMILES CC1(C)[C@H]2CC[C@](C)(C2)[C@H]1O
REMARK SMILES IDX 1 1 2 2 4 3 5 4 6 5 7 6 9 7 10 8 8 9 3 10 11 11
REMARK H PARENT 11 12
REMARK Flexibility Score: inf
ROOT
ATOM      1  C   UNL     1     110.699 110.707 119.118  1.00  0.00     0.014 C 
ATOM      2  C   UNL     1     109.290 110.382 118.558  1.00  0.00    -0.006 C 
ATOM      3  C   UNL     1     108.223 111.484 118.884  1.00  0.00    -0.002 C 
ATOM      4  C   UNL     1     108.750 112.891 118.529  1.00  0.00     0.005 C 
ATOM      5  C   UNL     1     108.823 112.850 116.995  1.00  0.00     0.010 C 
ATOM      6  C   UNL     1     108.219 111.465 116.661  1.00  0.00    -0.006 C 
ATOM      7  C   UNL     1     107.204 111.299 117.772  1.00  0.00     0.013 C 
ATOM      8  C   UNL     1     109.231 110.339 116.994  1.00  0.00     0.126 C 
ATOM      9  C   UNL     1     107.624 111.370 115.252  1.00  0.00     0.014 C 
ATOM     10  C   UNL     1     108.855 109.025 119.164  1.00  0.00     0.014 C 
ENDROOT
BRANCH   8  11
ATOM     11  O   UNL     1     110.472 110.567 116.374  1.00  0.00    -0.392 OA
ATOM     12  H   UNL     1     110.388 111.424 115.882  1.00  0.00     0.211 HD
ENDBRANCH   8  11
TORSDOF 1
ENDMDL
MODEL 8
REMARK VINA RESULT:    -2.877      2.898      4.352
REMARK INTER + INTRA:          -2.961
REMARK INTER:                  -2.961
REMARK INTRA:                   0.000
REMARK UNBOUND:                 0.000
REMARK SMILES CC1(C)[C@H]2CC[C@](C)(C2)[C@H]1O
REMARK SMILES IDX 1 1 2 2 4 3 5 4 6 5 7 6 9 7 10 8 8 9 3 10 11 11
REMARK H PARENT 11 12
REMARK Flexibility Score: inf
ROOT
ATOM      1  C   UNL     1     117.051 115.792 112.957  1.00  0.00     0.014 C 
ATOM      2  C   UNL     1     118.307 116.675 112.736  1.00  0.00    -0.006 C 
ATOM      3  C   UNL     1     118.021 117.955 111.875  1.00  0.00    -0.002 C 
ATOM      4  C   UNL     1     116.782 118.713 112.398  1.00  0.00     0.005 C 
ATOM      5  C   UNL     1     117.260 119.247 113.758  1.00  0.00     0.010 C 
ATOM      6  C   UNL     1     118.748 118.824 113.787  1.00  0.00    -0.006 C 
ATOM      7  C   UNL     1     119.118 118.907 112.322  1.00  0.00     0.013 C 
ATOM      8  C   UNL     1     118.873 117.302 114.053  1.00  0.00     0.126 C 
ATOM      9  C   UNL     1     119.621 119.690 114.701  1.00  0.00     0.014 C 
ATOM     10  C   UNL     1     119.373 115.794 112.040  1.00  0.00     0.014 C 
ENDROOT
BRANCH   8  11
ATOM     11  O   UNL     1     118.167 116.925 115.208  1.00  0.00    -0.392 OA
ATOM     12  H   UNL     1     118.785 117.058 115.973  1.00  0.00     0.211 HD
ENDBRANCH   8  11
TORSDOF 1
ENDMDL
MODEL 9
REMARK VINA RESULT:    -2.445      3.323      5.397
REMARK INTER + INTRA:          -2.516
REMARK INTER:                  -2.516
REMARK INTRA:                   0.000
REMARK UNBOUND:                 0.000
REMARK SMILES CC1(C)[C@H]2CC[C@](C)(C2)[C@H]1O
REMARK SMILES IDX 1 1 2 2 4 3 5 4 6 5 7 6 9 7 10 8 8 9 3 10 11 11
REMARK H PARENT 11 12
REMARK Flexibility Score: inf
ROOT
ATOM      1  C   UNL     1     119.598 119.725 114.039  1.00  0.00     0.014 C 
ATOM      2  C   UNL     1     118.476 119.268 113.073  1.00  0.00    -0.006 C 
ATOM      3  C   UNL     1     118.659 117.796 112.563  1.00  0.00    -0.002 C 
ATOM      4  C   UNL     1     118.935 116.830 113.735  1.00  0.00     0.005 C 
ATOM      5  C   UNL     1     117.599 116.825 114.493  1.00  0.00     0.010 C 
ATOM      6  C   UNL     1     116.692 117.698 113.593  1.00  0.00    -0.006 C 
ATOM      7  C   UNL     1     117.237 117.385 112.216  1.00  0.00     0.013 C 
ATOM      8  C   UNL     1     117.062 119.195 113.741  1.00  0.00     0.126 C 
ATOM      9  C   UNL     1     115.196 117.408 113.752  1.00  0.00     0.014 C 
ATOM     10  C   UNL     1     118.470 120.249 111.875  1.00  0.00     0.014 C 
ENDROOT
BRANCH   8  11
ATOM     11  O   UNL     1     117.053 119.593 115.090  1.00  0.00    -0.392 OA
ATOM     12  H   UNL     1     116.168 119.332 115.455  1.00  0.00     0.211 HD
ENDBRANCH   8  11
TORSDOF 1
ENDMDL
