MODEL 1
REMARK VINA RESULT:    -4.081      0.000      0.000
REMARK INTER + INTRA:          -4.335
REMARK INTER:                  -4.319
REMARK INTRA:                  -0.016
REMARK UNBOUND:                -0.016
REMARK SMILES O=C([O-])c1cccnc1
REMARK SMILES IDX 4 1 5 2 9 3 6 4 8 5 7 6 2 7 1 8 3 9
REMARK H PARENT
REMARK Flexibility Score: inf
ROOT
ATOM      1  C   UNL     1       3.223 -36.770  17.498  1.00  0.00     0.016 A 
ATOM      2  C   UNL     1       4.205 -35.837  17.869  1.00  0.00     0.013 A 
ATOM      3  C   UNL     1       2.605 -37.527  18.509  1.00  0.00     0.120 A 
ATOM      4  C   UNL     1       4.549 -35.678  19.213  1.00  0.00     0.021 A 
ATOM      5  N   UNL     1       2.959 -37.353  19.811  1.00  0.00    -0.264 NA
ATOM      6  C   UNL     1       3.908 -36.453  20.180  1.00  0.00     0.111 A 
ENDROOT
BRANCH   1   7
ATOM      7  C   UNL     1       2.850 -36.948  16.079  1.00  0.00     0.073 C 
ATOM      8  O   UNL     1       1.880 -36.312  15.586  1.00  0.00    -0.545 OA
ATOM      9  O   UNL     1       3.566 -37.820  15.266  1.00  0.00    -0.545 OA
ENDBRANCH   1   7
TORSDOF 1
ENDMDL
MODEL 2
REMARK VINA RESULT:    -4.023      0.925      1.602
REMARK INTER + INTRA:          -4.274
REMARK INTER:                  -4.258
REMARK INTRA:                  -0.016
REMARK UNBOUND:                -0.016
REMARK SMILES O=C([O-])c1cccnc1
REMARK SMILES IDX 4 1 5 2 9 3 6 4 8 5 7 6 2 7 1 8 3 9
REMARK H PARENT
REMARK Flexibility Score: inf
ROOT
ATOM      1  C   UNL     1       3.252 -36.742  17.508  1.00  0.00     0.016 A 
ATOM      2  C   UNL     1       2.641 -37.495  18.524  1.00  0.00     0.013 A 
ATOM      3  C   UNL     1       4.209 -35.778  17.874  1.00  0.00     0.120 A 
ATOM      4  C   UNL     1       2.985 -37.278  19.860  1.00  0.00     0.021 A 
ATOM      5  N   UNL     1       4.525 -35.588  19.182  1.00  0.00    -0.264 NA
ATOM      6  C   UNL     1       3.939 -36.310  20.173  1.00  0.00     0.111 A 
ENDROOT
BRANCH   1   7
ATOM      7  C   UNL     1       2.897 -36.962  16.090  1.00  0.00     0.073 C 
ATOM      8  O   UNL     1       1.944 -36.328  15.562  1.00  0.00    -0.545 OA
ATOM      9  O   UNL     1       3.611 -37.872  15.318  1.00  0.00    -0.545 OA
ENDBRANCH   1   7
TORSDOF 1
ENDMDL
MODEL 3
REMARK VINA RESULT:    -3.907      2.070      2.733
REMARK INTER + INTRA:          -4.151
REMARK INTER:                  -4.132
REMARK INTRA:                  -0.019
REMARK UNBOUND:                -0.016
REMARK SMILES O=C([O-])c1cccnc1
REMARK SMILES IDX 4 1 5 2 9 3 6 4 8 5 7 6 2 7 1 8 3 9
REMARK H PARENT
REMARK Flexibility Score: inf
ROOT
ATOM      1  C   UNL     1       4.009 -36.775  19.055  1.00  0.00     0.016 A 
ATOM      2  C   UNL     1       4.427 -37.389  20.248  1.00  0.00     0.013 A 
ATOM      3  C   UNL     1       4.608 -35.558  18.685  1.00  0.00     0.120 A 
ATOM      4  C   UNL     1       5.413 -36.792  21.035  1.00  0.00     0.021 A 
ATOM      5  N   UNL     1       5.566 -34.998  19.471  1.00  0.00    -0.264 NA
ATOM      6  C   UNL     1       5.977 -35.583  20.626  1.00  0.00     0.111 A 
ENDROOT
BRANCH   1   7
ATOM      7  C   UNL     1       2.966 -37.397  18.212  1.00  0.00     0.073 C 
ATOM      8  O   UNL     1       3.122 -37.494  16.966  1.00  0.00    -0.545 OA
ATOM      9  O   UNL     1       1.796 -37.886  18.785  1.00  0.00    -0.545 OA
ENDBRANCH   1   7
TORSDOF 1
ENDMDL
MODEL 4
REMARK VINA RESULT:    -3.893      2.882      3.647
REMARK INTER + INTRA:          -4.137
REMARK INTER:                  -4.113
REMARK INTRA:                  -0.023
REMARK UNBOUND:                -0.016
REMARK SMILES O=C([O-])c1cccnc1
REMARK SMILES IDX 4 1 5 2 9 3 6 4 8 5 7 6 2 7 1 8 3 9
REMARK H PARENT
REMARK Flexibility Score: inf
ROOT
ATOM      1  C   UNL     1       4.290 -36.189  19.197  1.00  0.00     0.016 A 
ATOM      2  C   UNL     1       3.948 -36.281  17.837  1.00  0.00     0.013 A 
ATOM      3  C   UNL     1       3.472 -36.842  20.136  1.00  0.00     0.120 A 
ATOM      4  C   UNL     1       2.821 -37.005  17.445  1.00  0.00     0.021 A 
ATOM      5  N   UNL     1       2.380 -37.541  19.727  1.00  0.00    -0.264 NA
ATOM      6  C   UNL     1       2.041 -37.636  18.415  1.00  0.00     0.111 A 
ENDROOT
BRANCH   1   7
ATOM      7  C   UNL     1       5.481 -35.424  19.625  1.00  0.00     0.073 C 
ATOM      8  O   UNL     1       6.003 -34.571  18.859  1.00  0.00    -0.545 OA
ATOM      9  O   UNL     1       6.039 -35.637  20.880  1.00  0.00    -0.545 OA
ENDBRANCH   1   7
TORSDOF 1
ENDMDL
MODEL 5
REMARK VINA RESULT:    -3.785      2.841      3.698
REMARK INTER + INTRA:          -4.022
REMARK INTER:                  -4.006
REMARK INTRA:                  -0.016
REMARK UNBOUND:                -0.016
REMARK SMILES O=C([O-])c1cccnc1
REMARK SMILES IDX 4 1 5 2 9 3 6 4 8 5 7 6 2 7 1 8 3 9
REMARK H PARENT
REMARK Flexibility Score: inf
ROOT
ATOM      1  C   UNL     1       3.694 -36.778  18.722  1.00  0.00     0.016 A 
ATOM      2  C   UNL     1       4.035 -36.030  17.583  1.00  0.00     0.013 A 
ATOM      3  C   UNL     1       2.480 -37.489  18.715  1.00  0.00     0.120 A 
ATOM      4  C   UNL     1       3.180 -36.002  16.480  1.00  0.00     0.021 A 
ATOM      5  N   UNL     1       1.665 -37.444  17.628  1.00  0.00    -0.264 NA
ATOM      6  C   UNL     1       1.986 -36.724  16.521  1.00  0.00     0.111 A 
ENDROOT
BRANCH   1   7
ATOM      7  C   UNL     1       4.591 -36.816  19.896  1.00  0.00     0.073 C 
ATOM      8  O   UNL     1       5.333 -37.813  20.104  1.00  0.00    -0.545 OA
ATOM      9  O   UNL     1       4.629 -35.749  20.788  1.00  0.00    -0.545 OA
ENDBRANCH   1   7
TORSDOF 1
ENDMDL
MODEL 6
REMARK VINA RESULT:    -3.760      3.052      3.958
REMARK INTER + INTRA:          -3.996
REMARK INTER:                  -3.976
REMARK INTRA:                  -0.020
REMARK UNBOUND:                -0.016
REMARK SMILES O=C([O-])c1cccnc1
REMARK SMILES IDX 4 1 5 2 9 3 6 4 8 5 7 6 2 7 1 8 3 9
REMARK H PARENT
REMARK Flexibility Score: inf
ROOT
ATOM      1  C   UNL     1       3.848 -36.906  19.043  1.00  0.00     0.016 A 
ATOM      2  C   UNL     1       2.684 -37.528  19.523  1.00  0.00     0.013 A 
ATOM      3  C   UNL     1       3.858 -36.439  17.717  1.00  0.00     0.120 A 
ATOM      4  C   UNL     1       1.572 -37.672  18.692  1.00  0.00     0.021 A 
ATOM      5  N   UNL     1       2.761 -36.592  16.928  1.00  0.00    -0.264 NA
ATOM      6  C   UNL     1       1.630 -37.192  17.383  1.00  0.00     0.111 A 
ENDROOT
BRANCH   1   7
ATOM      7  C   UNL     1       5.033 -36.748  19.914  1.00  0.00     0.073 C 
ATOM      8  O   UNL     1       5.433 -37.704  20.630  1.00  0.00    -0.545 OA
ATOM      9  O   UNL     1       5.722 -35.541  19.953  1.00  0.00    -0.545 OA
ENDBRANCH   1   7
TORSDOF 1
ENDMDL
MODEL 7
REMARK VINA RESULT:    -3.557      4.313      5.315
REMARK INTER + INTRA:          -3.781
REMARK INTER:                  -3.758
REMARK INTRA:                  -0.023
REMARK UNBOUND:                -0.016
REMARK SMILES O=C([O-])c1cccnc1
REMARK SMILES IDX 4 1 5 2 9 3 6 4 8 5 7 6 2 7 1 8 3 9
REMARK H PARENT
REMARK Flexibility Score: inf
ROOT
ATOM      1  C   UNL     1       5.648 -35.940  22.016  1.00  0.00     0.016 A 
ATOM      2  C   UNL     1       5.628 -34.609  22.465  1.00  0.00     0.013 A 
ATOM      3  C   UNL     1       5.902 -36.957  22.953  1.00  0.00     0.120 A 
ATOM      4  C   UNL     1       5.858 -34.320  23.811  1.00  0.00     0.021 A 
ATOM      5  N   UNL     1       6.123 -36.648  24.259  1.00  0.00    -0.264 NA
ATOM      6  C   UNL     1       6.106 -35.364  24.703  1.00  0.00     0.111 A 
ENDROOT
BRANCH   1   7
ATOM      7  C   UNL     1       5.406 -36.260  20.593  1.00  0.00     0.073 C 
ATOM      8  O   UNL     1       5.155 -37.441  20.235  1.00  0.00    -0.545 OA
ATOM      9  O   UNL     1       5.452 -35.258  19.629  1.00  0.00    -0.545 OA
ENDBRANCH   1   7
TORSDOF 1
ENDMDL
MODEL 8
REMARK VINA RESULT:    -3.551      2.865      4.039
REMARK INTER + INTRA:          -3.775
REMARK INTER:                  -3.757
REMARK INTRA:                  -0.018
REMARK UNBOUND:                -0.016
REMARK SMILES O=C([O-])c1cccnc1
REMARK SMILES IDX 4 1 5 2 9 3 6 4 8 5 7 6 2 7 1 8 3 9
REMARK H PARENT
REMARK Flexibility Score: inf
ROOT
ATOM      1  C   UNL     1       2.796 -37.183  16.783  1.00  0.00     0.016 A 
ATOM      2  C   UNL     1       1.966 -36.232  16.166  1.00  0.00     0.013 A 
ATOM      3  C   UNL     1       3.675 -37.926  15.976  1.00  0.00     0.120 A 
ATOM      4  C   UNL     1       2.026 -36.041  14.785  1.00  0.00     0.021 A 
ATOM      5  N   UNL     1       3.713 -37.721  14.633  1.00  0.00    -0.264 NA
ATOM      6  C   UNL     1       2.915 -36.803  14.027  1.00  0.00     0.111 A 
ENDROOT
BRANCH   1   7
ATOM      7  C   UNL     1       2.742 -37.395  18.246  1.00  0.00     0.073 C 
ATOM      8  O   UNL     1       3.767 -37.218  18.957  1.00  0.00    -0.545 OA
ATOM      9  O   UNL     1       1.557 -37.791  18.857  1.00  0.00    -0.545 OA
ENDBRANCH   1   7
TORSDOF 1
ENDMDL
MODEL 9
REMARK VINA RESULT:    -3.318      4.880      5.900
REMARK INTER + INTRA:          -3.528
REMARK INTER:                  -3.505
REMARK INTRA:                  -0.023
REMARK UNBOUND:                -0.016
REMARK SMILES O=C([O-])c1cccnc1
REMARK SMILES IDX 4 1 5 2 9 3 6 4 8 5 7 6 2 7 1 8 3 9
REMARK H PARENT
REMARK Flexibility Score: inf
ROOT
ATOM      1  C   UNL     1       5.383 -36.036  22.080  1.00  0.00     0.016 A 
ATOM      2  C   UNL     1       4.619 -35.268  21.184  1.00  0.00     0.013 A 
ATOM      3  C   UNL     1       5.760 -37.334  21.693  1.00  0.00     0.120 A 
ATOM      4  C   UNL     1       4.252 -35.796  19.945  1.00  0.00     0.021 A 
ATOM      5  N   UNL     1       5.389 -37.824  20.480  1.00  0.00    -0.264 NA
ATOM      6  C   UNL     1       4.651 -37.090  19.607  1.00  0.00     0.111 A 
ENDROOT
BRANCH   1   7
ATOM      7  C   UNL     1       5.778 -35.488  23.395  1.00  0.00     0.073 C 
ATOM      8  O   UNL     1       6.111 -36.257  24.336  1.00  0.00    -0.545 OA
ATOM      9  O   UNL     1       5.788 -34.114  23.611  1.00  0.00    -0.545 OA
ENDBRANCH   1   7
TORSDOF 1
ENDMDL
