MODEL 1
REMARK VINA RESULT:    -4.119      0.000      0.000
REMARK INTER + INTRA:          -6.634
REMARK INTER:                  -5.926
REMARK INTRA:                  -0.709
REMARK UNBOUND:                -0.709
REMARK SMILES O=C(CO)[C@@H](O)[C@H](O)[C@H](O)CO
REMARK SMILES IDX 7 1 9 2 11 3 12 4 10 6 5 8 2 9 1 10 3 11 4 12 6 14 8 16
REMARK H PARENT 12 5 10 7 4 13 6 15 8 17
REMARK Flexibility Score: inf
ROOT
ATOM      1  C   UNL     1      27.718 -12.610 -21.410  1.00  0.00     0.181 C 
ENDROOT
BRANCH   1   2
ATOM      2  C   UNL     1      28.780 -13.696 -21.728  1.00  0.00     0.171 C 
BRANCH   2   3
ATOM      3  C   UNL     1      30.027 -13.544 -20.837  1.00  0.00     0.190 C 
BRANCH   3   4
ATOM      4  O   UNL     1      31.085 -14.313 -21.342  1.00  0.00    -0.394 OA
ATOM      5  H   UNL     1      31.412 -13.851 -22.157  1.00  0.00     0.210 HD
ENDBRANCH   3   4
ENDBRANCH   2   3
BRANCH   2   6
ATOM      6  O   UNL     1      28.242 -14.989 -21.593  1.00  0.00    -0.388 OA
ATOM      7  H   UNL     1      28.701 -15.573 -22.253  1.00  0.00     0.211 HD
ENDBRANCH   2   6
ENDBRANCH   1   2
BRANCH   1   8
ATOM      8  C   UNL     1      27.008 -12.822 -20.045  1.00  0.00     0.214 C 
BRANCH   8   9
ATOM      9  C   UNL     1      26.656 -11.508 -19.371  1.00  0.00     0.189 C 
ATOM     10  O   UNL     1      26.544 -10.505 -20.061  1.00  0.00    -0.294 OA
BRANCH   9  11
ATOM     11  C   UNL     1      26.465 -11.376 -17.879  1.00  0.00     0.234 C 
BRANCH  11  12
ATOM     12  O   UNL     1      25.820 -12.514 -17.374  1.00  0.00    -0.388 OA
ATOM     13  H   UNL     1      26.454 -12.942 -16.742  1.00  0.00     0.211 HD
ENDBRANCH  11  12
ENDBRANCH   9  11
ENDBRANCH   8   9
BRANCH   8  14
ATOM     14  O   UNL     1      25.869 -13.630 -20.201  1.00  0.00    -0.382 OA
ATOM     15  H   UNL     1      25.089 -13.021 -20.287  1.00  0.00     0.211 HD
ENDBRANCH   8  14
ENDBRANCH   1   8
BRANCH   1  16
ATOM     16  O   UNL     1      26.761 -12.584 -22.439  1.00  0.00    -0.387 OA
ATOM     17  H   UNL     1      27.249 -12.729 -23.293  1.00  0.00     0.211 HD
ENDBRANCH   1  16
TORSDOF 10
ENDMDL
MODEL 2
REMARK VINA RESULT:    -4.056      1.626      2.780
REMARK INTER + INTRA:          -6.543
REMARK INTER:                  -5.968
REMARK INTRA:                  -0.575
REMARK UNBOUND:                -0.709
REMARK SMILES O=C(CO)[C@@H](O)[C@H](O)[C@H](O)CO
REMARK SMILES IDX 7 1 9 2 11 3 12 4 10 6 5 8 2 9 1 10 3 11 4 12 6 14 8 16
REMARK H PARENT 12 5 10 7 4 13 6 15 8 17
REMARK Flexibility Score: inf
ROOT
ATOM      1  C   UNL     1      26.648 -12.098 -19.672  1.00  0.00     0.181 C 
ENDROOT
BRANCH   1   2
ATOM      2  C   UNL     1      28.082 -12.279 -20.238  1.00  0.00     0.171 C 
BRANCH   2   3
ATOM      3  C   UNL     1      28.057 -12.869 -21.660  1.00  0.00     0.190 C 
BRANCH   3   4
ATOM      4  O   UNL     1      28.055 -14.271 -21.608  1.00  0.00    -0.394 OA
ATOM      5  H   UNL     1      27.680 -14.589 -22.470  1.00  0.00     0.210 HD
ENDBRANCH   3   4
ENDBRANCH   2   3
BRANCH   2   6
ATOM      6  O   UNL     1      28.790 -11.064 -20.229  1.00  0.00    -0.388 OA
ATOM      7  H   UNL     1      29.689 -11.240 -20.615  1.00  0.00     0.211 HD
ENDBRANCH   2   6
ENDBRANCH   1   2
BRANCH   1   8
ATOM      8  C   UNL     1      26.624 -11.590 -18.204  1.00  0.00     0.214 C 
BRANCH   8   9
ATOM      9  C   UNL     1      26.186 -10.140 -18.106  1.00  0.00     0.189 C 
ATOM     10  O   UNL     1      26.796  -9.298 -18.750  1.00  0.00    -0.294 OA
BRANCH   9  11
ATOM     11  C   UNL     1      25.049  -9.684 -17.225  1.00  0.00     0.234 C 
BRANCH  11  12
ATOM     12  O   UNL     1      24.247  -8.761 -17.913  1.00  0.00    -0.388 OA
ATOM     13  H   UNL     1      23.413  -8.659 -17.383  1.00  0.00     0.211 HD
ENDBRANCH  11  12
ENDBRANCH   9  11
ENDBRANCH   8   9
BRANCH   8  14
ATOM     14  O   UNL     1      25.812 -12.417 -17.409  1.00  0.00    -0.382 OA
ATOM     15  H   UNL     1      25.772 -13.302 -17.857  1.00  0.00     0.211 HD
ENDBRANCH   8  14
ENDBRANCH   1   8
BRANCH   1  16
ATOM     16  O   UNL     1      25.961 -13.321 -19.758  1.00  0.00    -0.387 OA
ATOM     17  H   UNL     1      26.229 -13.861 -18.969  1.00  0.00     0.211 HD
ENDBRANCH   1  16
TORSDOF 10
ENDMDL
MODEL 3
REMARK VINA RESULT:    -4.041      1.633      2.650
REMARK INTER + INTRA:          -6.522
REMARK INTER:                  -5.781
REMARK INTRA:                  -0.741
REMARK UNBOUND:                -0.709
REMARK SMILES O=C(CO)[C@@H](O)[C@H](O)[C@H](O)CO
REMARK SMILES IDX 7 1 9 2 11 3 12 4 10 6 5 8 2 9 1 10 3 11 4 12 6 14 8 16
REMARK H PARENT 12 5 10 7 4 13 6 15 8 17
REMARK Flexibility Score: inf
ROOT
ATOM      1  C   UNL     1      29.529 -13.079 -21.946  1.00  0.00     0.181 C 
ENDROOT
BRANCH   1   2
ATOM      2  C   UNL     1      30.774 -13.901 -22.372  1.00  0.00     0.171 C 
BRANCH   2   3
ATOM      3  C   UNL     1      31.821 -13.017 -23.074  1.00  0.00     0.190 C 
BRANCH   3   4
ATOM      4  O   UNL     1      31.897 -11.762 -22.454  1.00  0.00    -0.394 OA
ATOM      5  H   UNL     1      32.854 -11.601 -22.247  1.00  0.00     0.210 HD
ENDBRANCH   3   4
ENDBRANCH   2   3
BRANCH   2   6
ATOM      6  O   UNL     1      31.353 -14.557 -21.270  1.00  0.00    -0.388 OA
ATOM      7  H   UNL     1      30.617 -14.799 -20.647  1.00  0.00     0.211 HD
ENDBRANCH   2   6
ENDBRANCH   1   2
BRANCH   1   8
ATOM      8  C   UNL     1      28.481 -13.909 -21.155  1.00  0.00     0.214 C 
BRANCH   8   9
ATOM      9  C   UNL     1      27.114 -13.250 -21.145  1.00  0.00     0.189 C 
ATOM     10  O   UNL     1      26.295 -13.587 -21.988  1.00  0.00    -0.294 OA
BRANCH   9  11
ATOM     11  C   UNL     1      26.728 -12.174 -20.160  1.00  0.00     0.234 C 
BRANCH  11  12
ATOM     12  O   UNL     1      26.284 -12.754 -18.962  1.00  0.00    -0.388 OA
ATOM     13  H   UNL     1      27.093 -13.079 -18.487  1.00  0.00     0.211 HD
ENDBRANCH  11  12
ENDBRANCH   9  11
ENDBRANCH   8   9
BRANCH   8  14
ATOM     14  O   UNL     1      28.407 -15.220 -21.658  1.00  0.00    -0.382 OA
ATOM     15  H   UNL     1      28.869 -15.219 -22.537  1.00  0.00     0.211 HD
ENDBRANCH   8  14
ENDBRANCH   1   8
BRANCH   1  16
ATOM     16  O   UNL     1      28.926 -12.528 -23.090  1.00  0.00    -0.387 OA
ATOM     17  H   UNL     1      29.591 -11.918 -23.504  1.00  0.00     0.211 HD
ENDBRANCH   1  16
TORSDOF 10
ENDMDL
MODEL 4
REMARK VINA RESULT:    -4.029     12.914     14.359
REMARK INTER + INTRA:          -6.505
REMARK INTER:                  -5.579
REMARK INTRA:                  -0.926
REMARK UNBOUND:                -0.709
REMARK SMILES O=C(CO)[C@@H](O)[C@H](O)[C@H](O)CO
REMARK SMILES IDX 7 1 9 2 11 3 12 4 10 6 5 8 2 9 1 10 3 11 4 12 6 14 8 16
REMARK H PARENT 12 5 10 7 4 13 6 15 8 17
REMARK Flexibility Score: inf
ROOT
ATOM      1  C   UNL     1      29.124 -12.754 -33.225  1.00  0.00     0.181 C 
ENDROOT
BRANCH   1   2
ATOM      2  C   UNL     1      29.049 -11.496 -34.131  1.00  0.00     0.171 C 
BRANCH   2   3
ATOM      3  C   UNL     1      27.622 -11.267 -34.661  1.00  0.00     0.190 C 
BRANCH   3   4
ATOM      4  O   UNL     1      27.533 -11.647 -36.008  1.00  0.00    -0.394 OA
ATOM      5  H   UNL     1      27.645 -12.633 -36.036  1.00  0.00     0.210 HD
ENDBRANCH   3   4
ENDBRANCH   2   3
BRANCH   2   6
ATOM      6  O   UNL     1      29.505 -10.351 -33.452  1.00  0.00    -0.388 OA
ATOM      7  H   UNL     1      30.095  -9.850 -34.075  1.00  0.00     0.211 HD
ENDBRANCH   2   6
ENDBRANCH   1   2
BRANCH   1   8
ATOM      8  C   UNL     1      30.576 -13.245 -32.969  1.00  0.00     0.214 C 
BRANCH   8   9
ATOM      9  C   UNL     1      30.701 -14.753 -33.087  1.00  0.00     0.189 C 
ATOM     10  O   UNL     1      30.101 -15.456 -32.288  1.00  0.00    -0.294 OA
BRANCH   9  11
ATOM     11  C   UNL     1      31.559 -15.426 -34.131  1.00  0.00     0.234 C 
BRANCH  11  12
ATOM     12  O   UNL     1      32.882 -14.968 -34.035  1.00  0.00    -0.388 OA
ATOM     13  H   UNL     1      32.899 -14.063 -34.441  1.00  0.00     0.211 HD
ENDBRANCH  11  12
ENDBRANCH   9  11
ENDBRANCH   8   9
BRANCH   8  14
ATOM     14  O   UNL     1      31.476 -12.594 -33.830  1.00  0.00    -0.382 OA
ATOM     15  H   UNL     1      32.353 -13.050 -33.732  1.00  0.00     0.211 HD
ENDBRANCH   8  14
ENDBRANCH   1   8
BRANCH   1  16
ATOM     16  O   UNL     1      28.374 -13.789 -33.809  1.00  0.00    -0.387 OA
ATOM     17  H   UNL     1      27.525 -13.856 -33.297  1.00  0.00     0.211 HD
ENDBRANCH   1  16
TORSDOF 10
ENDMDL
MODEL 5
REMARK VINA RESULT:    -4.029     11.537     13.553
REMARK INTER + INTRA:          -6.505
REMARK INTER:                  -5.825
REMARK INTRA:                  -0.679
REMARK UNBOUND:                -0.709
REMARK SMILES O=C(CO)[C@@H](O)[C@H](O)[C@H](O)CO
REMARK SMILES IDX 7 1 9 2 11 3 12 4 10 6 5 8 2 9 1 10 3 11 4 12 6 14 8 16
REMARK H PARENT 12 5 10 7 4 13 6 15 8 17
REMARK Flexibility Score: inf
ROOT
ATOM      1  C   UNL     1      27.323 -13.284 -32.287  1.00  0.00     0.181 C 
ENDROOT
BRANCH   1   2
ATOM      2  C   UNL     1      26.089 -13.350 -31.349  1.00  0.00     0.171 C 
BRANCH   2   3
ATOM      3  C   UNL     1      24.821 -13.772 -32.114  1.00  0.00     0.190 C 
BRANCH   3   4
ATOM      4  O   UNL     1      24.936 -15.096 -32.561  1.00  0.00    -0.394 OA
ATOM      5  H   UNL     1      25.805 -15.165 -33.034  1.00  0.00     0.210 HD
ENDBRANCH   3   4
ENDBRANCH   2   3
BRANCH   2   6
ATOM      6  O   UNL     1      26.316 -14.222 -30.268  1.00  0.00    -0.388 OA
ATOM      7  H   UNL     1      27.241 -14.058 -29.943  1.00  0.00     0.211 HD
ENDBRANCH   2   6
ENDBRANCH   1   2
BRANCH   1   8
ATOM      8  C   UNL     1      27.006 -12.678 -33.682  1.00  0.00     0.214 C 
BRANCH   8   9
ATOM      9  C   UNL     1      28.134 -11.801 -34.196  1.00  0.00     0.189 C 
ATOM     10  O   UNL     1      29.237 -11.900 -33.679  1.00  0.00    -0.294 OA
BRANCH   9  11
ATOM     11  C   UNL     1      27.947 -10.789 -35.301  1.00  0.00     0.234 C 
BRANCH  11  12
ATOM     12  O   UNL     1      27.294 -11.380 -36.391  1.00  0.00    -0.388 OA
ATOM     13  H   UNL     1      28.001 -11.647 -37.035  1.00  0.00     0.211 HD
ENDBRANCH  11  12
ENDBRANCH   9  11
ENDBRANCH   8   9
BRANCH   8  14
ATOM     14  O   UNL     1      26.695 -13.693 -34.603  1.00  0.00    -0.382 OA
ATOM     15  H   UNL     1      27.187 -14.506 -34.316  1.00  0.00     0.211 HD
ENDBRANCH   8  14
ENDBRANCH   1   8
BRANCH   1  16
ATOM     16  O   UNL     1      27.852 -14.576 -32.446  1.00  0.00    -0.387 OA
ATOM     17  H   UNL     1      27.741 -14.820 -33.402  1.00  0.00     0.211 HD
ENDBRANCH   1  16
TORSDOF 10
ENDMDL
MODEL 6
REMARK VINA RESULT:    -3.991      1.051      4.438
REMARK INTER + INTRA:          -6.450
REMARK INTER:                  -5.907
REMARK INTRA:                  -0.542
REMARK UNBOUND:                -0.709
REMARK SMILES O=C(CO)[C@@H](O)[C@H](O)[C@H](O)CO
REMARK SMILES IDX 7 1 9 2 11 3 12 4 10 6 5 8 2 9 1 10 3 11 4 12 6 14 8 16
REMARK H PARENT 12 5 10 7 4 13 6 15 8 17
REMARK Flexibility Score: inf
ROOT
ATOM      1  C   UNL     1      27.047 -12.570 -19.805  1.00  0.00     0.181 C 
ENDROOT
BRANCH   1   2
ATOM      2  C   UNL     1      26.728 -11.121 -19.349  1.00  0.00     0.171 C 
BRANCH   2   3
ATOM      3  C   UNL     1      26.348 -11.070 -17.858  1.00  0.00     0.190 C 
BRANCH   3   4
ATOM      4  O   UNL     1      26.641 -12.292 -17.236  1.00  0.00    -0.394 OA
ATOM      5  H   UNL     1      25.970 -12.947 -17.559  1.00  0.00     0.210 HD
ENDBRANCH   3   4
ENDBRANCH   2   3
BRANCH   2   6
ATOM      6  O   UNL     1      27.808 -10.256 -19.605  1.00  0.00    -0.388 OA
ATOM      7  H   UNL     1      28.249 -10.569 -20.439  1.00  0.00     0.211 HD
ENDBRANCH   2   6
ENDBRANCH   1   2
BRANCH   1   8
ATOM      8  C   UNL     1      27.672 -12.646 -21.225  1.00  0.00     0.214 C 
BRANCH   8   9
ATOM      9  C   UNL     1      29.157 -12.956 -21.184  1.00  0.00     0.189 C 
ATOM     10  O   UNL     1      29.937 -12.055 -20.913  1.00  0.00    -0.294 OA
BRANCH   9  11
ATOM     11  C   UNL     1      29.719 -14.323 -21.491  1.00  0.00     0.234 C 
BRANCH  11  12
ATOM     12  O   UNL     1      31.119 -14.298 -21.411  1.00  0.00    -0.388 OA
ATOM     13  H   UNL     1      31.351 -13.635 -20.710  1.00  0.00     0.211 HD
ENDBRANCH  11  12
ENDBRANCH   9  11
ENDBRANCH   8   9
BRANCH   8  14
ATOM     14  O   UNL     1      26.983 -13.581 -22.018  1.00  0.00    -0.382 OA
ATOM     15  H   UNL     1      26.015 -13.464 -21.830  1.00  0.00     0.211 HD
ENDBRANCH   8  14
ENDBRANCH   1   8
BRANCH   1  16
ATOM     16  O   UNL     1      25.870 -13.336 -19.767  1.00  0.00    -0.387 OA
ATOM     17  H   UNL     1      25.926 -13.914 -18.961  1.00  0.00     0.211 HD
ENDBRANCH   1  16
TORSDOF 10
ENDMDL
MODEL 7
REMARK VINA RESULT:    -3.986     11.867     13.784
REMARK INTER + INTRA:          -6.442
REMARK INTER:                  -5.000
REMARK INTRA:                  -1.442
REMARK UNBOUND:                -0.709
REMARK SMILES O=C(CO)[C@@H](O)[C@H](O)[C@H](O)CO
REMARK SMILES IDX 7 1 9 2 11 3 12 4 10 6 5 8 2 9 1 10 3 11 4 12 6 14 8 16
REMARK H PARENT 12 5 10 7 4 13 6 15 8 17
REMARK Flexibility Score: inf
ROOT
ATOM      1  C   UNL     1      28.643 -12.535 -32.643  1.00  0.00     0.181 C 
ENDROOT
BRANCH   1   2
ATOM      2  C   UNL     1      27.322 -13.304 -32.373  1.00  0.00     0.171 C 
BRANCH   2   3
ATOM      3  C   UNL     1      26.928 -14.186 -33.572  1.00  0.00     0.190 C 
BRANCH   3   4
ATOM      4  O   UNL     1      26.667 -13.393 -34.699  1.00  0.00    -0.394 OA
ATOM      5  H   UNL     1      27.540 -13.036 -35.007  1.00  0.00     0.210 HD
ENDBRANCH   3   4
ENDBRANCH   2   3
BRANCH   2   6
ATOM      6  O   UNL     1      27.415 -14.084 -31.206  1.00  0.00    -0.388 OA
ATOM      7  H   UNL     1      26.823 -14.872 -31.327  1.00  0.00     0.211 HD
ENDBRANCH   2   6
ENDBRANCH   1   2
BRANCH   1   8
ATOM      8  C   UNL     1      28.435 -11.013 -32.874  1.00  0.00     0.214 C 
BRANCH   8   9
ATOM      9  C   UNL     1      29.220 -10.501 -34.068  1.00  0.00     0.189 C 
ATOM     10  O   UNL     1      30.432 -10.376 -33.964  1.00  0.00    -0.294 OA
BRANCH   9  11
ATOM     11  C   UNL     1      28.569 -10.108 -35.372  1.00  0.00     0.234 C 
BRANCH  11  12
ATOM     12  O   UNL     1      27.883 -11.203 -35.916  1.00  0.00    -0.388 OA
ATOM     13  H   UNL     1      26.927 -10.940 -35.973  1.00  0.00     0.211 HD
ENDBRANCH  11  12
ENDBRANCH   9  11
ENDBRANCH   8   9
BRANCH   8  14
ATOM     14  O   UNL     1      27.067 -10.715 -33.004  1.00  0.00    -0.382 OA
ATOM     15  H   UNL     1      26.910  -9.860 -32.525  1.00  0.00     0.211 HD
ENDBRANCH   8  14
ENDBRANCH   1   8
BRANCH   1  16
ATOM     16  O   UNL     1      29.284 -13.097 -33.760  1.00  0.00    -0.387 OA
ATOM     17  H   UNL     1      28.586 -13.559 -34.294  1.00  0.00     0.211 HD
ENDBRANCH   1  16
TORSDOF 10
ENDMDL
MODEL 8
REMARK VINA RESULT:    -3.954     16.169     18.013
REMARK INTER + INTRA:          -6.396
REMARK INTER:                  -5.654
REMARK INTRA:                  -0.742
REMARK UNBOUND:                -0.709
REMARK SMILES O=C(CO)[C@@H](O)[C@H](O)[C@H](O)CO
REMARK SMILES IDX 7 1 9 2 11 3 12 4 10 6 5 8 2 9 1 10 3 11 4 12 6 14 8 16
REMARK H PARENT 12 5 10 7 4 13 6 15 8 17
REMARK Flexibility Score: inf
ROOT
ATOM      1  C   UNL     1      36.869  -7.699 -33.569  1.00  0.00     0.181 C 
ENDROOT
BRANCH   1   2
ATOM      2  C   UNL     1      37.092  -9.217 -33.338  1.00  0.00     0.171 C 
BRANCH   2   3
ATOM      3  C   UNL     1      35.868  -9.872 -32.673  1.00  0.00     0.190 C 
BRANCH   3   4
ATOM      4  O   UNL     1      34.689  -9.223 -33.069  1.00  0.00    -0.394 OA
ATOM      5  H   UNL     1      34.948  -8.552 -33.753  1.00  0.00     0.210 HD
ENDBRANCH   3   4
ENDBRANCH   2   3
BRANCH   2   6
ATOM      6  O   UNL     1      37.402  -9.876 -34.541  1.00  0.00    -0.388 OA
ATOM      7  H   UNL     1      38.028 -10.616 -34.323  1.00  0.00     0.211 HD
ENDBRANCH   2   6
ENDBRANCH   1   2
BRANCH   1   8
ATOM      8  C   UNL     1      37.966  -7.041 -34.450  1.00  0.00     0.214 C 
BRANCH   8   9
ATOM      9  C   UNL     1      37.941  -5.525 -34.362  1.00  0.00     0.189 C 
ATOM     10  O   UNL     1      38.698  -4.970 -33.580  1.00  0.00    -0.294 OA
BRANCH   9  11
ATOM     11  C   UNL     1      37.000  -4.672 -35.177  1.00  0.00     0.234 C 
BRANCH  11  12
ATOM     12  O   UNL     1      37.656  -4.186 -36.318  1.00  0.00    -0.388 OA
ATOM     13  H   UNL     1      38.065  -3.318 -36.062  1.00  0.00     0.211 HD
ENDBRANCH  11  12
ENDBRANCH   9  11
ENDBRANCH   8   9
BRANCH   8  14
ATOM     14  O   UNL     1      39.235  -7.545 -34.117  1.00  0.00    -0.382 OA
ATOM     15  H   UNL     1      39.871  -6.784 -34.162  1.00  0.00     0.211 HD
ENDBRANCH   8  14
ENDBRANCH   1   8
BRANCH   1  16
ATOM     16  O   UNL     1      36.809  -7.046 -32.326  1.00  0.00    -0.387 OA
ATOM     17  H   UNL     1      35.849  -6.882 -32.130  1.00  0.00     0.211 HD
ENDBRANCH   1  16
TORSDOF 10
ENDMDL
MODEL 9
REMARK VINA RESULT:    -3.949      1.666      4.672
REMARK INTER + INTRA:          -6.390
REMARK INTER:                  -4.965
REMARK INTRA:                  -1.425
REMARK UNBOUND:                -0.709
REMARK SMILES O=C(CO)[C@@H](O)[C@H](O)[C@H](O)CO
REMARK SMILES IDX 7 1 9 2 11 3 12 4 10 6 5 8 2 9 1 10 3 11 4 12 6 14 8 16
REMARK H PARENT 12 5 10 7 4 13 6 15 8 17
REMARK Flexibility Score: inf
ROOT
ATOM      1  C   UNL     1      28.255 -13.581 -20.784  1.00  0.00     0.181 C 
ENDROOT
BRANCH   1   2
ATOM      2  C   UNL     1      26.942 -12.764 -20.658  1.00  0.00     0.171 C 
BRANCH   2   3
ATOM      3  C   UNL     1      26.023 -12.981 -21.875  1.00  0.00     0.190 C 
BRANCH   3   4
ATOM      4  O   UNL     1      26.588 -12.405 -23.023  1.00  0.00    -0.394 OA
ATOM      5  H   UNL     1      25.898 -11.808 -23.413  1.00  0.00     0.210 HD
ENDBRANCH   3   4
ENDBRANCH   2   3
BRANCH   2   6
ATOM      6  O   UNL     1      26.257 -13.080 -19.471  1.00  0.00    -0.388 OA
ATOM      7  H   UNL     1      25.954 -12.225 -19.065  1.00  0.00     0.211 HD
ENDBRANCH   2   6
ENDBRANCH   1   2
BRANCH   1   8
ATOM      8  C   UNL     1      29.504 -12.702 -21.067  1.00  0.00     0.214 C 
BRANCH   8   9
ATOM      9  C   UNL     1      30.396 -13.300 -22.140  1.00  0.00     0.189 C 
ATOM     10  O   UNL     1      31.090 -14.265 -21.856  1.00  0.00    -0.294 OA
BRANCH   9  11
ATOM     11  C   UNL     1      30.488 -12.736 -23.537  1.00  0.00     0.234 C 
BRANCH  11  12
ATOM     12  O   UNL     1      29.211 -12.395 -24.005  1.00  0.00    -0.388 OA
ATOM     13  H   UNL     1      29.287 -11.488 -24.401  1.00  0.00     0.211 HD
ENDBRANCH  11  12
ENDBRANCH   9  11
ENDBRANCH   8   9
BRANCH   8  14
ATOM     14  O   UNL     1      29.120 -11.392 -21.401  1.00  0.00    -0.382 OA
ATOM     15  H   UNL     1      28.167 -11.294 -21.143  1.00  0.00     0.211 HD
ENDBRANCH   8  14
ENDBRANCH   1   8
BRANCH   1  16
ATOM     16  O   UNL     1      28.109 -14.534 -21.807  1.00  0.00    -0.387 OA
ATOM     17  H   UNL     1      27.562 -15.276 -21.437  1.00  0.00     0.211 HD
ENDBRANCH   1  16
TORSDOF 10
ENDMDL
