MODEL 1
REMARK VINA RESULT:    -6.390      0.000      0.000
REMARK INTER + INTRA:         -10.716
REMARK INTER:                  -9.751
REMARK INTRA:                  -0.965
REMARK UNBOUND:                -0.965
REMARK SMILES CC(=O)CCC=C(C)CCC=C(C)CCC=C(C)C
REMARK SMILES IDX 10 1 11 2 12 3 13 4 14 5 15 6 16 7 18 8 17 9 19 10 9 11 7 12
REMARK SMILES IDX 6 13 8 14 5 15 4 16 2 17 3 18 1 19
REMARK H PARENT
REMARK Flexibility Score: inf
ROOT
ATOM      1  C   UNL     1     -12.884 -15.668  29.180  1.00  0.00     0.032 C 
ENDROOT
BRANCH   1   2
ATOM      2  C   UNL     1     -13.054 -16.003  30.642  1.00  0.00    -0.028 C 
ATOM      3  C   UNL     1     -13.917 -15.350  31.452  1.00  0.00    -0.077 C 
ATOM      4  C   UNL     1     -14.774 -14.217  30.939  1.00  0.00     0.039 C 
BRANCH   3   5
ATOM      5  C   UNL     1     -14.030 -15.765  32.905  1.00  0.00     0.034 C 
BRANCH   5   6
ATOM      6  C   UNL     1     -13.654 -14.621  33.859  1.00  0.00     0.032 C 
BRANCH   6   7
ATOM      7  C   UNL     1     -12.458 -14.973  34.712  1.00  0.00    -0.028 C 
ATOM      8  C   UNL     1     -12.871 -13.128  36.355  1.00  0.00     0.039 C 
ATOM      9  C   UNL     1     -12.111 -14.332  35.850  1.00  0.00    -0.080 C 
ATOM     10  C   UNL     1     -10.917 -14.832  36.619  1.00  0.00     0.039 C 
ENDBRANCH   6   7
ENDBRANCH   5   6
ENDBRANCH   3   5
ENDBRANCH   1   2
BRANCH   1  11
ATOM     11  C   UNL     1     -11.411 -15.726  28.765  1.00  0.00     0.034 C 
BRANCH  11  12
ATOM     12  C   UNL     1     -11.119 -17.005  28.006  1.00  0.00    -0.077 C 
ATOM     13  C   UNL     1     -10.712 -18.144  28.612  1.00  0.00    -0.028 C 
ATOM     14  C   UNL     1     -11.362 -17.035  26.519  1.00  0.00     0.039 C 
BRANCH  13  15
ATOM     15  C   UNL     1     -10.412 -18.278  30.087  1.00  0.00     0.035 C 
BRANCH  15  16
ATOM     16  C   UNL     1     -10.905 -19.616  30.655  1.00  0.00     0.079 C 
BRANCH  16  17
ATOM     17  C   UNL     1     -12.404 -19.740  30.579  1.00  0.00     0.130 C 
ATOM     18  O   UNL     1     -13.090 -19.446  31.547  1.00  0.00    -0.300 OA
ATOM     19  C   UNL     1     -13.065 -20.189  29.311  1.00  0.00     0.087 C 
ENDBRANCH  16  17
ENDBRANCH  15  16
ENDBRANCH  13  15
ENDBRANCH  11  12
ENDBRANCH   1  11
TORSDOF 9
ENDMDL
MODEL 2
REMARK VINA RESULT:    -5.418      2.012      6.621
REMARK INTER + INTRA:          -9.232
REMARK INTER:                  -8.123
REMARK INTRA:                  -1.110
REMARK UNBOUND:                -0.965
REMARK SMILES CC(=O)CCC=C(C)CCC=C(C)CCC=C(C)C
REMARK SMILES IDX 10 1 11 2 12 3 13 4 14 5 15 6 16 7 18 8 17 9 19 10 9 11 7 12
REMARK SMILES IDX 6 13 8 14 5 15 4 16 2 17 3 18 1 19
REMARK H PARENT
REMARK Flexibility Score: inf
ROOT
ATOM      1  C   UNL     1     -14.141 -15.146  30.807  1.00  0.00     0.032 C 
ENDROOT
BRANCH   1   2
ATOM      2  C   UNL     1     -12.770 -15.762  30.674  1.00  0.00    -0.028 C 
ATOM      3  C   UNL     1     -12.124 -15.876  29.492  1.00  0.00    -0.077 C 
ATOM      4  C   UNL     1     -12.749 -15.394  28.204  1.00  0.00     0.039 C 
BRANCH   3   5
ATOM      5  C   UNL     1     -10.743 -16.498  29.458  1.00  0.00     0.034 C 
BRANCH   5   6
ATOM      6  C   UNL     1     -10.765 -17.969  29.898  1.00  0.00     0.032 C 
BRANCH   6   7
ATOM      7  C   UNL     1     -11.725 -18.787  29.065  1.00  0.00    -0.028 C 
ATOM      8  C   UNL     1     -12.774 -19.893  31.054  1.00  0.00     0.039 C 
ATOM      9  C   UNL     1     -12.652 -19.632  29.571  1.00  0.00    -0.080 C 
ATOM     10  C   UNL     1     -13.573 -20.342  28.613  1.00  0.00     0.039 C 
ENDBRANCH   6   7
ENDBRANCH   5   6
ENDBRANCH   3   5
ENDBRANCH   1   2
BRANCH   1  11
ATOM     11  C   UNL     1     -14.369 -14.598  32.219  1.00  0.00     0.034 C 
BRANCH  11  12
ATOM     12  C   UNL     1     -13.978 -15.627  33.262  1.00  0.00    -0.077 C 
ATOM     13  C   UNL     1     -13.340 -15.305  34.410  1.00  0.00    -0.028 C 
ATOM     14  C   UNL     1     -14.382 -17.063  33.047  1.00  0.00     0.039 C 
BRANCH  13  15
ATOM     15  C   UNL     1     -12.858 -13.920  34.772  1.00  0.00     0.035 C 
BRANCH  15  16
ATOM     16  C   UNL     1     -12.189 -13.886  36.153  1.00  0.00     0.079 C 
BRANCH  16  17
ATOM     17  C   UNL     1     -10.882 -14.635  36.162  1.00  0.00     0.130 C 
ATOM     18  O   UNL     1     -10.611 -15.376  37.095  1.00  0.00    -0.300 OA
ATOM     19  C   UNL     1      -9.925 -14.503  35.016  1.00  0.00     0.087 C 
ENDBRANCH  16  17
ENDBRANCH  15  16
ENDBRANCH  13  15
ENDBRANCH  11  12
ENDBRANCH   1  11
TORSDOF 9
ENDMDL
MODEL 3
REMARK VINA RESULT:    -5.377      2.266      7.111
REMARK INTER + INTRA:          -9.171
REMARK INTER:                  -8.969
REMARK INTRA:                  -0.201
REMARK UNBOUND:                -0.965
REMARK SMILES CC(=O)CCC=C(C)CCC=C(C)CCC=C(C)C
REMARK SMILES IDX 10 1 11 2 12 3 13 4 14 5 15 6 16 7 18 8 17 9 19 10 9 11 7 12
REMARK SMILES IDX 6 13 8 14 5 15 4 16 2 17 3 18 1 19
REMARK H PARENT
REMARK Flexibility Score: inf
ROOT
ATOM      1  C   UNL     1     -13.287 -15.717  30.788  1.00  0.00     0.032 C 
ENDROOT
BRANCH   1   2
ATOM      2  C   UNL     1     -12.331 -16.360  29.814  1.00  0.00    -0.028 C 
ATOM      3  C   UNL     1     -12.321 -16.076  28.493  1.00  0.00    -0.077 C 
ATOM      4  C   UNL     1     -13.292 -15.086  27.894  1.00  0.00     0.039 C 
BRANCH   3   5
ATOM      5  C   UNL     1     -11.314 -16.763  27.593  1.00  0.00     0.034 C 
BRANCH   5   6
ATOM      6  C   UNL     1     -11.503 -18.287  27.580  1.00  0.00     0.032 C 
BRANCH   6   7
ATOM      7  C   UNL     1     -11.572 -18.855  28.978  1.00  0.00    -0.028 C 
ATOM      8  C   UNL     1     -13.647 -20.183  28.521  1.00  0.00     0.039 C 
ATOM      9  C   UNL     1     -12.510 -19.729  29.407  1.00  0.00    -0.080 C 
ATOM     10  C   UNL     1     -12.417 -20.245  30.818  1.00  0.00     0.039 C 
ENDBRANCH   6   7
ENDBRANCH   5   6
ENDBRANCH   3   5
ENDBRANCH   1   2
BRANCH   1  11
ATOM     11  C   UNL     1     -12.735 -15.753  32.217  1.00  0.00     0.034 C 
BRANCH  11  12
ATOM     12  C   UNL     1     -13.737 -15.169  33.192  1.00  0.00    -0.077 C 
ATOM     13  C   UNL     1     -13.390 -14.705  34.414  1.00  0.00    -0.028 C 
ATOM     14  C   UNL     1     -15.173 -15.030  32.757  1.00  0.00     0.039 C 
BRANCH  13  15
ATOM     15  C   UNL     1     -12.001 -14.779  35.004  1.00  0.00     0.035 C 
BRANCH  15  16
ATOM     16  C   UNL     1     -12.018 -14.644  36.533  1.00  0.00     0.079 C 
BRANCH  16  17
ATOM     17  C   UNL     1     -12.429 -13.262  36.970  1.00  0.00     0.130 C 
ATOM     18  O   UNL     1     -13.444 -13.109  37.633  1.00  0.00    -0.300 OA
ATOM     19  C   UNL     1     -11.582 -12.075  36.625  1.00  0.00     0.087 C 
ENDBRANCH  16  17
ENDBRANCH  15  16
ENDBRANCH  13  15
ENDBRANCH  11  12
ENDBRANCH   1  11
TORSDOF 9
ENDMDL
MODEL 4
REMARK VINA RESULT:    -5.237      2.124      6.821
REMARK INTER + INTRA:          -8.957
REMARK INTER:                  -8.322
REMARK INTRA:                  -0.634
REMARK UNBOUND:                -0.965
REMARK SMILES CC(=O)CCC=C(C)CCC=C(C)CCC=C(C)C
REMARK SMILES IDX 10 1 11 2 12 3 13 4 14 5 15 6 16 7 18 8 17 9 19 10 9 11 7 12
REMARK SMILES IDX 6 13 8 14 5 15 4 16 2 17 3 18 1 19
REMARK H PARENT
REMARK Flexibility Score: inf
ROOT
ATOM      1  C   UNL     1     -13.277 -15.220  30.389  1.00  0.00     0.032 C 
ENDROOT
BRANCH   1   2
ATOM      2  C   UNL     1     -12.522 -15.966  29.317  1.00  0.00    -0.028 C 
ATOM      3  C   UNL     1     -12.814 -15.863  28.002  1.00  0.00    -0.077 C 
ATOM      4  C   UNL     1     -13.942 -14.986  27.512  1.00  0.00     0.039 C 
BRANCH   3   5
ATOM      5  C   UNL     1     -11.991 -16.642  26.995  1.00  0.00     0.034 C 
BRANCH   5   6
ATOM      6  C   UNL     1     -11.165 -17.750  27.665  1.00  0.00     0.032 C 
BRANCH   6   7
ATOM      7  C   UNL     1     -12.044 -18.753  28.374  1.00  0.00    -0.028 C 
ATOM      8  C   UNL     1     -10.551 -18.900  30.381  1.00  0.00     0.039 C 
ATOM      9  C   UNL     1     -11.797 -19.255  29.605  1.00  0.00    -0.080 C 
ATOM     10  C   UNL     1     -12.796 -20.212  30.202  1.00  0.00     0.039 C 
ENDBRANCH   6   7
ENDBRANCH   5   6
ENDBRANCH   3   5
ENDBRANCH   1   2
BRANCH   1  11
ATOM     11  C   UNL     1     -13.134 -15.907  31.751  1.00  0.00     0.034 C 
BRANCH  11  12
ATOM     12  C   UNL     1     -14.027 -15.243  32.781  1.00  0.00    -0.077 C 
ATOM     13  C   UNL     1     -13.574 -14.816  33.981  1.00  0.00    -0.028 C 
ATOM     14  C   UNL     1     -15.468 -14.979  32.426  1.00  0.00     0.039 C 
BRANCH  13  15
ATOM     15  C   UNL     1     -12.166 -15.013  34.493  1.00  0.00     0.035 C 
BRANCH  15  16
ATOM     16  C   UNL     1     -12.033 -14.626  35.973  1.00  0.00     0.079 C 
BRANCH  16  17
ATOM     17  C   UNL     1     -11.071 -13.483  36.170  1.00  0.00     0.130 C 
ATOM     18  O   UNL     1      -9.875 -13.656  35.991  1.00  0.00    -0.300 OA
ATOM     19  C   UNL     1     -11.577 -12.125  36.551  1.00  0.00     0.087 C 
ENDBRANCH  16  17
ENDBRANCH  15  16
ENDBRANCH  13  15
ENDBRANCH  11  12
ENDBRANCH   1  11
TORSDOF 9
ENDMDL
MODEL 5
REMARK VINA RESULT:    -5.092      2.474      6.166
REMARK INTER + INTRA:          -8.735
REMARK INTER:                  -7.079
REMARK INTRA:                  -1.656
REMARK UNBOUND:                -0.965
REMARK SMILES CC(=O)CCC=C(C)CCC=C(C)CCC=C(C)C
REMARK SMILES IDX 10 1 11 2 12 3 13 4 14 5 15 6 16 7 18 8 17 9 19 10 9 11 7 12
REMARK SMILES IDX 6 13 8 14 5 15 4 16 2 17 3 18 1 19
REMARK H PARENT
REMARK Flexibility Score: inf
ROOT
ATOM      1  C   UNL     1      -9.875 -18.669  30.634  1.00  0.00     0.032 C 
ENDROOT
BRANCH   1   2
ATOM      2  C   UNL     1     -11.094 -19.028  29.820  1.00  0.00    -0.028 C 
ATOM      3  C   UNL     1     -12.108 -19.780  30.304  1.00  0.00    -0.077 C 
ATOM      4  C   UNL     1     -12.080 -20.328  31.711  1.00  0.00     0.039 C 
BRANCH   3   5
ATOM      5  C   UNL     1     -13.299 -20.079  29.416  1.00  0.00     0.034 C 
BRANCH   5   6
ATOM      6  C   UNL     1     -13.098 -19.549  27.989  1.00  0.00     0.032 C 
BRANCH   6   7
ATOM      7  C   UNL     1     -13.550 -18.113  27.856  1.00  0.00    -0.028 C 
ATOM      8  C   UNL     1     -11.523 -17.416  26.559  1.00  0.00     0.039 C 
ATOM      9  C   UNL     1     -12.869 -17.152  27.192  1.00  0.00    -0.080 C 
ATOM     10  C   UNL     1     -13.474 -15.776  27.105  1.00  0.00     0.039 C 
ENDBRANCH   6   7
ENDBRANCH   5   6
ENDBRANCH   3   5
ENDBRANCH   1   2
BRANCH   1  11
ATOM     11  C   UNL     1      -9.995 -17.260  31.222  1.00  0.00     0.034 C 
BRANCH  11  12
ATOM     12  C   UNL     1     -10.695 -16.332  30.250  1.00  0.00    -0.077 C 
ATOM     13  C   UNL     1     -12.010 -16.031  30.336  1.00  0.00    -0.028 C 
ATOM     14  C   UNL     1      -9.876 -15.655  29.180  1.00  0.00     0.039 C 
BRANCH  13  15
ATOM     15  C   UNL     1     -12.969 -16.630  31.338  1.00  0.00     0.035 C 
BRANCH  15  16
ATOM     16  C   UNL     1     -13.468 -15.589  32.351  1.00  0.00     0.079 C 
BRANCH  16  17
ATOM     17  C   UNL     1     -14.711 -14.889  31.869  1.00  0.00     0.130 C 
ATOM     18  O   UNL     1     -15.742 -14.960  32.521  1.00  0.00    -0.300 OA
ATOM     19  C   UNL     1     -14.683 -14.075  30.611  1.00  0.00     0.087 C 
ENDBRANCH  16  17
ENDBRANCH  15  16
ENDBRANCH  13  15
ENDBRANCH  11  12
ENDBRANCH   1  11
TORSDOF 9
ENDMDL
MODEL 6
REMARK VINA RESULT:    -5.074      1.744      3.120
REMARK INTER + INTRA:          -8.708
REMARK INTER:                  -8.023
REMARK INTRA:                  -0.685
REMARK UNBOUND:                -0.965
REMARK SMILES CC(=O)CCC=C(C)CCC=C(C)CCC=C(C)C
REMARK SMILES IDX 10 1 11 2 12 3 13 4 14 5 15 6 16 7 18 8 17 9 19 10 9 11 7 12
REMARK SMILES IDX 6 13 8 14 5 15 4 16 2 17 3 18 1 19
REMARK H PARENT
REMARK Flexibility Score: inf
ROOT
ATOM      1  C   UNL     1     -12.909 -16.630  30.468  1.00  0.00     0.032 C 
ENDROOT
BRANCH   1   2
ATOM      2  C   UNL     1     -13.248 -16.110  31.843  1.00  0.00    -0.028 C 
ATOM      3  C   UNL     1     -14.062 -15.051  32.051  1.00  0.00    -0.077 C 
ATOM      4  C   UNL     1     -14.688 -14.301  30.899  1.00  0.00     0.039 C 
BRANCH   3   5
ATOM      5  C   UNL     1     -14.357 -14.609  33.470  1.00  0.00     0.034 C 
BRANCH   5   6
ATOM      6  C   UNL     1     -13.174 -14.878  34.412  1.00  0.00     0.032 C 
BRANCH   6   7
ATOM      7  C   UNL     1     -12.882 -13.689  35.298  1.00  0.00    -0.028 C 
ATOM      8  C   UNL     1     -10.665 -14.580  36.053  1.00  0.00     0.039 C 
ATOM      9  C   UNL     1     -11.748 -13.527  36.016  1.00  0.00    -0.080 C 
ATOM     10  C   UNL     1     -11.580 -12.261  36.815  1.00  0.00     0.039 C 
ENDBRANCH   6   7
ENDBRANCH   5   6
ENDBRANCH   3   5
ENDBRANCH   1   2
BRANCH   1  11
ATOM     11  C   UNL     1     -11.850 -17.735  30.537  1.00  0.00     0.034 C 
BRANCH  11  12
ATOM     12  C   UNL     1     -12.140 -18.817  29.517  1.00  0.00    -0.077 C 
ATOM     13  C   UNL     1     -11.693 -18.766  28.242  1.00  0.00    -0.028 C 
ATOM     14  C   UNL     1     -12.899 -20.043  29.959  1.00  0.00     0.039 C 
BRANCH  13  15
ATOM     15  C   UNL     1     -10.932 -17.609  27.639  1.00  0.00     0.035 C 
BRANCH  15  16
ATOM     16  C   UNL     1     -11.642 -17.032  26.406  1.00  0.00     0.079 C 
BRANCH  16  17
ATOM     17  C   UNL     1     -12.911 -16.309  26.777  1.00  0.00     0.130 C 
ATOM     18  O   UNL     1     -13.964 -16.610  26.236  1.00  0.00    -0.300 OA
ATOM     19  C   UNL     1     -12.895 -15.244  27.832  1.00  0.00     0.087 C 
ENDBRANCH  16  17
ENDBRANCH  15  16
ENDBRANCH  13  15
ENDBRANCH  11  12
ENDBRANCH   1  11
TORSDOF 9
ENDMDL
MODEL 7
REMARK VINA RESULT:    -5.028      2.408      7.102
REMARK INTER + INTRA:          -8.637
REMARK INTER:                  -7.383
REMARK INTRA:                  -1.254
REMARK UNBOUND:                -0.965
REMARK SMILES CC(=O)CCC=C(C)CCC=C(C)CCC=C(C)C
REMARK SMILES IDX 10 1 11 2 12 3 13 4 14 5 15 6 16 7 18 8 17 9 19 10 9 11 7 12
REMARK SMILES IDX 6 13 8 14 5 15 4 16 2 17 3 18 1 19
REMARK H PARENT
REMARK Flexibility Score: inf
ROOT
ATOM      1  C   UNL     1     -13.746 -17.342  31.690  1.00  0.00     0.032 C 
ENDROOT
BRANCH   1   2
ATOM      2  C   UNL     1     -12.421 -16.855  31.157  1.00  0.00    -0.028 C 
ATOM      3  C   UNL     1     -11.558 -17.651  30.488  1.00  0.00    -0.077 C 
ATOM      4  C   UNL     1     -11.864 -19.108  30.236  1.00  0.00     0.039 C 
BRANCH   3   5
ATOM      5  C   UNL     1     -10.255 -17.069  29.977  1.00  0.00     0.034 C 
BRANCH   5   6
ATOM      6  C   UNL     1     -10.490 -15.961  28.939  1.00  0.00     0.032 C 
BRANCH   6   7
ATOM      7  C   UNL     1     -11.383 -16.430  27.813  1.00  0.00    -0.028 C 
ATOM      8  C   UNL     1     -13.243 -14.859  28.407  1.00  0.00     0.039 C 
ATOM      9  C   UNL     1     -12.608 -15.924  27.544  1.00  0.00    -0.080 C 
ATOM     10  C   UNL     1     -13.359 -16.462  26.354  1.00  0.00     0.039 C 
ENDBRANCH   6   7
ENDBRANCH   5   6
ENDBRANCH   3   5
ENDBRANCH   1   2
BRANCH   1  11
ATOM     11  C   UNL     1     -14.027 -16.773  33.085  1.00  0.00     0.034 C 
BRANCH  11  12
ATOM     12  C   UNL     1     -14.097 -15.259  33.040  1.00  0.00    -0.077 C 
ATOM     13  C   UNL     1     -13.467 -14.467  33.936  1.00  0.00    -0.028 C 
ATOM     14  C   UNL     1     -14.841 -14.603  31.904  1.00  0.00     0.039 C 
BRANCH  13  15
ATOM     15  C   UNL     1     -12.692 -14.963  35.134  1.00  0.00     0.035 C 
BRANCH  15  16
ATOM     16  C   UNL     1     -11.590 -13.980  35.555  1.00  0.00     0.079 C 
BRANCH  16  17
ATOM     17  C   UNL     1     -12.064 -13.030  36.624  1.00  0.00     0.130 C 
ATOM     18  O   UNL     1     -11.509 -11.951  36.769  1.00  0.00    -0.300 OA
ATOM     19  C   UNL     1     -13.233 -13.387  37.491  1.00  0.00     0.087 C 
ENDBRANCH  16  17
ENDBRANCH  15  16
ENDBRANCH  13  15
ENDBRANCH  11  12
ENDBRANCH   1  11
TORSDOF 9
ENDMDL
MODEL 8
REMARK VINA RESULT:    -5.012      1.233      2.031
REMARK INTER + INTRA:          -8.614
REMARK INTER:                  -8.006
REMARK INTRA:                  -0.608
REMARK UNBOUND:                -0.965
REMARK SMILES CC(=O)CCC=C(C)CCC=C(C)CCC=C(C)C
REMARK SMILES IDX 10 1 11 2 12 3 13 4 14 5 15 6 16 7 18 8 17 9 19 10 9 11 7 12
REMARK SMILES IDX 6 13 8 14 5 15 4 16 2 17 3 18 1 19
REMARK H PARENT
REMARK Flexibility Score: inf
ROOT
ATOM      1  C   UNL     1     -13.278 -16.232  30.485  1.00  0.00     0.032 C 
ENDROOT
BRANCH   1   2
ATOM      2  C   UNL     1     -13.210 -15.295  31.666  1.00  0.00    -0.028 C 
ATOM      3  C   UNL     1     -13.744 -15.590  32.873  1.00  0.00    -0.077 C 
ATOM      4  C   UNL     1     -14.463 -16.895  33.118  1.00  0.00     0.039 C 
BRANCH   3   5
ATOM      5  C   UNL     1     -13.615 -14.591  34.005  1.00  0.00     0.034 C 
BRANCH   5   6
ATOM      6  C   UNL     1     -12.472 -14.955  34.964  1.00  0.00     0.032 C 
BRANCH   6   7
ATOM      7  C   UNL     1     -11.657 -13.743  35.349  1.00  0.00    -0.028 C 
ATOM      8  C   UNL     1     -13.160 -13.127  37.257  1.00  0.00     0.039 C 
ATOM      9  C   UNL     1     -11.936 -12.931  36.394  1.00  0.00    -0.080 C 
ATOM     10  C   UNL     1     -10.999 -11.788  36.683  1.00  0.00     0.039 C 
ENDBRANCH   6   7
ENDBRANCH   5   6
ENDBRANCH   3   5
ENDBRANCH   1   2
BRANCH   1  11
ATOM     11  C   UNL     1     -12.543 -15.652  29.273  1.00  0.00     0.034 C 
BRANCH  11  12
ATOM     12  C   UNL     1     -11.224 -16.368  29.055  1.00  0.00    -0.077 C 
ATOM     13  C   UNL     1     -11.140 -17.619  28.551  1.00  0.00    -0.028 C 
ATOM     14  C   UNL     1      -9.943 -15.627  29.345  1.00  0.00     0.039 C 
BRANCH  13  15
ATOM     15  C   UNL     1     -12.323 -18.499  28.219  1.00  0.00     0.035 C 
BRANCH  15  16
ATOM     16  C   UNL     1     -12.259 -19.848  28.948  1.00  0.00     0.079 C 
BRANCH  16  17
ATOM     17  C   UNL     1     -11.803 -19.694  30.375  1.00  0.00     0.130 C 
ATOM     18  O   UNL     1     -10.616 -19.538  30.622  1.00  0.00    -0.300 OA
ATOM     19  C   UNL     1     -12.800 -19.697  31.494  1.00  0.00     0.087 C 
ENDBRANCH  16  17
ENDBRANCH  15  16
ENDBRANCH  13  15
ENDBRANCH  11  12
ENDBRANCH   1  11
TORSDOF 9
ENDMDL
MODEL 9
REMARK VINA RESULT:    -4.976      1.963      5.770
REMARK INTER + INTRA:          -8.559
REMARK INTER:                  -7.164
REMARK INTRA:                  -1.395
REMARK UNBOUND:                -0.965
REMARK SMILES CC(=O)CCC=C(C)CCC=C(C)CCC=C(C)C
REMARK SMILES IDX 10 1 11 2 12 3 13 4 14 5 15 6 16 7 18 8 17 9 19 10 9 11 7 12
REMARK SMILES IDX 6 13 8 14 5 15 4 16 2 17 3 18 1 19
REMARK H PARENT
REMARK Flexibility Score: inf
ROOT
ATOM      1  C   UNL     1     -10.017 -19.158  30.957  1.00  0.00     0.032 C 
ENDROOT
BRANCH   1   2
ATOM      2  C   UNL     1     -10.105 -18.219  29.779  1.00  0.00    -0.028 C 
ATOM      3  C   UNL     1     -10.037 -16.875  29.901  1.00  0.00    -0.077 C 
ATOM      4  C   UNL     1      -9.875 -16.214  31.250  1.00  0.00     0.039 C 
BRANCH   3   5
ATOM      5  C   UNL     1     -10.122 -16.011  28.659  1.00  0.00     0.034 C 
BRANCH   5   6
ATOM      6  C   UNL     1     -11.501 -16.104  27.990  1.00  0.00     0.032 C 
BRANCH   6   7
ATOM      7  C   UNL     1     -12.462 -15.077  28.541  1.00  0.00    -0.028 C 
ATOM      8  C   UNL     1     -14.115 -15.373  26.682  1.00  0.00     0.039 C 
ATOM      9  C   UNL     1     -13.651 -14.760  27.982  1.00  0.00    -0.080 C 
ATOM     10  C   UNL     1     -14.524 -13.748  28.679  1.00  0.00     0.039 C 
ENDBRANCH   6   7
ENDBRANCH   5   6
ENDBRANCH   3   5
ENDBRANCH   1   2
BRANCH   1  11
ATOM     11  C   UNL     1     -11.362 -19.839  31.228  1.00  0.00     0.034 C 
BRANCH  11  12
ATOM     12  C   UNL     1     -12.406 -19.376  30.231  1.00  0.00    -0.077 C 
ATOM     13  C   UNL     1     -13.217 -18.317  30.453  1.00  0.00    -0.028 C 
ATOM     14  C   UNL     1     -12.496 -20.078  28.900  1.00  0.00     0.039 C 
BRANCH  13  15
ATOM     15  C   UNL     1     -13.261 -17.516  31.733  1.00  0.00     0.035 C 
BRANCH  15  16
ATOM     16  C   UNL     1     -13.391 -16.010  31.464  1.00  0.00     0.079 C 
BRANCH  16  17
ATOM     17  C   UNL     1     -14.150 -15.308  32.559  1.00  0.00     0.130 C 
ATOM     18  O   UNL     1     -15.314 -14.982  32.381  1.00  0.00    -0.300 OA
ATOM     19  C   UNL     1     -13.497 -15.037  33.881  1.00  0.00     0.087 C 
ENDBRANCH  16  17
ENDBRANCH  15  16
ENDBRANCH  13  15
ENDBRANCH  11  12
ENDBRANCH   1  11
TORSDOF 9
ENDMDL
