MODEL 1
REMARK VINA RESULT:    -5.492      0.000      0.000
REMARK INTER + INTRA:         -11.221
REMARK INTER:                  -9.987
REMARK INTRA:                  -1.234
REMARK UNBOUND:                -1.234
REMARK SMILES CCCCCC=CCC=CCCCCCCCC(=O)[O-]
REMARK SMILES IDX 11 1 12 2 13 3 14 4 15 5 16 6 17 7 18 8 19 9 20 10 10 11
REMARK SMILES IDX 9 12 8 13 7 14 6 15 5 16 4 17 3 18 2 19 1 20
REMARK H PARENT
REMARK Flexibility Score: inf
ROOT
ATOM      1  C   UNL     1       0.230  -2.534   9.772  1.00  0.00     0.027 C 
ENDROOT
BRANCH   1   2
ATOM      2  C   UNL     1       0.976  -1.235  10.123  1.00  0.00     0.004 C 
BRANCH   2   3
ATOM      3  C   UNL     1       0.416   0.022   9.432  1.00  0.00     0.000 C 
BRANCH   3   4
ATOM      4  C   UNL     1      -1.012  -0.180   8.899  1.00  0.00     0.000 C 
BRANCH   4   5
ATOM      5  C   UNL     1      -1.113   0.040   7.381  1.00  0.00     0.000 C 
BRANCH   5   6
ATOM      6  C   UNL     1      -1.156  -1.279   6.589  1.00  0.00     0.006 C 
BRANCH   6   7
ATOM      7  C   UNL     1      -1.451  -1.051   5.101  1.00  0.00     0.053 C 
BRANCH   7   8
ATOM      8  C   UNL     1      -1.542  -2.344   4.349  1.00  0.00     0.041 C 
ATOM      9  O   UNL     1      -1.768  -3.421   4.965  1.00  0.00    -0.550 OA
ATOM     10  O   UNL     1      -1.348  -2.365   2.974  1.00  0.00    -0.550 OA
ENDBRANCH   7   8
ENDBRANCH   6   7
ENDBRANCH   5   6
ENDBRANCH   4   5
ENDBRANCH   3   4
ENDBRANCH   2   3
ENDBRANCH   1   2
BRANCH   1  11
ATOM     11  C   UNL     1       1.166  -3.705   9.597  1.00  0.00    -0.031 C 
ATOM     12  C   UNL     1       0.971  -4.714   8.730  1.00  0.00    -0.027 C 
BRANCH  12  13
ATOM     13  C   UNL     1      -0.191  -4.782   7.770  1.00  0.00     0.054 C 
BRANCH  13  14
ATOM     14  C   UNL     1      -0.086  -5.991   6.875  1.00  0.00    -0.027 C 
ATOM     15  C   UNL     1      -0.763  -7.139   7.070  1.00  0.00    -0.031 C 
BRANCH  15  16
ATOM     16  C   UNL     1      -1.682  -7.396   8.238  1.00  0.00     0.027 C 
BRANCH  16  17
ATOM     17  C   UNL     1      -2.373  -8.759   8.101  1.00  0.00     0.004 C 
BRANCH  17  18
ATOM     18  C   UNL     1      -3.507  -8.957   9.121  1.00  0.00     0.000 C 
BRANCH  18  19
ATOM     19  C   UNL     1      -4.721  -9.718   8.553  1.00  0.00    -0.003 C 
ATOM     20  C   UNL     1      -5.387  -8.978   7.393  1.00  0.00     0.004 C 
ENDBRANCH  18  19
ENDBRANCH  17  18
ENDBRANCH  16  17
ENDBRANCH  15  16
ENDBRANCH  13  14
ENDBRANCH  12  13
ENDBRANCH   1  11
TORSDOF 14
ENDMDL
MODEL 2
REMARK VINA RESULT:    -4.849      2.321      6.880
REMARK INTER + INTRA:         -10.052
REMARK INTER:                  -9.841
REMARK INTRA:                  -0.212
REMARK UNBOUND:                -1.234
REMARK SMILES CCCCCC=CCC=CCCCCCCCC(=O)[O-]
REMARK SMILES IDX 11 1 12 2 13 3 14 4 15 5 16 6 17 7 18 8 19 9 20 10 10 11
REMARK SMILES IDX 9 12 8 13 7 14 6 15 5 16 4 17 3 18 2 19 1 20
REMARK H PARENT
REMARK Flexibility Score: inf
ROOT
ATOM      1  C   UNL     1      -1.495  -2.476   4.580  1.00  0.00     0.027 C 
ENDROOT
BRANCH   1   2
ATOM      2  C   UNL     1      -1.128  -3.130   5.923  1.00  0.00     0.004 C 
BRANCH   2   3
ATOM      3  C   UNL     1      -1.098  -4.669   5.889  1.00  0.00     0.000 C 
BRANCH   3   4
ATOM      4  C   UNL     1      -0.020  -5.262   6.812  1.00  0.00     0.000 C 
BRANCH   4   5
ATOM      5  C   UNL     1      -0.617  -6.069   7.976  1.00  0.00     0.000 C 
BRANCH   5   6
ATOM      6  C   UNL     1      -1.449  -7.273   7.501  1.00  0.00     0.006 C 
BRANCH   6   7
ATOM      7  C   UNL     1      -2.221  -7.934   8.651  1.00  0.00     0.053 C 
BRANCH   7   8
ATOM      8  C   UNL     1      -3.613  -8.308   8.242  1.00  0.00     0.041 C 
ATOM      9  O   UNL     1      -4.016  -9.495   8.372  1.00  0.00    -0.550 OA
ATOM     10  O   UNL     1      -4.456  -7.351   7.691  1.00  0.00    -0.550 OA
ENDBRANCH   7   8
ENDBRANCH   6   7
ENDBRANCH   5   6
ENDBRANCH   4   5
ENDBRANCH   3   4
ENDBRANCH   2   3
ENDBRANCH   1   2
BRANCH   1  11
ATOM     11  C   UNL     1      -1.443  -0.968   4.641  1.00  0.00    -0.031 C 
ATOM     12  C   UNL     1      -1.329  -0.255   5.776  1.00  0.00    -0.027 C 
BRANCH  12  13
ATOM     13  C   UNL     1      -1.182  -0.875   7.144  1.00  0.00     0.054 C 
BRANCH  13  14
ATOM     14  C   UNL     1      -0.852   0.171   8.180  1.00  0.00    -0.027 C 
ATOM     15  C   UNL     1      -0.436  -0.107   9.430  1.00  0.00    -0.031 C 
BRANCH  15  16
ATOM     16  C   UNL     1      -0.290  -1.500   9.988  1.00  0.00     0.027 C 
BRANCH  16  17
ATOM     17  C   UNL     1       1.183  -1.930  10.009  1.00  0.00     0.004 C 
BRANCH  17  18
ATOM     18  C   UNL     1       1.375  -3.416   9.664  1.00  0.00     0.000 C 
BRANCH  18  19
ATOM     19  C   UNL     1       2.853  -3.831   9.521  1.00  0.00    -0.003 C 
ATOM     20  C   UNL     1       3.016  -5.190   8.840  1.00  0.00     0.004 C 
ENDBRANCH  18  19
ENDBRANCH  17  18
ENDBRANCH  16  17
ENDBRANCH  15  16
ENDBRANCH  13  14
ENDBRANCH  12  13
ENDBRANCH   1  11
TORSDOF 14
ENDMDL
MODEL 3
REMARK VINA RESULT:    -4.725      2.392      6.997
REMARK INTER + INTRA:          -9.825
REMARK INTER:                  -8.872
REMARK INTRA:                  -0.953
REMARK UNBOUND:                -1.234
REMARK SMILES CCCCCC=CCC=CCCCCCCCC(=O)[O-]
REMARK SMILES IDX 11 1 12 2 13 3 14 4 15 5 16 6 17 7 18 8 19 9 20 10 10 11
REMARK SMILES IDX 9 12 8 13 7 14 6 15 5 16 4 17 3 18 2 19 1 20
REMARK H PARENT
REMARK Flexibility Score: inf
ROOT
ATOM      1  C   UNL     1       0.010  -3.954   8.564  1.00  0.00     0.027 C 
ENDROOT
BRANCH   1   2
ATOM      2  C   UNL     1      -0.229  -5.472   8.635  1.00  0.00     0.004 C 
BRANCH   2   3
ATOM      3  C   UNL     1      -1.027  -5.929   9.870  1.00  0.00     0.000 C 
BRANCH   3   4
ATOM      4  C   UNL     1      -1.827  -7.218   9.616  1.00  0.00     0.000 C 
BRANCH   4   5
ATOM      5  C   UNL     1      -1.953  -7.550   8.121  1.00  0.00     0.000 C 
BRANCH   5   6
ATOM      6  C   UNL     1      -2.791  -8.815   7.860  1.00  0.00     0.006 C 
BRANCH   6   7
ATOM      7  C   UNL     1      -4.020  -8.895   8.775  1.00  0.00     0.053 C 
BRANCH   7   8
ATOM      8  C   UNL     1      -5.200  -8.188   8.182  1.00  0.00     0.041 C 
ATOM      9  O   UNL     1      -5.030  -7.255   7.352  1.00  0.00    -0.550 OA
ATOM     10  O   UNL     1      -6.488  -8.541   8.566  1.00  0.00    -0.550 OA
ENDBRANCH   7   8
ENDBRANCH   6   7
ENDBRANCH   5   6
ENDBRANCH   4   5
ENDBRANCH   3   4
ENDBRANCH   2   3
ENDBRANCH   1   2
BRANCH   1  11
ATOM     11  C   UNL     1      -0.189  -3.279   9.900  1.00  0.00    -0.031 C 
ATOM     12  C   UNL     1      -0.139  -1.949  10.098  1.00  0.00    -0.027 C 
BRANCH  12  13
ATOM     13  C   UNL     1       0.068  -0.945   8.991  1.00  0.00     0.054 C 
BRANCH  13  14
ATOM     14  C   UNL     1      -1.129  -0.040   8.849  1.00  0.00    -0.027 C 
ATOM     15  C   UNL     1      -1.645   0.355   7.669  1.00  0.00    -0.031 C 
BRANCH  15  16
ATOM     16  C   UNL     1      -1.067  -0.009   6.324  1.00  0.00     0.027 C 
BRANCH  16  17
ATOM     17  C   UNL     1      -1.391  -1.465   5.965  1.00  0.00     0.004 C 
BRANCH  17  18
ATOM     18  C   UNL     1      -1.765  -1.646   4.485  1.00  0.00     0.000 C 
BRANCH  18  19
ATOM     19  C   UNL     1      -1.499  -3.067   3.949  1.00  0.00    -0.003 C 
ATOM     20  C   UNL     1      -1.155  -3.076   2.460  1.00  0.00     0.004 C 
ENDBRANCH  18  19
ENDBRANCH  17  18
ENDBRANCH  16  17
ENDBRANCH  15  16
ENDBRANCH  13  14
ENDBRANCH  12  13
ENDBRANCH   1  11
TORSDOF 14
ENDMDL
MODEL 4
REMARK VINA RESULT:    -4.468      2.606      6.424
REMARK INTER + INTRA:          -9.359
REMARK INTER:                  -9.463
REMARK INTRA:                   0.104
REMARK UNBOUND:                -1.234
REMARK SMILES CCCCCC=CCC=CCCCCCCCC(=O)[O-]
REMARK SMILES IDX 11 1 12 2 13 3 14 4 15 5 16 6 17 7 18 8 19 9 20 10 10 11
REMARK SMILES IDX 9 12 8 13 7 14 6 15 5 16 4 17 3 18 2 19 1 20
REMARK H PARENT
REMARK Flexibility Score: inf
ROOT
ATOM      1  C   UNL     1       3.618  -1.322  10.125  1.00  0.00     0.027 C 
ENDROOT
BRANCH   1   2
ATOM      2  C   UNL     1       2.500  -2.376  10.039  1.00  0.00     0.004 C 
BRANCH   2   3
ATOM      3  C   UNL     1       2.953  -3.732   9.465  1.00  0.00     0.000 C 
BRANCH   3   4
ATOM      4  C   UNL     1       1.805  -4.751   9.373  1.00  0.00     0.000 C 
BRANCH   4   5
ATOM      5  C   UNL     1       1.846  -5.570   8.073  1.00  0.00     0.000 C 
BRANCH   5   6
ATOM      6  C   UNL     1       0.514  -5.529   7.301  1.00  0.00     0.006 C 
BRANCH   6   7
ATOM      7  C   UNL     1      -0.670  -5.980   8.166  1.00  0.00     0.053 C 
BRANCH   7   8
ATOM      8  C   UNL     1      -1.349  -7.185   7.591  1.00  0.00     0.041 C 
ATOM      9  O   UNL     1      -0.750  -7.912   6.753  1.00  0.00    -0.550 OA
ATOM     10  O   UNL     1      -2.654  -7.490   7.958  1.00  0.00    -0.550 OA
ENDBRANCH   7   8
ENDBRANCH   6   7
ENDBRANCH   5   6
ENDBRANCH   4   5
ENDBRANCH   3   4
ENDBRANCH   2   3
ENDBRANCH   1   2
BRANCH   1  11
ATOM     11  C   UNL     1       3.084   0.088  10.059  1.00  0.00    -0.031 C 
ATOM     12  C   UNL     1       1.784   0.406   9.923  1.00  0.00    -0.027 C 
BRANCH  12  13
ATOM     13  C   UNL     1       0.673  -0.614   9.872  1.00  0.00     0.054 C 
BRANCH  13  14
ATOM     14  C   UNL     1      -0.675   0.057   9.798  1.00  0.00    -0.027 C 
ATOM     15  C   UNL     1      -1.475   0.030   8.714  1.00  0.00    -0.031 C 
BRANCH  15  16
ATOM     16  C   UNL     1      -1.115  -0.629   7.407  1.00  0.00     0.027 C 
BRANCH  16  17
ATOM     17  C   UNL     1      -1.380   0.315   6.227  1.00  0.00     0.004 C 
BRANCH  17  18
ATOM     18  C   UNL     1      -1.361  -0.408   4.870  1.00  0.00     0.000 C 
BRANCH  18  19
ATOM     19  C   UNL     1      -1.564  -1.932   4.979  1.00  0.00    -0.003 C 
ATOM     20  C   UNL     1      -1.497  -2.631   3.620  1.00  0.00     0.004 C 
ENDBRANCH  18  19
ENDBRANCH  17  18
ENDBRANCH  16  17
ENDBRANCH  15  16
ENDBRANCH  13  14
ENDBRANCH  12  13
ENDBRANCH   1  11
TORSDOF 14
ENDMDL
MODEL 5
REMARK VINA RESULT:    -4.360      9.986     14.591
REMARK INTER + INTRA:          -9.163
REMARK INTER:                  -7.999
REMARK INTRA:                  -1.165
REMARK UNBOUND:                -1.234
REMARK SMILES CCCCCC=CCC=CCCCCCCCC(=O)[O-]
REMARK SMILES IDX 11 1 12 2 13 3 14 4 15 5 16 6 17 7 18 8 19 9 20 10 10 11
REMARK SMILES IDX 9 12 8 13 7 14 6 15 5 16 4 17 3 18 2 19 1 20
REMARK H PARENT
REMARK Flexibility Score: inf
ROOT
ATOM      1  C   UNL     1       9.511   5.105   9.640  1.00  0.00     0.027 C 
ENDROOT
BRANCH   1   2
ATOM      2  C   UNL     1       9.773   3.605   9.420  1.00  0.00     0.004 C 
BRANCH   2   3
ATOM      3  C   UNL     1       9.562   3.134   7.969  1.00  0.00     0.000 C 
BRANCH   3   4
ATOM      4  C   UNL     1       9.217   1.638   7.875  1.00  0.00     0.000 C 
BRANCH   4   5
ATOM      5  C   UNL     1       8.249   1.184   8.980  1.00  0.00     0.000 C 
BRANCH   5   6
ATOM      6  C   UNL     1       7.686  -0.227   8.736  1.00  0.00     0.006 C 
BRANCH   6   7
ATOM      7  C   UNL     1       6.277  -0.399   9.321  1.00  0.00     0.053 C 
BRANCH   7   8
ATOM      8  C   UNL     1       5.228   0.162   8.411  1.00  0.00     0.041 C 
ATOM      9  O   UNL     1       5.304  -0.020   7.166  1.00  0.00    -0.550 OA
ATOM     10  O   UNL     1       4.181   0.910   8.935  1.00  0.00    -0.550 OA
ENDBRANCH   7   8
ENDBRANCH   6   7
ENDBRANCH   5   6
ENDBRANCH   4   5
ENDBRANCH   3   4
ENDBRANCH   2   3
ENDBRANCH   1   2
BRANCH   1  11
ATOM     11  C   UNL     1       8.239   5.570   8.972  1.00  0.00    -0.031 C 
ATOM     12  C   UNL     1       7.875   6.858   8.837  1.00  0.00    -0.027 C 
BRANCH  12  13
ATOM     13  C   UNL     1       8.723   8.020   9.292  1.00  0.00     0.054 C 
BRANCH  13  14
ATOM     14  C   UNL     1       9.577   8.541   8.163  1.00  0.00    -0.027 C 
ATOM     15  C   UNL     1       9.173   9.469   7.274  1.00  0.00    -0.031 C 
BRANCH  15  16
ATOM     16  C   UNL     1       7.795  10.079   7.249  1.00  0.00     0.027 C 
BRANCH  16  17
ATOM     17  C   UNL     1       7.018   9.625   6.007  1.00  0.00     0.004 C 
BRANCH  17  18
ATOM     18  C   UNL     1       5.680   8.952   6.353  1.00  0.00     0.000 C 
BRANCH  18  19
ATOM     19  C   UNL     1       4.742   8.780   5.141  1.00  0.00    -0.003 C 
ATOM     20  C   UNL     1       5.388   7.978   4.011  1.00  0.00     0.004 C 
ENDBRANCH  18  19
ENDBRANCH  17  18
ENDBRANCH  16  17
ENDBRANCH  15  16
ENDBRANCH  13  14
ENDBRANCH  12  13
ENDBRANCH   1  11
TORSDOF 14
ENDMDL
MODEL 6
REMARK VINA RESULT:    -4.347     14.694     17.097
REMARK INTER + INTRA:          -9.139
REMARK INTER:                  -6.444
REMARK INTRA:                  -2.695
REMARK UNBOUND:                -1.234
REMARK SMILES CCCCCC=CCC=CCCCCCCCC(=O)[O-]
REMARK SMILES IDX 11 1 12 2 13 3 14 4 15 5 16 6 17 7 18 8 19 9 20 10 10 11
REMARK SMILES IDX 9 12 8 13 7 14 6 15 5 16 4 17 3 18 2 19 1 20
REMARK H PARENT
REMARK Flexibility Score: inf
ROOT
ATOM      1  C   UNL     1      -5.931   5.214  -4.514  1.00  0.00     0.027 C 
ENDROOT
BRANCH   1   2
ATOM      2  C   UNL     1      -6.081   5.846  -5.909  1.00  0.00     0.004 C 
BRANCH   2   3
ATOM      3  C   UNL     1      -7.483   6.412  -6.199  1.00  0.00     0.000 C 
BRANCH   3   4
ATOM      4  C   UNL     1      -8.377   5.422  -6.964  1.00  0.00     0.000 C 
BRANCH   4   5
ATOM      5  C   UNL     1      -7.567   4.432  -7.816  1.00  0.00     0.000 C 
BRANCH   5   6
ATOM      6  C   UNL     1      -8.088   2.987  -7.708  1.00  0.00     0.006 C 
BRANCH   6   7
ATOM      7  C   UNL     1      -7.115   1.972  -8.323  1.00  0.00     0.053 C 
BRANCH   7   8
ATOM      8  C   UNL     1      -6.905   0.791  -7.426  1.00  0.00     0.041 C 
ATOM      9  O   UNL     1      -5.871   0.715  -6.709  1.00  0.00    -0.550 OA
ATOM     10  O   UNL     1      -7.837  -0.238  -7.402  1.00  0.00    -0.550 OA
ENDBRANCH   7   8
ENDBRANCH   6   7
ENDBRANCH   5   6
ENDBRANCH   4   5
ENDBRANCH   3   4
ENDBRANCH   2   3
ENDBRANCH   1   2
BRANCH   1  11
ATOM     11  C   UNL     1      -5.949   3.705  -4.562  1.00  0.00    -0.031 C 
ATOM     12  C   UNL     1      -6.991   2.942  -4.187  1.00  0.00    -0.027 C 
BRANCH  12  13
ATOM     13  C   UNL     1      -8.311   3.501  -3.717  1.00  0.00     0.054 C 
BRANCH  13  14
ATOM     14  C   UNL     1      -8.267   3.829  -2.245  1.00  0.00    -0.027 C 
ATOM     15  C   UNL     1      -8.488   5.057  -1.737  1.00  0.00    -0.031 C 
BRANCH  15  16
ATOM     16  C   UNL     1      -8.757   6.286  -2.568  1.00  0.00     0.027 C 
BRANCH  16  17
ATOM     17  C   UNL     1      -7.837   7.441  -2.151  1.00  0.00     0.004 C 
BRANCH  17  18
ATOM     18  C   UNL     1      -6.611   6.968  -1.352  1.00  0.00     0.000 C 
BRANCH  18  19
ATOM     19  C   UNL     1      -6.254   7.887  -0.167  1.00  0.00    -0.003 C 
ATOM     20  C   UNL     1      -6.878   7.417   1.147  1.00  0.00     0.004 C 
ENDBRANCH  18  19
ENDBRANCH  17  18
ENDBRANCH  16  17
ENDBRANCH  15  16
ENDBRANCH  13  14
ENDBRANCH  12  13
ENDBRANCH   1  11
TORSDOF 14
ENDMDL
MODEL 7
REMARK VINA RESULT:    -4.223     14.754     16.317
REMARK INTER + INTRA:          -8.913
REMARK INTER:                  -6.884
REMARK INTRA:                  -2.029
REMARK UNBOUND:                -1.234
REMARK SMILES CCCCCC=CCC=CCCCCCCCC(=O)[O-]
REMARK SMILES IDX 11 1 12 2 13 3 14 4 15 5 16 6 17 7 18 8 19 9 20 10 10 11
REMARK SMILES IDX 9 12 8 13 7 14 6 15 5 16 4 17 3 18 2 19 1 20
REMARK H PARENT
REMARK Flexibility Score: inf
ROOT
ATOM      1  C   UNL     1      -6.279   4.521  -5.543  1.00  0.00     0.027 C 
ENDROOT
BRANCH   1   2
ATOM      2  C   UNL     1      -5.941   5.896  -4.939  1.00  0.00     0.004 C 
BRANCH   2   3
ATOM      3  C   UNL     1      -7.152   6.836  -4.792  1.00  0.00     0.000 C 
BRANCH   3   4
ATOM      4  C   UNL     1      -8.084   6.427  -3.638  1.00  0.00     0.000 C 
BRANCH   4   5
ATOM      5  C   UNL     1      -7.323   6.169  -2.327  1.00  0.00     0.000 C 
BRANCH   5   6
ATOM      6  C   UNL     1      -7.044   7.459  -1.536  1.00  0.00     0.006 C 
BRANCH   6   7
ATOM      7  C   UNL     1      -6.307   7.184  -0.219  1.00  0.00     0.053 C 
BRANCH   7   8
ATOM      8  C   UNL     1      -7.182   7.444   0.970  1.00  0.00     0.041 C 
ATOM      9  O   UNL     1      -8.371   7.025   0.987  1.00  0.00    -0.550 OA
ATOM     10  O   UNL     1      -6.693   8.172   2.047  1.00  0.00    -0.550 OA
ENDBRANCH   7   8
ENDBRANCH   6   7
ENDBRANCH   5   6
ENDBRANCH   4   5
ENDBRANCH   3   4
ENDBRANCH   2   3
ENDBRANCH   1   2
BRANCH   1  11
ATOM     11  C   UNL     1      -5.904   3.383  -4.626  1.00  0.00    -0.031 C 
ATOM     12  C   UNL     1      -6.787   2.609  -3.970  1.00  0.00    -0.027 C 
BRANCH  12  13
ATOM     13  C   UNL     1      -8.284   2.742  -4.110  1.00  0.00     0.054 C 
BRANCH  13  14
ATOM     14  C   UNL     1      -8.913   1.423  -4.481  1.00  0.00    -0.027 C 
ATOM     15  C   UNL     1      -9.087   0.996  -5.747  1.00  0.00    -0.031 C 
BRANCH  15  16
ATOM     16  C   UNL     1      -8.726   1.798  -6.972  1.00  0.00     0.027 C 
BRANCH  16  17
ATOM     17  C   UNL     1      -7.751   1.021  -7.866  1.00  0.00     0.004 C 
BRANCH  17  18
ATOM     18  C   UNL     1      -6.488   0.567  -7.118  1.00  0.00     0.000 C 
BRANCH  18  19
ATOM     19  C   UNL     1      -5.659  -0.482  -7.885  1.00  0.00    -0.003 C 
ATOM     20  C   UNL     1      -6.434  -1.105  -9.047  1.00  0.00     0.004 C 
ENDBRANCH  18  19
ENDBRANCH  17  18
ENDBRANCH  16  17
ENDBRANCH  15  16
ENDBRANCH  13  14
ENDBRANCH  12  13
ENDBRANCH   1  11
TORSDOF 14
ENDMDL
MODEL 8
REMARK VINA RESULT:    -4.200     14.771     17.006
REMARK INTER + INTRA:          -8.872
REMARK INTER:                  -7.045
REMARK INTRA:                  -1.827
REMARK UNBOUND:                -1.234
REMARK SMILES CCCCCC=CCC=CCCCCCCCC(=O)[O-]
REMARK SMILES IDX 11 1 12 2 13 3 14 4 15 5 16 6 17 7 18 8 19 9 20 10 10 11
REMARK SMILES IDX 9 12 8 13 7 14 6 15 5 16 4 17 3 18 2 19 1 20
REMARK H PARENT
REMARK Flexibility Score: inf
ROOT
ATOM      1  C   UNL     1      -9.099   5.765  -2.676  1.00  0.00     0.027 C 
ENDROOT
BRANCH   1   2
ATOM      2  C   UNL     1      -8.307   7.033  -2.310  1.00  0.00     0.004 C 
BRANCH   2   3
ATOM      3  C   UNL     1      -6.803   6.795  -2.083  1.00  0.00     0.000 C 
BRANCH   3   4
ATOM      4  C   UNL     1      -6.338   7.228  -0.682  1.00  0.00     0.000 C 
BRANCH   4   5
ATOM      5  C   UNL     1      -6.388   8.752  -0.488  1.00  0.00     0.000 C 
BRANCH   5   6
ATOM      6  C   UNL     1      -5.628   9.218   0.766  1.00  0.00     0.006 C 
BRANCH   6   7
ATOM      7  C   UNL     1      -6.529   9.994   1.735  1.00  0.00     0.053 C 
BRANCH   7   8
ATOM      8  C   UNL     1      -7.054   9.115   2.829  1.00  0.00     0.041 C 
ATOM      9  O   UNL     1      -6.971   9.480   4.032  1.00  0.00    -0.550 OA
ATOM     10  O   UNL     1      -7.610   7.879   2.521  1.00  0.00    -0.550 OA
ENDBRANCH   7   8
ENDBRANCH   6   7
ENDBRANCH   5   6
ENDBRANCH   4   5
ENDBRANCH   3   4
ENDBRANCH   2   3
ENDBRANCH   1   2
BRANCH   1  11
ATOM     11  C   UNL     1      -8.685   4.571  -1.849  1.00  0.00    -0.031 C 
ATOM     12  C   UNL     1      -8.240   3.408  -2.357  1.00  0.00    -0.027 C 
BRANCH  12  13
ATOM     13  C   UNL     1      -8.041   3.160  -3.832  1.00  0.00     0.054 C 
BRANCH  13  14
ATOM     14  C   UNL     1      -6.576   3.161  -4.188  1.00  0.00    -0.027 C 
ATOM     15  C   UNL     1      -5.964   4.142  -4.879  1.00  0.00    -0.031 C 
BRANCH  15  16
ATOM     16  C   UNL     1      -6.668   5.353  -5.439  1.00  0.00     0.027 C 
BRANCH  16  17
ATOM     17  C   UNL     1      -5.905   5.922  -6.642  1.00  0.00     0.004 C 
BRANCH  17  18
ATOM     18  C   UNL     1      -5.906   7.460  -6.675  1.00  0.00     0.000 C 
BRANCH  18  19
ATOM     19  C   UNL     1      -6.872   8.099  -5.657  1.00  0.00    -0.003 C 
ATOM     20  C   UNL     1      -7.019   9.608  -5.858  1.00  0.00     0.004 C 
ENDBRANCH  18  19
ENDBRANCH  17  18
ENDBRANCH  16  17
ENDBRANCH  15  16
ENDBRANCH  13  14
ENDBRANCH  12  13
ENDBRANCH   1  11
TORSDOF 14
ENDMDL
MODEL 9
REMARK VINA RESULT:    -4.175     15.266     18.313
REMARK INTER + INTRA:          -8.826
REMARK INTER:                  -6.175
REMARK INTRA:                  -2.651
REMARK UNBOUND:                -1.234
REMARK SMILES CCCCCC=CCC=CCCCCCCCC(=O)[O-]
REMARK SMILES IDX 11 1 12 2 13 3 14 4 15 5 16 6 17 7 18 8 19 9 20 10 10 11
REMARK SMILES IDX 9 12 8 13 7 14 6 15 5 16 4 17 3 18 2 19 1 20
REMARK H PARENT
REMARK Flexibility Score: inf
ROOT
ATOM      1  C   UNL     1      -6.001   4.420  -5.187  1.00  0.00     0.027 C 
ENDROOT
BRANCH   1   2
ATOM      2  C   UNL     1      -6.029   3.003  -4.587  1.00  0.00     0.004 C 
BRANCH   2   3
ATOM      3  C   UNL     1      -7.294   2.690  -3.767  1.00  0.00     0.000 C 
BRANCH   3   4
ATOM      4  C   UNL     1      -8.574   2.712  -4.618  1.00  0.00     0.000 C 
BRANCH   4   5
ATOM      5  C   UNL     1      -8.950   1.321  -5.155  1.00  0.00     0.000 C 
BRANCH   5   6
ATOM      6  C   UNL     1      -8.871   1.235  -6.690  1.00  0.00     0.006 C 
BRANCH   6   7
ATOM      7  C   UNL     1      -7.926   0.121  -7.160  1.00  0.00     0.053 C 
BRANCH   7   8
ATOM      8  C   UNL     1      -6.585   0.662  -7.554  1.00  0.00     0.041 C 
ATOM      9  O   UNL     1      -6.466   1.866  -7.908  1.00  0.00    -0.550 OA
ATOM     10  O   UNL     1      -5.473  -0.170  -7.557  1.00  0.00    -0.550 OA
ENDBRANCH   7   8
ENDBRANCH   6   7
ENDBRANCH   5   6
ENDBRANCH   4   5
ENDBRANCH   3   4
ENDBRANCH   2   3
ENDBRANCH   1   2
BRANCH   1  11
ATOM     11  C   UNL     1      -6.066   5.494  -4.127  1.00  0.00    -0.031 C 
ATOM     12  C   UNL     1      -6.737   6.652  -4.255  1.00  0.00    -0.027 C 
BRANCH  12  13
ATOM     13  C   UNL     1      -7.566   7.011  -5.464  1.00  0.00     0.054 C 
BRANCH  13  14
ATOM     14  C   UNL     1      -7.076   8.289  -6.097  1.00  0.00    -0.027 C 
ATOM     15  C   UNL     1      -6.052   8.358  -6.970  1.00  0.00    -0.031 C 
BRANCH  15  16
ATOM     16  C   UNL     1      -5.218   7.177  -7.397  1.00  0.00     0.027 C 
BRANCH  16  17
ATOM     17  C   UNL     1      -5.672   6.652  -8.765  1.00  0.00     0.004 C 
BRANCH  17  18
ATOM     18  C   UNL     1      -6.426   5.315  -8.671  1.00  0.00     0.000 C 
BRANCH  18  19
ATOM     19  C   UNL     1      -7.946   5.446  -8.892  1.00  0.00    -0.003 C 
ATOM     20  C   UNL     1      -8.758   4.657  -7.864  1.00  0.00     0.004 C 
ENDBRANCH  18  19
ENDBRANCH  17  18
ENDBRANCH  16  17
ENDBRANCH  15  16
ENDBRANCH  13  14
ENDBRANCH  12  13
ENDBRANCH   1  11
TORSDOF 14
ENDMDL
