MODEL 1
REMARK VINA RESULT:    -2.727      0.000      0.000
REMARK INTER + INTRA:          -3.240
REMARK INTER:                  -3.205
REMARK INTRA:                  -0.035
REMARK UNBOUND:                -0.035
REMARK SMILES CCCCC(=O)[O-]
REMARK SMILES IDX 4 1 5 2 6 3 7 4 3 5 2 6 1 7
REMARK H PARENT
REMARK Flexibility Score: inf
ROOT
ATOM      1  C   UNL     1      57.147  27.903  50.277  1.00  0.00     0.053 C 
ENDROOT
BRANCH   1   2
ATOM      2  C   UNL     1      58.170  28.993  50.244  1.00  0.00     0.041 C 
ATOM      3  O   UNL     1      58.424  29.655  51.285  1.00  0.00    -0.550 OA
ATOM      4  O   UNL     1      58.880  29.245  49.077  1.00  0.00    -0.550 OA
ENDBRANCH   1   2
BRANCH   1   5
ATOM      5  C   UNL     1      55.758  28.478  50.569  1.00  0.00     0.006 C 
BRANCH   5   6
ATOM      6  C   UNL     1      54.657  27.563  50.021  1.00  0.00    -0.003 C 
ATOM      7  C   UNL     1      55.205  26.179  49.688  1.00  0.00     0.004 C 
ENDBRANCH   5   6
ENDBRANCH   1   5
TORSDOF 3
ENDMDL
MODEL 2
REMARK VINA RESULT:    -2.677     11.918     13.400
REMARK INTER + INTRA:          -3.181
REMARK INTER:                  -3.145
REMARK INTRA:                  -0.036
REMARK UNBOUND:                -0.035
REMARK SMILES CCCCC(=O)[O-]
REMARK SMILES IDX 4 1 5 2 6 3 7 4 3 5 2 6 1 7
REMARK H PARENT
REMARK Flexibility Score: inf
ROOT
ATOM      1  C   UNL     1      62.373  33.091  60.645  1.00  0.00     0.053 C 
ENDROOT
BRANCH   1   2
ATOM      2  C   UNL     1      61.204  32.159  60.647  1.00  0.00     0.041 C 
ATOM      3  O   UNL     1      60.482  32.043  59.622  1.00  0.00    -0.550 OA
ATOM      4  O   UNL     1      60.941  31.377  61.765  1.00  0.00    -0.550 OA
ENDBRANCH   1   2
BRANCH   1   5
ATOM      5  C   UNL     1      61.904  34.539  60.481  1.00  0.00     0.006 C 
BRANCH   5   6
ATOM      6  C   UNL     1      62.945  35.520  61.033  1.00  0.00    -0.003 C 
ATOM      7  C   UNL     1      64.257  34.810  61.352  1.00  0.00     0.004 C 
ENDBRANCH   5   6
ENDBRANCH   1   5
TORSDOF 3
ENDMDL
MODEL 3
REMARK VINA RESULT:    -2.662      2.931      4.015
REMARK INTER + INTRA:          -3.164
REMARK INTER:                  -3.141
REMARK INTRA:                  -0.023
REMARK UNBOUND:                -0.035
REMARK SMILES CCCCC(=O)[O-]
REMARK SMILES IDX 4 1 5 2 6 3 7 4 3 5 2 6 1 7
REMARK H PARENT
REMARK Flexibility Score: inf
ROOT
ATOM      1  C   UNL     1      55.606  28.076  50.495  1.00  0.00     0.053 C 
ENDROOT
BRANCH   1   2
ATOM      2  C   UNL     1      54.684  27.114  49.816  1.00  0.00     0.041 C 
ATOM      3  O   UNL     1      53.485  27.431  49.598  1.00  0.00    -0.550 OA
ATOM      4  O   UNL     1      55.161  25.885  49.378  1.00  0.00    -0.550 OA
ENDBRANCH   1   2
BRANCH   1   5
ATOM      5  C   UNL     1      57.065  27.669  50.272  1.00  0.00     0.006 C 
BRANCH   5   6
ATOM      6  C   UNL     1      57.958  28.902  50.091  1.00  0.00    -0.003 C 
ATOM      7  C   UNL     1      59.233  28.553  49.330  1.00  0.00     0.004 C 
ENDBRANCH   5   6
ENDBRANCH   1   5
TORSDOF 3
ENDMDL
MODEL 4
REMARK VINA RESULT:    -2.660      2.990      3.859
REMARK INTER + INTRA:          -3.162
REMARK INTER:                  -3.121
REMARK INTRA:                  -0.041
REMARK UNBOUND:                -0.035
REMARK SMILES CCCCC(=O)[O-]
REMARK SMILES IDX 4 1 5 2 6 3 7 4 3 5 2 6 1 7
REMARK H PARENT
REMARK Flexibility Score: inf
ROOT
ATOM      1  C   UNL     1      54.865  27.610  50.160  1.00  0.00     0.053 C 
ENDROOT
BRANCH   1   2
ATOM      2  C   UNL     1      55.365  26.263  49.746  1.00  0.00     0.041 C 
ATOM      3  O   UNL     1      54.599  25.455  49.155  1.00  0.00    -0.550 OA
ATOM      4  O   UNL     1      56.692  25.915  49.966  1.00  0.00    -0.550 OA
ENDBRANCH   1   2
BRANCH   1   5
ATOM      5  C   UNL     1      53.388  27.771  49.791  1.00  0.00     0.006 C 
BRANCH   5   6
ATOM      6  C   UNL     1      52.875  29.166  50.169  1.00  0.00    -0.003 C 
ATOM      7  C   UNL     1      53.944  29.963  50.910  1.00  0.00     0.004 C 
ENDBRANCH   5   6
ENDBRANCH   1   5
TORSDOF 3
ENDMDL
MODEL 5
REMARK VINA RESULT:    -2.640     12.910     13.446
REMARK INTER + INTRA:          -3.138
REMARK INTER:                  -3.116
REMARK INTRA:                  -0.022
REMARK UNBOUND:                -0.035
REMARK SMILES CCCCC(=O)[O-]
REMARK SMILES IDX 4 1 5 2 6 3 7 4 3 5 2 6 1 7
REMARK H PARENT
REMARK Flexibility Score: inf
ROOT
ATOM      1  C   UNL     1      61.944  34.306  60.460  1.00  0.00     0.053 C 
ENDROOT
BRANCH   1   2
ATOM      2  C   UNL     1      63.003  35.179  61.053  1.00  0.00     0.041 C 
ATOM      3  O   UNL     1      62.755  36.385  61.322  1.00  0.00    -0.550 OA
ATOM      4  O   UNL     1      64.251  34.650  61.358  1.00  0.00    -0.550 OA
ENDBRANCH   1   2
BRANCH   1   5
ATOM      5  C   UNL     1      62.307  32.829  60.633  1.00  0.00     0.006 C 
BRANCH   5   6
ATOM      6  C   UNL     1      61.059  31.986  60.918  1.00  0.00    -0.003 C 
ATOM      7  C   UNL     1      61.412  30.723  61.697  1.00  0.00     0.004 C 
ENDBRANCH   5   6
ENDBRANCH   1   5
TORSDOF 3
ENDMDL
MODEL 6
REMARK VINA RESULT:    -2.634     12.805     13.280
REMARK INTER + INTRA:          -3.131
REMARK INTER:                  -3.099
REMARK INTRA:                  -0.032
REMARK UNBOUND:                -0.035
REMARK SMILES CCCCC(=O)[O-]
REMARK SMILES IDX 4 1 5 2 6 3 7 4 3 5 2 6 1 7
REMARK H PARENT
REMARK Flexibility Score: inf
ROOT
ATOM      1  C   UNL     1      62.553  31.869  60.720  1.00  0.00     0.053 C 
ENDROOT
BRANCH   1   2
ATOM      2  C   UNL     1      61.844  30.890  61.600  1.00  0.00     0.041 C 
ATOM      3  O   UNL     1      60.709  31.167  62.073  1.00  0.00    -0.550 OA
ATOM      4  O   UNL     1      62.412  29.649  61.859  1.00  0.00    -0.550 OA
ENDBRANCH   1   2
BRANCH   1   5
ATOM      5  C   UNL     1      61.724  33.147  60.563  1.00  0.00     0.006 C 
BRANCH   5   6
ATOM      6  C   UNL     1      62.611  34.393  60.668  1.00  0.00    -0.003 C 
ATOM      7  C   UNL     1      61.772  35.668  60.679  1.00  0.00     0.004 C 
ENDBRANCH   5   6
ENDBRANCH   1   5
TORSDOF 3
ENDMDL
MODEL 7
REMARK VINA RESULT:    -2.609      1.297      1.753
REMARK INTER + INTRA:          -3.102
REMARK INTER:                  -3.065
REMARK INTRA:                  -0.037
REMARK UNBOUND:                -0.035
REMARK SMILES CCCCC(=O)[O-]
REMARK SMILES IDX 4 1 5 2 6 3 7 4 3 5 2 6 1 7
REMARK H PARENT
REMARK Flexibility Score: inf
ROOT
ATOM      1  C   UNL     1      58.190  27.851  50.687  1.00  0.00     0.053 C 
ENDROOT
BRANCH   1   2
ATOM      2  C   UNL     1      59.111  28.200  49.562  1.00  0.00     0.041 C 
ATOM      3  O   UNL     1      58.980  29.294  48.950  1.00  0.00    -0.550 OA
ATOM      4  O   UNL     1      60.148  27.342  49.221  1.00  0.00    -0.550 OA
ENDBRANCH   1   2
BRANCH   1   5
ATOM      5  C   UNL     1      56.828  28.525  50.495  1.00  0.00     0.006 C 
BRANCH   5   6
ATOM      6  C   UNL     1      55.736  27.487  50.212  1.00  0.00    -0.003 C 
ATOM      7  C   UNL     1      54.357  28.139  50.156  1.00  0.00     0.004 C 
ENDBRANCH   5   6
ENDBRANCH   1   5
TORSDOF 3
ENDMDL
MODEL 8
REMARK VINA RESULT:    -2.599      2.090      2.411
REMARK INTER + INTRA:          -3.090
REMARK INTER:                  -3.046
REMARK INTRA:                  -0.044
REMARK UNBOUND:                -0.035
REMARK SMILES CCCCC(=O)[O-]
REMARK SMILES IDX 4 1 5 2 6 3 7 4 3 5 2 6 1 7
REMARK H PARENT
REMARK Flexibility Score: inf
ROOT
ATOM      1  C   UNL     1      56.510  25.974  50.170  1.00  0.00     0.053 C 
ENDROOT
BRANCH   1   2
ATOM      2  C   UNL     1      57.988  26.198  50.139  1.00  0.00     0.041 C 
ATOM      3  O   UNL     1      58.780  25.220  50.190  1.00  0.00    -0.550 OA
ATOM      4  O   UNL     1      58.494  27.485  50.002  1.00  0.00    -0.550 OA
ENDBRANCH   1   2
BRANCH   1   5
ATOM      5  C   UNL     1      55.765  27.311  50.211  1.00  0.00     0.006 C 
BRANCH   5   6
ATOM      6  C   UNL     1      54.298  27.135  49.803  1.00  0.00    -0.003 C 
ATOM      7  C   UNL     1      54.044  25.740  49.242  1.00  0.00     0.004 C 
ENDBRANCH   5   6
ENDBRANCH   1   5
TORSDOF 3
ENDMDL
MODEL 9
REMARK VINA RESULT:    -2.585      2.157      2.762
REMARK INTER + INTRA:          -3.073
REMARK INTER:                  -2.976
REMARK INTRA:                  -0.098
REMARK UNBOUND:                -0.035
REMARK SMILES CCCCC(=O)[O-]
REMARK SMILES IDX 4 1 5 2 6 3 7 4 3 5 2 6 1 7
REMARK H PARENT
REMARK Flexibility Score: inf
ROOT
ATOM      1  C   UNL     1      59.136  28.814  49.349  1.00  0.00     0.053 C 
ENDROOT
BRANCH   1   2
ATOM      2  C   UNL     1      60.048  27.631  49.289  1.00  0.00     0.041 C 
ATOM      3  O   UNL     1      61.297  27.793  49.254  1.00  0.00    -0.550 OA
ATOM      4  O   UNL     1      59.522  26.345  49.324  1.00  0.00    -0.550 OA
ENDBRANCH   1   2
BRANCH   1   5
ATOM      5  C   UNL     1      58.376  28.839  50.678  1.00  0.00     0.006 C 
BRANCH   5   6
ATOM      6  C   UNL     1      56.861  28.793  50.446  1.00  0.00    -0.003 C 
ATOM      7  C   UNL     1      56.355  27.355  50.389  1.00  0.00     0.004 C 
ENDBRANCH   5   6
ENDBRANCH   1   5
TORSDOF 3
ENDMDL
