MODEL 1
REMARK VINA RESULT:    -3.128      0.000      0.000
REMARK INTER + INTRA:          -3.407
REMARK INTER:                  -3.310
REMARK INTRA:                  -0.097
REMARK UNBOUND:                -0.097
REMARK SMILES C=C(C)[C@H]1CC=C(C)C(=O)C1
REMARK SMILES IDX 8 1 7 2 6 3 5 4 4 5 11 6 9 7 10 8 2 9 1 10 3 11
REMARK H PARENT
REMARK Flexibility Score: inf
ROOT
ATOM      1  C   UNL     1      78.961   1.894  69.125  1.00  0.00     0.048 C 
ATOM      2  C   UNL     1      79.153   2.445  67.739  1.00  0.00    -0.012 C 
ATOM      3  C   UNL     1      80.381   2.473  67.194  1.00  0.00    -0.019 C 
ATOM      4  C   UNL     1      80.632   3.030  65.818  1.00  0.00     0.036 C 
ATOM      5  C   UNL     1      79.424   2.788  64.894  1.00  0.00     0.025 C 
ATOM      6  C   UNL     1      78.142   3.358  65.528  1.00  0.00     0.089 C 
ATOM      7  C   UNL     1      77.972   2.841  66.931  1.00  0.00     0.158 C 
ATOM      8  O   UNL     1      76.815   2.782  67.428  1.00  0.00    -0.295 OA
ENDROOT
BRANCH   5   9
ATOM      9  C   UNL     1      79.661   3.365  63.505  1.00  0.00    -0.077 C 
ATOM     10  C   UNL     1      79.779   4.693  63.339  1.00  0.00     0.008 C 
ATOM     11  C   UNL     1      79.771   2.476  62.291  1.00  0.00     0.039 C 
ENDBRANCH   5   9
TORSDOF 1
ENDMDL
MODEL 2
REMARK VINA RESULT:    -3.122     18.182     20.339
REMARK INTER + INTRA:          -3.401
REMARK INTER:                  -3.305
REMARK INTRA:                  -0.097
REMARK UNBOUND:                -0.097
REMARK SMILES C=C(C)[C@H]1CC=C(C)C(=O)C1
REMARK SMILES IDX 8 1 7 2 6 3 5 4 4 5 11 6 9 7 10 8 2 9 1 10 3 11
REMARK H PARENT
REMARK Flexibility Score: inf
ROOT
ATOM      1  C   UNL     1      72.068  -8.236  48.875  1.00  0.00     0.048 C 
ATOM      2  C   UNL     1      71.625  -8.734  50.222  1.00  0.00    -0.012 C 
ATOM      3  C   UNL     1      72.094  -9.902  50.692  1.00  0.00    -0.019 C 
ATOM      4  C   UNL     1      71.670 -10.456  52.026  1.00  0.00     0.036 C 
ATOM      5  C   UNL     1      71.384  -9.323  53.030  1.00  0.00     0.025 C 
ATOM      6  C   UNL     1      70.348  -8.344  52.450  1.00  0.00     0.089 C 
ATOM      7  C   UNL     1      70.768  -7.878  51.083  1.00  0.00     0.158 C 
ATOM      8  O   UNL     1      70.355  -6.766  50.658  1.00  0.00    -0.295 OA
ENDROOT
BRANCH   5   9
ATOM      9  C   UNL     1      70.935  -9.874  54.377  1.00  0.00    -0.077 C 
ATOM     10  C   UNL     1      69.798 -10.584  54.469  1.00  0.00     0.008 C 
ATOM     11  C   UNL     1      71.742  -9.643  55.630  1.00  0.00     0.039 C 
ENDBRANCH   5   9
TORSDOF 1
ENDMDL
MODEL 3
REMARK VINA RESULT:    -3.098      1.360      3.847
REMARK INTER + INTRA:          -3.376
REMARK INTER:                  -3.287
REMARK INTRA:                  -0.088
REMARK UNBOUND:                -0.097
REMARK SMILES C=C(C)[C@H]1CC=C(C)C(=O)C1
REMARK SMILES IDX 8 1 7 2 6 3 5 4 4 5 11 6 9 7 10 8 2 9 1 10 3 11
REMARK H PARENT
REMARK Flexibility Score: inf
ROOT
ATOM      1  C   UNL     1      77.102   4.254  63.930  1.00  0.00     0.048 C 
ATOM      2  C   UNL     1      78.017   3.584  64.917  1.00  0.00    -0.012 C 
ATOM      3  C   UNL     1      79.334   3.504  64.662  1.00  0.00    -0.019 C 
ATOM      4  C   UNL     1      80.292   2.828  65.606  1.00  0.00     0.036 C 
ATOM      5  C   UNL     1      79.836   2.993  67.069  1.00  0.00     0.025 C 
ATOM      6  C   UNL     1      78.393   2.485  67.239  1.00  0.00     0.089 C 
ATOM      7  C   UNL     1      77.485   3.122  66.224  1.00  0.00     0.158 C 
ATOM      8  O   UNL     1      76.255   3.228  66.480  1.00  0.00    -0.295 OA
ENDROOT
BRANCH   5   9
ATOM      9  C   UNL     1      80.789   2.295  68.030  1.00  0.00    -0.077 C 
ATOM     10  C   UNL     1      81.233   2.938  69.123  1.00  0.00     0.008 C 
ATOM     11  C   UNL     1      81.253   0.880  67.789  1.00  0.00     0.039 C 
ENDBRANCH   5   9
TORSDOF 1
ENDMDL
MODEL 4
REMARK VINA RESULT:    -3.086      2.010      4.430
REMARK INTER + INTRA:          -3.363
REMARK INTER:                  -3.274
REMARK INTRA:                  -0.089
REMARK UNBOUND:                -0.097
REMARK SMILES C=C(C)[C@H]1CC=C(C)C(=O)C1
REMARK SMILES IDX 8 1 7 2 6 3 5 4 4 5 11 6 9 7 10 8 2 9 1 10 3 11
REMARK H PARENT
REMARK Flexibility Score: inf
ROOT
ATOM      1  C   UNL     1      77.099   3.705  63.779  1.00  0.00     0.048 C 
ATOM      2  C   UNL     1      78.061   3.412  64.897  1.00  0.00    -0.012 C 
ATOM      3  C   UNL     1      77.597   3.021  66.096  1.00  0.00    -0.019 C 
ATOM      4  C   UNL     1      78.514   2.733  67.253  1.00  0.00     0.036 C 
ATOM      5  C   UNL     1      79.859   2.162  66.765  1.00  0.00     0.025 C 
ATOM      6  C   UNL     1      80.500   3.109  65.735  1.00  0.00     0.089 C 
ATOM      7  C   UNL     1      79.523   3.437  64.639  1.00  0.00     0.158 C 
ATOM      8  O   UNL     1      79.962   3.770  63.505  1.00  0.00    -0.295 OA
ENDROOT
BRANCH   5   9
ATOM      9  C   UNL     1      80.802   1.886  67.929  1.00  0.00    -0.077 C 
ATOM     10  C   UNL     1      81.494   0.735  67.976  1.00  0.00     0.008 C 
ATOM     11  C   UNL     1      80.986   2.883  69.046  1.00  0.00     0.039 C 
ENDBRANCH   5   9
TORSDOF 1
ENDMDL
MODEL 5
REMARK VINA RESULT:    -3.051      8.383      9.485
REMARK INTER + INTRA:          -3.326
REMARK INTER:                  -3.229
REMARK INTRA:                  -0.097
REMARK UNBOUND:                -0.097
REMARK SMILES C=C(C)[C@H]1CC=C(C)C(=O)C1
REMARK SMILES IDX 8 1 7 2 6 3 5 4 4 5 11 6 9 7 10 8 2 9 1 10 3 11
REMARK H PARENT
REMARK Flexibility Score: inf
ROOT
ATOM      1  C   UNL     1      82.346   9.124  58.995  1.00  0.00     0.048 C 
ATOM      2  C   UNL     1      82.618   7.667  58.744  1.00  0.00    -0.012 C 
ATOM      3  C   UNL     1      82.829   6.836  59.779  1.00  0.00    -0.019 C 
ATOM      4  C   UNL     1      83.125   5.373  59.583  1.00  0.00     0.036 C 
ATOM      5  C   UNL     1      82.402   4.825  58.337  1.00  0.00     0.025 C 
ATOM      6  C   UNL     1      82.763   5.663  57.098  1.00  0.00     0.089 C 
ATOM      7  C   UNL     1      82.532   7.126  57.363  1.00  0.00     0.158 C 
ATOM      8  O   UNL     1      82.299   7.897  56.394  1.00  0.00    -0.295 OA
ENDROOT
BRANCH   5   9
ATOM      9  C   UNL     1      82.711   3.350  58.119  1.00  0.00    -0.077 C 
ATOM     10  C   UNL     1      82.959   2.551  59.171  1.00  0.00     0.008 C 
ATOM     11  C   UNL     1      82.744   2.749  56.736  1.00  0.00     0.039 C 
ENDBRANCH   5   9
TORSDOF 1
ENDMDL
MODEL 6
REMARK VINA RESULT:    -2.986     19.815     20.227
REMARK INTER + INTRA:          -3.258
REMARK INTER:                  -3.159
REMARK INTRA:                  -0.098
REMARK UNBOUND:                -0.097
REMARK SMILES C=C(C)[C@H]1CC=C(C)C(=O)C1
REMARK SMILES IDX 8 1 7 2 6 3 5 4 4 5 11 6 9 7 10 8 2 9 1 10 3 11
REMARK H PARENT
REMARK Flexibility Score: inf
ROOT
ATOM      1  C   UNL     1      69.693 -10.367  54.268  1.00  0.00     0.048 C 
ATOM      2  C   UNL     1      70.462  -9.733  53.143  1.00  0.00    -0.012 C 
ATOM      3  C   UNL     1      71.514 -10.373  52.606  1.00  0.00    -0.019 C 
ATOM      4  C   UNL     1      72.329  -9.775  51.490  1.00  0.00     0.036 C 
ATOM      5  C   UNL     1      71.453  -8.903  50.571  1.00  0.00     0.025 C 
ATOM      6  C   UNL     1      70.717  -7.831  51.394  1.00  0.00     0.089 C 
ATOM      7  C   UNL     1      69.983  -8.460  52.546  1.00  0.00     0.158 C 
ATOM      8  O   UNL     1      68.974  -7.875  53.025  1.00  0.00    -0.295 OA
ENDROOT
BRANCH   5   9
ATOM      9  C   UNL     1      72.274  -8.278  49.450  1.00  0.00    -0.077 C 
ATOM     10  C   UNL     1      71.867  -7.133  48.877  1.00  0.00     0.008 C 
ATOM     11  C   UNL     1      73.550  -8.916  48.960  1.00  0.00     0.039 C 
ENDBRANCH   5   9
TORSDOF 1
ENDMDL
MODEL 7
REMARK VINA RESULT:    -2.969      7.856      9.418
REMARK INTER + INTRA:          -3.239
REMARK INTER:                  -3.149
REMARK INTRA:                  -0.090
REMARK UNBOUND:                -0.097
REMARK SMILES C=C(C)[C@H]1CC=C(C)C(=O)C1
REMARK SMILES IDX 8 1 7 2 6 3 5 4 4 5 11 6 9 7 10 8 2 9 1 10 3 11
REMARK H PARENT
REMARK Flexibility Score: inf
ROOT
ATOM      1  C   UNL     1      82.813   6.128  60.489  1.00  0.00     0.048 C 
ATOM      2  C   UNL     1      82.776   5.321  59.221  1.00  0.00    -0.012 C 
ATOM      3  C   UNL     1      82.720   3.980  59.281  1.00  0.00    -0.019 C 
ATOM      4  C   UNL     1      82.699   3.125  58.043  1.00  0.00     0.036 C 
ATOM      5  C   UNL     1      81.970   3.838  56.889  1.00  0.00     0.025 C 
ATOM      6  C   UNL     1      82.600   5.219  56.632  1.00  0.00     0.089 C 
ATOM      7  C   UNL     1      82.677   6.011  57.909  1.00  0.00     0.158 C 
ATOM      8  O   UNL     1      82.694   7.270  57.852  1.00  0.00    -0.295 OA
ENDROOT
BRANCH   5   9
ATOM      9  C   UNL     1      81.962   2.988  55.626  1.00  0.00    -0.077 C 
ATOM     10  C   UNL     1      80.905   3.024  54.797  1.00  0.00     0.008 C 
ATOM     11  C   UNL     1      83.125   2.094  55.271  1.00  0.00     0.039 C 
ENDBRANCH   5   9
TORSDOF 1
ENDMDL
MODEL 8
REMARK VINA RESULT:    -2.952      7.711      9.093
REMARK INTER + INTRA:          -3.221
REMARK INTER:                  -3.123
REMARK INTRA:                  -0.098
REMARK UNBOUND:                -0.097
REMARK SMILES C=C(C)[C@H]1CC=C(C)C(=O)C1
REMARK SMILES IDX 8 1 7 2 6 3 5 4 4 5 11 6 9 7 10 8 2 9 1 10 3 11
REMARK H PARENT
REMARK Flexibility Score: inf
ROOT
ATOM      1  C   UNL     1      83.027   8.067  59.323  1.00  0.00     0.048 C 
ATOM      2  C   UNL     1      82.806   6.693  58.754  1.00  0.00    -0.012 C 
ATOM      3  C   UNL     1      82.983   6.476  57.440  1.00  0.00    -0.019 C 
ATOM      4  C   UNL     1      82.758   5.125  56.815  1.00  0.00     0.036 C 
ATOM      5  C   UNL     1      83.112   3.994  57.800  1.00  0.00     0.025 C 
ATOM      6  C   UNL     1      82.330   4.165  59.114  1.00  0.00     0.089 C 
ATOM      7  C   UNL     1      82.515   5.554  59.662  1.00  0.00     0.158 C 
ATOM      8  O   UNL     1      82.384   5.749  60.901  1.00  0.00    -0.295 OA
ENDROOT
BRANCH   5   9
ATOM      9  C   UNL     1      82.869   2.623  57.183  1.00  0.00    -0.077 C 
ATOM     10  C   UNL     1      82.418   1.613  57.945  1.00  0.00     0.008 C 
ATOM     11  C   UNL     1      83.122   2.363  55.719  1.00  0.00     0.039 C 
ENDBRANCH   5   9
TORSDOF 1
ENDMDL
MODEL 9
REMARK VINA RESULT:    -2.913     18.475     20.312
REMARK INTER + INTRA:          -3.180
REMARK INTER:                  -3.092
REMARK INTRA:                  -0.088
REMARK UNBOUND:                -0.097
REMARK SMILES C=C(C)[C@H]1CC=C(C)C(=O)C1
REMARK SMILES IDX 8 1 7 2 6 3 5 4 4 5 11 6 9 7 10 8 2 9 1 10 3 11
REMARK H PARENT
REMARK Flexibility Score: inf
ROOT
ATOM      1  C   UNL     1      69.746  -7.296  53.994  1.00  0.00     0.048 C 
ATOM      2  C   UNL     1      70.369  -8.168  52.941  1.00  0.00    -0.012 C 
ATOM      3  C   UNL     1      70.584  -7.680  51.707  1.00  0.00    -0.019 C 
ATOM      4  C   UNL     1      71.188  -8.515  50.611  1.00  0.00     0.036 C 
ATOM      5  C   UNL     1      72.192  -9.536  51.181  1.00  0.00     0.025 C 
ATOM      6  C   UNL     1      71.520 -10.396  52.266  1.00  0.00     0.089 C 
ATOM      7  C   UNL     1      70.859  -9.524  53.298  1.00  0.00     0.158 C 
ATOM      8  O   UNL     1      70.690  -9.972  54.464  1.00  0.00    -0.295 OA
ENDROOT
BRANCH   5   9
ATOM      9  C   UNL     1      72.793 -10.399  50.080  1.00  0.00    -0.077 C 
ATOM     10  C   UNL     1      74.126 -10.534  49.983  1.00  0.00     0.008 C 
ATOM     11  C   UNL     1      71.922 -11.121  49.082  1.00  0.00     0.039 C 
ENDBRANCH   5   9
TORSDOF 1
ENDMDL
