MODEL 1
REMARK VINA RESULT:    -3.846      0.000      0.000
REMARK INTER + INTRA:          -6.767
REMARK INTER:                  -5.869
REMARK INTRA:                  -0.898
REMARK UNBOUND:                -0.898
REMARK SMILES CCCCCCCCCCC(=O)[O-]
REMARK SMILES IDX 7 1 8 2 9 3 10 4 11 5 12 6 13 7 6 8 5 9 4 10 3 11 2 12 1 13
REMARK H PARENT
REMARK Flexibility Score: inf
ROOT
ATOM      1  C   UNL     1      -9.702  -1.512 -41.513  1.00  0.00     0.000 C 
ENDROOT
BRANCH   1   2
ATOM      2  C   UNL     1     -10.624  -0.279 -41.596  1.00  0.00     0.000 C 
BRANCH   2   3
ATOM      3  C   UNL     1     -11.836  -0.311 -40.648  1.00  0.00     0.006 C 
BRANCH   3   4
ATOM      4  C   UNL     1     -11.929  -1.613 -39.843  1.00  0.00     0.053 C 
BRANCH   4   5
ATOM      5  C   UNL     1     -13.347  -2.086 -39.777  1.00  0.00     0.041 C 
ATOM      6  O   UNL     1     -13.614  -3.222 -39.305  1.00  0.00    -0.550 OA
ATOM      7  O   UNL     1     -14.369  -1.291 -40.280  1.00  0.00    -0.550 OA
ENDBRANCH   4   5
ENDBRANCH   3   4
ENDBRANCH   2   3
ENDBRANCH   1   2
BRANCH   1   8
ATOM      8  C   UNL     1      -8.262  -1.219 -41.048  1.00  0.00     0.000 C 
BRANCH   8   9
ATOM      9  C   UNL     1      -7.964  -1.581 -39.579  1.00  0.00    -0.000 C 
BRANCH   9  10
ATOM     10  C   UNL     1      -8.294  -0.481 -38.555  1.00  0.00    -0.000 C 
BRANCH  10  11
ATOM     11  C   UNL     1      -9.197  -0.978 -37.414  1.00  0.00    -0.000 C 
BRANCH  11  12
ATOM     12  C   UNL     1     -10.407  -0.060 -37.179  1.00  0.00    -0.003 C 
ATOM     13  C   UNL     1     -10.789   0.054 -35.704  1.00  0.00     0.004 C 
ENDBRANCH  11  12
ENDBRANCH  10  11
ENDBRANCH   9  10
ENDBRANCH   8   9
ENDBRANCH   1   8
TORSDOF 9
ENDMDL
MODEL 2
REMARK VINA RESULT:    -3.773      1.843      2.717
REMARK INTER + INTRA:          -6.657
REMARK INTER:                  -5.885
REMARK INTRA:                  -0.772
REMARK UNBOUND:                -0.898
REMARK SMILES CCCCCCCCCCC(=O)[O-]
REMARK SMILES IDX 7 1 8 2 9 3 10 4 11 5 12 6 13 7 6 8 5 9 4 10 3 11 2 12 1 13
REMARK H PARENT
REMARK Flexibility Score: inf
ROOT
ATOM      1  C   UNL     1      -9.129  -2.196 -38.595  1.00  0.00     0.000 C 
ENDROOT
BRANCH   1   2
ATOM      2  C   UNL     1     -10.479  -2.574 -39.239  1.00  0.00     0.000 C 
BRANCH   2   3
ATOM      3  C   UNL     1     -11.639  -1.615 -38.921  1.00  0.00     0.006 C 
BRANCH   3   4
ATOM      4  C   UNL     1     -13.012  -2.200 -39.279  1.00  0.00     0.053 C 
BRANCH   4   5
ATOM      5  C   UNL     1     -13.745  -1.279 -40.203  1.00  0.00     0.041 C 
ATOM      6  O   UNL     1     -14.956  -1.491 -40.478  1.00  0.00    -0.550 OA
ATOM      7  O   UNL     1     -13.080  -0.215 -40.797  1.00  0.00    -0.550 OA
ENDBRANCH   4   5
ENDBRANCH   3   4
ENDBRANCH   2   3
ENDBRANCH   1   2
BRANCH   1   8
ATOM      8  C   UNL     1      -9.166  -0.955 -37.684  1.00  0.00     0.000 C 
BRANCH   8   9
ATOM      9  C   UNL     1      -8.814  -1.218 -36.205  1.00  0.00    -0.000 C 
BRANCH   9  10
ATOM     10  C   UNL     1      -9.914  -0.845 -35.195  1.00  0.00    -0.000 C 
BRANCH  10  11
ATOM     11  C   UNL     1     -10.916   0.178 -35.754  1.00  0.00    -0.000 C 
BRANCH  11  12
ATOM     12  C   UNL     1     -10.608   1.613 -35.295  1.00  0.00    -0.003 C 
ATOM     13  C   UNL     1     -10.337   2.564 -36.461  1.00  0.00     0.004 C 
ENDBRANCH  11  12
ENDBRANCH  10  11
ENDBRANCH   9  10
ENDBRANCH   8   9
ENDBRANCH   1   8
TORSDOF 9
ENDMDL
MODEL 3
REMARK VINA RESULT:    -3.687      4.463      6.042
REMARK INTER + INTRA:          -6.525
REMARK INTER:                  -6.125
REMARK INTRA:                  -0.400
REMARK UNBOUND:                -0.898
REMARK SMILES CCCCCCCCCCC(=O)[O-]
REMARK SMILES IDX 7 1 8 2 9 3 10 4 11 5 12 6 13 7 6 8 5 9 4 10 3 11 2 12 1 13
REMARK H PARENT
REMARK Flexibility Score: inf
ROOT
ATOM      1  C   UNL     1     -12.098   3.001 -41.522  1.00  0.00     0.000 C 
ENDROOT
BRANCH   1   2
ATOM      2  C   UNL     1     -12.874   3.709 -40.392  1.00  0.00     0.000 C 
BRANCH   2   3
ATOM      3  C   UNL     1     -13.358   5.130 -40.731  1.00  0.00     0.006 C 
BRANCH   3   4
ATOM      4  C   UNL     1     -14.446   5.148 -41.812  1.00  0.00     0.053 C 
BRANCH   4   5
ATOM      5  C   UNL     1     -15.793   5.351 -41.193  1.00  0.00     0.041 C 
ATOM      6  O   UNL     1     -16.393   6.450 -41.327  1.00  0.00    -0.550 OA
ATOM      7  O   UNL     1     -16.365   4.344 -40.426  1.00  0.00    -0.550 OA
ENDBRANCH   4   5
ENDBRANCH   3   4
ENDBRANCH   2   3
ENDBRANCH   1   2
BRANCH   1   8
ATOM      8  C   UNL     1     -10.921   2.123 -41.053  1.00  0.00     0.000 C 
BRANCH   8   9
ATOM      9  C   UNL     1     -11.102   0.610 -41.286  1.00  0.00    -0.000 C 
BRANCH   9  10
ATOM     10  C   UNL     1     -12.436   0.026 -40.788  1.00  0.00    -0.000 C 
BRANCH  10  11
ATOM     11  C   UNL     1     -12.254  -1.243 -39.940  1.00  0.00    -0.000 C 
BRANCH  11  12
ATOM     12  C   UNL     1     -13.575  -1.994 -39.713  1.00  0.00    -0.003 C 
ATOM     13  C   UNL     1     -14.770  -1.308 -40.375  1.00  0.00     0.004 C 
ENDBRANCH  11  12
ENDBRANCH  10  11
ENDBRANCH   9  10
ENDBRANCH   8   9
ENDBRANCH   1   8
TORSDOF 9
ENDMDL
MODEL 4
REMARK VINA RESULT:    -3.675      8.801     10.443
REMARK INTER + INTRA:          -6.506
REMARK INTER:                  -5.071
REMARK INTRA:                  -1.436
REMARK UNBOUND:                -0.898
REMARK SMILES CCCCCCCCCCC(=O)[O-]
REMARK SMILES IDX 7 1 8 2 9 3 10 4 11 5 12 6 13 7 6 8 5 9 4 10 3 11 2 12 1 13
REMARK H PARENT
REMARK Flexibility Score: inf
ROOT
ATOM      1  C   UNL     1     -16.885   6.743 -44.619  1.00  0.00     0.000 C 
ENDROOT
BRANCH   1   2
ATOM      2  C   UNL     1     -16.352   5.309 -44.422  1.00  0.00     0.000 C 
BRANCH   2   3
ATOM      3  C   UNL     1     -15.071   5.203 -43.575  1.00  0.00     0.006 C 
BRANCH   3   4
ATOM      4  C   UNL     1     -14.328   6.539 -43.449  1.00  0.00     0.053 C 
BRANCH   4   5
ATOM      5  C   UNL     1     -14.112   6.883 -42.009  1.00  0.00     0.041 C 
ATOM      6  O   UNL     1     -13.851   5.976 -41.174  1.00  0.00    -0.550 OA
ATOM      7  O   UNL     1     -14.249   8.196 -41.579  1.00  0.00    -0.550 OA
ENDBRANCH   4   5
ENDBRANCH   3   4
ENDBRANCH   2   3
ENDBRANCH   1   2
BRANCH   1   8
ATOM      8  C   UNL     1     -18.122   7.100 -43.774  1.00  0.00     0.000 C 
BRANCH   8   9
ATOM      9  C   UNL     1     -17.832   7.416 -42.292  1.00  0.00    -0.000 C 
BRANCH   9  10
ATOM     10  C   UNL     1     -18.387   6.392 -41.285  1.00  0.00    -0.000 C 
BRANCH  10  11
ATOM     11  C   UNL     1     -17.288   5.738 -40.432  1.00  0.00    -0.000 C 
BRANCH  11  12
ATOM     12  C   UNL     1     -17.138   4.235 -40.716  1.00  0.00    -0.003 C 
ATOM     13  C   UNL     1     -18.258   3.683 -41.598  1.00  0.00     0.004 C 
ENDBRANCH  11  12
ENDBRANCH  10  11
ENDBRANCH   9  10
ENDBRANCH   8   9
ENDBRANCH   1   8
TORSDOF 9
ENDMDL
MODEL 5
REMARK VINA RESULT:    -3.674      1.757      2.848
REMARK INTER + INTRA:          -6.505
REMARK INTER:                  -5.445
REMARK INTRA:                  -1.061
REMARK UNBOUND:                -0.898
REMARK SMILES CCCCCCCCCCC(=O)[O-]
REMARK SMILES IDX 7 1 8 2 9 3 10 4 11 5 12 6 13 7 6 8 5 9 4 10 3 11 2 12 1 13
REMARK H PARENT
REMARK Flexibility Score: inf
ROOT
ATOM      1  C   UNL     1      -9.586  -1.721 -40.999  1.00  0.00     0.000 C 
ENDROOT
BRANCH   1   2
ATOM      2  C   UNL     1      -9.981  -2.177 -39.580  1.00  0.00     0.000 C 
BRANCH   2   3
ATOM      3  C   UNL     1     -11.275  -1.548 -39.034  1.00  0.00     0.006 C 
BRANCH   3   4
ATOM      4  C   UNL     1     -12.284  -1.206 -40.138  1.00  0.00     0.053 C 
BRANCH   4   5
ATOM      5  C   UNL     1     -13.565  -1.950 -39.922  1.00  0.00     0.041 C 
ATOM      6  O   UNL     1     -14.658  -1.449 -40.294  1.00  0.00    -0.550 OA
ATOM      7  O   UNL     1     -13.556  -3.175 -39.267  1.00  0.00    -0.550 OA
ENDBRANCH   4   5
ENDBRANCH   3   4
ENDBRANCH   2   3
ENDBRANCH   1   2
BRANCH   1   8
ATOM      8  C   UNL     1      -8.171  -1.123 -41.121  1.00  0.00     0.000 C 
BRANCH   8   9
ATOM      9  C   UNL     1      -8.017   0.309 -40.570  1.00  0.00    -0.000 C 
BRANCH   9  10
ATOM     10  C   UNL     1      -9.152   1.280 -40.947  1.00  0.00    -0.000 C 
BRANCH  10  11
ATOM     11  C   UNL     1      -9.927   1.796 -39.724  1.00  0.00    -0.000 C 
BRANCH  11  12
ATOM     12  C   UNL     1     -11.029   2.798 -40.105  1.00  0.00    -0.003 C 
ATOM     13  C   UNL     1     -11.929   2.291 -41.232  1.00  0.00     0.004 C 
ENDBRANCH  11  12
ENDBRANCH  10  11
ENDBRANCH   9  10
ENDBRANCH   8   9
ENDBRANCH   1   8
TORSDOF 9
ENDMDL
MODEL 6
REMARK VINA RESULT:    -3.664      8.336     10.319
REMARK INTER + INTRA:          -6.490
REMARK INTER:                  -5.216
REMARK INTRA:                  -1.275
REMARK UNBOUND:                -0.898
REMARK SMILES CCCCCCCCCCC(=O)[O-]
REMARK SMILES IDX 7 1 8 2 9 3 10 4 11 5 12 6 13 7 6 8 5 9 4 10 3 11 2 12 1 13
REMARK H PARENT
REMARK Flexibility Score: inf
ROOT
ATOM      1  C   UNL     1     -16.741   7.301 -44.022  1.00  0.00     0.000 C 
ENDROOT
BRANCH   1   2
ATOM      2  C   UNL     1     -16.972   5.966 -44.760  1.00  0.00     0.000 C 
BRANCH   2   3
ATOM      3  C   UNL     1     -15.935   4.870 -44.458  1.00  0.00     0.006 C 
BRANCH   3   4
ATOM      4  C   UNL     1     -14.809   5.352 -43.534  1.00  0.00     0.053 C 
BRANCH   4   5
ATOM      5  C   UNL     1     -13.474   5.075 -44.150  1.00  0.00     0.041 C 
ATOM      6  O   UNL     1     -13.162   5.605 -45.249  1.00  0.00    -0.550 OA
ATOM      7  O   UNL     1     -12.594   4.194 -43.536  1.00  0.00    -0.550 OA
ENDBRANCH   4   5
ENDBRANCH   3   4
ENDBRANCH   2   3
ENDBRANCH   1   2
BRANCH   1   8
ATOM      8  C   UNL     1     -17.930   7.791 -43.174  1.00  0.00     0.000 C 
BRANCH   8   9
ATOM      9  C   UNL     1     -17.730   7.689 -41.648  1.00  0.00    -0.000 C 
BRANCH   9  10
ATOM     10  C   UNL     1     -18.177   6.357 -41.018  1.00  0.00    -0.000 C 
BRANCH  10  11
ATOM     11  C   UNL     1     -17.018   5.586 -40.365  1.00  0.00    -0.000 C 
BRANCH  11  12
ATOM     12  C   UNL     1     -16.993   4.105 -40.773  1.00  0.00    -0.003 C 
ATOM     13  C   UNL     1     -18.196   3.703 -41.625  1.00  0.00     0.004 C 
ENDBRANCH  11  12
ENDBRANCH  10  11
ENDBRANCH   9  10
ENDBRANCH   8   9
ENDBRANCH   1   8
TORSDOF 9
ENDMDL
MODEL 7
REMARK VINA RESULT:    -3.645      2.238      3.087
REMARK INTER + INTRA:          -6.461
REMARK INTER:                  -5.257
REMARK INTRA:                  -1.203
REMARK UNBOUND:                -0.898
REMARK SMILES CCCCCCCCCCC(=O)[O-]
REMARK SMILES IDX 7 1 8 2 9 3 10 4 11 5 12 6 13 7 6 8 5 9 4 10 3 11 2 12 1 13
REMARK H PARENT
REMARK Flexibility Score: inf
ROOT
ATOM      1  C   UNL     1     -10.580   0.935 -40.572  1.00  0.00     0.000 C 
ENDROOT
BRANCH   1   2
ATOM      2  C   UNL     1     -11.814   0.010 -40.575  1.00  0.00     0.000 C 
BRANCH   2   3
ATOM      3  C   UNL     1     -11.501  -1.489 -40.421  1.00  0.00     0.006 C 
BRANCH   3   4
ATOM      4  C   UNL     1     -10.099  -1.859 -40.919  1.00  0.00     0.053 C 
BRANCH   4   5
ATOM      5  C   UNL     1      -9.332  -2.562 -39.843  1.00  0.00     0.041 C 
ATOM      6  O   UNL     1      -8.122  -2.279 -39.641  1.00  0.00    -0.550 OA
ATOM      7  O   UNL     1      -9.939  -3.563 -39.097  1.00  0.00    -0.550 OA
ENDBRANCH   4   5
ENDBRANCH   3   4
ENDBRANCH   2   3
ENDBRANCH   1   2
BRANCH   1   8
ATOM      8  C   UNL     1     -10.226   1.546 -39.203  1.00  0.00     0.000 C 
BRANCH   8   9
ATOM      9  C   UNL     1      -8.903   1.047 -38.587  1.00  0.00    -0.000 C 
BRANCH   9  10
ATOM     10  C   UNL     1      -9.055   0.195 -37.314  1.00  0.00    -0.000 C 
BRANCH  10  11
ATOM     11  C   UNL     1     -10.503  -0.256 -37.066  1.00  0.00    -0.000 C 
BRANCH  11  12
ATOM     12  C   UNL     1     -11.032   0.188 -35.693  1.00  0.00    -0.003 C 
ATOM     13  C   UNL     1     -10.646   1.626 -35.346  1.00  0.00     0.004 C 
ENDBRANCH  11  12
ENDBRANCH  10  11
ENDBRANCH   9  10
ENDBRANCH   8   9
ENDBRANCH   1   8
TORSDOF 9
ENDMDL
MODEL 8
REMARK VINA RESULT:    -3.613      2.685      4.663
REMARK INTER + INTRA:          -6.412
REMARK INTER:                  -5.428
REMARK INTRA:                  -0.983
REMARK UNBOUND:                -0.898
REMARK SMILES CCCCCCCCCCC(=O)[O-]
REMARK SMILES IDX 7 1 8 2 9 3 10 4 11 5 12 6 13 7 6 8 5 9 4 10 3 11 2 12 1 13
REMARK H PARENT
REMARK Flexibility Score: inf
ROOT
ATOM      1  C   UNL     1     -10.245   1.793 -39.579  1.00  0.00     0.000 C 
ENDROOT
BRANCH   1   2
ATOM      2  C   UNL     1      -9.147   1.216 -38.662  1.00  0.00     0.000 C 
BRANCH   2   3
ATOM      3  C   UNL     1      -9.479  -0.149 -38.033  1.00  0.00     0.006 C 
BRANCH   3   4
ATOM      4  C   UNL     1      -8.342  -1.167 -38.183  1.00  0.00     0.053 C 
BRANCH   4   5
ATOM      5  C   UNL     1      -8.133  -1.507 -39.625  1.00  0.00     0.041 C 
ATOM      6  O   UNL     1      -8.879  -2.348 -40.192  1.00  0.00    -0.550 OA
ATOM      7  O   UNL     1      -7.084  -0.932 -40.330  1.00  0.00    -0.550 OA
ENDBRANCH   4   5
ENDBRANCH   3   4
ENDBRANCH   2   3
ENDBRANCH   1   2
BRANCH   1   8
ATOM      8  C   UNL     1     -10.110   1.425 -41.069  1.00  0.00     0.000 C 
BRANCH   8   9
ATOM      9  C   UNL     1     -10.883   0.162 -41.502  1.00  0.00    -0.000 C 
BRANCH   9  10
ATOM     10  C   UNL     1     -12.183  -0.108 -40.723  1.00  0.00    -0.000 C 
BRANCH  10  11
ATOM     11  C   UNL     1     -12.225  -1.514 -40.102  1.00  0.00    -0.000 C 
BRANCH  11  12
ATOM     12  C   UNL     1     -13.632  -1.901 -39.618  1.00  0.00    -0.003 C 
ATOM     13  C   UNL     1     -14.743  -1.238 -40.431  1.00  0.00     0.004 C 
ENDBRANCH  11  12
ENDBRANCH  10  11
ENDBRANCH   9  10
ENDBRANCH   8   9
ENDBRANCH   1   8
TORSDOF 9
ENDMDL
MODEL 9
REMARK VINA RESULT:    -3.603      8.707     10.211
REMARK INTER + INTRA:          -6.397
REMARK INTER:                  -5.069
REMARK INTRA:                  -1.328
REMARK UNBOUND:                -0.898
REMARK SMILES CCCCCCCCCCC(=O)[O-]
REMARK SMILES IDX 7 1 8 2 9 3 10 4 11 5 12 6 13 7 6 8 5 9 4 10 3 11 2 12 1 13
REMARK H PARENT
REMARK Flexibility Score: inf
ROOT
ATOM      1  C   UNL     1     -16.675   8.626 -41.305  1.00  0.00     0.000 C 
ENDROOT
BRANCH   1   2
ATOM      2  C   UNL     1     -17.790   7.811 -41.991  1.00  0.00     0.000 C 
BRANCH   2   3
ATOM      3  C   UNL     1     -18.398   6.690 -41.130  1.00  0.00     0.006 C 
BRANCH   3   4
ATOM      4  C   UNL     1     -17.345   5.913 -40.331  1.00  0.00     0.053 C 
BRANCH   4   5
ATOM      5  C   UNL     1     -17.301   4.485 -40.777  1.00  0.00     0.041 C 
ATOM      6  O   UNL     1     -16.387   3.722 -40.367  1.00  0.00    -0.550 OA
ATOM      7  O   UNL     1     -18.241   4.010 -41.682  1.00  0.00    -0.550 OA
ENDBRANCH   4   5
ENDBRANCH   3   4
ENDBRANCH   2   3
ENDBRANCH   1   2
BRANCH   1   8
ATOM      8  C   UNL     1     -15.462   8.952 -42.197  1.00  0.00     0.000 C 
BRANCH   8   9
ATOM      9  C   UNL     1     -14.154   8.231 -41.811  1.00  0.00    -0.000 C 
BRANCH   9  10
ATOM     10  C   UNL     1     -14.179   6.701 -41.973  1.00  0.00    -0.000 C 
BRANCH  10  11
ATOM     11  C   UNL     1     -14.262   6.257 -43.443  1.00  0.00    -0.000 C 
BRANCH  11  12
ATOM     12  C   UNL     1     -15.359   5.206 -43.679  1.00  0.00    -0.003 C 
ATOM     13  C   UNL     1     -16.435   5.680 -44.654  1.00  0.00     0.004 C 
ENDBRANCH  11  12
ENDBRANCH  10  11
ENDBRANCH   9  10
ENDBRANCH   8   9
ENDBRANCH   1   8
TORSDOF 9
ENDMDL
