MODEL 1
REMARK VINA RESULT:    -4.811      0.000      0.000
REMARK INTER + INTRA:          -5.603
REMARK INTER:                  -5.373
REMARK INTRA:                  -0.229
REMARK UNBOUND:                -0.229
REMARK SMILES O=C([O-])c1ccccc1C(=O)[O-]
REMARK SMILES IDX 4 1 9 2 5 3 8 4 6 5 7 6 2 7 1 8 3 9 10 10 11 11 12 12
REMARK H PARENT
REMARK Flexibility Score: inf
ROOT
ATOM      1  C   UNL     1      36.783  18.730   9.463  1.00  0.00     0.006 A 
ATOM      2  C   UNL     1      36.348  18.369  10.768  1.00  0.00     0.006 A 
ATOM      3  C   UNL     1      35.924  19.481   8.638  1.00  0.00     0.010 A 
ATOM      4  C   UNL     1      35.097  18.827  11.224  1.00  0.00     0.010 A 
ATOM      5  C   UNL     1      34.679  19.905   9.103  1.00  0.00     0.001 A 
ATOM      6  C   UNL     1      34.271  19.589  10.397  1.00  0.00     0.001 A 
ENDROOT
BRANCH   1   7
ATOM      7  C   UNL     1      38.138  18.413   8.957  1.00  0.00     0.072 C 
ATOM      8  O   UNL     1      39.092  19.211   9.155  1.00  0.00    -0.545 OA
ATOM      9  O   UNL     1      38.391  17.205   8.316  1.00  0.00    -0.545 OA
ENDBRANCH   1   7
BRANCH   2  10
ATOM     10  C   UNL     1      37.126  17.468  11.648  1.00  0.00     0.072 C 
ATOM     11  O   UNL     1      36.917  16.226  11.628  1.00  0.00    -0.545 OA
ATOM     12  O   UNL     1      38.140  17.968  12.457  1.00  0.00    -0.545 OA
ENDBRANCH   2  10
TORSDOF 2
ENDMDL
MODEL 2
REMARK VINA RESULT:    -4.806      0.031      3.121
REMARK INTER + INTRA:          -5.597
REMARK INTER:                  -5.371
REMARK INTRA:                  -0.227
REMARK UNBOUND:                -0.229
REMARK SMILES O=C([O-])c1ccccc1C(=O)[O-]
REMARK SMILES IDX 4 1 9 2 5 3 8 4 6 5 7 6 2 7 1 8 3 9 10 10 11 11 12 12
REMARK H PARENT
REMARK Flexibility Score: inf
ROOT
ATOM      1  C   UNL     1      36.354  18.354  10.753  1.00  0.00     0.006 A 
ATOM      2  C   UNL     1      36.783  18.725   9.448  1.00  0.00     0.006 A 
ATOM      3  C   UNL     1      35.108  18.812  11.220  1.00  0.00     0.010 A 
ATOM      4  C   UNL     1      35.923  19.485   8.635  1.00  0.00     0.010 A 
ATOM      5  C   UNL     1      34.280  19.584  10.403  1.00  0.00     0.001 A 
ATOM      6  C   UNL     1      34.682  19.910   9.110  1.00  0.00     0.001 A 
ENDROOT
BRANCH   1   7
ATOM      7  C   UNL     1      37.133  17.440  11.620  1.00  0.00     0.072 C 
ATOM      8  O   UNL     1      36.903  16.202  11.604  1.00  0.00    -0.545 OA
ATOM      9  O   UNL     1      38.168  17.924  12.412  1.00  0.00    -0.545 OA
ENDBRANCH   1   7
BRANCH   2  10
ATOM     10  C   UNL     1      38.134  18.405   8.932  1.00  0.00     0.072 C 
ATOM     11  O   UNL     1      39.091  19.200   9.124  1.00  0.00    -0.545 OA
ATOM     12  O   UNL     1      38.379  17.198   8.288  1.00  0.00    -0.545 OA
ENDBRANCH   2  10
TORSDOF 2
ENDMDL
MODEL 3
REMARK VINA RESULT:    -4.610      1.630      3.058
REMARK INTER + INTRA:          -5.378
REMARK INTER:                  -5.199
REMARK INTRA:                  -0.179
REMARK UNBOUND:                -0.229
REMARK SMILES O=C([O-])c1ccccc1C(=O)[O-]
REMARK SMILES IDX 4 1 9 2 5 3 8 4 6 5 7 6 2 7 1 8 3 9 10 10 11 11 12 12
REMARK H PARENT
REMARK Flexibility Score: inf
ROOT
ATOM      1  C   UNL     1      35.742  18.799  10.261  1.00  0.00     0.006 A 
ATOM      2  C   UNL     1      36.972  18.085  10.267  1.00  0.00     0.006 A 
ATOM      3  C   UNL     1      35.322  19.429   9.074  1.00  0.00     0.010 A 
ATOM      4  C   UNL     1      37.705  17.973   9.070  1.00  0.00     0.010 A 
ATOM      5  C   UNL     1      36.076  19.323   7.905  1.00  0.00     0.001 A 
ATOM      6  C   UNL     1      37.258  18.587   7.900  1.00  0.00     0.001 A 
ENDROOT
BRANCH   1   7
ATOM      7  C   UNL     1      34.841  18.847  11.436  1.00  0.00     0.072 C 
ATOM      8  O   UNL     1      34.642  19.936  12.037  1.00  0.00    -0.545 OA
ATOM      9  O   UNL     1      34.155  17.712  11.850  1.00  0.00    -0.545 OA
ENDBRANCH   1   7
BRANCH   2  10
ATOM     10  C   UNL     1      37.557  17.512  11.501  1.00  0.00     0.072 C 
ATOM     11  O   UNL     1      37.280  16.333  11.846  1.00  0.00    -0.545 OA
ATOM     12  O   UNL     1      38.466  18.241  12.259  1.00  0.00    -0.545 OA
ENDBRANCH   2  10
TORSDOF 2
ENDMDL
MODEL 4
REMARK VINA RESULT:    -4.597      1.651      3.187
REMARK INTER + INTRA:          -5.364
REMARK INTER:                  -5.184
REMARK INTRA:                  -0.180
REMARK UNBOUND:                -0.229
REMARK SMILES O=C([O-])c1ccccc1C(=O)[O-]
REMARK SMILES IDX 4 1 9 2 5 3 8 4 6 5 7 6 2 7 1 8 3 9 10 10 11 11 12 12
REMARK H PARENT
REMARK Flexibility Score: inf
ROOT
ATOM      1  C   UNL     1      36.971  18.074  10.315  1.00  0.00     0.006 A 
ATOM      2  C   UNL     1      35.761  18.820  10.263  1.00  0.00     0.006 A 
ATOM      3  C   UNL     1      37.728  17.914   9.138  1.00  0.00     0.010 A 
ATOM      4  C   UNL     1      35.385  19.432   9.052  1.00  0.00     0.010 A 
ATOM      5  C   UNL     1      37.325  18.512   7.944  1.00  0.00     0.001 A 
ATOM      6  C   UNL     1      36.163  19.278   7.903  1.00  0.00     0.001 A 
ENDROOT
BRANCH   1   7
ATOM      7  C   UNL     1      37.512  17.518  11.576  1.00  0.00     0.072 C 
ATOM      8  O   UNL     1      37.239  16.336  11.915  1.00  0.00    -0.545 OA
ATOM      9  O   UNL     1      38.378  18.264  12.367  1.00  0.00    -0.545 OA
ENDBRANCH   1   7
BRANCH   2  10
ATOM     10  C   UNL     1      34.836  18.921  11.414  1.00  0.00     0.072 C 
ATOM     11  O   UNL     1      34.638  20.031  11.974  1.00  0.00    -0.545 OA
ATOM     12  O   UNL     1      34.124  17.809  11.851  1.00  0.00    -0.545 OA
ENDBRANCH   2  10
TORSDOF 2
ENDMDL
MODEL 5
REMARK VINA RESULT:    -4.526      2.127      3.552
REMARK INTER + INTRA:          -5.284
REMARK INTER:                  -5.195
REMARK INTRA:                  -0.090
REMARK UNBOUND:                -0.229
REMARK SMILES O=C([O-])c1ccccc1C(=O)[O-]
REMARK SMILES IDX 4 1 9 2 5 3 8 4 6 5 7 6 2 7 1 8 3 9 10 10 11 11 12 12
REMARK H PARENT
REMARK Flexibility Score: inf
ROOT
ATOM      1  C   UNL     1      38.948  18.158   9.428  1.00  0.00     0.006 A 
ATOM      2  C   UNL     1      38.143  17.958  10.584  1.00  0.00     0.006 A 
ATOM      3  C   UNL     1      40.302  18.507   9.588  1.00  0.00     0.010 A 
ATOM      4  C   UNL     1      38.738  18.050  11.856  1.00  0.00     0.010 A 
ATOM      5  C   UNL     1      40.865  18.615  10.861  1.00  0.00     0.001 A 
ATOM      6  C   UNL     1      40.088  18.376  11.992  1.00  0.00     0.001 A 
ENDROOT
BRANCH   1   7
ATOM      7  C   UNL     1      38.439  17.942   8.054  1.00  0.00     0.072 C 
ATOM      8  O   UNL     1      38.873  16.984   7.361  1.00  0.00    -0.545 OA
ATOM      9  O   UNL     1      37.434  18.750   7.535  1.00  0.00    -0.545 OA
ENDBRANCH   1   7
BRANCH   2  10
ATOM     10  C   UNL     1      36.683  17.727  10.509  1.00  0.00     0.072 C 
ATOM     11  O   UNL     1      36.221  16.557  10.580  1.00  0.00    -0.545 OA
ATOM     12  O   UNL     1      35.799  18.797  10.426  1.00  0.00    -0.545 OA
ENDBRANCH   2  10
TORSDOF 2
ENDMDL
MODEL 6
REMARK VINA RESULT:    -4.517      2.086      3.271
REMARK INTER + INTRA:          -5.275
REMARK INTER:                  -5.112
REMARK INTRA:                  -0.163
REMARK UNBOUND:                -0.229
REMARK SMILES O=C([O-])c1ccccc1C(=O)[O-]
REMARK SMILES IDX 4 1 9 2 5 3 8 4 6 5 7 6 2 7 1 8 3 9 10 10 11 11 12 12
REMARK H PARENT
REMARK Flexibility Score: inf
ROOT
ATOM      1  C   UNL     1      37.034  18.856   9.414  1.00  0.00     0.006 A 
ATOM      2  C   UNL     1      37.039  18.228  10.690  1.00  0.00     0.006 A 
ATOM      3  C   UNL     1      38.262  19.189   8.810  1.00  0.00     0.010 A 
ATOM      4  C   UNL     1      38.270  17.897  11.286  1.00  0.00     0.010 A 
ATOM      5  C   UNL     1      39.471  18.870   9.430  1.00  0.00     0.001 A 
ATOM      6  C   UNL     1      39.475  18.216  10.659  1.00  0.00     0.001 A 
ENDROOT
BRANCH   1   7
ATOM      7  C   UNL     1      35.789  19.111   8.654  1.00  0.00     0.072 C 
ATOM      8  O   UNL     1      35.461  18.354   7.702  1.00  0.00    -0.545 OA
ATOM      9  O   UNL     1      34.934  20.145   9.019  1.00  0.00    -0.545 OA
ENDBRANCH   1   7
BRANCH   2  10
ATOM     10  C   UNL     1      35.799  17.971  11.458  1.00  0.00     0.072 C 
ATOM     11  O   UNL     1      35.345  16.800  11.555  1.00  0.00    -0.545 OA
ATOM     12  O   UNL     1      35.157  19.002  12.133  1.00  0.00    -0.545 OA
ENDBRANCH   2  10
TORSDOF 2
ENDMDL
MODEL 7
REMARK VINA RESULT:    -4.504      2.943      4.466
REMARK INTER + INTRA:          -5.260
REMARK INTER:                  -5.051
REMARK INTRA:                  -0.209
REMARK UNBOUND:                -0.229
REMARK SMILES O=C([O-])c1ccccc1C(=O)[O-]
REMARK SMILES IDX 4 1 9 2 5 3 8 4 6 5 7 6 2 7 1 8 3 9 10 10 11 11 12 12
REMARK H PARENT
REMARK Flexibility Score: inf
ROOT
ATOM      1  C   UNL     1      34.750  17.663  12.588  1.00  0.00     0.006 A 
ATOM      2  C   UNL     1      33.801  18.479  11.912  1.00  0.00     0.006 A 
ATOM      3  C   UNL     1      34.292  16.669  13.474  1.00  0.00     0.010 A 
ATOM      4  C   UNL     1      32.428  18.228  12.096  1.00  0.00     0.010 A 
ATOM      5  C   UNL     1      32.925  16.453  13.658  1.00  0.00     0.001 A 
ATOM      6  C   UNL     1      31.996  17.222  12.962  1.00  0.00     0.001 A 
ENDROOT
BRANCH   1   7
ATOM      7  C   UNL     1      36.207  17.765  12.345  1.00  0.00     0.072 C 
ATOM      8  O   UNL     1      36.748  17.076  11.439  1.00  0.00    -0.545 OA
ATOM      9  O   UNL     1      36.986  18.664  13.064  1.00  0.00    -0.545 OA
ENDBRANCH   1   7
BRANCH   2  10
ATOM     10  C   UNL     1      34.195  19.634  11.074  1.00  0.00     0.072 C 
ATOM     11  O   UNL     1      34.179  20.799  11.552  1.00  0.00    -0.545 OA
ATOM     12  O   UNL     1      34.648  19.444   9.774  1.00  0.00    -0.545 OA
ENDBRANCH   2  10
TORSDOF 2
ENDMDL
MODEL 8
REMARK VINA RESULT:    -4.497      2.935      3.949
REMARK INTER + INTRA:          -5.252
REMARK INTER:                  -5.031
REMARK INTRA:                  -0.221
REMARK UNBOUND:                -0.229
REMARK SMILES O=C([O-])c1ccccc1C(=O)[O-]
REMARK SMILES IDX 4 1 9 2 5 3 8 4 6 5 7 6 2 7 1 8 3 9 10 10 11 11 12 12
REMARK H PARENT
REMARK Flexibility Score: inf
ROOT
ATOM      1  C   UNL     1      33.805  18.499  11.902  1.00  0.00     0.006 A 
ATOM      2  C   UNL     1      34.741  17.677  12.590  1.00  0.00     0.006 A 
ATOM      3  C   UNL     1      32.429  18.254  12.065  1.00  0.00     0.010 A 
ATOM      4  C   UNL     1      34.265  16.682  13.465  1.00  0.00     0.010 A 
ATOM      5  C   UNL     1      31.980  17.247  12.921  1.00  0.00     0.001 A 
ATOM      6  C   UNL     1      32.896  16.471  13.628  1.00  0.00     0.001 A 
ENDROOT
BRANCH   1   7
ATOM      7  C   UNL     1      34.216  19.656  11.074  1.00  0.00     0.072 C 
ATOM      8  O   UNL     1      34.255  20.811  11.576  1.00  0.00    -0.545 OA
ATOM      9  O   UNL     1      34.626  19.478   9.758  1.00  0.00    -0.545 OA
ENDBRANCH   1   7
BRANCH   2  10
ATOM     10  C   UNL     1      36.202  17.774  12.369  1.00  0.00     0.072 C 
ATOM     11  O   UNL     1      36.758  17.071  11.484  1.00  0.00    -0.545 OA
ATOM     12  O   UNL     1      36.968  18.686  13.085  1.00  0.00    -0.545 OA
ENDBRANCH   2  10
TORSDOF 2
ENDMDL
MODEL 9
REMARK VINA RESULT:    -4.478      2.110      4.273
REMARK INTER + INTRA:          -5.231
REMARK INTER:                  -5.064
REMARK INTRA:                  -0.167
REMARK UNBOUND:                -0.229
REMARK SMILES O=C([O-])c1ccccc1C(=O)[O-]
REMARK SMILES IDX 4 1 9 2 5 3 8 4 6 5 7 6 2 7 1 8 3 9 10 10 11 11 12 12
REMARK H PARENT
REMARK Flexibility Score: inf
ROOT
ATOM      1  C   UNL     1      36.984  18.195  10.635  1.00  0.00     0.006 A 
ATOM      2  C   UNL     1      36.970  18.894   9.396  1.00  0.00     0.006 A 
ATOM      3  C   UNL     1      38.221  17.851  11.213  1.00  0.00     0.010 A 
ATOM      4  C   UNL     1      38.192  19.280   8.814  1.00  0.00     0.010 A 
ATOM      5  C   UNL     1      39.421  18.226  10.606  1.00  0.00     0.001 A 
ATOM      6  C   UNL     1      39.406  18.949   9.416  1.00  0.00     0.001 A 
ENDROOT
BRANCH   1   7
ATOM      7  C   UNL     1      35.748  17.875  11.386  1.00  0.00     0.072 C 
ATOM      8  O   UNL     1      35.362  16.680  11.490  1.00  0.00    -0.545 OA
ATOM      9  O   UNL     1      35.036  18.874  12.038  1.00  0.00    -0.545 OA
ENDBRANCH   1   7
BRANCH   2  10
ATOM     10  C   UNL     1      35.721  19.171   8.651  1.00  0.00     0.072 C 
ATOM     11  O   UNL     1      35.366  18.420   7.705  1.00  0.00    -0.545 OA
ATOM     12  O   UNL     1      34.890  20.222   9.025  1.00  0.00    -0.545 OA
ENDBRANCH   2  10
TORSDOF 2
ENDMDL
