MODEL 1
REMARK VINA RESULT:    -3.331      0.000      0.000
REMARK INTER + INTRA:          -3.904
REMARK INTER:                  -3.818
REMARK INTRA:                  -0.086
REMARK UNBOUND:                -0.086
REMARK SMILES C=Cc1ccc(O)c(OC)c1
REMARK SMILES IDX 8 1 6 2 5 3 4 4 3 5 11 6 9 7 10 8 7 9 2 11 1 12
REMARK H PARENT 7 10
REMARK Flexibility Score: inf
ROOT
ATOM      1  C   UNL     1     228.739 231.800 233.763  1.00  0.00     0.161 A 
ATOM      2  C   UNL     1     227.351 231.812 233.538  1.00  0.00     0.157 A 
ATOM      3  C   UNL     1     226.546 230.808 234.082  1.00  0.00     0.051 A 
ATOM      4  C   UNL     1     227.109 229.785 234.845  1.00  0.00     0.012 A 
ATOM      5  C   UNL     1     228.492 229.742 235.070  1.00  0.00    -0.022 A 
ATOM      6  C   UNL     1     229.304 230.763 234.535  1.00  0.00     0.058 A 
ENDROOT
BRANCH   1   7
ATOM      7  O   UNL     1     229.521 232.827 233.211  1.00  0.00    -0.493 OA
ATOM      8  C   UNL     1     230.521 232.637 232.214  1.00  0.00     0.278 C 
ENDBRANCH   1   7
BRANCH   2   9
ATOM      9  O   UNL     1     226.753 232.816 232.778  1.00  0.00    -0.504 OA
ATOM     10  H   UNL     1     226.498 233.714 233.173  1.00  0.00     0.293 HD
ENDBRANCH   2   9
BRANCH   5  11
ATOM     11  C   UNL     1     229.039 228.635 235.895  1.00  0.00     0.000 C 
ATOM     12  C   UNL     1     230.099 228.751 236.697  1.00  0.00     0.009 C 
ENDBRANCH   5  11
TORSDOF 3
ENDMDL
MODEL 2
REMARK VINA RESULT:    -3.267     11.365     13.917
REMARK INTER + INTRA:          -3.831
REMARK INTER:                  -3.756
REMARK INTRA:                  -0.075
REMARK UNBOUND:                -0.086
REMARK SMILES C=Cc1ccc(O)c(OC)c1
REMARK SMILES IDX 8 1 6 2 5 3 4 4 3 5 11 6 9 7 10 8 7 9 2 11 1 12
REMARK H PARENT 7 10
REMARK Flexibility Score: inf
ROOT
ATOM      1  C   UNL     1     239.789 236.864 233.836  1.00  0.00     0.161 A 
ATOM      2  C   UNL     1     241.183 236.828 233.656  1.00  0.00     0.157 A 
ATOM      3  C   UNL     1     241.993 237.784 234.273  1.00  0.00     0.051 A 
ATOM      4  C   UNL     1     241.429 238.785 235.064  1.00  0.00     0.012 A 
ATOM      5  C   UNL     1     240.040 238.853 235.246  1.00  0.00    -0.022 A 
ATOM      6  C   UNL     1     239.223 237.878 234.638  1.00  0.00     0.058 A 
ENDROOT
BRANCH   1   7
ATOM      7  O   UNL     1     239.001 235.883 233.212  1.00  0.00    -0.493 OA
ATOM      8  C   UNL     1     237.782 236.143 232.522  1.00  0.00     0.278 C 
ENDBRANCH   1   7
BRANCH   2   9
ATOM      9  O   UNL     1     241.783 235.845 232.869  1.00  0.00    -0.504 OA
ATOM     10  H   UNL     1     241.261 235.303 232.191  1.00  0.00     0.293 HD
ENDBRANCH   2   9
BRANCH   5  11
ATOM     11  C   UNL     1     239.492 239.933 236.104  1.00  0.00     0.000 C 
ATOM     12  C   UNL     1     238.329 239.857 236.754  1.00  0.00     0.009 C 
ENDBRANCH   5  11
TORSDOF 3
ENDMDL
MODEL 3
REMARK VINA RESULT:    -3.264      8.320      9.896
REMARK INTER + INTRA:          -3.828
REMARK INTER:                  -3.758
REMARK INTRA:                  -0.070
REMARK UNBOUND:                -0.086
REMARK SMILES C=Cc1ccc(O)c(OC)c1
REMARK SMILES IDX 8 1 6 2 5 3 4 4 3 5 11 6 9 7 10 8 7 9 2 11 1 12
REMARK H PARENT 7 10
REMARK Flexibility Score: inf
ROOT
ATOM      1  C   UNL     1     236.892 228.703 233.725  1.00  0.00     0.161 A 
ATOM      2  C   UNL     1     236.794 227.301 233.677  1.00  0.00     0.157 A 
ATOM      3  C   UNL     1     237.696 226.512 234.396  1.00  0.00     0.051 A 
ATOM      4  C   UNL     1     238.701 227.105 235.159  1.00  0.00     0.012 A 
ATOM      5  C   UNL     1     238.830 228.500 235.211  1.00  0.00    -0.022 A 
ATOM      6  C   UNL     1     237.911 229.297 234.499  1.00  0.00     0.058 A 
ENDROOT
BRANCH   1   7
ATOM      7  O   UNL     1     235.966 229.469 232.999  1.00  0.00    -0.493 OA
ATOM      8  C   UNL     1     236.181 230.813 232.577  1.00  0.00     0.278 C 
ENDBRANCH   1   7
BRANCH   2   9
ATOM      9  O   UNL     1     235.804 226.672 232.921  1.00  0.00    -0.504 OA
ATOM     10  H   UNL     1     235.986 225.833 232.385  1.00  0.00     0.293 HD
ENDBRANCH   2   9
BRANCH   5  11
ATOM     11  C   UNL     1     239.913 229.079 236.044  1.00  0.00     0.000 C 
ATOM     12  C   UNL     1     239.790 230.197 236.763  1.00  0.00     0.009 C 
ENDBRANCH   5  11
TORSDOF 3
ENDMDL
MODEL 4
REMARK VINA RESULT:    -3.242      8.530      9.785
REMARK INTER + INTRA:          -3.802
REMARK INTER:                  -3.703
REMARK INTRA:                  -0.099
REMARK UNBOUND:                -0.086
REMARK SMILES C=Cc1ccc(O)c(OC)c1
REMARK SMILES IDX 8 1 6 2 5 3 4 4 3 5 11 6 9 7 10 8 7 9 2 11 1 12
REMARK H PARENT 7 10
REMARK Flexibility Score: inf
ROOT
ATOM      1  C   UNL     1     231.970 239.665 233.456  1.00  0.00     0.161 A 
ATOM      2  C   UNL     1     231.965 241.071 233.470  1.00  0.00     0.157 A 
ATOM      3  C   UNL     1     231.060 241.759 234.281  1.00  0.00     0.051 A 
ATOM      4  C   UNL     1     230.150 241.062 235.076  1.00  0.00     0.012 A 
ATOM      5  C   UNL     1     230.123 239.660 235.067  1.00  0.00    -0.022 A 
ATOM      6  C   UNL     1     231.048 238.964 234.262  1.00  0.00     0.058 A 
ENDROOT
BRANCH   1   7
ATOM      7  O   UNL     1     232.898 239.001 232.638  1.00  0.00    -0.493 OA
ATOM      8  C   UNL     1     232.723 237.686 232.117  1.00  0.00     0.278 C 
ENDBRANCH   1   7
BRANCH   2   9
ATOM      9  O   UNL     1     232.857 241.803 232.686  1.00  0.00    -0.504 OA
ATOM     10  H   UNL     1     233.211 242.708 232.972  1.00  0.00     0.293 HD
ENDBRANCH   2   9
BRANCH   5  11
ATOM     11  C   UNL     1     229.140 238.967 235.937  1.00  0.00     0.000 C 
ATOM     12  C   UNL     1     228.322 239.589 236.788  1.00  0.00     0.009 C 
ENDBRANCH   5  11
TORSDOF 3
ENDMDL
MODEL 5
REMARK VINA RESULT:    -3.128     13.084     14.617
REMARK INTER + INTRA:          -3.671
REMARK INTER:                  -3.591
REMARK INTRA:                  -0.081
REMARK UNBOUND:                -0.086
REMARK SMILES C=Cc1ccc(O)c(OC)c1
REMARK SMILES IDX 8 1 6 2 5 3 4 4 3 5 11 6 9 7 10 8 7 9 2 11 1 12
REMARK H PARENT 7 10
REMARK Flexibility Score: inf
ROOT
ATOM      1  C   UNL     1     241.698 238.131 234.019  1.00  0.00     0.161 A 
ATOM      2  C   UNL     1     241.105 236.894 233.711  1.00  0.00     0.157 A 
ATOM      3  C   UNL     1     239.828 236.591 234.190  1.00  0.00     0.051 A 
ATOM      4  C   UNL     1     239.135 237.506 234.982  1.00  0.00     0.012 A 
ATOM      5  C   UNL     1     239.711 238.740 235.317  1.00  0.00    -0.022 A 
ATOM      6  C   UNL     1     240.992 239.053 234.820  1.00  0.00     0.058 A 
ENDROOT
BRANCH   1   7
ATOM      7  O   UNL     1     242.978 238.410 233.515  1.00  0.00    -0.493 OA
ATOM      8  C   UNL     1     243.310 239.559 232.741  1.00  0.00     0.278 C 
ENDBRANCH   1   7
BRANCH   2   9
ATOM      9  O   UNL     1     241.769 235.952 232.925  1.00  0.00    -0.504 OA
ATOM     10  H   UNL     1     242.715 235.651 233.126  1.00  0.00     0.293 HD
ENDBRANCH   2   9
BRANCH   5  11
ATOM     11  C   UNL     1     238.927 239.680 236.156  1.00  0.00     0.000 C 
ATOM     12  C   UNL     1     239.422 240.341 237.204  1.00  0.00     0.009 C 
ENDBRANCH   5  11
TORSDOF 3
ENDMDL
MODEL 6
REMARK VINA RESULT:    -3.126      9.295     10.866
REMARK INTER + INTRA:          -3.669
REMARK INTER:                  -3.552
REMARK INTRA:                  -0.117
REMARK UNBOUND:                -0.086
REMARK SMILES C=Cc1ccc(O)c(OC)c1
REMARK SMILES IDX 8 1 6 2 5 3 4 4 3 5 11 6 9 7 10 8 7 9 2 11 1 12
REMARK H PARENT 7 10
REMARK Flexibility Score: inf
ROOT
ATOM      1  C   UNL     1     238.322 226.733 234.241  1.00  0.00     0.161 A 
ATOM      2  C   UNL     1     237.139 227.393 233.867  1.00  0.00     0.157 A 
ATOM      3  C   UNL     1     236.918 228.714 234.265  1.00  0.00     0.051 A 
ATOM      4  C   UNL     1     237.863 229.386 235.040  1.00  0.00     0.012 A 
ATOM      5  C   UNL     1     239.044 228.745 235.440  1.00  0.00    -0.022 A 
ATOM      6  C   UNL     1     239.275 227.417 235.025  1.00  0.00     0.058 A 
ENDROOT
BRANCH   1   7
ATOM      7  O   UNL     1     238.520 225.409 233.817  1.00  0.00    -0.493 OA
ATOM      8  C   UNL     1     239.316 225.027 232.699  1.00  0.00     0.278 C 
ENDBRANCH   1   7
BRANCH   2   9
ATOM      9  O   UNL     1     236.169 226.753 233.095  1.00  0.00    -0.504 OA
ATOM     10  H   UNL     1     235.601 225.997 233.459  1.00  0.00     0.293 HD
ENDBRANCH   2   9
BRANCH   5  11
ATOM     11  C   UNL     1     240.020 229.507 236.258  1.00  0.00     0.000 C 
ATOM     12  C   UNL     1     239.700 230.546 237.032  1.00  0.00     0.009 C 
ENDBRANCH   5  11
TORSDOF 3
ENDMDL
MODEL 7
REMARK VINA RESULT:    -3.124      1.446      2.919
REMARK INTER + INTRA:          -3.667
REMARK INTER:                  -3.561
REMARK INTRA:                  -0.106
REMARK UNBOUND:                -0.086
REMARK SMILES C=Cc1ccc(O)c(OC)c1
REMARK SMILES IDX 8 1 6 2 5 3 4 4 3 5 11 6 9 7 10 8 7 9 2 11 1 12
REMARK H PARENT 7 10
REMARK Flexibility Score: inf
ROOT
ATOM      1  C   UNL     1     226.774 230.098 234.114  1.00  0.00     0.161 A 
ATOM      2  C   UNL     1     227.394 231.349 233.945  1.00  0.00     0.157 A 
ATOM      3  C   UNL     1     228.615 231.614 234.570  1.00  0.00     0.051 A 
ATOM      4  C   UNL     1     229.224 230.648 235.370  1.00  0.00     0.012 A 
ATOM      5  C   UNL     1     228.618 229.399 235.568  1.00  0.00    -0.022 A 
ATOM      6  C   UNL     1     227.395 229.125 234.924  1.00  0.00     0.058 A 
ENDROOT
BRANCH   1   7
ATOM      7  O   UNL     1     225.552 229.857 233.465  1.00  0.00    -0.493 OA
ATOM      8  C   UNL     1     225.267 228.705 232.678  1.00  0.00     0.278 C 
ENDBRANCH   1   7
BRANCH   2   9
ATOM      9  O   UNL     1     226.813 232.341 233.155  1.00  0.00    -0.504 OA
ATOM     10  H   UNL     1     226.081 232.949 233.504  1.00  0.00     0.293 HD
ENDBRANCH   2   9
BRANCH   5  11
ATOM     11  C   UNL     1     229.313 228.404 236.423  1.00  0.00     0.000 C 
ATOM     12  C   UNL     1     230.519 228.591 236.963  1.00  0.00     0.009 C 
ENDBRANCH   5  11
TORSDOF 3
ENDMDL
MODEL 8
REMARK VINA RESULT:    -3.118      8.696     10.261
REMARK INTER + INTRA:          -3.660
REMARK INTER:                  -3.548
REMARK INTRA:                  -0.113
REMARK UNBOUND:                -0.086
REMARK SMILES C=Cc1ccc(O)c(OC)c1
REMARK SMILES IDX 8 1 6 2 5 3 4 4 3 5 11 6 9 7 10 8 7 9 2 11 1 12
REMARK H PARENT 7 10
REMARK Flexibility Score: inf
ROOT
ATOM      1  C   UNL     1     230.310 241.770 234.102  1.00  0.00     0.161 A 
ATOM      2  C   UNL     1     231.518 241.129 233.776  1.00  0.00     0.157 A 
ATOM      3  C   UNL     1     231.754 239.821 234.204  1.00  0.00     0.051 A 
ATOM      4  C   UNL     1     230.800 239.143 234.964  1.00  0.00     0.012 A 
ATOM      5  C   UNL     1     229.595 239.766 235.317  1.00  0.00    -0.022 A 
ATOM      6  C   UNL     1     229.349 241.080 234.871  1.00  0.00     0.058 A 
ENDROOT
BRANCH   1   7
ATOM      7  O   UNL     1     230.098 243.083 233.649  1.00  0.00    -0.493 OA
ATOM      8  C   UNL     1     229.175 243.446 232.627  1.00  0.00     0.278 C 
ENDBRANCH   1   7
BRANCH   2   9
ATOM      9  O   UNL     1     232.497 241.776 233.021  1.00  0.00    -0.504 OA
ATOM     10  H   UNL     1     232.957 242.620 233.343  1.00  0.00     0.293 HD
ENDBRANCH   2   9
BRANCH   5  11
ATOM     11  C   UNL     1     228.611 238.997 236.120  1.00  0.00     0.000 C 
ATOM     12  C   UNL     1     228.940 238.082 237.033  1.00  0.00     0.009 C 
ENDBRANCH   5  11
TORSDOF 3
ENDMDL
MODEL 9
REMARK VINA RESULT:    -2.981      9.588     11.416
REMARK INTER + INTRA:          -3.503
REMARK INTER:                  -3.399
REMARK INTRA:                  -0.104
REMARK UNBOUND:                -0.086
REMARK SMILES C=Cc1ccc(O)c(OC)c1
REMARK SMILES IDX 8 1 6 2 5 3 4 4 3 5 11 6 9 7 10 8 7 9 2 11 1 12
REMARK H PARENT 7 10
REMARK Flexibility Score: inf
ROOT
ATOM      1  C   UNL     1     238.720 226.252 234.126  1.00  0.00     0.161 A 
ATOM      2  C   UNL     1     239.704 226.880 234.910  1.00  0.00     0.157 A 
ATOM      3  C   UNL     1     239.536 228.206 235.314  1.00  0.00     0.051 A 
ATOM      4  C   UNL     1     238.397 228.920 234.940  1.00  0.00     0.012 A 
ATOM      5  C   UNL     1     237.409 228.323 234.145  1.00  0.00    -0.022 A 
ATOM      6  C   UNL     1     237.571 226.979 233.750  1.00  0.00     0.058 A 
ENDROOT
BRANCH   1   7
ATOM      7  O   UNL     1     238.913 224.915 233.742  1.00  0.00    -0.493 OA
ATOM      8  C   UNL     1     239.293 224.495 232.435  1.00  0.00     0.278 C 
ENDBRANCH   1   7
BRANCH   2   9
ATOM      9  O   UNL     1     240.857 226.199 235.300  1.00  0.00    -0.504 OA
ATOM     10  H   UNL     1     240.839 225.456 235.989  1.00  0.00     0.293 HD
ENDBRANCH   2   9
BRANCH   5  11
ATOM     11  C   UNL     1     236.214 229.125 233.781  1.00  0.00     0.000 C 
ATOM     12  C   UNL     1     236.246 230.202 232.994  1.00  0.00     0.009 C 
ENDBRANCH   5  11
TORSDOF 3
ENDMDL
