MODEL 1
REMARK VINA RESULT:    -4.215      0.000      0.000
REMARK INTER + INTRA:          -4.215
REMARK INTER:                  -4.215
REMARK INTRA:                   0.000
REMARK UNBOUND:                 0.000
REMARK SMILES CC(C)=C1CC[C@H](C)CC1=O
REMARK SMILES IDX 8 1 7 2 6 3 5 4 4 5 2 6 1 7 3 8 10 9 11 10 9 11
REMARK H PARENT
REMARK Flexibility Score: inf
ROOT
ATOM      1  C   UNL     1      16.418   6.142  26.377  1.00  0.00     0.008 C 
ATOM      2  C   UNL     1      15.861   7.424  25.748  1.00  0.00    -0.006 C 
ATOM      3  C   UNL     1      14.842   8.090  26.686  1.00  0.00     0.008 C 
ATOM      4  C   UNL     1      14.198   9.318  26.031  1.00  0.00     0.039 C 
ATOM      5  C   UNL     1      15.230  10.303  25.496  1.00  0.00    -0.006 C 
ATOM      6  C   UNL     1      14.985  11.646  25.473  1.00  0.00    -0.070 C 
ATOM      7  C   UNL     1      16.022  12.637  24.998  1.00  0.00     0.039 C 
ATOM      8  C   UNL     1      13.670  12.211  25.962  1.00  0.00     0.039 C 
ATOM      9  C   UNL     1      16.460   9.702  24.898  1.00  0.00     0.159 C 
ATOM     10  O   UNL     1      17.065  10.261  23.944  1.00  0.00    -0.295 OA
ATOM     11  C   UNL     1      16.999   8.406  25.429  1.00  0.00     0.084 C 
ENDROOT
TORSDOF 0
ENDMDL
MODEL 2
REMARK VINA RESULT:    -4.129      1.681      4.188
REMARK INTER + INTRA:          -4.129
REMARK INTER:                  -4.129
REMARK INTRA:                   0.000
REMARK UNBOUND:                 0.000
REMARK SMILES CC(C)=C1CC[C@H](C)CC1=O
REMARK SMILES IDX 8 1 7 2 6 3 5 4 4 5 2 6 1 7 3 8 10 9 11 10 9 11
REMARK H PARENT
REMARK Flexibility Score: inf
ROOT
ATOM      1  C   UNL     1      17.147  14.576  25.468  1.00  0.00     0.008 C 
ATOM      2  C   UNL     1      16.885  13.121  25.875  1.00  0.00    -0.006 C 
ATOM      3  C   UNL     1      15.616  13.021  26.735  1.00  0.00     0.008 C 
ATOM      4  C   UNL     1      15.394  11.588  27.237  1.00  0.00     0.039 C 
ATOM      5  C   UNL     1      15.418  10.564  26.109  1.00  0.00    -0.006 C 
ATOM      6  C   UNL     1      14.662   9.429  26.165  1.00  0.00    -0.070 C 
ATOM      7  C   UNL     1      14.635   8.434  25.028  1.00  0.00     0.039 C 
ATOM      8  C   UNL     1      13.781   9.131  27.357  1.00  0.00     0.039 C 
ATOM      9  C   UNL     1      16.397  10.822  25.011  1.00  0.00     0.159 C 
ATOM     10  O   UNL     1      16.949   9.875  24.390  1.00  0.00    -0.295 OA
ATOM     11  C   UNL     1      16.747  12.231  24.630  1.00  0.00     0.084 C 
ENDROOT
TORSDOF 0
ENDMDL
MODEL 3
REMARK VINA RESULT:    -4.018      1.828      5.092
REMARK INTER + INTRA:          -4.018
REMARK INTER:                  -4.018
REMARK INTRA:                   0.000
REMARK UNBOUND:                 0.000
REMARK SMILES CC(C)=C1CC[C@H](C)CC1=O
REMARK SMILES IDX 8 1 7 2 6 3 5 4 4 5 2 6 1 7 3 8 10 9 11 10 9 11
REMARK H PARENT
REMARK Flexibility Score: inf
ROOT
ATOM      1  C   UNL     1      15.478  15.484  25.363  1.00  0.00     0.008 C 
ATOM      2  C   UNL     1      15.400  14.001  24.979  1.00  0.00    -0.006 C 
ATOM      3  C   UNL     1      16.801  13.370  24.972  1.00  0.00     0.008 C 
ATOM      4  C   UNL     1      16.755  11.914  24.492  1.00  0.00     0.039 C 
ATOM      5  C   UNL     1      15.740  11.077  25.260  1.00  0.00    -0.006 C 
ATOM      6  C   UNL     1      15.942   9.746  25.484  1.00  0.00    -0.070 C 
ATOM      7  C   UNL     1      14.971   8.917  26.293  1.00  0.00     0.039 C 
ATOM      8  C   UNL     1      17.174   9.041  24.961  1.00  0.00     0.039 C 
ATOM      9  C   UNL     1      14.475  11.772  25.646  1.00  0.00     0.159 C 
ATOM     10  O   UNL     1      13.382  11.149  25.716  1.00  0.00    -0.295 OA
ATOM     11  C   UNL     1      14.486  13.241  25.953  1.00  0.00     0.084 C 
ENDROOT
TORSDOF 0
ENDMDL
MODEL 4
REMARK VINA RESULT:    -4.005     10.239     11.874
REMARK INTER + INTRA:          -4.005
REMARK INTER:                  -4.005
REMARK INTRA:                   0.000
REMARK UNBOUND:                 0.000
REMARK SMILES CC(C)=C1CC[C@H](C)CC1=O
REMARK SMILES IDX 8 1 7 2 6 3 5 4 4 5 2 6 1 7 3 8 10 9 11 10 9 11
REMARK H PARENT
REMARK Flexibility Score: inf
ROOT
ATOM      1  C   UNL     1      12.517  -2.105  20.256  1.00  0.00     0.008 C 
ATOM      2  C   UNL     1      13.998  -1.762  20.058  1.00  0.00    -0.006 C 
ATOM      3  C   UNL     1      14.204  -0.996  18.743  1.00  0.00     0.008 C 
ATOM      4  C   UNL     1      15.692  -0.732  18.478  1.00  0.00     0.039 C 
ATOM      5  C   UNL     1      16.387  -0.065  19.658  1.00  0.00    -0.006 C 
ATOM      6  C   UNL     1      17.425   0.801  19.473  1.00  0.00    -0.070 C 
ATOM      7  C   UNL     1      18.085   1.513  20.632  1.00  0.00     0.039 C 
ATOM      8  C   UNL     1      17.942   1.122  18.088  1.00  0.00     0.039 C 
ATOM      9  C   UNL     1      15.941  -0.505  21.014  1.00  0.00     0.159 C 
ATOM     10  O   UNL     1      16.741  -0.535  21.988  1.00  0.00    -0.295 OA
ATOM     11  C   UNL     1      14.519  -0.927  21.239  1.00  0.00     0.084 C 
ENDROOT
TORSDOF 0
ENDMDL
MODEL 5
REMARK VINA RESULT:    -3.978      1.635      4.621
REMARK INTER + INTRA:          -3.978
REMARK INTER:                  -3.978
REMARK INTRA:                   0.000
REMARK UNBOUND:                 0.000
REMARK SMILES CC(C)=C1CC[C@H](C)CC1=O
REMARK SMILES IDX 8 1 7 2 6 3 5 4 4 5 2 6 1 7 3 8 10 9 11 10 9 11
REMARK H PARENT
REMARK Flexibility Score: inf
ROOT
ATOM      1  C   UNL     1      13.950  13.502  26.263  1.00  0.00     0.008 C 
ATOM      2  C   UNL     1      14.418  12.157  25.696  1.00  0.00    -0.006 C 
ATOM      3  C   UNL     1      15.886  11.895  26.065  1.00  0.00     0.008 C 
ATOM      4  C   UNL     1      16.402  10.602  25.420  1.00  0.00     0.039 C 
ATOM      5  C   UNL     1      15.505   9.406  25.709  1.00  0.00    -0.006 C 
ATOM      6  C   UNL     1      16.016   8.145  25.820  1.00  0.00    -0.070 C 
ATOM      7  C   UNL     1      15.144   6.959  26.163  1.00  0.00     0.039 C 
ATOM      8  C   UNL     1      17.494   7.880  25.642  1.00  0.00     0.039 C 
ATOM      9  C   UNL     1      14.037   9.682  25.746  1.00  0.00     0.159 C 
ATOM     10  O   UNL     1      13.198   8.815  25.381  1.00  0.00    -0.295 OA
ATOM     11  C   UNL     1      13.533  11.015  26.220  1.00  0.00     0.084 C 
ENDROOT
TORSDOF 0
ENDMDL
MODEL 6
REMARK VINA RESULT:    -3.887      1.539      2.430
REMARK INTER + INTRA:          -3.887
REMARK INTER:                  -3.887
REMARK INTRA:                   0.000
REMARK UNBOUND:                 0.000
REMARK SMILES CC(C)=C1CC[C@H](C)CC1=O
REMARK SMILES IDX 8 1 7 2 6 3 5 4 4 5 2 6 1 7 3 8 10 9 11 10 9 11
REMARK H PARENT
REMARK Flexibility Score: inf
ROOT
ATOM      1  C   UNL     1      16.201   6.517  25.903  1.00  0.00     0.008 C 
ATOM      2  C   UNL     1      16.181   8.034  26.121  1.00  0.00    -0.006 C 
ATOM      3  C   UNL     1      16.993   8.748  25.029  1.00  0.00     0.008 C 
ATOM      4  C   UNL     1      17.070  10.258  25.287  1.00  0.00     0.039 C 
ATOM      5  C   UNL     1      15.698  10.885  25.500  1.00  0.00    -0.006 C 
ATOM      6  C   UNL     1      15.438  12.170  25.120  1.00  0.00    -0.070 C 
ATOM      7  C   UNL     1      14.065  12.784  25.273  1.00  0.00     0.039 C 
ATOM      8  C   UNL     1      16.507  13.032  24.488  1.00  0.00     0.039 C 
ATOM      9  C   UNL     1      14.706  10.054  26.246  1.00  0.00     0.159 C 
ATOM     10  O   UNL     1      13.835  10.583  26.988  1.00  0.00    -0.295 OA
ATOM     11  C   UNL     1      14.736   8.558  26.128  1.00  0.00     0.084 C 
ENDROOT
TORSDOF 0
ENDMDL
MODEL 7
REMARK VINA RESULT:    -3.869      1.850      2.857
REMARK INTER + INTRA:          -3.869
REMARK INTER:                  -3.869
REMARK INTRA:                   0.000
REMARK UNBOUND:                 0.000
REMARK SMILES CC(C)=C1CC[C@H](C)CC1=O
REMARK SMILES IDX 8 1 7 2 6 3 5 4 4 5 2 6 1 7 3 8 10 9 11 10 9 11
REMARK H PARENT
REMARK Flexibility Score: inf
ROOT
ATOM      1  C   UNL     1      17.385   8.009  25.390  1.00  0.00     0.008 C 
ATOM      2  C   UNL     1      16.824   9.403  25.699  1.00  0.00    -0.006 C 
ATOM      3  C   UNL     1      16.854  10.288  24.443  1.00  0.00     0.008 C 
ATOM      4  C   UNL     1      16.392  11.717  24.756  1.00  0.00     0.039 C 
ATOM      5  C   UNL     1      15.045  11.753  25.465  1.00  0.00    -0.006 C 
ATOM      6  C   UNL     1      14.173  12.788  25.280  1.00  0.00    -0.070 C 
ATOM      7  C   UNL     1      12.811  12.808  25.933  1.00  0.00     0.039 C 
ATOM      8  C   UNL     1      14.517  13.950  24.376  1.00  0.00     0.039 C 
ATOM      9  C   UNL     1      14.794  10.660  26.451  1.00  0.00     0.159 C 
ATOM     10  O   UNL     1      14.090  10.854  27.479  1.00  0.00    -0.295 OA
ATOM     11  C   UNL     1      15.388   9.299  26.234  1.00  0.00     0.084 C 
ENDROOT
TORSDOF 0
ENDMDL
MODEL 8
REMARK VINA RESULT:    -3.758      1.233      4.005
REMARK INTER + INTRA:          -3.758
REMARK INTER:                  -3.758
REMARK INTRA:                   0.000
REMARK UNBOUND:                 0.000
REMARK SMILES CC(C)=C1CC[C@H](C)CC1=O
REMARK SMILES IDX 8 1 7 2 6 3 5 4 4 5 2 6 1 7 3 8 10 9 11 10 9 11
REMARK H PARENT
REMARK Flexibility Score: inf
ROOT
ATOM      1  C   UNL     1      11.925  11.935  26.040  1.00  0.00     0.008 C 
ATOM      2  C   UNL     1      13.143  11.075  26.396  1.00  0.00    -0.006 C 
ATOM      3  C   UNL     1      12.815   9.582  26.240  1.00  0.00     0.008 C 
ATOM      4  C   UNL     1      13.988   8.702  26.689  1.00  0.00     0.039 C 
ATOM      5  C   UNL     1      15.298   9.086  26.014  1.00  0.00    -0.006 C 
ATOM      6  C   UNL     1      16.256   8.152  25.740  1.00  0.00    -0.070 C 
ATOM      7  C   UNL     1      17.535   8.511  25.020  1.00  0.00     0.039 C 
ATOM      8  C   UNL     1      16.064   6.699  26.113  1.00  0.00     0.039 C 
ATOM      9  C   UNL     1      15.512  10.546  25.782  1.00  0.00     0.159 C 
ATOM     10  O   UNL     1      16.666  11.052  25.815  1.00  0.00    -0.295 OA
ATOM     11  C   UNL     1      14.342  11.444  25.508  1.00  0.00     0.084 C 
ENDROOT
TORSDOF 0
ENDMDL
MODEL 9
REMARK VINA RESULT:    -3.709      1.613      2.394
REMARK INTER + INTRA:          -3.709
REMARK INTER:                  -3.709
REMARK INTRA:                   0.000
REMARK UNBOUND:                 0.000
REMARK SMILES CC(C)=C1CC[C@H](C)CC1=O
REMARK SMILES IDX 8 1 7 2 6 3 5 4 4 5 2 6 1 7 3 8 10 9 11 10 9 11
REMARK H PARENT
REMARK Flexibility Score: inf
ROOT
ATOM      1  C   UNL     1      14.823   8.146  26.316  1.00  0.00     0.008 C 
ATOM      2  C   UNL     1      14.794   9.640  25.973  1.00  0.00    -0.006 C 
ATOM      3  C   UNL     1      14.417  10.472  27.208  1.00  0.00     0.008 C 
ATOM      4  C   UNL     1      14.284  11.960  26.860  1.00  0.00     0.039 C 
ATOM      5  C   UNL     1      15.511  12.504  26.141  1.00  0.00    -0.006 C 
ATOM      6  C   UNL     1      15.908  13.801  26.296  1.00  0.00    -0.070 C 
ATOM      7  C   UNL     1      17.156  14.337  25.633  1.00  0.00     0.039 C 
ATOM      8  C   UNL     1      15.135  14.758  27.176  1.00  0.00     0.039 C 
ATOM      9  C   UNL     1      16.173  11.574  25.178  1.00  0.00     0.159 C 
ATOM     10  O   UNL     1      16.748  12.003  24.142  1.00  0.00    -0.295 OA
ATOM     11  C   UNL     1      16.158  10.094  25.430  1.00  0.00     0.084 C 
ENDROOT
TORSDOF 0
ENDMDL
