MODEL 1
REMARK VINA RESULT:    -4.556      0.000      0.000
REMARK INTER + INTRA:          -9.399
REMARK INTER:                  -8.551
REMARK INTRA:                  -0.848
REMARK UNBOUND:                -0.848
REMARK SMILES O=C([O-])CCCCCCCCCCCCCCC(=O)[O-]
REMARK SMILES IDX 10 1 9 2 8 3 7 4 6 5 5 6 4 7 2 8 1 9 3 10 11 11 12 12 13 13
REMARK SMILES IDX 14 14 15 15 16 16 17 17 18 18 19 19 20 20
REMARK H PARENT
REMARK Flexibility Score: inf
ROOT
ATOM      1  C   UNL     1       1.145  -0.323   5.596  1.00  0.00     0.000 C 
ENDROOT
BRANCH   1   2
ATOM      2  C   UNL     1       2.092  -0.060   6.778  1.00  0.00     0.000 C 
BRANCH   2   3
ATOM      3  C   UNL     1       1.476   0.870   7.833  1.00  0.00     0.000 C 
BRANCH   3   4
ATOM      4  C   UNL     1       1.834   2.335   7.551  1.00  0.00     0.000 C 
BRANCH   4   5
ATOM      5  C   UNL     1       0.641   3.258   7.842  1.00  0.00     0.000 C 
BRANCH   5   6
ATOM      6  C   UNL     1       0.599   4.488   6.917  1.00  0.00     0.006 C 
BRANCH   6   7
ATOM      7  C   UNL     1       1.387   4.322   5.608  1.00  0.00     0.053 C 
BRANCH   7   8
ATOM      8  C   UNL     1       0.745   5.052   4.468  1.00  0.00     0.041 C 
ATOM      9  O   UNL     1       1.391   5.263   3.408  1.00  0.00    -0.550 OA
ATOM     10  O   UNL     1      -0.577   5.466   4.562  1.00  0.00    -0.550 OA
ENDBRANCH   7   8
ENDBRANCH   6   7
ENDBRANCH   5   6
ENDBRANCH   4   5
ENDBRANCH   3   4
ENDBRANCH   2   3
ENDBRANCH   1   2
BRANCH   1  11
ATOM     11  C   UNL     1       0.905  -1.824   5.354  1.00  0.00     0.000 C 
BRANCH  11  12
ATOM     12  C   UNL     1      -0.275  -2.373   6.171  1.00  0.00     0.000 C 
BRANCH  12  13
ATOM     13  C   UNL     1      -1.367  -2.995   5.287  1.00  0.00     0.000 C 
BRANCH  13  14
ATOM     14  C   UNL     1      -1.967  -1.950   4.338  1.00  0.00     0.000 C 
BRANCH  14  15
ATOM     15  C   UNL     1      -3.437  -2.270   4.026  1.00  0.00     0.000 C 
BRANCH  15  16
ATOM     16  C   UNL     1      -4.352  -1.043   4.168  1.00  0.00     0.006 C 
BRANCH  16  17
ATOM     17  C   UNL     1      -4.869  -0.853   5.599  1.00  0.00     0.053 C 
BRANCH  17  18
ATOM     18  C   UNL     1      -6.185  -1.544   5.774  1.00  0.00     0.041 C 
ATOM     19  O   UNL     1      -6.794  -1.479   6.875  1.00  0.00    -0.550 OA
ATOM     20  O   UNL     1      -6.764  -2.217   4.706  1.00  0.00    -0.550 OA
ENDBRANCH  17  18
ENDBRANCH  16  17
ENDBRANCH  15  16
ENDBRANCH  14  15
ENDBRANCH  13  14
ENDBRANCH  12  13
ENDBRANCH  11  12
ENDBRANCH   1  11
TORSDOF 15
ENDMDL
MODEL 2
REMARK VINA RESULT:    -4.550      1.402      7.328
REMARK INTER + INTRA:          -9.388
REMARK INTER:                  -8.471
REMARK INTRA:                  -0.917
REMARK UNBOUND:                -0.848
REMARK SMILES O=C([O-])CCCCCCCCCCCCCCC(=O)[O-]
REMARK SMILES IDX 10 1 9 2 8 3 7 4 6 5 5 6 4 7 2 8 1 9 3 10 11 11 12 12 13 13
REMARK SMILES IDX 14 14 15 15 16 16 17 17 18 18 19 19 20 20
REMARK H PARENT
REMARK Flexibility Score: inf
ROOT
ATOM      1  C   UNL     1       2.601  -1.047   6.317  1.00  0.00     0.000 C 
ENDROOT
BRANCH   1   2
ATOM      2  C   UNL     1       1.793  -1.834   5.273  1.00  0.00     0.000 C 
BRANCH   2   3
ATOM      3  C   UNL     1       0.284  -1.561   5.365  1.00  0.00     0.000 C 
BRANCH   3   4
ATOM      4  C   UNL     1      -0.476  -2.822   5.796  1.00  0.00     0.000 C 
BRANCH   4   5
ATOM      5  C   UNL     1      -1.881  -2.855   5.175  1.00  0.00     0.000 C 
BRANCH   5   6
ATOM      6  C   UNL     1      -2.210  -1.584   4.373  1.00  0.00     0.006 C 
BRANCH   6   7
ATOM      7  C   UNL     1      -3.632  -1.553   3.792  1.00  0.00     0.053 C 
BRANCH   7   8
ATOM      8  C   UNL     1      -4.678  -1.514   4.864  1.00  0.00     0.041 C 
ATOM      9  O   UNL     1      -5.401  -2.522   5.080  1.00  0.00    -0.550 OA
ATOM     10  O   UNL     1      -4.828  -0.378   5.650  1.00  0.00    -0.550 OA
ENDBRANCH   7   8
ENDBRANCH   6   7
ENDBRANCH   5   6
ENDBRANCH   4   5
ENDBRANCH   3   4
ENDBRANCH   2   3
ENDBRANCH   1   2
BRANCH   1  11
ATOM     11  C   UNL     1       1.703  -0.269   7.295  1.00  0.00     0.000 C 
BRANCH  11  12
ATOM     12  C   UNL     1       1.851   1.254   7.149  1.00  0.00     0.000 C 
BRANCH  12  13
ATOM     13  C   UNL     1       1.030   2.030   8.191  1.00  0.00     0.000 C 
BRANCH  13  14
ATOM     14  C   UNL     1       0.832   3.488   7.758  1.00  0.00     0.000 C 
BRANCH  14  15
ATOM     15  C   UNL     1       1.234   3.686   6.289  1.00  0.00     0.000 C 
BRANCH  15  16
ATOM     16  C   UNL     1       1.040   5.134   5.812  1.00  0.00     0.006 C 
BRANCH  16  17
ATOM     17  C   UNL     1      -0.105   5.275   4.803  1.00  0.00     0.053 C 
BRANCH  17  18
ATOM     18  C   UNL     1      -1.006   6.407   5.191  1.00  0.00     0.041 C 
ATOM     19  O   UNL     1      -1.239   7.339   4.378  1.00  0.00    -0.550 OA
ATOM     20  O   UNL     1      -1.628   6.405   6.434  1.00  0.00    -0.550 OA
ENDBRANCH  17  18
ENDBRANCH  16  17
ENDBRANCH  15  16
ENDBRANCH  14  15
ENDBRANCH  13  14
ENDBRANCH  12  13
ENDBRANCH  11  12
ENDBRANCH   1  11
TORSDOF 15
ENDMDL
MODEL 3
REMARK VINA RESULT:    -4.503      1.172      2.114
REMARK INTER + INTRA:          -9.299
REMARK INTER:                  -8.217
REMARK INTRA:                  -1.081
REMARK UNBOUND:                -0.848
REMARK SMILES O=C([O-])CCCCCCCCCCCCCCC(=O)[O-]
REMARK SMILES IDX 10 1 9 2 8 3 7 4 6 5 5 6 4 7 2 8 1 9 3 10 11 11 12 12 13 13
REMARK SMILES IDX 14 14 15 15 16 16 17 17 18 18 19 19 20 20
REMARK H PARENT
REMARK Flexibility Score: inf
ROOT
ATOM      1  C   UNL     1       0.783  -0.375   8.913  1.00  0.00     0.000 C 
ENDROOT
BRANCH   1   2
ATOM      2  C   UNL     1       1.566   0.944   8.829  1.00  0.00     0.000 C 
BRANCH   2   3
ATOM      3  C   UNL     1       0.761   2.144   9.351  1.00  0.00     0.000 C 
BRANCH   3   4
ATOM      4  C   UNL     1       0.502   3.160   8.231  1.00  0.00     0.000 C 
BRANCH   4   5
ATOM      5  C   UNL     1       1.436   2.912   7.037  1.00  0.00     0.000 C 
BRANCH   5   6
ATOM      6  C   UNL     1       1.522   4.119   6.086  1.00  0.00     0.006 C 
BRANCH   6   7
ATOM      7  C   UNL     1       0.436   5.183   6.314  1.00  0.00     0.053 C 
BRANCH   7   8
ATOM      8  C   UNL     1      -0.308   5.507   5.056  1.00  0.00     0.041 C 
ATOM      9  O   UNL     1       0.129   5.112   3.942  1.00  0.00    -0.550 OA
ATOM     10  O   UNL     1      -1.504   6.211   5.115  1.00  0.00    -0.550 OA
ENDBRANCH   7   8
ENDBRANCH   6   7
ENDBRANCH   5   6
ENDBRANCH   4   5
ENDBRANCH   3   4
ENDBRANCH   2   3
ENDBRANCH   1   2
BRANCH   1  11
ATOM     11  C   UNL     1       1.173  -1.366   7.802  1.00  0.00     0.000 C 
BRANCH  11  12
ATOM     12  C   UNL     1       1.425  -0.671   6.454  1.00  0.00     0.000 C 
BRANCH  12  13
ATOM     13  C   UNL     1       0.827  -1.446   5.269  1.00  0.00     0.000 C 
BRANCH  13  14
ATOM     14  C   UNL     1      -0.394  -2.265   5.708  1.00  0.00     0.000 C 
BRANCH  14  15
ATOM     15  C   UNL     1      -1.463  -2.293   4.605  1.00  0.00     0.000 C 
BRANCH  15  16
ATOM     16  C   UNL     1      -2.887  -2.132   5.158  1.00  0.00     0.006 C 
BRANCH  16  17
ATOM     17  C   UNL     1      -3.783  -1.286   4.245  1.00  0.00     0.053 C 
BRANCH  17  18
ATOM     18  C   UNL     1      -5.198  -1.770   4.309  1.00  0.00     0.041 C 
ATOM     19  O   UNL     1      -5.676  -2.461   3.371  1.00  0.00    -0.550 OA
ATOM     20  O   UNL     1      -5.974  -1.500   5.430  1.00  0.00    -0.550 OA
ENDBRANCH  17  18
ENDBRANCH  16  17
ENDBRANCH  15  16
ENDBRANCH  14  15
ENDBRANCH  13  14
ENDBRANCH  12  13
ENDBRANCH  11  12
ENDBRANCH   1  11
TORSDOF 15
ENDMDL
MODEL 4
REMARK VINA RESULT:    -4.484      1.280      7.469
REMARK INTER + INTRA:          -9.264
REMARK INTER:                  -8.315
REMARK INTRA:                  -0.949
REMARK UNBOUND:                -0.848
REMARK SMILES O=C([O-])CCCCCCCCCCCCCCC(=O)[O-]
REMARK SMILES IDX 10 1 9 2 8 3 7 4 6 5 5 6 4 7 2 8 1 9 3 10 11 11 12 12 13 13
REMARK SMILES IDX 14 14 15 15 16 16 17 17 18 18 19 19 20 20
REMARK H PARENT
REMARK Flexibility Score: inf
ROOT
ATOM      1  C   UNL     1       0.427  -1.700   5.182  1.00  0.00     0.000 C 
ENDROOT
BRANCH   1   2
ATOM      2  C   UNL     1      -0.467  -2.443   6.187  1.00  0.00     0.000 C 
BRANCH   2   3
ATOM      3  C   UNL     1      -1.904  -2.627   5.676  1.00  0.00     0.000 C 
BRANCH   3   4
ATOM      4  C   UNL     1      -2.094  -1.945   4.316  1.00  0.00     0.000 C 
BRANCH   4   5
ATOM      5  C   UNL     1      -3.510  -1.363   4.186  1.00  0.00     0.000 C 
BRANCH   5   6
ATOM      6  C   UNL     1      -4.441  -1.796   5.334  1.00  0.00     0.006 C 
BRANCH   6   7
ATOM      7  C   UNL     1      -5.230  -0.644   5.976  1.00  0.00     0.053 C 
BRANCH   7   8
ATOM      8  C   UNL     1      -5.491  -0.883   7.431  1.00  0.00     0.041 C 
ATOM      9  O   UNL     1      -5.038  -1.914   7.995  1.00  0.00    -0.550 OA
ATOM     10  O   UNL     1      -6.203   0.051   8.174  1.00  0.00    -0.550 OA
ENDBRANCH   7   8
ENDBRANCH   6   7
ENDBRANCH   5   6
ENDBRANCH   4   5
ENDBRANCH   3   4
ENDBRANCH   2   3
ENDBRANCH   1   2
BRANCH   1  11
ATOM     11  C   UNL     1       1.676  -1.090   5.841  1.00  0.00     0.000 C 
BRANCH  11  12
ATOM     12  C   UNL     1       1.429  -0.672   7.299  1.00  0.00     0.000 C 
BRANCH  12  13
ATOM     13  C   UNL     1       2.016   0.711   7.625  1.00  0.00     0.000 C 
BRANCH  13  14
ATOM     14  C   UNL     1       1.442   1.785   6.694  1.00  0.00     0.000 C 
BRANCH  14  15
ATOM     15  C   UNL     1       1.630   3.188   7.290  1.00  0.00     0.000 C 
BRANCH  15  16
ATOM     16  C   UNL     1       1.546   4.297   6.229  1.00  0.00     0.006 C 
BRANCH  16  17
ATOM     17  C   UNL     1       0.173   4.977   6.193  1.00  0.00     0.053 C 
BRANCH  17  18
ATOM     18  C   UNL     1      -0.085   5.562   4.839  1.00  0.00     0.041 C 
ATOM     19  O   UNL     1       0.374   5.003   3.809  1.00  0.00    -0.550 OA
ATOM     20  O   UNL     1      -0.875   6.698   4.713  1.00  0.00    -0.550 OA
ENDBRANCH  17  18
ENDBRANCH  16  17
ENDBRANCH  15  16
ENDBRANCH  14  15
ENDBRANCH  13  14
ENDBRANCH  12  13
ENDBRANCH  11  12
ENDBRANCH   1  11
TORSDOF 15
ENDMDL
MODEL 5
REMARK VINA RESULT:    -4.411      5.125      8.737
REMARK INTER + INTRA:          -9.126
REMARK INTER:                  -7.806
REMARK INTRA:                  -1.320
REMARK UNBOUND:                -0.848
REMARK SMILES O=C([O-])CCCCCCCCCCCCCCC(=O)[O-]
REMARK SMILES IDX 10 1 9 2 8 3 7 4 6 5 5 6 4 7 2 8 1 9 3 10 11 11 12 12 13 13
REMARK SMILES IDX 14 14 15 15 16 16 17 17 18 18 19 19 20 20
REMARK H PARENT
REMARK Flexibility Score: inf
ROOT
ATOM      1  C   UNL     1      -3.994  -2.870   3.364  1.00  0.00     0.000 C 
ENDROOT
BRANCH   1   2
ATOM      2  C   UNL     1      -2.688  -3.564   2.947  1.00  0.00     0.000 C 
BRANCH   2   3
ATOM      3  C   UNL     1      -2.933  -4.829   2.110  1.00  0.00     0.000 C 
BRANCH   3   4
ATOM      4  C   UNL     1      -2.371  -4.666   0.692  1.00  0.00     0.000 C 
BRANCH   4   5
ATOM      5  C   UNL     1      -2.950  -5.730  -0.254  1.00  0.00     0.000 C 
BRANCH   5   6
ATOM      6  C   UNL     1      -2.683  -5.418  -1.737  1.00  0.00     0.006 C 
BRANCH   6   7
ATOM      7  C   UNL     1      -1.296  -5.854  -2.235  1.00  0.00     0.053 C 
BRANCH   7   8
ATOM      8  C   UNL     1      -0.315  -4.721  -2.233  1.00  0.00     0.041 C 
ATOM      9  O   UNL     1       0.892  -4.930  -1.941  1.00  0.00    -0.550 OA
ATOM     10  O   UNL     1      -0.726  -3.443  -2.589  1.00  0.00    -0.550 OA
ENDBRANCH   7   8
ENDBRANCH   6   7
ENDBRANCH   5   6
ENDBRANCH   4   5
ENDBRANCH   3   4
ENDBRANCH   2   3
ENDBRANCH   1   2
BRANCH   1  11
ATOM     11  C   UNL     1      -3.771  -1.419   3.825  1.00  0.00     0.000 C 
BRANCH  11  12
ATOM     12  C   UNL     1      -4.235  -1.181   5.271  1.00  0.00     0.000 C 
BRANCH  12  13
ATOM     13  C   UNL     1      -4.319  -2.482   6.086  1.00  0.00     0.000 C 
BRANCH  13  14
ATOM     14  C   UNL     1      -3.183  -2.561   7.112  1.00  0.00     0.000 C 
BRANCH  14  15
ATOM     15  C   UNL     1      -2.009  -3.390   6.571  1.00  0.00     0.000 C 
BRANCH  15  16
ATOM     16  C   UNL     1      -0.679  -2.619   6.596  1.00  0.00     0.006 C 
BRANCH  16  17
ATOM     17  C   UNL     1      -0.316  -2.023   5.232  1.00  0.00     0.053 C 
BRANCH  17  18
ATOM     18  C   UNL     1       1.064  -1.445   5.266  1.00  0.00     0.041 C 
ATOM     19  O   UNL     1       2.044  -2.116   4.847  1.00  0.00    -0.550 OA
ATOM     20  O   UNL     1       1.262  -0.144   5.713  1.00  0.00    -0.550 OA
ENDBRANCH  17  18
ENDBRANCH  16  17
ENDBRANCH  15  16
ENDBRANCH  14  15
ENDBRANCH  13  14
ENDBRANCH  12  13
ENDBRANCH  11  12
ENDBRANCH   1  11
TORSDOF 15
ENDMDL
MODEL 6
REMARK VINA RESULT:    -4.386      1.458      7.641
REMARK INTER + INTRA:          -9.080
REMARK INTER:                  -7.914
REMARK INTRA:                  -1.166
REMARK UNBOUND:                -0.848
REMARK SMILES O=C([O-])CCCCCCCCCCCCCCC(=O)[O-]
REMARK SMILES IDX 10 1 9 2 8 3 7 4 6 5 5 6 4 7 2 8 1 9 3 10 11 11 12 12 13 13
REMARK SMILES IDX 14 14 15 15 16 16 17 17 18 18 19 19 20 20
REMARK H PARENT
REMARK Flexibility Score: inf
ROOT
ATOM      1  C   UNL     1      -0.291  -2.506   5.769  1.00  0.00     0.000 C 
ENDROOT
BRANCH   1   2
ATOM      2  C   UNL     1      -1.235  -1.928   4.703  1.00  0.00     0.000 C 
BRANCH   2   3
ATOM      3  C   UNL     1      -1.960  -3.020   3.901  1.00  0.00     0.000 C 
BRANCH   3   4
ATOM      4  C   UNL     1      -3.326  -2.524   3.409  1.00  0.00     0.000 C 
BRANCH   4   5
ATOM      5  C   UNL     1      -3.727  -1.223   4.120  1.00  0.00     0.000 C 
BRANCH   5   6
ATOM      6  C   UNL     1      -5.024  -1.363   4.936  1.00  0.00     0.006 C 
BRANCH   6   7
ATOM      7  C   UNL     1      -4.822  -1.317   6.459  1.00  0.00     0.053 C 
BRANCH   7   8
ATOM      8  C   UNL     1      -4.172  -2.563   6.978  1.00  0.00     0.041 C 
ATOM      9  O   UNL     1      -3.317  -2.494   7.900  1.00  0.00    -0.550 OA
ATOM     10  O   UNL     1      -4.538  -3.804   6.471  1.00  0.00    -0.550 OA
ENDBRANCH   7   8
ENDBRANCH   6   7
ENDBRANCH   5   6
ENDBRANCH   4   5
ENDBRANCH   3   4
ENDBRANCH   2   3
ENDBRANCH   1   2
BRANCH   1  11
ATOM     11  C   UNL     1       1.143  -1.964   5.644  1.00  0.00     0.000 C 
BRANCH  11  12
ATOM     12  C   UNL     1       1.231  -0.455   5.925  1.00  0.00     0.000 C 
BRANCH  12  13
ATOM     13  C   UNL     1       2.277  -0.113   6.997  1.00  0.00     0.000 C 
BRANCH  13  14
ATOM     14  C   UNL     1       2.086   1.318   7.514  1.00  0.00     0.000 C 
BRANCH  14  15
ATOM     15  C   UNL     1       1.490   2.222   6.425  1.00  0.00     0.000 C 
BRANCH  15  16
ATOM     16  C   UNL     1       1.231   3.653   6.921  1.00  0.00     0.006 C 
BRANCH  16  17
ATOM     17  C   UNL     1       1.572   4.714   5.868  1.00  0.00     0.053 C 
BRANCH  17  18
ATOM     18  C   UNL     1       0.326   5.208   5.201  1.00  0.00     0.041 C 
ATOM     19  O   UNL     1       0.189   5.101   3.954  1.00  0.00    -0.550 OA
ATOM     20  O   UNL     1      -0.706   5.740   5.965  1.00  0.00    -0.550 OA
ENDBRANCH  17  18
ENDBRANCH  16  17
ENDBRANCH  15  16
ENDBRANCH  14  15
ENDBRANCH  13  14
ENDBRANCH  12  13
ENDBRANCH  11  12
ENDBRANCH   1  11
TORSDOF 15
ENDMDL
MODEL 7
REMARK VINA RESULT:    -4.324      4.247      5.712
REMARK INTER + INTRA:          -8.963
REMARK INTER:                  -6.931
REMARK INTRA:                  -2.031
REMARK UNBOUND:                -0.848
REMARK SMILES O=C([O-])CCCCCCCCCCCCCCC(=O)[O-]
REMARK SMILES IDX 10 1 9 2 8 3 7 4 6 5 5 6 4 7 2 8 1 9 3 10 11 11 12 12 13 13
REMARK SMILES IDX 14 14 15 15 16 16 17 17 18 18 19 19 20 20
REMARK H PARENT
REMARK Flexibility Score: inf
ROOT
ATOM      1  C   UNL     1      -4.129  -3.846   6.918  1.00  0.00     0.000 C 
ENDROOT
BRANCH   1   2
ATOM      2  C   UNL     1      -2.598  -3.955   6.825  1.00  0.00     0.000 C 
BRANCH   2   3
ATOM      3  C   UNL     1      -1.884  -2.700   7.350  1.00  0.00     0.000 C 
BRANCH   3   4
ATOM      4  C   UNL     1      -0.440  -3.020   7.754  1.00  0.00     0.000 C 
BRANCH   4   5
ATOM      5  C   UNL     1       0.481  -3.049   6.525  1.00  0.00     0.000 C 
BRANCH   5   6
ATOM      6  C   UNL     1       0.238  -1.868   5.568  1.00  0.00     0.006 C 
BRANCH   6   7
ATOM      7  C   UNL     1       1.434  -0.913   5.426  1.00  0.00     0.053 C 
BRANCH   7   8
ATOM      8  C   UNL     1       2.744  -1.638   5.482  1.00  0.00     0.041 C 
ATOM      9  O   UNL     1       3.152  -2.286   4.482  1.00  0.00    -0.550 OA
ATOM     10  O   UNL     1       3.531  -1.568   6.625  1.00  0.00    -0.550 OA
ENDBRANCH   7   8
ENDBRANCH   6   7
ENDBRANCH   5   6
ENDBRANCH   4   5
ENDBRANCH   3   4
ENDBRANCH   2   3
ENDBRANCH   1   2
BRANCH   1  11
ATOM     11  C   UNL     1      -4.597  -2.442   7.337  1.00  0.00     0.000 C 
BRANCH  11  12
ATOM     12  C   UNL     1      -5.449  -1.757   6.256  1.00  0.00     0.000 C 
BRANCH  12  13
ATOM     13  C   UNL     1      -4.668  -0.684   5.481  1.00  0.00     0.000 C 
BRANCH  13  14
ATOM     14  C   UNL     1      -4.357  -1.153   4.055  1.00  0.00     0.000 C 
BRANCH  14  15
ATOM     15  C   UNL     1      -2.894  -1.606   3.932  1.00  0.00     0.000 C 
BRANCH  15  16
ATOM     16  C   UNL     1      -2.758  -3.000   3.298  1.00  0.00     0.006 C 
BRANCH  16  17
ATOM     17  C   UNL     1      -4.110  -3.599   2.892  1.00  0.00     0.053 C 
BRANCH  17  18
ATOM     18  C   UNL     1      -3.936  -4.562   1.760  1.00  0.00     0.041 C 
ATOM     19  O   UNL     1      -4.933  -4.943   1.092  1.00  0.00    -0.550 OA
ATOM     20  O   UNL     1      -2.664  -4.999   1.410  1.00  0.00    -0.550 OA
ENDBRANCH  17  18
ENDBRANCH  16  17
ENDBRANCH  15  16
ENDBRANCH  14  15
ENDBRANCH  13  14
ENDBRANCH  12  13
ENDBRANCH  11  12
ENDBRANCH   1  11
TORSDOF 15
ENDMDL
MODEL 8
REMARK VINA RESULT:    -4.317      4.697      6.512
REMARK INTER + INTRA:          -8.951
REMARK INTER:                  -7.008
REMARK INTRA:                  -1.943
REMARK UNBOUND:                -0.848
REMARK SMILES O=C([O-])CCCCCCCCCCCCCCC(=O)[O-]
REMARK SMILES IDX 10 1 9 2 8 3 7 4 6 5 5 6 4 7 2 8 1 9 3 10 11 11 12 12 13 13
REMARK SMILES IDX 14 14 15 15 16 16 17 17 18 18 19 19 20 20
REMARK H PARENT
REMARK Flexibility Score: inf
ROOT
ATOM      1  C   UNL     1      -4.805  -2.190   5.903  1.00  0.00     0.000 C 
ENDROOT
BRANCH   1   2
ATOM      2  C   UNL     1      -3.880  -2.270   7.128  1.00  0.00     0.000 C 
BRANCH   2   3
ATOM      3  C   UNL     1      -3.254  -3.661   7.306  1.00  0.00     0.000 C 
BRANCH   3   4
ATOM      4  C   UNL     1      -2.018  -3.826   6.413  1.00  0.00     0.000 C 
BRANCH   4   5
ATOM      5  C   UNL     1      -1.074  -2.622   6.553  1.00  0.00     0.000 C 
BRANCH   5   6
ATOM      6  C   UNL     1      -0.227  -2.378   5.291  1.00  0.00     0.006 C 
BRANCH   6   7
ATOM      7  C   UNL     1       0.689  -1.147   5.373  1.00  0.00     0.053 C 
BRANCH   7   8
ATOM      8  C   UNL     1       2.122  -1.524   5.587  1.00  0.00     0.041 C 
ATOM      9  O   UNL     1       2.683  -1.285   6.689  1.00  0.00    -0.550 OA
ATOM     10  O   UNL     1       2.829  -2.175   4.583  1.00  0.00    -0.550 OA
ENDBRANCH   7   8
ENDBRANCH   6   7
ENDBRANCH   5   6
ENDBRANCH   4   5
ENDBRANCH   3   4
ENDBRANCH   2   3
ENDBRANCH   1   2
BRANCH   1  11
ATOM     11  C   UNL     1      -4.420  -1.051   4.944  1.00  0.00     0.000 C 
BRANCH  11  12
ATOM     12  C   UNL     1      -3.516  -1.528   3.795  1.00  0.00     0.000 C 
BRANCH  12  13
ATOM     13  C   UNL     1      -3.816  -2.973   3.368  1.00  0.00     0.000 C 
BRANCH  13  14
ATOM     14  C   UNL     1      -2.600  -3.606   2.681  1.00  0.00     0.000 C 
BRANCH  14  15
ATOM     15  C   UNL     1      -2.694  -5.140   2.699  1.00  0.00     0.000 C 
BRANCH  15  16
ATOM     16  C   UNL     1      -3.752  -5.679   1.723  1.00  0.00     0.006 C 
BRANCH  16  17
ATOM     17  C   UNL     1      -3.681  -5.007   0.346  1.00  0.00     0.053 C 
BRANCH  17  18
ATOM     18  C   UNL     1      -2.429  -5.411  -0.368  1.00  0.00     0.041 C 
ATOM     19  O   UNL     1      -2.215  -6.622  -0.638  1.00  0.00    -0.550 OA
ATOM     20  O   UNL     1      -1.521  -4.443  -0.780  1.00  0.00    -0.550 OA
ENDBRANCH  17  18
ENDBRANCH  16  17
ENDBRANCH  15  16
ENDBRANCH  14  15
ENDBRANCH  13  14
ENDBRANCH  12  13
ENDBRANCH  11  12
ENDBRANCH   1  11
TORSDOF 15
ENDMDL
MODEL 9
REMARK VINA RESULT:    -4.312      3.800      7.461
REMARK INTER + INTRA:          -8.941
REMARK INTER:                  -6.968
REMARK INTRA:                  -1.973
REMARK UNBOUND:                -0.848
REMARK SMILES O=C([O-])CCCCCCCCCCCCCCC(=O)[O-]
REMARK SMILES IDX 10 1 9 2 8 3 7 4 6 5 5 6 4 7 2 8 1 9 3 10 11 11 12 12 13 13
REMARK SMILES IDX 14 14 15 15 16 16 17 17 18 18 19 19 20 20
REMARK H PARENT
REMARK Flexibility Score: inf
ROOT
ATOM      1  C   UNL     1      -3.243  -3.683   3.379  1.00  0.00     0.000 C 
ENDROOT
BRANCH   1   2
ATOM      2  C   UNL     1      -2.742  -2.230   3.388  1.00  0.00     0.000 C 
BRANCH   2   3
ATOM      3  C   UNL     1      -3.770  -1.254   3.982  1.00  0.00     0.000 C 
BRANCH   3   4
ATOM      4  C   UNL     1      -5.177  -1.864   3.969  1.00  0.00     0.000 C 
BRANCH   4   5
ATOM      5  C   UNL     1      -5.800  -1.839   5.373  1.00  0.00     0.000 C 
BRANCH   5   6
ATOM      6  C   UNL     1      -5.268  -0.685   6.242  1.00  0.00     0.006 C 
BRANCH   6   7
ATOM      7  C   UNL     1      -5.641  -0.789   7.729  1.00  0.00     0.053 C 
BRANCH   7   8
ATOM      8  C   UNL     1      -6.702   0.195   8.114  1.00  0.00     0.041 C 
ATOM      9  O   UNL     1      -7.494   0.645   7.245  1.00  0.00    -0.550 OA
ATOM     10  O   UNL     1      -6.840   0.588   9.440  1.00  0.00    -0.550 OA
ENDBRANCH   7   8
ENDBRANCH   6   7
ENDBRANCH   5   6
ENDBRANCH   4   5
ENDBRANCH   3   4
ENDBRANCH   2   3
ENDBRANCH   1   2
BRANCH   1  11
ATOM     11  C   UNL     1      -2.550  -4.554   4.442  1.00  0.00     0.000 C 
BRANCH  11  12
ATOM     12  C   UNL     1      -3.230  -4.460   5.817  1.00  0.00     0.000 C 
BRANCH  12  13
ATOM     13  C   UNL     1      -2.238  -4.138   6.946  1.00  0.00     0.000 C 
BRANCH  13  14
ATOM     14  C   UNL     1      -1.724  -2.698   6.831  1.00  0.00     0.000 C 
BRANCH  14  15
ATOM     15  C   UNL     1      -0.201  -2.672   6.629  1.00  0.00     0.000 C 
BRANCH  15  16
ATOM     16  C   UNL     1       0.219  -1.852   5.399  1.00  0.00     0.006 C 
BRANCH  16  17
ATOM     17  C   UNL     1       1.294  -0.808   5.724  1.00  0.00     0.053 C 
BRANCH  17  18
ATOM     18  C   UNL     1       2.654  -1.432   5.691  1.00  0.00     0.041 C 
ATOM     19  O   UNL     1       3.441  -1.290   6.663  1.00  0.00    -0.550 OA
ATOM     20  O   UNL     1       3.033  -2.213   4.606  1.00  0.00    -0.550 OA
ENDBRANCH  17  18
ENDBRANCH  16  17
ENDBRANCH  15  16
ENDBRANCH  14  15
ENDBRANCH  13  14
ENDBRANCH  12  13
ENDBRANCH  11  12
ENDBRANCH   1  11
TORSDOF 15
ENDMDL
