MODEL 1
REMARK VINA RESULT:    -5.309      0.000      0.000
REMARK INTER + INTRA:          -7.941
REMARK INTER:                  -8.102
REMARK INTRA:                   0.161
REMARK UNBOUND:                 0.161
REMARK SMILES CC1=CCC[C@H](C)C(=O)C[C@@H](C(C)C)C(=O)C1
REMARK SMILES IDX 8 1 9 2 6 3 7 4 5 5 4 6 3 7 2 8 1 9 10 11 11 12 15 13 16 14
REMARK SMILES IDX 17 15 12 17 13 18 14 19
REMARK H PARENT
REMARK Flexibility Score: 70.00
ROOT
ATOM      1  C   UNL     1     -14.329 -32.447  30.467  1.00  0.00     0.136 C 
ATOM      2  O   UNL     1     -14.815 -31.410  30.900  1.00  0.00    -0.299 OA
ENDROOT
BRANCH   1   3
ATOM      3  C   UNL     1     -14.095 -32.617  28.971  1.00  0.00     0.053 C 
ATOM      4  C   UNL     1     -14.746 -31.493  28.147  1.00  0.00     0.016 C 
BRANCH   3   5
ATOM      5  C   UNL     1     -12.597 -32.761  28.628  1.00  0.00     0.015 C 
BRANCH   5   6
ATOM      6  C   UNL     1     -12.307 -33.904  27.638  1.00  0.00     0.028 C 
BRANCH   6   7
ATOM      7  C   UNL     1     -13.320 -35.017  27.722  1.00  0.00    -0.028 C 
ATOM      8  C   UNL     1     -13.241 -36.102  28.535  1.00  0.00    -0.070 CG0
ATOM      9  C   UNL     1     -14.301 -37.170  28.418  1.00  0.00     0.039 C 
ATOM     10  G   UNL     1     -12.211 -36.278  29.645  1.00  0.00     0.000 G0
ENDBRANCH   6   7
ENDBRANCH   5   6
ENDBRANCH   3   5
ENDBRANCH   1   3
BRANCH   1  11
ATOM     11  C   UNL     1     -14.004 -33.560  31.435  1.00  0.00     0.087 C 
BRANCH  11  12
ATOM     12  C   UNL     1     -12.595 -34.171  31.204  1.00  0.00     0.066 C 
BRANCH  12  13
ATOM     13  C   UNL     1     -12.603 -35.680  30.965  1.00  0.00     0.140 C 
ATOM     14  O   UNL     1     -13.043 -36.406  31.846  1.00  0.00    -0.299 OA
BRANCH  13  15
ATOM     15  C   UNL     1     -12.217 -36.303  29.644  1.00  0.00     0.106 CG0
ATOM     16  G   UNL     1     -13.238 -36.101  28.529  1.00  0.00     0.000 G0
ENDBRANCH  13  15
ENDBRANCH  12  13
BRANCH  12  17
ATOM     17  C   UNL     1     -11.574 -33.720  32.296  1.00  0.00    -0.006 C 
ATOM     18  C   UNL     1     -12.213 -32.759  33.311  1.00  0.00     0.008 C 
ATOM     19  C   UNL     1     -10.270 -33.118  31.747  1.00  0.00     0.008 C 
ENDBRANCH  12  17
ENDBRANCH  11  12
ENDBRANCH   1  11
TORSDOF 1
ENDMDL
MODEL 2
REMARK VINA RESULT:    -5.069      1.655      3.948
REMARK INTER + INTRA:          -7.575
REMARK INTER:                  -7.272
REMARK INTRA:                  -0.303
REMARK UNBOUND:                 0.161
REMARK SMILES CC1=CCC[C@H](C)C(=O)C[C@@H](C(C)C)C(=O)C1
REMARK SMILES IDX 8 1 9 2 6 3 7 4 5 5 4 6 3 7 2 8 1 9 10 11 11 12 15 13 16 14
REMARK SMILES IDX 17 15 12 17 13 18 14 19
REMARK H PARENT
REMARK Flexibility Score: 70.00
ROOT
ATOM      1  C   UNL     1     -13.388 -35.582  31.495  1.00  0.00     0.136 C 
ATOM      2  O   UNL     1     -14.352 -35.950  32.152  1.00  0.00    -0.299 OA
ENDROOT
BRANCH   1   3
ATOM      3  C   UNL     1     -12.559 -36.597  30.718  1.00  0.00     0.053 C 
ATOM      4  C   UNL     1     -12.642 -38.007  31.327  1.00  0.00     0.016 C 
BRANCH   3   5
ATOM      5  C   UNL     1     -12.920 -36.618  29.217  1.00  0.00     0.015 C 
BRANCH   5   6
ATOM      6  C   UNL     1     -12.237 -35.498  28.412  1.00  0.00     0.028 C 
BRANCH   6   7
ATOM      7  C   UNL     1     -13.204 -34.731  27.546  1.00  0.00    -0.028 C 
ATOM      8  C   UNL     1     -13.687 -33.489  27.805  1.00  0.00    -0.070 CG0
ATOM      9  C   UNL     1     -14.725 -32.910  26.875  1.00  0.00     0.039 C 
ATOM     10  G   UNL     1     -13.180 -32.578  28.918  1.00  0.00     0.000 G0
ENDBRANCH   6   7
ENDBRANCH   5   6
ENDBRANCH   3   5
ENDBRANCH   1   3
BRANCH   1  11
ATOM     11  C   UNL     1     -13.018 -34.118  31.499  1.00  0.00     0.087 C 
BRANCH  11  12
ATOM     12  C   UNL     1     -14.244 -33.182  31.319  1.00  0.00     0.066 C 
BRANCH  12  13
ATOM     13  C   UNL     1     -14.198 -32.334  30.049  1.00  0.00     0.140 C 
ATOM     14  O   UNL     1     -14.938 -31.363  29.971  1.00  0.00    -0.299 OA
BRANCH  13  15
ATOM     15  C   UNL     1     -13.191 -32.562  28.947  1.00  0.00     0.106 CG0
ATOM     16  G   UNL     1     -13.668 -33.493  27.837  1.00  0.00     0.000 G0
ENDBRANCH  13  15
ENDBRANCH  12  13
BRANCH  12  17
ATOM     17  C   UNL     1     -14.545 -32.354  32.609  1.00  0.00    -0.006 C 
ATOM     18  C   UNL     1     -13.427 -32.500  33.653  1.00  0.00     0.008 C 
ATOM     19  C   UNL     1     -15.911 -32.642  33.252  1.00  0.00     0.008 C 
ENDBRANCH  12  17
ENDBRANCH  11  12
ENDBRANCH   1  11
TORSDOF 1
ENDMDL
MODEL 3
REMARK VINA RESULT:    -4.950      1.437      3.822
REMARK INTER + INTRA:          -7.393
REMARK INTER:                  -7.570
REMARK INTRA:                   0.177
REMARK UNBOUND:                 0.161
REMARK SMILES CC1=CCC[C@H](C)C(=O)C[C@@H](C(C)C)C(=O)C1
REMARK SMILES IDX 8 1 9 2 6 3 7 4 5 5 4 6 3 7 2 8 1 9 10 11 11 12 15 13 16 14
REMARK SMILES IDX 17 15 12 17 13 18 14 19
REMARK H PARENT
REMARK Flexibility Score: 70.00
ROOT
ATOM      1  C   UNL     1     -13.236 -33.942  31.393  1.00  0.00     0.136 C 
ATOM      2  O   UNL     1     -13.986 -34.728  31.955  1.00  0.00    -0.299 OA
ENDROOT
BRANCH   1   3
ATOM      3  C   UNL     1     -11.737 -33.994  31.655  1.00  0.00     0.053 C 
ATOM      4  C   UNL     1     -11.324 -33.140  32.866  1.00  0.00     0.016 C 
BRANCH   3   5
ATOM      5  C   UNL     1     -11.220 -35.442  31.794  1.00  0.00     0.015 C 
BRANCH   5   6
ATOM      6  C   UNL     1     -10.985 -36.138  30.441  1.00  0.00     0.028 C 
BRANCH   6   7
ATOM      7  C   UNL     1     -12.226 -36.808  29.908  1.00  0.00    -0.028 C 
ATOM      8  C   UNL     1     -12.954 -36.396  28.838  1.00  0.00    -0.070 CG0
ATOM      9  C   UNL     1     -14.226 -37.135  28.503  1.00  0.00     0.039 C 
ATOM     10  G   UNL     1     -12.525 -35.296  27.873  1.00  0.00     0.000 G0
ENDBRANCH   6   7
ENDBRANCH   5   6
ENDBRANCH   3   5
ENDBRANCH   1   3
BRANCH   1  11
ATOM     11  C   UNL     1     -13.827 -32.902  30.471  1.00  0.00     0.087 C 
BRANCH  11  12
ATOM     12  C   UNL     1     -13.997 -33.410  29.013  1.00  0.00     0.066 C 
BRANCH  12  13
ATOM     13  C   UNL     1     -12.698 -33.887  28.365  1.00  0.00     0.140 C 
ATOM     14  O   UNL     1     -11.743 -33.123  28.346  1.00  0.00    -0.299 OA
BRANCH  13  15
ATOM     15  C   UNL     1     -12.500 -35.300  27.869  1.00  0.00     0.106 CG0
ATOM     16  G   UNL     1     -12.964 -36.380  28.840  1.00  0.00     0.000 G0
ENDBRANCH  13  15
ENDBRANCH  12  13
BRANCH  12  17
ATOM     17  C   UNL     1     -14.800 -32.403  28.130  1.00  0.00    -0.006 C 
ATOM     18  C   UNL     1     -14.647 -32.713  26.632  1.00  0.00     0.008 C 
ATOM     19  C   UNL     1     -14.488 -30.922  28.399  1.00  0.00     0.008 C 
ENDBRANCH  12  17
ENDBRANCH  11  12
ENDBRANCH   1  11
TORSDOF 1
ENDMDL
MODEL 4
REMARK VINA RESULT:    -4.927      1.767      3.654
REMARK INTER + INTRA:          -7.358
REMARK INTER:                  -7.756
REMARK INTRA:                   0.399
REMARK UNBOUND:                 0.161
REMARK SMILES CC1=CCC[C@H](C)C(=O)C[C@@H](C(C)C)C(=O)C1
REMARK SMILES IDX 8 1 9 2 6 3 7 4 5 5 4 6 3 7 2 8 1 9 10 11 11 12 15 13 16 14
REMARK SMILES IDX 17 15 12 17 13 18 14 19
REMARK H PARENT
REMARK Flexibility Score: 70.00
ROOT
ATOM      1  C   UNL     1     -12.269 -33.486  31.254  1.00  0.00     0.136 C 
ATOM      2  O   UNL     1     -11.281 -34.056  31.698  1.00  0.00    -0.299 OA
ENDROOT
BRANCH   1   3
ATOM      3  C   UNL     1     -13.547 -33.416  32.080  1.00  0.00     0.053 C 
ATOM      4  C   UNL     1     -14.482 -32.287  31.615  1.00  0.00     0.016 C 
BRANCH   3   5
ATOM      5  C   UNL     1     -14.288 -34.770  32.123  1.00  0.00     0.015 C 
BRANCH   5   6
ATOM      6  C   UNL     1     -13.392 -35.966  31.751  1.00  0.00     0.028 C 
BRANCH   6   7
ATOM      7  C   UNL     1     -13.958 -36.787  30.620  1.00  0.00    -0.028 C 
ATOM      8  C   UNL     1     -13.466 -36.841  29.356  1.00  0.00    -0.070 CG0
ATOM      9  C   UNL     1     -14.218 -37.644  28.323  1.00  0.00     0.039 C 
ATOM     10  G   UNL     1     -12.139 -36.231  28.917  1.00  0.00     0.000 G0
ENDBRANCH   6   7
ENDBRANCH   5   6
ENDBRANCH   3   5
ENDBRANCH   1   3
BRANCH   1  11
ATOM     11  C   UNL     1     -12.208 -32.893  29.867  1.00  0.00     0.087 C 
BRANCH  11  12
ATOM     12  C   UNL     1     -13.027 -33.703  28.825  1.00  0.00     0.066 C 
BRANCH  12  13
ATOM     13  C   UNL     1     -12.270 -34.884  28.220  1.00  0.00     0.140 C 
ATOM     14  O   UNL     1     -11.659 -34.710  27.175  1.00  0.00    -0.299 OA
BRANCH  13  15
ATOM     15  C   UNL     1     -12.134 -36.216  28.920  1.00  0.00     0.106 CG0
ATOM     16  G   UNL     1     -13.455 -36.834  29.363  1.00  0.00     0.000 G0
ENDBRANCH  13  15
ENDBRANCH  12  13
BRANCH  12  17
ATOM     17  C   UNL     1     -13.695 -32.779  27.758  1.00  0.00    -0.006 C 
ATOM     18  C   UNL     1     -14.328 -31.534  28.398  1.00  0.00     0.008 C 
ATOM     19  C   UNL     1     -14.715 -33.483  26.847  1.00  0.00     0.008 C 
ENDBRANCH  12  17
ENDBRANCH  11  12
ENDBRANCH   1  11
TORSDOF 1
ENDMDL
MODEL 5
REMARK VINA RESULT:    -4.926      2.205      4.173
REMARK INTER + INTRA:          -7.357
REMARK INTER:                  -7.702
REMARK INTRA:                   0.345
REMARK UNBOUND:                 0.161
REMARK SMILES CC1=CCC[C@H](C)C(=O)C[C@@H](C(C)C)C(=O)C1
REMARK SMILES IDX 8 1 9 2 6 3 7 4 5 5 4 6 3 7 2 8 1 9 10 11 11 12 15 13 16 14
REMARK SMILES IDX 17 15 12 17 13 18 14 19
REMARK H PARENT
REMARK Flexibility Score: 70.00
ROOT
ATOM      1  C   UNL     1     -12.046 -34.330  27.451  1.00  0.00     0.136 C 
ATOM      2  O   UNL     1     -11.526 -34.757  26.430  1.00  0.00    -0.299 OA
ENDROOT
BRANCH   1   3
ATOM      3  C   UNL     1     -13.178 -33.314  27.367  1.00  0.00     0.053 C 
ATOM      4  C   UNL     1     -14.542 -33.979  27.112  1.00  0.00     0.016 C 
BRANCH   3   5
ATOM      5  C   UNL     1     -13.231 -32.396  28.607  1.00  0.00     0.015 C 
BRANCH   5   6
ATOM      6  C   UNL     1     -14.565 -32.484  29.372  1.00  0.00     0.028 C 
BRANCH   6   7
ATOM      7  C   UNL     1     -14.432 -32.087  30.820  1.00  0.00    -0.028 C 
ATOM      8  C   UNL     1     -14.291 -32.941  31.867  1.00  0.00    -0.070 CG0
ATOM      9  C   UNL     1     -14.268 -32.371  33.264  1.00  0.00     0.039 C 
ATOM     10  G   UNL     1     -14.043 -34.440  31.733  1.00  0.00     0.000 G0
ENDBRANCH   6   7
ENDBRANCH   5   6
ENDBRANCH   3   5
ENDBRANCH   1   3
BRANCH   1  11
ATOM     11  C   UNL     1     -11.522 -34.798  28.788  1.00  0.00     0.087 C 
BRANCH  11  12
ATOM     12  C   UNL     1     -12.624 -35.421  29.687  1.00  0.00     0.066 C 
BRANCH  12  13
ATOM     13  C   UNL     1     -12.724 -34.791  31.076  1.00  0.00     0.140 C 
ATOM     14  O   UNL     1     -11.691 -34.455  31.638  1.00  0.00    -0.299 OA
BRANCH  13  15
ATOM     15  C   UNL     1     -14.043 -34.446  31.726  1.00  0.00     0.106 CG0
ATOM     16  G   UNL     1     -14.297 -32.950  31.882  1.00  0.00     0.000 G0
ENDBRANCH  13  15
ENDBRANCH  12  13
BRANCH  12  17
ATOM     17  C   UNL     1     -12.546 -36.980  29.715  1.00  0.00    -0.006 C 
ATOM     18  C   UNL     1     -13.512 -37.617  28.703  1.00  0.00     0.008 C 
ATOM     19  C   UNL     1     -12.746 -37.609  31.104  1.00  0.00     0.008 C 
ENDBRANCH  12  17
ENDBRANCH  11  12
ENDBRANCH   1  11
TORSDOF 1
ENDMDL
MODEL 6
REMARK VINA RESULT:    -4.884      1.885      3.237
REMARK INTER + INTRA:          -7.292
REMARK INTER:                  -7.138
REMARK INTRA:                  -0.154
REMARK UNBOUND:                 0.161
REMARK SMILES CC1=CCC[C@H](C)C(=O)C[C@@H](C(C)C)C(=O)C1
REMARK SMILES IDX 8 1 9 2 6 3 7 4 5 5 4 6 3 7 2 8 1 9 10 11 11 12 15 13 16 14
REMARK SMILES IDX 17 15 12 17 13 18 14 19
REMARK H PARENT
REMARK Flexibility Score: 70.00
ROOT
ATOM      1  C   UNL     1     -13.626 -33.771  31.744  1.00  0.00     0.136 C 
ATOM      2  O   UNL     1     -12.546 -33.496  32.250  1.00  0.00    -0.299 OA
ENDROOT
BRANCH   1   3
ATOM      3  C   UNL     1     -14.695 -32.696  31.593  1.00  0.00     0.053 C 
ATOM      4  C   UNL     1     -15.027 -32.009  32.929  1.00  0.00     0.016 C 
BRANCH   3   5
ATOM      5  C   UNL     1     -14.329 -31.658  30.510  1.00  0.00     0.015 C 
BRANCH   5   6
ATOM      6  C   UNL     1     -14.904 -31.997  29.123  1.00  0.00     0.028 C 
BRANCH   6   7
ATOM      7  C   UNL     1     -13.839 -32.402  28.135  1.00  0.00    -0.028 C 
ATOM      8  C   UNL     1     -13.613 -33.663  27.685  1.00  0.00    -0.070 CG0
ATOM      9  C   UNL     1     -12.439 -33.902  26.768  1.00  0.00     0.039 C 
ATOM     10  G   UNL     1     -14.527 -34.855  27.953  1.00  0.00     0.000 G0
ENDBRANCH   6   7
ENDBRANCH   5   6
ENDBRANCH   3   5
ENDBRANCH   1   3
BRANCH   1  11
ATOM     11  C   UNL     1     -13.889 -35.194  31.312  1.00  0.00     0.087 C 
BRANCH  11  12
ATOM     12  C   UNL     1     -13.055 -35.614  30.071  1.00  0.00     0.066 C 
BRANCH  12  13
ATOM     13  C   UNL     1     -13.895 -35.937  28.836  1.00  0.00     0.140 C 
ATOM     14  O   UNL     1     -14.159 -37.108  28.603  1.00  0.00    -0.299 OA
BRANCH  13  15
ATOM     15  C   UNL     1     -14.523 -34.870  27.970  1.00  0.00     0.106 CG0
ATOM     16  G   UNL     1     -13.617 -33.677  27.683  1.00  0.00     0.000 G0
ENDBRANCH  13  15
ENDBRANCH  12  13
BRANCH  12  17
ATOM     17  C   UNL     1     -12.006 -36.718  30.416  1.00  0.00    -0.006 C 
ATOM     18  C   UNL     1     -12.491 -37.628  31.556  1.00  0.00     0.008 C 
ATOM     19  C   UNL     1     -10.595 -36.191  30.724  1.00  0.00     0.008 C 
ENDBRANCH  12  17
ENDBRANCH  11  12
ENDBRANCH   1  11
TORSDOF 1
ENDMDL
MODEL 7
REMARK VINA RESULT:    -4.882      2.000      3.530
REMARK INTER + INTRA:          -7.289
REMARK INTER:                  -7.446
REMARK INTRA:                   0.157
REMARK UNBOUND:                 0.161
REMARK SMILES CC1=CCC[C@H](C)C(=O)C[C@@H](C(C)C)C(=O)C1
REMARK SMILES IDX 8 1 9 2 6 3 7 4 5 5 4 6 3 7 2 8 1 9 10 11 11 12 15 13 16 14
REMARK SMILES IDX 17 15 12 17 13 18 14 19
REMARK H PARENT
REMARK Flexibility Score: 70.00
ROOT
ATOM      1  C   UNL     1     -13.145 -35.320  28.360  1.00  0.00     0.136 C 
ATOM      2  O   UNL     1     -13.090 -36.538  28.460  1.00  0.00    -0.299 OA
ENDROOT
BRANCH   1   3
ATOM      3  C   UNL     1     -12.287 -34.597  27.330  1.00  0.00     0.053 C 
ATOM      4  C   UNL     1     -13.133 -33.853  26.283  1.00  0.00     0.016 C 
BRANCH   3   5
ATOM      5  C   UNL     1     -11.260 -33.649  27.989  1.00  0.00     0.015 C 
BRANCH   5   6
ATOM      6  C   UNL     1     -10.151 -34.393  28.755  1.00  0.00     0.028 C 
BRANCH   6   7
ATOM      7  C   UNL     1      -9.876 -33.791  30.110  1.00  0.00    -0.028 C 
ATOM      8  C   UNL     1     -10.392 -34.222  31.290  1.00  0.00    -0.070 CG0
ATOM      9  C   UNL     1     -10.083 -33.437  32.542  1.00  0.00     0.039 C 
ATOM     10  G   UNL     1     -11.185 -35.512  31.467  1.00  0.00     0.000 G0
ENDBRANCH   6   7
ENDBRANCH   5   6
ENDBRANCH   3   5
ENDBRANCH   1   3
BRANCH   1  11
ATOM     11  C   UNL     1     -14.045 -34.550  29.298  1.00  0.00     0.087 C 
BRANCH  11  12
ATOM     12  C   UNL     1     -13.344 -34.163  30.629  1.00  0.00     0.066 C 
BRANCH  12  13
ATOM     13  C   UNL     1     -12.694 -35.340  31.355  1.00  0.00     0.140 C 
ATOM     14  O   UNL     1     -13.414 -36.236  31.771  1.00  0.00    -0.299 OA
BRANCH  13  15
ATOM     15  C   UNL     1     -11.197 -35.509  31.465  1.00  0.00     0.106 CG0
ATOM     16  G   UNL     1     -10.400 -34.222  31.276  1.00  0.00     0.000 G0
ENDBRANCH  13  15
ENDBRANCH  12  13
BRANCH  12  17
ATOM     17  C   UNL     1     -14.264 -33.297  31.546  1.00  0.00    -0.006 C 
ATOM     18  C   UNL     1     -14.694 -31.994  30.854  1.00  0.00     0.008 C 
ATOM     19  C   UNL     1     -13.680 -32.991  32.936  1.00  0.00     0.008 C 
ENDBRANCH  12  17
ENDBRANCH  11  12
ENDBRANCH   1  11
TORSDOF 1
ENDMDL
MODEL 8
REMARK VINA RESULT:    -4.877      1.766      3.934
REMARK INTER + INTRA:          -7.282
REMARK INTER:                  -7.013
REMARK INTRA:                  -0.269
REMARK UNBOUND:                 0.161
REMARK SMILES CC1=CCC[C@H](C)C(=O)C[C@@H](C(C)C)C(=O)C1
REMARK SMILES IDX 8 1 9 2 6 3 7 4 5 5 4 6 3 7 2 8 1 9 10 11 11 12 15 13 16 14
REMARK SMILES IDX 17 15 12 17 13 18 14 19
REMARK H PARENT
REMARK Flexibility Score: 70.00
ROOT
ATOM      1  C   UNL     1     -13.500 -35.257  31.389  1.00  0.00     0.136 C 
ATOM      2  O   UNL     1     -14.378 -35.436  32.222  1.00  0.00    -0.299 OA
ENDROOT
BRANCH   1   3
ATOM      3  C   UNL     1     -12.936 -36.436  30.606  1.00  0.00     0.053 C 
ATOM      4  C   UNL     1     -12.308 -37.500  31.523  1.00  0.00     0.016 C 
BRANCH   3   5
ATOM      5  C   UNL     1     -13.984 -37.064  29.663  1.00  0.00     0.015 C 
BRANCH   5   6
ATOM      6  C   UNL     1     -14.261 -36.214  28.409  1.00  0.00     0.028 C 
BRANCH   6   7
ATOM      7  C   UNL     1     -13.010 -35.902  27.629  1.00  0.00    -0.028 C 
ATOM      8  C   UNL     1     -12.655 -34.681  27.154  1.00  0.00    -0.070 CG0
ATOM      9  C   UNL     1     -11.410 -34.569  26.308  1.00  0.00     0.039 C 
ATOM     10  G   UNL     1     -13.367 -33.377  27.501  1.00  0.00     0.000 G0
ENDBRANCH   6   7
ENDBRANCH   5   6
ENDBRANCH   3   5
ENDBRANCH   1   3
BRANCH   1  11
ATOM     11  C   UNL     1     -12.965 -33.860  31.181  1.00  0.00     0.087 C 
BRANCH  11  12
ATOM     12  C   UNL     1     -13.758 -33.061  30.111  1.00  0.00     0.066 C 
BRANCH  12  13
ATOM     13  C   UNL     1     -12.975 -32.795  28.826  1.00  0.00     0.140 C 
ATOM     14  O   UNL     1     -11.929 -32.167  28.902  1.00  0.00    -0.299 OA
BRANCH  13  15
ATOM     15  C   UNL     1     -13.367 -33.385  27.492  1.00  0.00     0.106 CG0
ATOM     16  G   UNL     1     -12.649 -34.685  27.141  1.00  0.00     0.000 G0
ENDBRANCH  13  15
ENDBRANCH  12  13
BRANCH  12  17
ATOM     17  C   UNL     1     -14.425 -31.781  30.709  1.00  0.00    -0.006 C 
ATOM     18  C   UNL     1     -15.124 -32.075  32.045  1.00  0.00     0.008 C 
ATOM     19  C   UNL     1     -15.387 -31.053  29.756  1.00  0.00     0.008 C 
ENDBRANCH  12  17
ENDBRANCH  11  12
ENDBRANCH   1  11
TORSDOF 1
ENDMDL
MODEL 9
REMARK VINA RESULT:    -4.574      2.013      4.853
REMARK INTER + INTRA:          -6.819
REMARK INTER:                  -6.999
REMARK INTRA:                   0.180
REMARK UNBOUND:                 0.161
REMARK SMILES CC1=CCC[C@H](C)C(=O)C[C@@H](C(C)C)C(=O)C1
REMARK SMILES IDX 8 1 9 2 6 3 7 4 5 5 4 6 3 7 2 8 1 9 10 11 11 12 15 13 16 14
REMARK SMILES IDX 17 15 12 17 13 18 14 19
REMARK H PARENT
REMARK Flexibility Score: 70.00
ROOT
ATOM      1  C   UNL     1     -12.420 -35.914  28.644  1.00  0.00     0.136 C 
ATOM      2  O   UNL     1     -11.358 -36.277  29.131  1.00  0.00    -0.299 OA
ENDROOT
BRANCH   1   3
ATOM      3  C   UNL     1     -13.736 -36.451  29.192  1.00  0.00     0.053 C 
ATOM      4  C   UNL     1     -14.267 -37.641  28.374  1.00  0.00     0.016 C 
BRANCH   3   5
ATOM      5  C   UNL     1     -13.641 -36.807  30.692  1.00  0.00     0.015 C 
BRANCH   5   6
ATOM      6  C   UNL     1     -13.857 -35.596  31.618  1.00  0.00     0.028 C 
BRANCH   6   7
ATOM      7  C   UNL     1     -12.563 -35.015  32.129  1.00  0.00    -0.028 C 
ATOM      8  C   UNL     1     -11.916 -33.941  31.609  1.00  0.00    -0.070 CG0
ATOM      9  C   UNL     1     -10.578 -33.554  32.189  1.00  0.00     0.039 C 
ATOM     10  G   UNL     1     -12.492 -33.018  30.540  1.00  0.00     0.000 G0
ENDBRANCH   6   7
ENDBRANCH   5   6
ENDBRANCH   3   5
ENDBRANCH   1   3
BRANCH   1  11
ATOM     11  C   UNL     1     -12.398 -34.960  27.474  1.00  0.00     0.087 C 
BRANCH  11  12
ATOM     12  C   UNL     1     -12.573 -33.476  27.899  1.00  0.00     0.066 C 
BRANCH  12  13
ATOM     13  C   UNL     1     -11.825 -33.103  29.179  1.00  0.00     0.140 C 
ATOM     14  O   UNL     1     -10.658 -32.751  29.088  1.00  0.00    -0.299 OA
BRANCH  13  15
ATOM     15  C   UNL     1     -12.500 -33.022  30.527  1.00  0.00     0.106 CG0
ATOM     16  G   UNL     1     -11.900 -33.937  31.590  1.00  0.00     0.000 G0
ENDBRANCH  13  15
ENDBRANCH  12  13
BRANCH  12  17
ATOM     17  C   UNL     1     -14.072 -33.039  27.904  1.00  0.00    -0.006 C 
ATOM     18  C   UNL     1     -14.774 -33.399  26.585  1.00  0.00     0.008 C 
ATOM     19  C   UNL     1     -14.309 -31.558  28.242  1.00  0.00     0.008 C 
ENDBRANCH  12  17
ENDBRANCH  11  12
ENDBRANCH   1  11
TORSDOF 1
ENDMDL
