MODEL 1
REMARK VINA RESULT:    -5.392      0.000      0.000
REMARK INTER + INTRA:         -18.307
REMARK INTER:                 -14.219
REMARK INTRA:                  -4.088
REMARK UNBOUND:                -4.088
REMARK SMILES CCCCCCCCCCCCCCCCCCCCCCCCCCCCCC(=O)[O-]
REMARK SMILES IDX 16 1 17 2 18 3 19 4 20 5 21 6 22 7 23 8 24 9 25 10 26 11
REMARK SMILES IDX 27 12 28 13 29 14 30 15 31 16 32 17 15 18 14 19 13 20 12 21
REMARK SMILES IDX 11 22 10 23 9 24 8 25 7 26 6 27 5 28 4 29 3 30 2 31 1 32
REMARK H PARENT
REMARK Flexibility Score: inf
ROOT
ATOM      1  C   UNL     1       7.497  44.327  41.766  1.00  0.00     0.000 C 
ENDROOT
BRANCH   1   2
ATOM      2  C   UNL     1       8.934  44.219  41.203  1.00  0.00     0.000 C 
BRANCH   2   3
ATOM      3  C   UNL     1       9.702  42.981  41.708  1.00  0.00     0.000 C 
BRANCH   3   4
ATOM      4  C   UNL     1       9.056  41.640  41.301  1.00  0.00     0.000 C 
BRANCH   4   5
ATOM      5  C   UNL     1       9.127  40.553  42.389  1.00  0.00     0.000 C 
BRANCH   5   6
ATOM      6  C   UNL     1       9.722  41.062  43.710  1.00  0.00     0.000 C 
BRANCH   6   7
ATOM      7  C   UNL     1      11.129  40.504  43.981  1.00  0.00     0.000 C 
BRANCH   7   8
ATOM      8  C   UNL     1      11.202  38.980  43.806  1.00  0.00     0.000 C 
BRANCH   8   9
ATOM      9  C   UNL     1      10.452  38.262  44.935  1.00  0.00     0.000 C 
BRANCH   9  10
ATOM     10  C   UNL     1      11.207  37.008  45.389  1.00  0.00     0.000 C 
BRANCH  10  11
ATOM     11  C   UNL     1      10.320  35.759  45.291  1.00  0.00     0.000 C 
BRANCH  11  12
ATOM     12  C   UNL     1      10.047  35.398  43.824  1.00  0.00     0.000 C 
BRANCH  12  13
ATOM     13  C   UNL     1      10.183  33.889  43.547  1.00  0.00     0.006 C 
BRANCH  13  14
ATOM     14  C   UNL     1      10.776  33.553  42.169  1.00  0.00     0.053 C 
BRANCH  14  15
ATOM     15  C   UNL     1       9.715  33.230  41.160  1.00  0.00     0.041 C 
ATOM     16  O   UNL     1      10.031  32.742  40.042  1.00  0.00    -0.550 OA
ATOM     17  O   UNL     1       8.379  33.478  41.452  1.00  0.00    -0.550 OA
ENDBRANCH  14  15
ENDBRANCH  13  14
ENDBRANCH  12  13
ENDBRANCH  11  12
ENDBRANCH  10  11
ENDBRANCH   9  10
ENDBRANCH   8   9
ENDBRANCH   7   8
ENDBRANCH   6   7
ENDBRANCH   5   6
ENDBRANCH   4   5
ENDBRANCH   3   4
ENDBRANCH   2   3
ENDBRANCH   1   2
BRANCH   1  18
ATOM     18  C   UNL     1       7.422  44.691  43.264  1.00  0.00     0.000 C 
BRANCH  18  19
ATOM     19  C   UNL     1       6.466  43.833  44.115  1.00  0.00     0.000 C 
BRANCH  19  20
ATOM     20  C   UNL     1       6.259  42.415  43.561  1.00  0.00     0.000 C 
BRANCH  20  21
ATOM     21  C   UNL     1       5.974  41.420  44.695  1.00  0.00     0.000 C 
BRANCH  21  22
ATOM     22  C   UNL     1       5.825  42.105  46.069  1.00  0.00     0.000 C 
BRANCH  22  23
ATOM     23  C   UNL     1       5.424  41.146  47.207  1.00  0.00     0.000 C 
BRANCH  23  24
ATOM     24  C   UNL     1       6.559  40.764  48.174  1.00  0.00    -0.000 C 
BRANCH  24  25
ATOM     25  C   UNL     1       7.870  40.309  47.500  1.00  0.00    -0.000 C 
BRANCH  25  26
ATOM     26  C   UNL     1       8.304  38.871  47.828  1.00  0.00    -0.000 C 
BRANCH  26  27
ATOM     27  C   UNL     1       9.624  38.811  48.615  1.00  0.00    -0.000 C 
BRANCH  27  28
ATOM     28  C   UNL     1      10.063  40.186  49.153  1.00  0.00    -0.000 C 
BRANCH  28  29
ATOM     29  C   UNL     1      11.545  40.534  48.921  1.00  0.00    -0.000 C 
BRANCH  29  30
ATOM     30  C   UNL     1      12.273  39.504  48.042  1.00  0.00    -0.000 C 
BRANCH  30  31
ATOM     31  C   UNL     1      13.139  40.160  46.954  1.00  0.00    -0.003 C 
ATOM     32  C   UNL     1      13.325  41.661  47.169  1.00  0.00     0.004 C 
ENDBRANCH  30  31
ENDBRANCH  29  30
ENDBRANCH  28  29
ENDBRANCH  27  28
ENDBRANCH  26  27
ENDBRANCH  25  26
ENDBRANCH  24  25
ENDBRANCH  23  24
ENDBRANCH  22  23
ENDBRANCH  21  22
ENDBRANCH  20  21
ENDBRANCH  19  20
ENDBRANCH  18  19
ENDBRANCH   1  18
TORSDOF 28
ENDMDL
MODEL 2
REMARK VINA RESULT:    -5.389      3.080      7.135
REMARK INTER + INTRA:         -18.299
REMARK INTER:                 -14.590
REMARK INTRA:                  -3.710
REMARK UNBOUND:                -4.088
REMARK SMILES CCCCCCCCCCCCCCCCCCCCCCCCCCCCCC(=O)[O-]
REMARK SMILES IDX 16 1 17 2 18 3 19 4 20 5 21 6 22 7 23 8 24 9 25 10 26 11
REMARK SMILES IDX 27 12 28 13 29 14 30 15 31 16 32 17 15 18 14 19 13 20 12 21
REMARK SMILES IDX 11 22 10 23 9 24 8 25 7 26 6 27 5 28 4 29 3 30 2 31 1 32
REMARK H PARENT
REMARK Flexibility Score: inf
ROOT
ATOM      1  C   UNL     1       6.450  41.645  44.454  1.00  0.00     0.000 C 
ENDROOT
BRANCH   1   2
ATOM      2  C   UNL     1       5.517  42.764  44.975  1.00  0.00     0.000 C 
BRANCH   2   3
ATOM      3  C   UNL     1       4.790  42.399  46.285  1.00  0.00     0.000 C 
BRANCH   3   4
ATOM      4  C   UNL     1       5.412  41.196  47.027  1.00  0.00     0.000 C 
BRANCH   4   5
ATOM      5  C   UNL     1       5.814  41.496  48.483  1.00  0.00     0.000 C 
BRANCH   5   6
ATOM      6  C   UNL     1       7.208  40.963  48.844  1.00  0.00     0.000 C 
BRANCH   6   7
ATOM      7  C   UNL     1       7.923  40.315  47.647  1.00  0.00     0.000 C 
BRANCH   7   8
ATOM      8  C   UNL     1       9.308  39.762  48.018  1.00  0.00     0.000 C 
BRANCH   8   9
ATOM      9  C   UNL     1       9.822  40.398  49.316  1.00  0.00     0.000 C 
BRANCH   9  10
ATOM     10  C   UNL     1      11.354  40.444  49.338  1.00  0.00     0.000 C 
BRANCH  10  11
ATOM     11  C   UNL     1      11.957  39.167  48.735  1.00  0.00     0.000 C 
BRANCH  11  12
ATOM     12  C   UNL     1      13.104  39.507  47.774  1.00  0.00     0.000 C 
BRANCH  12  13
ATOM     13  C   UNL     1      12.874  40.826  47.014  1.00  0.00     0.006 C 
BRANCH  13  14
ATOM     14  C   UNL     1      13.722  40.976  45.739  1.00  0.00     0.053 C 
BRANCH  14  15
ATOM     15  C   UNL     1      13.745  42.389  45.239  1.00  0.00     0.041 C 
ATOM     16  O   UNL     1      12.921  42.765  44.363  1.00  0.00    -0.550 OA
ATOM     17  O   UNL     1      14.684  43.287  45.732  1.00  0.00    -0.550 OA
ENDBRANCH  14  15
ENDBRANCH  13  14
ENDBRANCH  12  13
ENDBRANCH  11  12
ENDBRANCH  10  11
ENDBRANCH   9  10
ENDBRANCH   8   9
ENDBRANCH   7   8
ENDBRANCH   6   7
ENDBRANCH   5   6
ENDBRANCH   4   5
ENDBRANCH   3   4
ENDBRANCH   2   3
ENDBRANCH   1   2
BRANCH   1  18
ATOM     18  C   UNL     1       7.108  41.943  43.090  1.00  0.00     0.000 C 
BRANCH  18  19
ATOM     19  C   UNL     1       8.480  41.284  42.849  1.00  0.00     0.000 C 
BRANCH  19  20
ATOM     20  C   UNL     1       8.853  40.241  43.913  1.00  0.00     0.000 C 
BRANCH  20  21
ATOM     21  C   UNL     1      10.317  40.402  44.348  1.00  0.00     0.000 C 
BRANCH  21  22
ATOM     22  C   UNL     1      11.227  39.274  43.817  1.00  0.00     0.000 C 
BRANCH  22  23
ATOM     23  C   UNL     1      10.706  37.856  44.116  1.00  0.00     0.000 C 
BRANCH  23  24
ATOM     24  C   UNL     1      10.330  37.591  45.586  1.00  0.00    -0.000 C 
BRANCH  24  25
ATOM     25  C   UNL     1      10.885  36.280  46.178  1.00  0.00    -0.000 C 
BRANCH  25  26
ATOM     26  C   UNL     1       9.819  35.250  46.589  1.00  0.00    -0.000 C 
BRANCH  26  27
ATOM     27  C   UNL     1       9.867  33.969  45.740  1.00  0.00    -0.000 C 
BRANCH  27  28
ATOM     28  C   UNL     1      10.649  34.152  44.426  1.00  0.00    -0.000 C 
BRANCH  28  29
ATOM     29  C   UNL     1      10.157  33.288  43.249  1.00  0.00    -0.000 C 
BRANCH  29  30
ATOM     30  C   UNL     1      10.423  33.931  41.879  1.00  0.00    -0.000 C 
BRANCH  30  31
ATOM     31  C   UNL     1       9.715  33.195  40.731  1.00  0.00    -0.003 C 
ATOM     32  C   UNL     1       8.203  33.094  40.934  1.00  0.00     0.004 C 
ENDBRANCH  30  31
ENDBRANCH  29  30
ENDBRANCH  28  29
ENDBRANCH  27  28
ENDBRANCH  26  27
ENDBRANCH  25  26
ENDBRANCH  24  25
ENDBRANCH  23  24
ENDBRANCH  22  23
ENDBRANCH  21  22
ENDBRANCH  20  21
ENDBRANCH  19  20
ENDBRANCH  18  19
ENDBRANCH   1  18
TORSDOF 28
ENDMDL
MODEL 3
REMARK VINA RESULT:    -5.380      3.309      8.165
REMARK INTER + INTRA:         -18.275
REMARK INTER:                 -14.575
REMARK INTRA:                  -3.699
REMARK UNBOUND:                -4.088
REMARK SMILES CCCCCCCCCCCCCCCCCCCCCCCCCCCCCC(=O)[O-]
REMARK SMILES IDX 16 1 17 2 18 3 19 4 20 5 21 6 22 7 23 8 24 9 25 10 26 11
REMARK SMILES IDX 27 12 28 13 29 14 30 15 31 16 32 17 15 18 14 19 13 20 12 21
REMARK SMILES IDX 11 22 10 23 9 24 8 25 7 26 6 27 5 28 4 29 3 30 2 31 1 32
REMARK H PARENT
REMARK Flexibility Score: inf
ROOT
ATOM      1  C   UNL     1      12.878  41.097  47.558  1.00  0.00     0.000 C 
ENDROOT
BRANCH   1   2
ATOM      2  C   UNL     1      12.572  39.822  48.380  1.00  0.00     0.000 C 
BRANCH   2   3
ATOM      3  C   UNL     1      11.633  38.835  47.658  1.00  0.00     0.000 C 
BRANCH   3   4
ATOM      4  C   UNL     1      10.260  38.667  48.343  1.00  0.00     0.000 C 
BRANCH   4   5
ATOM      5  C   UNL     1       9.192  39.666  47.862  1.00  0.00     0.000 C 
BRANCH   5   6
ATOM      6  C   UNL     1       8.648  40.554  48.990  1.00  0.00     0.000 C 
BRANCH   6   7
ATOM      7  C   UNL     1       7.222  41.058  48.712  1.00  0.00     0.000 C 
BRANCH   7   8
ATOM      8  C   UNL     1       6.392  40.056  47.895  1.00  0.00     0.000 C 
BRANCH   8   9
ATOM      9  C   UNL     1       5.445  40.784  46.934  1.00  0.00     0.000 C 
BRANCH   9  10
ATOM     10  C   UNL     1       6.112  41.017  45.573  1.00  0.00     0.000 C 
BRANCH  10  11
ATOM     11  C   UNL     1       5.984  42.483  45.136  1.00  0.00     0.000 C 
BRANCH  11  12
ATOM     12  C   UNL     1       6.188  42.621  43.621  1.00  0.00     0.000 C 
BRANCH  12  13
ATOM     13  C   UNL     1       7.262  43.663  43.257  1.00  0.00     0.006 C 
BRANCH  13  14
ATOM     14  C   UNL     1       7.496  43.826  41.746  1.00  0.00     0.053 C 
BRANCH  14  15
ATOM     15  C   UNL     1       7.798  45.246  41.371  1.00  0.00     0.041 C 
ATOM     16  O   UNL     1       7.105  46.187  41.842  1.00  0.00    -0.550 OA
ATOM     17  O   UNL     1       8.839  45.528  40.494  1.00  0.00    -0.550 OA
ENDBRANCH  14  15
ENDBRANCH  13  14
ENDBRANCH  12  13
ENDBRANCH  11  12
ENDBRANCH  10  11
ENDBRANCH   9  10
ENDBRANCH   8   9
ENDBRANCH   7   8
ENDBRANCH   6   7
ENDBRANCH   5   6
ENDBRANCH   4   5
ENDBRANCH   3   4
ENDBRANCH   2   3
ENDBRANCH   1   2
BRANCH   1  18
ATOM     18  C   UNL     1      12.559  40.980  46.052  1.00  0.00     0.000 C 
BRANCH  18  19
ATOM     19  C   UNL     1      13.649  40.318  45.187  1.00  0.00     0.000 C 
BRANCH  19  20
ATOM     20  C   UNL     1      13.209  40.064  43.737  1.00  0.00     0.000 C 
BRANCH  20  21
ATOM     21  C   UNL     1      12.758  41.369  43.065  1.00  0.00     0.000 C 
BRANCH  21  22
ATOM     22  C   UNL     1      11.425  41.219  42.302  1.00  0.00     0.000 C 
BRANCH  22  23
ATOM     23  C   UNL     1      10.179  41.245  43.207  1.00  0.00     0.000 C 
BRANCH  23  24
ATOM     24  C   UNL     1       9.308  39.976  43.161  1.00  0.00    -0.000 C 
BRANCH  24  25
ATOM     25  C   UNL     1       9.405  39.068  44.404  1.00  0.00    -0.000 C 
BRANCH  25  26
ATOM     26  C   UNL     1      10.569  38.063  44.385  1.00  0.00    -0.000 C 
BRANCH  26  27
ATOM     27  C   UNL     1      10.108  36.612  44.600  1.00  0.00    -0.000 C 
BRANCH  27  28
ATOM     28  C   UNL     1      10.588  35.660  43.489  1.00  0.00    -0.000 C 
BRANCH  28  29
ATOM     29  C   UNL     1      10.293  34.168  43.737  1.00  0.00    -0.000 C 
BRANCH  29  30
ATOM     30  C   UNL     1      10.901  33.249  42.664  1.00  0.00    -0.000 C 
BRANCH  30  31
ATOM     31  C   UNL     1      10.211  33.396  41.299  1.00  0.00    -0.003 C 
ATOM     32  C   UNL     1       9.054  32.416  41.110  1.00  0.00     0.004 C 
ENDBRANCH  30  31
ENDBRANCH  29  30
ENDBRANCH  28  29
ENDBRANCH  27  28
ENDBRANCH  26  27
ENDBRANCH  25  26
ENDBRANCH  24  25
ENDBRANCH  23  24
ENDBRANCH  22  23
ENDBRANCH  21  22
ENDBRANCH  20  21
ENDBRANCH  19  20
ENDBRANCH  18  19
ENDBRANCH   1  18
TORSDOF 28
ENDMDL
MODEL 4
REMARK VINA RESULT:    -5.350      1.323      5.152
REMARK INTER + INTRA:         -18.196
REMARK INTER:                 -14.508
REMARK INTRA:                  -3.687
REMARK UNBOUND:                -4.088
REMARK SMILES CCCCCCCCCCCCCCCCCCCCCCCCCCCCCC(=O)[O-]
REMARK SMILES IDX 16 1 17 2 18 3 19 4 20 5 21 6 22 7 23 8 24 9 25 10 26 11
REMARK SMILES IDX 27 12 28 13 29 14 30 15 31 16 32 17 15 18 14 19 13 20 12 21
REMARK SMILES IDX 11 22 10 23 9 24 8 25 7 26 6 27 5 28 4 29 3 30 2 31 1 32
REMARK H PARENT
REMARK Flexibility Score: inf
ROOT
ATOM      1  C   UNL     1       7.328  39.871  48.250  1.00  0.00     0.000 C 
ENDROOT
BRANCH   1   2
ATOM      2  C   UNL     1       8.859  39.895  48.028  1.00  0.00     0.000 C 
BRANCH   2   3
ATOM      3  C   UNL     1       9.653  40.370  49.262  1.00  0.00     0.000 C 
BRANCH   3   4
ATOM      4  C   UNL     1      11.173  40.481  49.019  1.00  0.00     0.000 C 
BRANCH   4   5
ATOM      5  C   UNL     1      11.997  39.355  49.670  1.00  0.00     0.000 C 
BRANCH   5   6
ATOM      6  C   UNL     1      12.714  38.465  48.644  1.00  0.00     0.000 C 
BRANCH   6   7
ATOM      7  C   UNL     1      12.218  37.009  48.673  1.00  0.00     0.000 C 
BRANCH   7   8
ATOM      8  C   UNL     1      10.918  36.814  47.877  1.00  0.00     0.000 C 
BRANCH   8   9
ATOM      9  C   UNL     1      10.798  35.372  47.369  1.00  0.00     0.000 C 
BRANCH   9  10
ATOM     10  C   UNL     1       9.360  35.056  46.941  1.00  0.00     0.000 C 
BRANCH  10  11
ATOM     11  C   UNL     1       9.332  34.303  45.604  1.00  0.00     0.000 C 
BRANCH  11  12
ATOM     12  C   UNL     1      10.493  34.747  44.703  1.00  0.00     0.000 C 
BRANCH  12  13
ATOM     13  C   UNL     1      10.211  34.509  43.208  1.00  0.00     0.006 C 
BRANCH  13  14
ATOM     14  C   UNL     1       9.287  33.313  42.924  1.00  0.00     0.053 C 
BRANCH  14  15
ATOM     15  C   UNL     1       9.361  32.869  41.494  1.00  0.00     0.041 C 
ATOM     16  O   UNL     1      10.080  33.498  40.671  1.00  0.00    -0.550 OA
ATOM     17  O   UNL     1       8.627  31.768  41.067  1.00  0.00    -0.550 OA
ENDBRANCH  14  15
ENDBRANCH  13  14
ENDBRANCH  12  13
ENDBRANCH  11  12
ENDBRANCH  10  11
ENDBRANCH   9  10
ENDBRANCH   8   9
ENDBRANCH   7   8
ENDBRANCH   6   7
ENDBRANCH   5   6
ENDBRANCH   4   5
ENDBRANCH   3   4
ENDBRANCH   2   3
ENDBRANCH   1   2
BRANCH   1  18
ATOM     18  C   UNL     1       6.733  41.205  48.748  1.00  0.00     0.000 C 
BRANCH  18  19
ATOM     19  C   UNL     1       5.623  41.814  47.869  1.00  0.00     0.000 C 
BRANCH  19  20
ATOM     20  C   UNL     1       5.775  41.483  46.377  1.00  0.00     0.000 C 
BRANCH  20  21
ATOM     21  C   UNL     1       5.008  42.493  45.511  1.00  0.00     0.000 C 
BRANCH  21  22
ATOM     22  C   UNL     1       5.588  42.622  44.086  1.00  0.00     0.000 C 
BRANCH  22  23
ATOM     23  C   UNL     1       6.465  43.870  43.877  1.00  0.00     0.000 C 
BRANCH  23  24
ATOM     24  C   UNL     1       7.758  43.636  43.074  1.00  0.00    -0.000 C 
BRANCH  24  25
ATOM     25  C   UNL     1       7.562  42.979  41.693  1.00  0.00    -0.000 C 
BRANCH  25  26
ATOM     26  C   UNL     1       7.951  41.493  41.618  1.00  0.00    -0.000 C 
BRANCH  26  27
ATOM     27  C   UNL     1       9.473  41.275  41.606  1.00  0.00    -0.000 C 
BRANCH  27  28
ATOM     28  C   UNL     1      10.024  40.820  42.970  1.00  0.00    -0.000 C 
BRANCH  28  29
ATOM     29  C   UNL     1       9.019  40.066  43.860  1.00  0.00    -0.000 C 
BRANCH  29  30
ATOM     30  C   UNL     1       9.612  38.796  44.493  1.00  0.00    -0.000 C 
BRANCH  30  31
ATOM     31  C   UNL     1      11.025  39.017  45.053  1.00  0.00    -0.003 C 
ATOM     32  C   UNL     1      12.050  38.038  44.482  1.00  0.00     0.004 C 
ENDBRANCH  30  31
ENDBRANCH  29  30
ENDBRANCH  28  29
ENDBRANCH  27  28
ENDBRANCH  26  27
ENDBRANCH  25  26
ENDBRANCH  24  25
ENDBRANCH  23  24
ENDBRANCH  22  23
ENDBRANCH  21  22
ENDBRANCH  20  21
ENDBRANCH  19  20
ENDBRANCH  18  19
ENDBRANCH   1  18
TORSDOF 28
ENDMDL
MODEL 5
REMARK VINA RESULT:    -5.316      1.642      4.173
REMARK INTER + INTRA:         -18.106
REMARK INTER:                 -13.975
REMARK INTRA:                  -4.131
REMARK UNBOUND:                -4.088
REMARK SMILES CCCCCCCCCCCCCCCCCCCCCCCCCCCCCC(=O)[O-]
REMARK SMILES IDX 16 1 17 2 18 3 19 4 20 5 21 6 22 7 23 8 24 9 25 10 26 11
REMARK SMILES IDX 27 12 28 13 29 14 30 15 31 16 32 17 15 18 14 19 13 20 12 21
REMARK SMILES IDX 11 22 10 23 9 24 8 25 7 26 6 27 5 28 4 29 3 30 2 31 1 32
REMARK H PARENT
REMARK Flexibility Score: inf
ROOT
ATOM      1  C   UNL     1       5.483  41.117  47.119  1.00  0.00     0.000 C 
ENDROOT
BRANCH   1   2
ATOM      2  C   UNL     1       5.197  42.417  46.330  1.00  0.00     0.000 C 
BRANCH   2   3
ATOM      3  C   UNL     1       5.627  42.346  44.851  1.00  0.00     0.000 C 
BRANCH   3   4
ATOM      4  C   UNL     1       6.755  41.327  44.579  1.00  0.00     0.000 C 
BRANCH   4   5
ATOM      5  C   UNL     1       7.564  41.612  43.300  1.00  0.00     0.000 C 
BRANCH   5   6
ATOM      6  C   UNL     1       8.628  40.544  43.012  1.00  0.00     0.000 C 
BRANCH   6   7
ATOM      7  C   UNL     1       8.942  39.672  44.239  1.00  0.00     0.000 C 
BRANCH   7   8
ATOM      8  C   UNL     1       9.876  38.499  43.905  1.00  0.00     0.000 C 
BRANCH   8   9
ATOM      9  C   UNL     1      10.325  37.776  45.181  1.00  0.00     0.000 C 
BRANCH   9  10
ATOM     10  C   UNL     1      10.123  36.261  45.057  1.00  0.00     0.000 C 
BRANCH  10  11
ATOM     11  C   UNL     1      10.755  35.721  43.767  1.00  0.00     0.000 C 
BRANCH  11  12
ATOM     12  C   UNL     1       9.971  34.510  43.241  1.00  0.00     0.000 C 
BRANCH  12  13
ATOM     13  C   UNL     1      10.591  33.908  41.967  1.00  0.00     0.006 C 
BRANCH  13  14
ATOM     14  C   UNL     1       9.779  32.753  41.357  1.00  0.00     0.053 C 
BRANCH  14  15
ATOM     15  C   UNL     1       8.326  32.831  41.718  1.00  0.00     0.041 C 
ATOM     16  O   UNL     1       7.529  33.492  41.001  1.00  0.00    -0.550 OA
ATOM     17  O   UNL     1       7.855  32.181  42.853  1.00  0.00    -0.550 OA
ENDBRANCH  14  15
ENDBRANCH  13  14
ENDBRANCH  12  13
ENDBRANCH  11  12
ENDBRANCH  10  11
ENDBRANCH   9  10
ENDBRANCH   8   9
ENDBRANCH   7   8
ENDBRANCH   6   7
ENDBRANCH   5   6
ENDBRANCH   4   5
ENDBRANCH   3   4
ENDBRANCH   2   3
ENDBRANCH   1   2
BRANCH   1  18
ATOM     18  C   UNL     1       5.913  41.340  48.585  1.00  0.00     0.000 C 
BRANCH  18  19
ATOM     19  C   UNL     1       7.379  40.996  48.912  1.00  0.00     0.000 C 
BRANCH  19  20
ATOM     20  C   UNL     1       7.987  39.948  47.969  1.00  0.00     0.000 C 
BRANCH  20  21
ATOM     21  C   UNL     1       9.472  40.242  47.706  1.00  0.00     0.000 C 
BRANCH  21  22
ATOM     22  C   UNL     1      10.407  39.558  48.725  1.00  0.00     0.000 C 
BRANCH  22  23
ATOM     23  C   UNL     1      10.424  38.021  48.627  1.00  0.00     0.000 C 
BRANCH  23  24
ATOM     24  C   UNL     1      11.819  37.390  48.464  1.00  0.00    -0.000 C 
BRANCH  24  25
ATOM     25  C   UNL     1      12.995  38.263  48.946  1.00  0.00    -0.000 C 
BRANCH  25  26
ATOM     26  C   UNL     1      14.007  38.651  47.854  1.00  0.00    -0.000 C 
BRANCH  26  27
ATOM     27  C   UNL     1      13.567  38.208  46.449  1.00  0.00    -0.000 C 
BRANCH  27  28
ATOM     28  C   UNL     1      14.196  39.057  45.329  1.00  0.00    -0.000 C 
BRANCH  28  29
ATOM     29  C   UNL     1      13.222  40.008  44.608  1.00  0.00    -0.000 C 
BRANCH  29  30
ATOM     30  C   UNL     1      12.397  40.871  45.576  1.00  0.00    -0.000 C 
BRANCH  30  31
ATOM     31  C   UNL     1      13.127  42.157  45.993  1.00  0.00    -0.003 C 
ATOM     32  C   UNL     1      13.422  42.212  47.492  1.00  0.00     0.004 C 
ENDBRANCH  30  31
ENDBRANCH  29  30
ENDBRANCH  28  29
ENDBRANCH  27  28
ENDBRANCH  26  27
ENDBRANCH  25  26
ENDBRANCH  24  25
ENDBRANCH  23  24
ENDBRANCH  22  23
ENDBRANCH  21  22
ENDBRANCH  20  21
ENDBRANCH  19  20
ENDBRANCH  18  19
ENDBRANCH   1  18
TORSDOF 28
ENDMDL
MODEL 6
REMARK VINA RESULT:    -5.310      3.484      7.842
REMARK INTER + INTRA:         -18.089
REMARK INTER:                 -13.290
REMARK INTRA:                  -4.799
REMARK UNBOUND:                -4.088
REMARK SMILES CCCCCCCCCCCCCCCCCCCCCCCCCCCCCC(=O)[O-]
REMARK SMILES IDX 16 1 17 2 18 3 19 4 20 5 21 6 22 7 23 8 24 9 25 10 26 11
REMARK SMILES IDX 27 12 28 13 29 14 30 15 31 16 32 17 15 18 14 19 13 20 12 21
REMARK SMILES IDX 11 22 10 23 9 24 8 25 7 26 6 27 5 28 4 29 3 30 2 31 1 32
REMARK H PARENT
REMARK Flexibility Score: inf
ROOT
ATOM      1  C   UNL     1       9.956  38.316  44.656  1.00  0.00     0.000 C 
ENDROOT
BRANCH   1   2
ATOM      2  C   UNL     1      10.200  39.571  43.783  1.00  0.00     0.000 C 
BRANCH   2   3
ATOM      3  C   UNL     1      10.983  40.683  44.510  1.00  0.00     0.000 C 
BRANCH   3   4
ATOM      4  C   UNL     1      12.323  41.045  43.834  1.00  0.00     0.000 C 
BRANCH   4   5
ATOM      5  C   UNL     1      13.455  40.037  44.104  1.00  0.00     0.000 C 
BRANCH   5   6
ATOM      6  C   UNL     1      13.781  39.884  45.596  1.00  0.00     0.000 C 
BRANCH   6   7
ATOM      7  C   UNL     1      13.679  38.427  46.079  1.00  0.00     0.000 C 
BRANCH   7   8
ATOM      8  C   UNL     1      12.697  38.262  47.250  1.00  0.00     0.000 C 
BRANCH   8   9
ATOM      9  C   UNL     1      12.329  39.623  47.852  1.00  0.00     0.000 C 
BRANCH   9  10
ATOM     10  C   UNL     1      11.060  39.524  48.707  1.00  0.00     0.000 C 
BRANCH  10  11
ATOM     11  C   UNL     1      10.244  38.275  48.345  1.00  0.00     0.000 C 
BRANCH  11  12
ATOM     12  C   UNL     1       8.758  38.623  48.181  1.00  0.00     0.000 C 
BRANCH  12  13
ATOM     13  C   UNL     1       8.536  40.056  47.663  1.00  0.00     0.006 C 
BRANCH  13  14
ATOM     14  C   UNL     1       7.288  40.220  46.779  1.00  0.00     0.053 C 
BRANCH  14  15
ATOM     15  C   UNL     1       6.018  40.038  47.554  1.00  0.00     0.041 C 
ATOM     16  O   UNL     1       5.149  39.213  47.163  1.00  0.00    -0.550 OA
ATOM     17  O   UNL     1       5.790  40.786  48.703  1.00  0.00    -0.550 OA
ENDBRANCH  14  15
ENDBRANCH  13  14
ENDBRANCH  12  13
ENDBRANCH  11  12
ENDBRANCH  10  11
ENDBRANCH   9  10
ENDBRANCH   8   9
ENDBRANCH   7   8
ENDBRANCH   6   7
ENDBRANCH   5   6
ENDBRANCH   4   5
ENDBRANCH   3   4
ENDBRANCH   2   3
ENDBRANCH   1   2
BRANCH   1  18
ATOM     18  C   UNL     1      10.730  37.060  44.201  1.00  0.00     0.000 C 
BRANCH  18  19
ATOM     19  C   UNL     1      10.692  35.862  45.170  1.00  0.00     0.000 C 
BRANCH  19  20
ATOM     20  C   UNL     1      10.630  34.502  44.459  1.00  0.00     0.000 C 
BRANCH  20  21
ATOM     21  C   UNL     1      10.543  34.683  42.937  1.00  0.00     0.000 C 
BRANCH  21  22
ATOM     22  C   UNL     1      10.735  33.361  42.165  1.00  0.00     0.000 C 
BRANCH  22  23
ATOM     23  C   UNL     1       9.841  33.228  40.918  1.00  0.00     0.000 C 
BRANCH  23  24
ATOM     24  C   UNL     1       8.360  32.914  41.203  1.00  0.00    -0.000 C 
BRANCH  24  25
ATOM     25  C   UNL     1       8.113  31.875  42.315  1.00  0.00    -0.000 C 
BRANCH  25  26
ATOM     26  C   UNL     1       7.515  32.442  43.614  1.00  0.00    -0.000 C 
BRANCH  26  27
ATOM     27  C   UNL     1       8.260  31.965  44.872  1.00  0.00    -0.000 C 
BRANCH  27  28
ATOM     28  C   UNL     1       7.451  32.181  46.165  1.00  0.00    -0.000 C 
BRANCH  28  29
ATOM     29  C   UNL     1       8.256  32.750  47.349  1.00  0.00    -0.000 C 
BRANCH  29  30
ATOM     30  C   UNL     1       7.929  34.223  47.645  1.00  0.00    -0.000 C 
BRANCH  30  31
ATOM     31  C   UNL     1       6.798  34.384  48.672  1.00  0.00    -0.003 C 
ATOM     32  C   UNL     1       6.329  35.831  48.817  1.00  0.00     0.004 C 
ENDBRANCH  30  31
ENDBRANCH  29  30
ENDBRANCH  28  29
ENDBRANCH  27  28
ENDBRANCH  26  27
ENDBRANCH  25  26
ENDBRANCH  24  25
ENDBRANCH  23  24
ENDBRANCH  22  23
ENDBRANCH  21  22
ENDBRANCH  20  21
ENDBRANCH  19  20
ENDBRANCH  18  19
ENDBRANCH   1  18
TORSDOF 28
ENDMDL
MODEL 7
REMARK VINA RESULT:    -5.292      2.319      7.646
REMARK INTER + INTRA:         -18.042
REMARK INTER:                 -14.079
REMARK INTRA:                  -3.963
REMARK UNBOUND:                -4.088
REMARK SMILES CCCCCCCCCCCCCCCCCCCCCCCCCCCCCC(=O)[O-]
REMARK SMILES IDX 16 1 17 2 18 3 19 4 20 5 21 6 22 7 23 8 24 9 25 10 26 11
REMARK SMILES IDX 27 12 28 13 29 14 30 15 31 16 32 17 15 18 14 19 13 20 12 21
REMARK SMILES IDX 11 22 10 23 9 24 8 25 7 26 6 27 5 28 4 29 3 30 2 31 1 32
REMARK H PARENT
REMARK Flexibility Score: inf
ROOT
ATOM      1  C   UNL     1      13.281  39.931  46.163  1.00  0.00     0.000 C 
ENDROOT
BRANCH   1   2
ATOM      2  C   UNL     1      13.076  40.504  47.585  1.00  0.00     0.000 C 
BRANCH   2   3
ATOM      3  C   UNL     1      11.862  39.903  48.322  1.00  0.00     0.000 C 
BRANCH   3   4
ATOM      4  C   UNL     1      10.508  40.215  47.648  1.00  0.00     0.000 C 
BRANCH   4   5
ATOM      5  C   UNL     1       9.303  39.526  48.313  1.00  0.00     0.000 C 
BRANCH   5   6
ATOM      6  C   UNL     1       8.167  40.501  48.658  1.00  0.00     0.000 C 
BRANCH   6   7
ATOM      7  C   UNL     1       7.065  40.530  47.587  1.00  0.00     0.000 C 
BRANCH   7   8
ATOM      8  C   UNL     1       5.815  41.295  48.049  1.00  0.00     0.000 C 
BRANCH   8   9
ATOM      9  C   UNL     1       5.260  42.171  46.919  1.00  0.00     0.000 C 
BRANCH   9  10
ATOM     10  C   UNL     1       5.936  41.842  45.583  1.00  0.00     0.000 C 
BRANCH  10  11
ATOM     11  C   UNL     1       5.422  42.754  44.461  1.00  0.00     0.000 C 
BRANCH  11  12
ATOM     12  C   UNL     1       6.519  43.724  44.000  1.00  0.00     0.000 C 
BRANCH  12  13
ATOM     13  C   UNL     1       7.126  43.333  42.639  1.00  0.00     0.006 C 
BRANCH  13  14
ATOM     14  C   UNL     1       8.510  42.669  42.734  1.00  0.00     0.053 C 
BRANCH  14  15
ATOM     15  C   UNL     1       8.817  41.830  41.530  1.00  0.00     0.041 C 
ATOM     16  O   UNL     1       8.095  40.837  41.247  1.00  0.00    -0.550 OA
ATOM     17  O   UNL     1       9.908  42.140  40.726  1.00  0.00    -0.550 OA
ENDBRANCH  14  15
ENDBRANCH  13  14
ENDBRANCH  12  13
ENDBRANCH  11  12
ENDBRANCH  10  11
ENDBRANCH   9  10
ENDBRANCH   8   9
ENDBRANCH   7   8
ENDBRANCH   6   7
ENDBRANCH   5   6
ENDBRANCH   4   5
ENDBRANCH   3   4
ENDBRANCH   2   3
ENDBRANCH   1   2
BRANCH   1  18
ATOM     18  C   UNL     1      13.291  40.990  45.040  1.00  0.00     0.000 C 
BRANCH  18  19
ATOM     19  C   UNL     1      11.930  41.272  44.373  1.00  0.00     0.000 C 
BRANCH  19  20
ATOM     20  C   UNL     1      11.371  40.073  43.593  1.00  0.00     0.000 C 
BRANCH  20  21
ATOM     21  C   UNL     1      10.065  39.569  44.225  1.00  0.00     0.000 C 
BRANCH  21  22
ATOM     22  C   UNL     1      10.033  38.035  44.390  1.00  0.00     0.000 C 
BRANCH  22  23
ATOM     23  C   UNL     1      11.396  37.414  44.748  1.00  0.00     0.000 C 
BRANCH  23  24
ATOM     24  C   UNL     1      11.403  36.528  46.007  1.00  0.00    -0.000 C 
BRANCH  24  25
ATOM     25  C   UNL     1      10.011  36.090  46.508  1.00  0.00    -0.000 C 
BRANCH  25  26
ATOM     26  C   UNL     1       9.864  34.584  46.784  1.00  0.00    -0.000 C 
BRANCH  26  27
ATOM     27  C   UNL     1       9.106  33.844  45.669  1.00  0.00    -0.000 C 
BRANCH  27  28
ATOM     28  C   UNL     1      10.014  33.441  44.493  1.00  0.00    -0.000 C 
BRANCH  28  29
ATOM     29  C   UNL     1       9.912  34.347  43.250  1.00  0.00    -0.000 C 
BRANCH  29  30
ATOM     30  C   UNL     1      10.531  33.714  41.993  1.00  0.00    -0.000 C 
BRANCH  30  31
ATOM     31  C   UNL     1       9.482  33.382  40.920  1.00  0.00    -0.003 C 
ATOM     32  C   UNL     1       8.748  32.069  41.193  1.00  0.00     0.004 C 
ENDBRANCH  30  31
ENDBRANCH  29  30
ENDBRANCH  28  29
ENDBRANCH  27  28
ENDBRANCH  26  27
ENDBRANCH  25  26
ENDBRANCH  24  25
ENDBRANCH  23  24
ENDBRANCH  22  23
ENDBRANCH  21  22
ENDBRANCH  20  21
ENDBRANCH  19  20
ENDBRANCH  18  19
ENDBRANCH   1  18
TORSDOF 28
ENDMDL
MODEL 8
REMARK VINA RESULT:    -5.227      4.088      8.117
REMARK INTER + INTRA:         -17.871
REMARK INTER:                 -12.756
REMARK INTRA:                  -5.116
REMARK UNBOUND:                -4.088
REMARK SMILES CCCCCCCCCCCCCCCCCCCCCCCCCCCCCC(=O)[O-]
REMARK SMILES IDX 16 1 17 2 18 3 19 4 20 5 21 6 22 7 23 8 24 9 25 10 26 11
REMARK SMILES IDX 27 12 28 13 29 14 30 15 31 16 32 17 15 18 14 19 13 20 12 21
REMARK SMILES IDX 11 22 10 23 9 24 8 25 7 26 6 27 5 28 4 29 3 30 2 31 1 32
REMARK H PARENT
REMARK Flexibility Score: inf
ROOT
ATOM      1  C   UNL     1      12.051  40.979  49.025  1.00  0.00     0.000 C 
ENDROOT
BRANCH   1   2
ATOM      2  C   UNL     1      10.749  40.203  49.342  1.00  0.00     0.000 C 
BRANCH   2   3
ATOM      3  C   UNL     1       9.761  40.151  48.160  1.00  0.00     0.000 C 
BRANCH   3   4
ATOM      4  C   UNL     1       8.280  40.270  48.581  1.00  0.00     0.000 C 
BRANCH   4   5
ATOM      5  C   UNL     1       7.426  39.038  48.228  1.00  0.00     0.000 C 
BRANCH   5   6
ATOM      6  C   UNL     1       5.987  39.398  47.832  1.00  0.00     0.000 C 
BRANCH   6   7
ATOM      7  C   UNL     1       5.921  40.293  46.584  1.00  0.00     0.000 C 
BRANCH   7   8
ATOM      8  C   UNL     1       5.227  41.636  46.857  1.00  0.00     0.000 C 
BRANCH   8   9
ATOM      9  C   UNL     1       5.227  42.519  45.603  1.00  0.00     0.000 C 
BRANCH   9  10
ATOM     10  C   UNL     1       6.312  42.073  44.615  1.00  0.00     0.000 C 
BRANCH  10  11
ATOM     11  C   UNL     1       6.240  42.879  43.311  1.00  0.00     0.000 C 
BRANCH  11  12
ATOM     12  C   UNL     1       7.286  44.002  43.304  1.00  0.00     0.000 C 
BRANCH  12  13
ATOM     13  C   UNL     1       7.457  44.648  41.917  1.00  0.00     0.006 C 
BRANCH  13  14
ATOM     14  C   UNL     1       8.721  45.512  41.775  1.00  0.00     0.053 C 
BRANCH  14  15
ATOM     15  C   UNL     1       8.396  46.951  41.512  1.00  0.00     0.041 C 
ATOM     16  O   UNL     1       7.201  47.308  41.330  1.00  0.00    -0.550 OA
ATOM     17  O   UNL     1       9.413  47.897  41.457  1.00  0.00    -0.550 OA
ENDBRANCH  14  15
ENDBRANCH  13  14
ENDBRANCH  12  13
ENDBRANCH  11  12
ENDBRANCH  10  11
ENDBRANCH   9  10
ENDBRANCH   8   9
ENDBRANCH   7   8
ENDBRANCH   6   7
ENDBRANCH   5   6
ENDBRANCH   4   5
ENDBRANCH   3   4
ENDBRANCH   2   3
ENDBRANCH   1   2
BRANCH   1  18
ATOM     18  C   UNL     1      12.892  40.376  47.880  1.00  0.00     0.000 C 
BRANCH  18  19
ATOM     19  C   UNL     1      13.289  41.351  46.755  1.00  0.00     0.000 C 
BRANCH  19  20
ATOM     20  C   UNL     1      12.238  41.459  45.640  1.00  0.00     0.000 C 
BRANCH  20  21
ATOM     21  C   UNL     1      12.883  41.270  44.259  1.00  0.00     0.000 C 
BRANCH  21  22
ATOM     22  C   UNL     1      12.465  42.360  43.250  1.00  0.00     0.000 C 
BRANCH  22  23
ATOM     23  C   UNL     1      10.942  42.489  43.061  1.00  0.00     0.000 C 
BRANCH  23  24
ATOM     24  C   UNL     1      10.322  41.517  42.040  1.00  0.00    -0.000 C 
BRANCH  24  25
ATOM     25  C   UNL     1       9.224  40.590  42.600  1.00  0.00    -0.000 C 
BRANCH  25  26
ATOM     26  C   UNL     1       9.273  40.370  44.122  1.00  0.00    -0.000 C 
BRANCH  26  27
ATOM     27  C   UNL     1       9.305  38.882  44.508  1.00  0.00    -0.000 C 
BRANCH  27  28
ATOM     28  C   UNL     1      10.683  38.234  44.283  1.00  0.00    -0.000 C 
BRANCH  28  29
ATOM     29  C   UNL     1      11.438  37.843  45.568  1.00  0.00    -0.000 C 
BRANCH  29  30
ATOM     30  C   UNL     1      10.581  37.014  46.539  1.00  0.00    -0.000 C 
BRANCH  30  31
ATOM     31  C   UNL     1      11.316  36.691  47.849  1.00  0.00    -0.003 C 
ATOM     32  C   UNL     1      12.835  36.800  47.720  1.00  0.00     0.004 C 
ENDBRANCH  30  31
ENDBRANCH  29  30
ENDBRANCH  28  29
ENDBRANCH  27  28
ENDBRANCH  26  27
ENDBRANCH  25  26
ENDBRANCH  24  25
ENDBRANCH  23  24
ENDBRANCH  22  23
ENDBRANCH  21  22
ENDBRANCH  20  21
ENDBRANCH  19  20
ENDBRANCH  18  19
ENDBRANCH   1  18
TORSDOF 28
ENDMDL
MODEL 9
REMARK VINA RESULT:    -5.210      2.337      7.263
REMARK INTER + INTRA:         -17.826
REMARK INTER:                 -14.144
REMARK INTRA:                  -3.683
REMARK UNBOUND:                -4.088
REMARK SMILES CCCCCCCCCCCCCCCCCCCCCCCCCCCCCC(=O)[O-]
REMARK SMILES IDX 16 1 17 2 18 3 19 4 20 5 21 6 22 7 23 8 24 9 25 10 26 11
REMARK SMILES IDX 27 12 28 13 29 14 30 15 31 16 32 17 15 18 14 19 13 20 12 21
REMARK SMILES IDX 11 22 10 23 9 24 8 25 7 26 6 27 5 28 4 29 3 30 2 31 1 32
REMARK H PARENT
REMARK Flexibility Score: inf
ROOT
ATOM      1  C   UNL     1       6.856  40.077  48.186  1.00  0.00     0.000 C 
ENDROOT
BRANCH   1   2
ATOM      2  C   UNL     1       6.566  41.368  48.989  1.00  0.00     0.000 C 
BRANCH   2   3
ATOM      3  C   UNL     1       5.377  42.181  48.438  1.00  0.00     0.000 C 
BRANCH   3   4
ATOM      4  C   UNL     1       4.881  41.700  47.057  1.00  0.00     0.000 C 
BRANCH   4   5
ATOM      5  C   UNL     1       5.419  42.526  45.874  1.00  0.00     0.000 C 
BRANCH   5   6
ATOM      6  C   UNL     1       6.254  41.693  44.890  1.00  0.00     0.000 C 
BRANCH   6   7
ATOM      7  C   UNL     1       6.584  42.458  43.598  1.00  0.00     0.000 C 
BRANCH   7   8
ATOM      8  C   UNL     1       6.406  43.976  43.750  1.00  0.00     0.000 C 
BRANCH   8   9
ATOM      9  C   UNL     1       7.450  44.735  42.922  1.00  0.00     0.000 C 
BRANCH   9  10
ATOM     10  C   UNL     1       7.687  44.050  41.571  1.00  0.00     0.000 C 
BRANCH  10  11
ATOM     11  C   UNL     1       8.996  44.528  40.928  1.00  0.00     0.000 C 
BRANCH  11  12
ATOM     12  C   UNL     1       9.946  43.347  40.682  1.00  0.00     0.000 C 
BRANCH  12  13
ATOM     13  C   UNL     1       9.524  42.075  41.441  1.00  0.00     0.006 C 
BRANCH  13  14
ATOM     14  C   UNL     1      10.280  41.850  42.761  1.00  0.00     0.053 C 
BRANCH  14  15
ATOM     15  C   UNL     1      11.465  40.949  42.587  1.00  0.00     0.041 C 
ATOM     16  O   UNL     1      11.401  39.741  42.939  1.00  0.00    -0.550 OA
ATOM     17  O   UNL     1      12.645  41.447  42.047  1.00  0.00    -0.550 OA
ENDBRANCH  14  15
ENDBRANCH  13  14
ENDBRANCH  12  13
ENDBRANCH  11  12
ENDBRANCH  10  11
ENDBRANCH   9  10
ENDBRANCH   8   9
ENDBRANCH   7   8
ENDBRANCH   6   7
ENDBRANCH   5   6
ENDBRANCH   4   5
ENDBRANCH   3   4
ENDBRANCH   2   3
ENDBRANCH   1   2
BRANCH   1  18
ATOM     18  C   UNL     1       8.163  39.357  48.582  1.00  0.00     0.000 C 
BRANCH  18  19
ATOM     19  C   UNL     1       9.467  40.119  48.275  1.00  0.00     0.000 C 
BRANCH  19  20
ATOM     20  C   UNL     1      10.252  40.520  49.533  1.00  0.00     0.000 C 
BRANCH  20  21
ATOM     21  C   UNL     1      11.725  40.101  49.416  1.00  0.00     0.000 C 
BRANCH  21  22
ATOM     22  C   UNL     1      12.320  40.389  48.022  1.00  0.00     0.000 C 
BRANCH  22  23
ATOM     23  C   UNL     1      13.397  39.380  47.580  1.00  0.00     0.000 C 
BRANCH  23  24
ATOM     24  C   UNL     1      13.385  38.036  48.330  1.00  0.00    -0.000 C 
BRANCH  24  25
ATOM     25  C   UNL     1      12.600  36.905  47.634  1.00  0.00    -0.000 C 
BRANCH  25  26
ATOM     26  C   UNL     1      11.156  36.716  48.129  1.00  0.00    -0.000 C 
BRANCH  26  27
ATOM     27  C   UNL     1      10.137  36.634  46.980  1.00  0.00    -0.000 C 
BRANCH  27  28
ATOM     28  C   UNL     1      10.585  37.408  45.727  1.00  0.00    -0.000 C 
BRANCH  28  29
ATOM     29  C   UNL     1      10.182  36.766  44.385  1.00  0.00    -0.000 C 
BRANCH  29  30
ATOM     30  C   UNL     1      10.934  35.456  44.097  1.00  0.00    -0.000 C 
BRANCH  30  31
ATOM     31  C   UNL     1       9.989  34.293  43.757  1.00  0.00    -0.003 C 
ATOM     32  C   UNL     1       9.878  34.040  42.254  1.00  0.00     0.004 C 
ENDBRANCH  30  31
ENDBRANCH  29  30
ENDBRANCH  28  29
ENDBRANCH  27  28
ENDBRANCH  26  27
ENDBRANCH  25  26
ENDBRANCH  24  25
ENDBRANCH  23  24
ENDBRANCH  22  23
ENDBRANCH  21  22
ENDBRANCH  20  21
ENDBRANCH  19  20
ENDBRANCH  18  19
ENDBRANCH   1  18
TORSDOF 28
ENDMDL
