MODEL 1
REMARK VINA RESULT:    19.030      0.000      0.000
REMARK INTER + INTRA:          30.257
REMARK INTER:                  29.042
REMARK INTRA:                   1.215
REMARK UNBOUND:                 1.215
REMARK SMILES CC1=CCC[C@H](C)C(=O)C[C@@H](C(C)C)C(=O)C1
REMARK SMILES IDX 8 1 9 2 6 3 7 4 5 5 4 6 3 7 2 8 1 9 10 11 11 12 15 13 16 14
REMARK SMILES IDX 17 15 12 17 13 18 14 19
REMARK H PARENT
REMARK Flexibility Score: 70.00
ROOT
ATOM      1  C   UNL     1      35.631  13.558  42.900  1.00  0.00     0.136 C 
ATOM      2  O   UNL     1      36.724  13.241  42.450  1.00  0.00    -0.299 OA
ENDROOT
BRANCH   1   3
ATOM      3  C   UNL     1      35.535  14.680  43.914  1.00  0.00     0.053 C 
ATOM      4  C   UNL     1      36.872  15.428  44.020  1.00  0.00     0.016 C 
BRANCH   3   5
ATOM      5  C   UNL     1      34.389  15.646  43.535  1.00  0.00     0.015 C 
BRANCH   5   6
ATOM      6  C   UNL     1      34.902  16.888  42.778  1.00  0.00     0.028 C 
BRANCH   6   7
ATOM      7  C   UNL     1      34.103  17.136  41.524  1.00  0.00    -0.028 C 
ATOM      8  C   UNL     1      34.129  16.358  40.419  1.00  0.00    -0.070 CG0
ATOM      9  C   UNL     1      33.308  16.792  39.230  1.00  0.00     0.039 C 
ATOM     10  G   UNL     1      34.950  15.081  40.312  1.00  0.00     0.000 G0
ENDBRANCH   6   7
ENDBRANCH   5   6
ENDBRANCH   3   5
ENDBRANCH   1   3
BRANCH   1  11
ATOM     11  C   UNL     1      34.400  12.819  42.430  1.00  0.00     0.087 C 
BRANCH  11  12
ATOM     12  C   UNL     1      34.418  12.544  40.904  1.00  0.00     0.066 C 
BRANCH  12  13
ATOM     13  C   UNL     1      34.159  13.825  40.118  1.00  0.00     0.140 C 
ATOM     14  O   UNL     1      33.221  13.854  39.334  1.00  0.00    -0.299 OA
BRANCH  13  15
ATOM     15  C   UNL     1      34.979  15.077  40.334  1.00  0.00     0.106 CG0
ATOM     16  G   UNL     1      34.111  16.321  40.453  1.00  0.00     0.000 G0
ENDBRANCH  13  15
ENDBRANCH  12  13
BRANCH  12  17
ATOM     17  C   UNL     1      33.441  11.402  40.477  1.00  0.00    -0.006 C 
ATOM     18  C   UNL     1      34.206  10.092  40.206  1.00  0.00     0.008 C 
ATOM     19  C   UNL     1      32.356  11.130  41.535  1.00  0.00     0.008 C 
ENDBRANCH  12  17
ENDBRANCH  11  12
ENDBRANCH   1  11
TORSDOF 1
ENDMDL
MODEL 2
REMARK VINA RESULT:    20.783      1.552      4.316
REMARK INTER + INTRA:          32.934
REMARK INTER:                  30.896
REMARK INTRA:                   2.038
REMARK UNBOUND:                 1.215
REMARK SMILES CC1=CCC[C@H](C)C(=O)C[C@@H](C(C)C)C(=O)C1
REMARK SMILES IDX 8 1 9 2 6 3 7 4 5 5 4 6 3 7 2 8 1 9 10 11 11 12 15 13 16 14
REMARK SMILES IDX 17 15 12 17 13 18 14 19
REMARK H PARENT
REMARK Flexibility Score: 70.00
ROOT
ATOM      1  C   UNL     1      33.270  11.322  42.112  1.00  0.00     0.136 C 
ATOM      2  O   UNL     1      32.175  11.213  42.649  1.00  0.00    -0.299 OA
ENDROOT
BRANCH   1   3
ATOM      3  C   UNL     1      33.437  10.919  40.660  1.00  0.00     0.053 C 
ATOM      4  C   UNL     1      33.522   9.391  40.532  1.00  0.00     0.016 C 
BRANCH   3   5
ATOM      5  C   UNL     1      32.274  11.482  39.813  1.00  0.00     0.015 C 
BRANCH   5   6
ATOM      6  C   UNL     1      32.767  12.446  38.714  1.00  0.00     0.028 C 
BRANCH   6   7
ATOM      7  C   UNL     1      32.969  13.838  39.255  1.00  0.00    -0.028 C 
ATOM      8  C   UNL     1      34.118  14.303  39.796  1.00  0.00    -0.070 CG0
ATOM      9  C   UNL     1      34.122  15.708  40.345  1.00  0.00     0.039 C 
ATOM     10  G   UNL     1      35.394  13.480  39.889  1.00  0.00     0.000 G0
ENDBRANCH   6   7
ENDBRANCH   5   6
ENDBRANCH   3   5
ENDBRANCH   1   3
BRANCH   1  11
ATOM     11  C   UNL     1      34.433  11.857  42.915  1.00  0.00     0.087 C 
BRANCH  11  12
ATOM     12  C   UNL     1      34.844  13.288  42.483  1.00  0.00     0.066 C 
BRANCH  12  13
ATOM     13  C   UNL     1      35.818  13.243  41.310  1.00  0.00     0.140 C 
ATOM     14  O   UNL     1      36.985  12.949  41.526  1.00  0.00    -0.299 OA
BRANCH  13  15
ATOM     15  C   UNL     1      35.368  13.478  39.886  1.00  0.00     0.106 CG0
ATOM     16  G   UNL     1      34.110  14.332  39.813  1.00  0.00     0.000 G0
ENDBRANCH  13  15
ENDBRANCH  12  13
BRANCH  12  17
ATOM     17  C   UNL     1      35.407  14.145  43.662  1.00  0.00    -0.006 C 
ATOM     18  C   UNL     1      36.942  14.031  43.747  1.00  0.00     0.008 C 
ATOM     19  C   UNL     1      35.029  15.633  43.540  1.00  0.00     0.008 C 
ENDBRANCH  12  17
ENDBRANCH  11  12
ENDBRANCH   1  11
TORSDOF 1
ENDMDL
MODEL 3
REMARK VINA RESULT:    21.780      2.346      5.212
REMARK INTER + INTRA:          34.455
REMARK INTER:                  30.259
REMARK INTRA:                   4.196
REMARK UNBOUND:                 1.215
REMARK SMILES CC1=CCC[C@H](C)C(=O)C[C@@H](C(C)C)C(=O)C1
REMARK SMILES IDX 8 1 9 2 6 3 7 4 5 5 4 6 3 7 2 8 1 9 10 11 11 12 15 13 16 14
REMARK SMILES IDX 17 15 12 17 13 18 14 19
REMARK H PARENT
REMARK Flexibility Score: 70.00
ROOT
ATOM      1  C   UNL     1      34.856  12.889  40.094  1.00  0.00     0.136 C 
ATOM      2  O   UNL     1      33.707  13.100  39.728  1.00  0.00    -0.299 OA
ENDROOT
BRANCH   1   3
ATOM      3  C   UNL     1      35.545  11.599  39.696  1.00  0.00     0.053 C 
ATOM      4  C   UNL     1      37.055  11.692  39.957  1.00  0.00     0.016 C 
BRANCH   3   5
ATOM      5  C   UNL     1      34.924  10.406  40.457  1.00  0.00     0.015 C 
BRANCH   5   6
ATOM      6  C   UNL     1      33.512  10.059  39.943  1.00  0.00     0.028 C 
BRANCH   6   7
ATOM      7  C   UNL     1      32.450  10.493  40.920  1.00  0.00    -0.028 C 
ATOM      8  C   UNL     1      32.686  11.065  42.122  1.00  0.00    -0.070 CG0
ATOM      9  C   UNL     1      31.501  11.380  43.000  1.00  0.00     0.039 C 
ATOM     10  G   UNL     1      34.081  11.393  42.634  1.00  0.00     0.000 G0
ENDBRANCH   6   7
ENDBRANCH   5   6
ENDBRANCH   3   5
ENDBRANCH   1   3
BRANCH   1  11
ATOM     11  C   UNL     1      35.561  13.925  40.938  1.00  0.00     0.087 C 
BRANCH  11  12
ATOM     12  C   UNL     1      35.628  13.525  42.435  1.00  0.00     0.066 C 
BRANCH  12  13
ATOM     13  C   UNL     1      34.330  12.859  42.878  1.00  0.00     0.140 C 
ATOM     14  O   UNL     1      33.446  13.555  43.359  1.00  0.00    -0.299 OA
BRANCH  13  15
ATOM     15  C   UNL     1      34.077  11.382  42.675  1.00  0.00     0.106 CG0
ATOM     16  G   UNL     1      32.671  11.104  42.164  1.00  0.00     0.000 G0
ENDBRANCH  13  15
ENDBRANCH  12  13
BRANCH  12  17
ATOM     17  C   UNL     1      36.009  14.717  43.370  1.00  0.00    -0.006 C 
ATOM     18  C   UNL     1      34.833  15.701  43.521  1.00  0.00     0.008 C 
ATOM     19  C   UNL     1      36.443  14.248  44.772  1.00  0.00     0.008 C 
ENDBRANCH  12  17
ENDBRANCH  11  12
ENDBRANCH   1  11
TORSDOF 1
ENDMDL
MODEL 4
REMARK VINA RESULT:    21.968      1.891      4.713
REMARK INTER + INTRA:          34.742
REMARK INTER:                  34.346
REMARK INTRA:                   0.396
REMARK UNBOUND:                 1.215
REMARK SMILES CC1=CCC[C@H](C)C(=O)C[C@@H](C(C)C)C(=O)C1
REMARK SMILES IDX 8 1 9 2 6 3 7 4 5 5 4 6 3 7 2 8 1 9 10 11 11 12 15 13 16 14
REMARK SMILES IDX 17 15 12 17 13 18 14 19
REMARK H PARENT
REMARK Flexibility Score: 70.00
ROOT
ATOM      1  C   UNL     1      34.530  14.193  40.203  1.00  0.00     0.136 C 
ATOM      2  O   UNL     1      35.194  13.937  39.207  1.00  0.00    -0.299 OA
ENDROOT
BRANCH   1   3
ATOM      3  C   UNL     1      34.617  13.288  41.416  1.00  0.00     0.053 C 
ATOM      4  C   UNL     1      34.089  11.885  41.080  1.00  0.00     0.016 C 
BRANCH   3   5
ATOM      5  C   UNL     1      36.073  13.223  41.930  1.00  0.00     0.015 C 
BRANCH   5   6
ATOM      6  C   UNL     1      36.376  14.329  42.961  1.00  0.00     0.028 C 
BRANCH   6   7
ATOM      7  C   UNL     1      35.158  14.664  43.781  1.00  0.00    -0.028 C 
ATOM      8  C   UNL     1      34.566  15.880  43.835  1.00  0.00    -0.070 CG0
ATOM      9  C   UNL     1      33.387  16.051  44.759  1.00  0.00     0.039 C 
ATOM     10  G   UNL     1      35.038  17.077  43.023  1.00  0.00     0.000 G0
ENDBRANCH   6   7
ENDBRANCH   5   6
ENDBRANCH   3   5
ENDBRANCH   1   3
BRANCH   1  11
ATOM     11  C   UNL     1      33.634  15.410  40.197  1.00  0.00     0.087 C 
BRANCH  11  12
ATOM     12  C   UNL     1      34.418  16.725  40.437  1.00  0.00     0.066 C 
BRANCH  12  13
ATOM     13  C   UNL     1      34.108  17.299  41.815  1.00  0.00     0.140 C 
ATOM     14  O   UNL     1      33.063  17.916  41.973  1.00  0.00    -0.299 OA
BRANCH  13  15
ATOM     15  C   UNL     1      35.014  17.065  43.004  1.00  0.00     0.106 CG0
ATOM     16  G   UNL     1      34.557  15.888  43.852  1.00  0.00     0.000 G0
ENDBRANCH  13  15
ENDBRANCH  12  13
BRANCH  12  17
ATOM     17  C   UNL     1      34.195  17.785  39.311  1.00  0.00    -0.006 C 
ATOM     18  C   UNL     1      32.693  18.042  39.082  1.00  0.00     0.008 C 
ATOM     19  C   UNL     1      34.883  19.127  39.623  1.00  0.00     0.008 C 
ENDBRANCH  12  17
ENDBRANCH  11  12
ENDBRANCH   1  11
TORSDOF 1
ENDMDL
