MODEL 1
REMARK VINA RESULT:    -4.643      0.000      0.000
REMARK INTER + INTRA:         -10.036
REMARK INTER:                  -8.035
REMARK INTRA:                  -2.001
REMARK UNBOUND:                -2.001
REMARK SMILES CCCCCCCCCCCCCCO
REMARK SMILES IDX 8 1 7 2 6 3 5 4 4 5 3 6 2 7 1 8 9 9 10 10 11 11 12 12 13 13
REMARK SMILES IDX 14 14 15 15
REMARK H PARENT 15 16
REMARK Flexibility Score: inf
ROOT
ATOM      1  C   UNL     1      18.734  -0.405  19.349  1.00  0.00     0.000 C 
ENDROOT
BRANCH   1   2
ATOM      2  C   UNL     1      19.361  -0.956  20.642  1.00  0.00    -0.000 C 
BRANCH   2   3
ATOM      3  C   UNL     1      18.592  -2.159  21.208  1.00  0.00    -0.000 C 
BRANCH   3   4
ATOM      4  C   UNL     1      19.377  -3.476  21.076  1.00  0.00    -0.000 C 
BRANCH   4   5
ATOM      5  C   UNL     1      18.612  -4.541  20.276  1.00  0.00    -0.000 C 
BRANCH   5   6
ATOM      6  C   UNL     1      19.343  -4.953  18.985  1.00  0.00    -0.000 C 
BRANCH   6   7
ATOM      7  C   UNL     1      20.823  -4.543  18.991  1.00  0.00    -0.003 C 
ATOM      8  C   UNL     1      21.345  -4.196  17.596  1.00  0.00     0.004 C 
ENDBRANCH   6   7
ENDBRANCH   5   6
ENDBRANCH   4   5
ENDBRANCH   3   4
ENDBRANCH   2   3
ENDBRANCH   1   2
BRANCH   1   9
ATOM      9  C   UNL     1      19.067  -1.260  18.113  1.00  0.00     0.000 C 
BRANCH   9  10
ATOM     10  C   UNL     1      17.868  -2.015  17.501  1.00  0.00     0.000 C 
BRANCH  10  11
ATOM     11  C   UNL     1      16.514  -1.761  18.189  1.00  0.00     0.000 C 
BRANCH  11  12
ATOM     12  C   UNL     1      15.645  -3.017  18.391  1.00  0.00     0.002 C 
BRANCH  12  13
ATOM     13  C   UNL     1      15.962  -4.158  17.400  1.00  0.00     0.028 C 
BRANCH  13  14
ATOM     14  C   UNL     1      14.915  -5.279  17.433  1.00  0.00     0.156 C 
BRANCH  14  15
ATOM     15  O   UNL     1      14.268  -5.297  18.676  1.00  0.00    -0.396 OA
ATOM     16  H   UNL     1      13.672  -6.091  18.674  1.00  0.00     0.210 HD
ENDBRANCH  14  15
ENDBRANCH  13  14
ENDBRANCH  12  13
ENDBRANCH  11  12
ENDBRANCH  10  11
ENDBRANCH   9  10
ENDBRANCH   1   9
TORSDOF 13
ENDMDL
MODEL 2
REMARK VINA RESULT:    -4.444      2.498      4.080
REMARK INTER + INTRA:          -9.693
REMARK INTER:                  -7.824
REMARK INTRA:                  -1.869
REMARK UNBOUND:                -2.001
REMARK SMILES CCCCCCCCCCCCCCO
REMARK SMILES IDX 8 1 7 2 6 3 5 4 4 5 3 6 2 7 1 8 9 9 10 10 11 11 12 12 13 13
REMARK SMILES IDX 14 14 15 15
REMARK H PARENT 15 16
REMARK Flexibility Score: inf
ROOT
ATOM      1  C   UNL     1      18.477  -0.283  20.203  1.00  0.00     0.000 C 
ENDROOT
BRANCH   1   2
ATOM      2  C   UNL     1      18.483  -1.308  21.351  1.00  0.00    -0.000 C 
BRANCH   2   3
ATOM      3  C   UNL     1      19.385  -2.518  21.061  1.00  0.00    -0.000 C 
BRANCH   3   4
ATOM      4  C   UNL     1      18.594  -3.836  20.980  1.00  0.00    -0.000 C 
BRANCH   4   5
ATOM      5  C   UNL     1      17.176  -3.640  20.422  1.00  0.00    -0.000 C 
BRANCH   5   6
ATOM      6  C   UNL     1      16.926  -4.453  19.139  1.00  0.00    -0.000 C 
BRANCH   6   7
ATOM      7  C   UNL     1      15.770  -3.887  18.300  1.00  0.00    -0.003 C 
ATOM      8  C   UNL     1      15.364  -4.814  17.153  1.00  0.00     0.004 C 
ENDBRANCH   6   7
ENDBRANCH   5   6
ENDBRANCH   4   5
ENDBRANCH   3   4
ENDBRANCH   2   3
ENDBRANCH   1   2
BRANCH   1   9
ATOM      9  C   UNL     1      19.254  -0.769  18.966  1.00  0.00     0.000 C 
BRANCH   9  10
ATOM     10  C   UNL     1      18.375  -1.226  17.783  1.00  0.00     0.000 C 
BRANCH  10  11
ATOM     11  C   UNL     1      18.885  -2.468  17.029  1.00  0.00     0.000 C 
BRANCH  11  12
ATOM     12  C   UNL     1      20.309  -2.917  17.409  1.00  0.00     0.002 C 
BRANCH  12  13
ATOM     13  C   UNL     1      20.424  -4.427  17.709  1.00  0.00     0.028 C 
BRANCH  13  14
ATOM     14  C   UNL     1      21.755  -5.025  17.233  1.00  0.00     0.156 C 
BRANCH  14  15
ATOM     15  O   UNL     1      22.644  -4.001  16.879  1.00  0.00    -0.396 OA
ATOM     16  H   UNL     1      22.779  -4.069  15.898  1.00  0.00     0.210 HD
ENDBRANCH  14  15
ENDBRANCH  13  14
ENDBRANCH  12  13
ENDBRANCH  11  12
ENDBRANCH  10  11
ENDBRANCH   9  10
ENDBRANCH   1   9
TORSDOF 13
ENDMDL
MODEL 3
REMARK VINA RESULT:    -4.412      3.188      5.322
REMARK INTER + INTRA:          -9.637
REMARK INTER:                  -7.861
REMARK INTRA:                  -1.776
REMARK UNBOUND:                -2.001
REMARK SMILES CCCCCCCCCCCCCCO
REMARK SMILES IDX 8 1 7 2 6 3 5 4 4 5 3 6 2 7 1 8 9 9 10 10 11 11 12 12 13 13
REMARK SMILES IDX 14 14 15 15
REMARK H PARENT 15 16
REMARK Flexibility Score: inf
ROOT
ATOM      1  C   UNL     1      20.710  -1.605  23.386  1.00  0.00     0.000 C 
ENDROOT
BRANCH   1   2
ATOM      2  C   UNL     1      21.741  -0.530  22.999  1.00  0.00    -0.000 C 
BRANCH   2   3
ATOM      3  C   UNL     1      21.136   0.588  22.136  1.00  0.00    -0.000 C 
BRANCH   3   4
ATOM      4  C   UNL     1      20.634   0.075  20.775  1.00  0.00    -0.000 C 
BRANCH   4   5
ATOM      5  C   UNL     1      19.142   0.367  20.548  1.00  0.00    -0.000 C 
BRANCH   5   6
ATOM      6  C   UNL     1      18.377  -0.848  19.993  1.00  0.00    -0.000 C 
BRANCH   6   7
ATOM      7  C   UNL     1      17.523  -1.545  21.063  1.00  0.00    -0.003 C 
ATOM      8  C   UNL     1      16.988  -2.901  20.600  1.00  0.00     0.004 C 
ENDBRANCH   6   7
ENDBRANCH   5   6
ENDBRANCH   4   5
ENDBRANCH   3   4
ENDBRANCH   2   3
ENDBRANCH   1   2
BRANCH   1   9
ATOM      9  C   UNL     1      21.152  -3.025  22.990  1.00  0.00     0.000 C 
BRANCH   9  10
ATOM     10  C   UNL     1      20.400  -3.630  21.786  1.00  0.00     0.000 C 
BRANCH  10  11
ATOM     11  C   UNL     1      21.094  -3.450  20.423  1.00  0.00     0.000 C 
BRANCH  11  12
ATOM     12  C   UNL     1      20.305  -3.995  19.218  1.00  0.00     0.002 C 
BRANCH  12  13
ATOM     13  C   UNL     1      20.858  -3.530  17.852  1.00  0.00     0.028 C 
BRANCH  13  14
ATOM     14  C   UNL     1      21.885  -4.507  17.267  1.00  0.00     0.156 C 
BRANCH  14  15
ATOM     15  O   UNL     1      22.901  -3.802  16.608  1.00  0.00    -0.396 OA
ATOM     16  H   UNL     1      23.058  -2.974  17.133  1.00  0.00     0.210 HD
ENDBRANCH  14  15
ENDBRANCH  13  14
ENDBRANCH  12  13
ENDBRANCH  11  12
ENDBRANCH  10  11
ENDBRANCH   9  10
ENDBRANCH   1   9
TORSDOF 13
ENDMDL
MODEL 4
REMARK VINA RESULT:    -4.409      3.123      5.418
REMARK INTER + INTRA:          -9.633
REMARK INTER:                  -7.550
REMARK INTRA:                  -2.083
REMARK UNBOUND:                -2.001
REMARK SMILES CCCCCCCCCCCCCCO
REMARK SMILES IDX 8 1 7 2 6 3 5 4 4 5 3 6 2 7 1 8 9 9 10 10 11 11 12 12 13 13
REMARK SMILES IDX 14 14 15 15
REMARK H PARENT 15 16
REMARK Flexibility Score: inf
ROOT
ATOM      1  C   UNL     1      17.156  -2.283  20.942  1.00  0.00     0.000 C 
ENDROOT
BRANCH   1   2
ATOM      2  C   UNL     1      18.195  -1.155  21.067  1.00  0.00    -0.000 C 
BRANCH   2   3
ATOM      3  C   UNL     1      18.239  -0.248  19.827  1.00  0.00    -0.000 C 
BRANCH   3   4
ATOM      4  C   UNL     1      19.104  -0.837  18.698  1.00  0.00    -0.000 C 
BRANCH   4   5
ATOM      5  C   UNL     1      18.279  -1.207  17.456  1.00  0.00    -0.000 C 
BRANCH   5   6
ATOM      6  C   UNL     1      18.612  -2.612  16.920  1.00  0.00    -0.000 C 
BRANCH   6   7
ATOM      7  C   UNL     1      17.537  -3.649  17.279  1.00  0.00    -0.003 C 
ATOM      8  C   UNL     1      16.200  -3.008  17.651  1.00  0.00     0.004 C 
ENDBRANCH   6   7
ENDBRANCH   5   6
ENDBRANCH   4   5
ENDBRANCH   3   4
ENDBRANCH   2   3
ENDBRANCH   1   2
BRANCH   1   9
ATOM      9  C   UNL     1      17.795  -3.683  20.921  1.00  0.00     0.000 C 
BRANCH   9  10
ATOM     10  C   UNL     1      19.324  -3.704  21.136  1.00  0.00     0.000 C 
BRANCH  10  11
ATOM     11  C   UNL     1      20.147  -4.187  19.927  1.00  0.00     0.000 C 
BRANCH  11  12
ATOM     12  C   UNL     1      21.548  -3.558  19.805  1.00  0.00     0.002 C 
BRANCH  12  13
ATOM     13  C   UNL     1      21.781  -2.369  20.763  1.00  0.00     0.028 C 
BRANCH  13  14
ATOM     14  C   UNL     1      22.695  -2.729  21.941  1.00  0.00     0.156 C 
BRANCH  14  15
ATOM     15  O   UNL     1      24.038  -2.560  21.580  1.00  0.00    -0.396 OA
ATOM     16  H   UNL     1      24.361  -3.444  21.265  1.00  0.00     0.210 HD
ENDBRANCH  14  15
ENDBRANCH  13  14
ENDBRANCH  12  13
ENDBRANCH  11  12
ENDBRANCH  10  11
ENDBRANCH   9  10
ENDBRANCH   1   9
TORSDOF 13
ENDMDL
MODEL 5
REMARK VINA RESULT:    -4.408      1.406      2.964
REMARK INTER + INTRA:          -9.631
REMARK INTER:                  -7.867
REMARK INTRA:                  -1.764
REMARK UNBOUND:                -2.001
REMARK SMILES CCCCCCCCCCCCCCO
REMARK SMILES IDX 8 1 7 2 6 3 5 4 4 5 3 6 2 7 1 8 9 9 10 10 11 11 12 12 13 13
REMARK SMILES IDX 14 14 15 15
REMARK H PARENT 15 16
REMARK Flexibility Score: inf
ROOT
ATOM      1  C   UNL     1      17.195   0.289  19.278  1.00  0.00     0.000 C 
ENDROOT
BRANCH   1   2
ATOM      2  C   UNL     1      17.198  -0.533  17.977  1.00  0.00    -0.000 C 
BRANCH   2   3
ATOM      3  C   UNL     1      18.615  -0.908  17.516  1.00  0.00    -0.000 C 
BRANCH   3   4
ATOM      4  C   UNL     1      18.733  -2.392  17.124  1.00  0.00    -0.000 C 
BRANCH   4   5
ATOM      5  C   UNL     1      20.059  -3.019  17.582  1.00  0.00    -0.000 C 
BRANCH   5   6
ATOM      6  C   UNL     1      19.933  -4.525  17.879  1.00  0.00    -0.000 C 
BRANCH   6   7
ATOM      7  C   UNL     1      21.295  -5.194  18.114  1.00  0.00    -0.003 C 
ATOM      8  C   UNL     1      22.179  -5.189  16.867  1.00  0.00     0.004 C 
ENDBRANCH   6   7
ENDBRANCH   5   6
ENDBRANCH   4   5
ENDBRANCH   3   4
ENDBRANCH   2   3
ENDBRANCH   1   2
BRANCH   1   9
ATOM      9  C   UNL     1      18.374  -0.057  20.204  1.00  0.00     0.000 C 
BRANCH   9  10
ATOM     10  C   UNL     1      18.074  -1.134  21.268  1.00  0.00     0.000 C 
BRANCH  10  11
ATOM     11  C   UNL     1      18.871  -2.443  21.117  1.00  0.00     0.000 C 
BRANCH  11  12
ATOM     12  C   UNL     1      18.025  -3.680  20.759  1.00  0.00     0.002 C 
BRANCH  12  13
ATOM     13  C   UNL     1      16.571  -3.344  20.363  1.00  0.00     0.028 C 
BRANCH  13  14
ATOM     14  C   UNL     1      16.137  -4.035  19.064  1.00  0.00     0.156 C 
BRANCH  14  15
ATOM     15  O   UNL     1      15.049  -3.357  18.497  1.00  0.00    -0.396 OA
ATOM     16  H   UNL     1      14.808  -2.630  19.128  1.00  0.00     0.210 HD
ENDBRANCH  14  15
ENDBRANCH  13  14
ENDBRANCH  12  13
ENDBRANCH  11  12
ENDBRANCH  10  11
ENDBRANCH   9  10
ENDBRANCH   1   9
TORSDOF 13
ENDMDL
MODEL 6
REMARK VINA RESULT:    -4.398      1.417      2.353
REMARK INTER + INTRA:          -9.612
REMARK INTER:                  -7.722
REMARK INTRA:                  -1.890
REMARK UNBOUND:                -2.001
REMARK SMILES CCCCCCCCCCCCCCO
REMARK SMILES IDX 8 1 7 2 6 3 5 4 4 5 3 6 2 7 1 8 9 9 10 10 11 11 12 12 13 13
REMARK SMILES IDX 14 14 15 15
REMARK H PARENT 15 16
REMARK Flexibility Score: inf
ROOT
ATOM      1  C   UNL     1      17.119  -0.474  18.010  1.00  0.00     0.000 C 
ENDROOT
BRANCH   1   2
ATOM      2  C   UNL     1      17.379   0.191  19.373  1.00  0.00    -0.000 C 
BRANCH   2   3
ATOM      3  C   UNL     1      16.693  -0.547  20.533  1.00  0.00    -0.000 C 
BRANCH   3   4
ATOM      4  C   UNL     1      17.595  -1.623  21.163  1.00  0.00    -0.000 C 
BRANCH   4   5
ATOM      5  C   UNL     1      19.024  -1.120  21.417  1.00  0.00    -0.000 C 
BRANCH   5   6
ATOM      6  C   UNL     1      20.054  -2.263  21.480  1.00  0.00    -0.000 C 
BRANCH   6   7
ATOM      7  C   UNL     1      21.096  -2.178  20.355  1.00  0.00    -0.003 C 
ATOM      8  C   UNL     1      21.683  -3.543  19.990  1.00  0.00     0.004 C 
ENDBRANCH   6   7
ENDBRANCH   5   6
ENDBRANCH   4   5
ENDBRANCH   3   4
ENDBRANCH   2   3
ENDBRANCH   1   2
BRANCH   1   9
ATOM      9  C   UNL     1      18.330  -1.274  17.497  1.00  0.00     0.000 C 
BRANCH   9  10
ATOM     10  C   UNL     1      18.040  -2.754  17.166  1.00  0.00     0.000 C 
BRANCH  10  11
ATOM     11  C   UNL     1      18.543  -3.769  18.209  1.00  0.00     0.000 C 
BRANCH  11  12
ATOM     12  C   UNL     1      17.434  -4.536  18.954  1.00  0.00     0.002 C 
BRANCH  12  13
ATOM     13  C   UNL     1      16.010  -4.020  18.650  1.00  0.00     0.028 C 
BRANCH  13  14
ATOM     14  C   UNL     1      15.146  -5.060  17.925  1.00  0.00     0.156 C 
BRANCH  14  15
ATOM     15  O   UNL     1      14.086  -5.464  18.747  1.00  0.00    -0.396 OA
ATOM     16  H   UNL     1      14.492  -5.922  19.529  1.00  0.00     0.210 HD
ENDBRANCH  14  15
ENDBRANCH  13  14
ENDBRANCH  12  13
ENDBRANCH  11  12
ENDBRANCH  10  11
ENDBRANCH   9  10
ENDBRANCH   1   9
TORSDOF 13
ENDMDL
MODEL 7
REMARK VINA RESULT:    -4.376      3.932      6.703
REMARK INTER + INTRA:          -9.575
REMARK INTER:                  -7.643
REMARK INTRA:                  -1.931
REMARK UNBOUND:                -2.001
REMARK SMILES CCCCCCCCCCCCCCO
REMARK SMILES IDX 8 1 7 2 6 3 5 4 4 5 3 6 2 7 1 8 9 9 10 10 11 11 12 12 13 13
REMARK SMILES IDX 14 14 15 15
REMARK H PARENT 15 16
REMARK Flexibility Score: inf
ROOT
ATOM      1  C   UNL     1      21.069  -3.230  23.017  1.00  0.00     0.000 C 
ENDROOT
BRANCH   1   2
ATOM      2  C   UNL     1      20.363  -3.182  21.651  1.00  0.00    -0.000 C 
BRANCH   2   3
ATOM      3  C   UNL     1      21.350  -3.186  20.473  1.00  0.00    -0.000 C 
BRANCH   3   4
ATOM      4  C   UNL     1      20.686  -2.775  19.147  1.00  0.00    -0.000 C 
BRANCH   4   5
ATOM      5  C   UNL     1      20.444  -1.260  19.054  1.00  0.00    -0.000 C 
BRANCH   5   6
ATOM      6  C   UNL     1      18.990  -0.914  18.685  1.00  0.00    -0.000 C 
BRANCH   6   7
ATOM      7  C   UNL     1      18.161  -0.480  19.903  1.00  0.00    -0.003 C 
ATOM      8  C   UNL     1      17.280  -1.605  20.448  1.00  0.00     0.004 C 
ENDBRANCH   6   7
ENDBRANCH   5   6
ENDBRANCH   4   5
ENDBRANCH   3   4
ENDBRANCH   2   3
ENDBRANCH   1   2
BRANCH   1   9
ATOM      9  C   UNL     1      20.976  -1.898  23.783  1.00  0.00     0.000 C 
BRANCH   9  10
ATOM     10  C   UNL     1      20.090  -0.824  23.117  1.00  0.00     0.000 C 
BRANCH  10  11
ATOM     11  C   UNL     1      20.855   0.282  22.367  1.00  0.00     0.000 C 
BRANCH  11  12
ATOM     12  C   UNL     1      22.324   0.459  22.795  1.00  0.00     0.002 C 
BRANCH  12  13
ATOM     13  C   UNL     1      23.340  -0.090  21.769  1.00  0.00     0.028 C 
BRANCH  13  14
ATOM     14  C   UNL     1      24.439  -0.939  22.421  1.00  0.00     0.156 C 
BRANCH  14  15
ATOM     15  O   UNL     1      24.363  -2.261  21.962  1.00  0.00    -0.396 OA
ATOM     16  H   UNL     1      24.000  -2.801  22.712  1.00  0.00     0.210 HD
ENDBRANCH  14  15
ENDBRANCH  13  14
ENDBRANCH  12  13
ENDBRANCH  11  12
ENDBRANCH  10  11
ENDBRANCH   9  10
ENDBRANCH   1   9
TORSDOF 13
ENDMDL
MODEL 8
REMARK VINA RESULT:    -4.311      2.053      4.756
REMARK INTER + INTRA:          -9.462
REMARK INTER:                  -7.566
REMARK INTRA:                  -1.895
REMARK UNBOUND:                -2.001
REMARK SMILES CCCCCCCCCCCCCCO
REMARK SMILES IDX 8 1 7 2 6 3 5 4 4 5 3 6 2 7 1 8 9 9 10 10 11 11 12 12 13 13
REMARK SMILES IDX 14 14 15 15
REMARK H PARENT 15 16
REMARK Flexibility Score: inf
ROOT
ATOM      1  C   UNL     1      19.353  -3.749  21.234  1.00  0.00     0.000 C 
ENDROOT
BRANCH   1   2
ATOM      2  C   UNL     1      17.894  -3.735  20.745  1.00  0.00    -0.000 C 
BRANCH   2   3
ATOM      3  C   UNL     1      17.742  -4.281  19.317  1.00  0.00    -0.000 C 
BRANCH   3   4
ATOM      4  C   UNL     1      17.075  -3.269  18.368  1.00  0.00    -0.000 C 
BRANCH   4   5
ATOM      5  C   UNL     1      18.051  -2.709  17.322  1.00  0.00    -0.000 C 
BRANCH   5   6
ATOM      6  C   UNL     1      18.531  -1.286  17.661  1.00  0.00    -0.000 C 
BRANCH   6   7
ATOM      7  C   UNL     1      17.416  -0.415  18.259  1.00  0.00    -0.003 C 
ATOM      8  C   UNL     1      17.775   0.139  19.638  1.00  0.00     0.004 C 
ENDBRANCH   6   7
ENDBRANCH   5   6
ENDBRANCH   4   5
ENDBRANCH   3   4
ENDBRANCH   2   3
ENDBRANCH   1   2
BRANCH   1   9
ATOM      9  C   UNL     1      20.084  -2.421  20.967  1.00  0.00     0.000 C 
BRANCH   9  10
ATOM     10  C   UNL     1      21.287  -2.522  20.004  1.00  0.00     0.000 C 
BRANCH  10  11
ATOM     11  C   UNL     1      21.486  -3.900  19.348  1.00  0.00     0.000 C 
BRANCH  11  12
ATOM     12  C   UNL     1      21.209  -3.942  17.833  1.00  0.00     0.002 C 
BRANCH  12  13
ATOM     13  C   UNL     1      21.924  -5.101  17.103  1.00  0.00     0.028 C 
BRANCH  13  14
ATOM     14  C   UNL     1      21.035  -6.342  16.951  1.00  0.00     0.156 C 
BRANCH  14  15
ATOM     15  O   UNL     1      19.684  -5.970  16.948  1.00  0.00    -0.396 OA
ATOM     16  H   UNL     1      19.613  -5.165  16.372  1.00  0.00     0.210 HD
ENDBRANCH  14  15
ENDBRANCH  13  14
ENDBRANCH  12  13
ENDBRANCH  11  12
ENDBRANCH  10  11
ENDBRANCH   9  10
ENDBRANCH   1   9
TORSDOF 13
ENDMDL
MODEL 9
REMARK VINA RESULT:    -4.279      2.369      4.293
REMARK INTER + INTRA:          -9.407
REMARK INTER:                  -7.496
REMARK INTRA:                  -1.911
REMARK UNBOUND:                -2.001
REMARK SMILES CCCCCCCCCCCCCCO
REMARK SMILES IDX 8 1 7 2 6 3 5 4 4 5 3 6 2 7 1 8 9 9 10 10 11 11 12 12 13 13
REMARK SMILES IDX 14 14 15 15
REMARK H PARENT 15 16
REMARK Flexibility Score: inf
ROOT
ATOM      1  C   UNL     1      20.728  -3.206  20.473  1.00  0.00     0.000 C 
ENDROOT
BRANCH   1   2
ATOM      2  C   UNL     1      21.715  -3.338  21.646  1.00  0.00    -0.000 C 
BRANCH   2   3
ATOM      3  C   UNL     1      21.032  -3.200  23.015  1.00  0.00    -0.000 C 
BRANCH   3   4
ATOM      4  C   UNL     1      21.223  -1.803  23.631  1.00  0.00    -0.000 C 
BRANCH   4   5
ATOM      5  C   UNL     1      20.026  -0.876  23.375  1.00  0.00    -0.000 C 
BRANCH   5   6
ATOM      6  C   UNL     1      20.438   0.466  22.743  1.00  0.00    -0.000 C 
BRANCH   6   7
ATOM      7  C   UNL     1      21.858   0.429  22.157  1.00  0.00    -0.003 C 
ATOM      8  C   UNL     1      21.865   0.311  20.633  1.00  0.00     0.004 C 
ENDBRANCH   6   7
ENDBRANCH   5   6
ENDBRANCH   4   5
ENDBRANCH   3   4
ENDBRANCH   2   3
ENDBRANCH   1   2
BRANCH   1   9
ATOM      9  C   UNL     1      19.325  -3.741  20.812  1.00  0.00     0.000 C 
BRANCH   9  10
ATOM     10  C   UNL     1      18.191  -2.697  20.725  1.00  0.00     0.000 C 
BRANCH  10  11
ATOM     11  C   UNL     1      18.557  -1.393  19.991  1.00  0.00     0.000 C 
BRANCH  11  12
ATOM     12  C   UNL     1      17.423  -0.354  19.913  1.00  0.00     0.002 C 
BRANCH  12  13
ATOM     13  C   UNL     1      16.043  -0.907  20.335  1.00  0.00     0.028 C 
BRANCH  13  14
ATOM     14  C   UNL     1      15.097  -1.104  19.144  1.00  0.00     0.156 C 
BRANCH  14  15
ATOM     15  O   UNL     1      14.986  -2.467  18.837  1.00  0.00    -0.396 OA
ATOM     16  H   UNL     1      15.709  -2.930  19.334  1.00  0.00     0.210 HD
ENDBRANCH  14  15
ENDBRANCH  13  14
ENDBRANCH  12  13
ENDBRANCH  11  12
ENDBRANCH  10  11
ENDBRANCH   9  10
ENDBRANCH   1   9
TORSDOF 13
ENDMDL
