MODEL 1
REMARK VINA RESULT:    -4.219      0.000      0.000
REMARK INTER + INTRA:          -7.427
REMARK INTER:                  -6.685
REMARK INTRA:                  -0.742
REMARK UNBOUND:                -0.742
REMARK SMILES CCCCCCCCCCCC(=O)[O-]
REMARK SMILES IDX 7 1 8 2 9 3 10 4 11 5 12 6 13 7 14 8 6 9 5 10 4 11 3 12 2 13
REMARK SMILES IDX 1 14
REMARK H PARENT
REMARK Flexibility Score: inf
ROOT
ATOM      1  C   UNL     1     -16.463  -2.124  -3.367  1.00  0.00     0.000 C 
ENDROOT
BRANCH   1   2
ATOM      2  C   UNL     1     -16.181  -0.813  -2.611  1.00  0.00     0.000 C 
BRANCH   2   3
ATOM      3  C   UNL     1     -17.096  -0.620  -1.390  1.00  0.00     0.000 C 
BRANCH   3   4
ATOM      4  C   UNL     1     -16.344  -0.050  -0.175  1.00  0.00     0.006 C 
BRANCH   4   5
ATOM      5  C   UNL     1     -16.962  -0.487   1.160  1.00  0.00     0.053 C 
BRANCH   5   6
ATOM      6  C   UNL     1     -15.922  -0.501   2.235  1.00  0.00     0.041 C 
ATOM      7  O   UNL     1     -16.243  -0.758   3.425  1.00  0.00    -0.550 OA
ATOM      8  O   UNL     1     -14.589  -0.278   1.916  1.00  0.00    -0.550 OA
ENDBRANCH   5   6
ENDBRANCH   4   5
ENDBRANCH   3   4
ENDBRANCH   2   3
ENDBRANCH   1   2
BRANCH   1   9
ATOM      9  C   UNL     1     -16.852  -3.321  -2.476  1.00  0.00     0.000 C 
BRANCH   9  10
ATOM     10  C   UNL     1     -15.880  -4.517  -2.521  1.00  0.00    -0.000 C 
BRANCH  10  11
ATOM     11  C   UNL     1     -14.549  -4.301  -1.778  1.00  0.00    -0.000 C 
BRANCH  11  12
ATOM     12  C   UNL     1     -13.329  -4.737  -2.603  1.00  0.00    -0.000 C 
BRANCH  12  13
ATOM     13  C   UNL     1     -13.711  -4.964  -4.069  1.00  0.00    -0.003 C 
ATOM     14  C   UNL     1     -12.550  -4.629  -5.001  1.00  0.00     0.004 C 
ENDBRANCH  12  13
ENDBRANCH  11  12
ENDBRANCH  10  11
ENDBRANCH   9  10
ENDBRANCH   1   9
TORSDOF 10
ENDMDL
MODEL 2
REMARK VINA RESULT:    -3.955      0.866      1.478
REMARK INTER + INTRA:          -7.009
REMARK INTER:                  -6.311
REMARK INTRA:                  -0.699
REMARK UNBOUND:                -0.742
REMARK SMILES CCCCCCCCCCCC(=O)[O-]
REMARK SMILES IDX 7 1 8 2 9 3 10 4 11 5 12 6 13 7 14 8 6 9 5 10 4 11 3 12 2 13
REMARK SMILES IDX 1 14
REMARK H PARENT
REMARK Flexibility Score: inf
ROOT
ATOM      1  C   UNL     1     -16.388  -2.478  -2.299  1.00  0.00     0.000 C 
ENDROOT
BRANCH   1   2
ATOM      2  C   UNL     1     -16.904  -1.055  -2.583  1.00  0.00     0.000 C 
BRANCH   2   3
ATOM      3  C   UNL     1     -16.986  -0.187  -1.317  1.00  0.00     0.000 C 
BRANCH   3   4
ATOM      4  C   UNL     1     -16.511  -0.934  -0.059  1.00  0.00     0.006 C 
BRANCH   4   5
ATOM      5  C   UNL     1     -16.795  -0.155   1.233  1.00  0.00     0.053 C 
BRANCH   5   6
ATOM      6  C   UNL     1     -15.788  -0.504   2.283  1.00  0.00     0.041 C 
ATOM      7  O   UNL     1     -16.160  -1.012   3.374  1.00  0.00    -0.550 OA
ATOM      8  O   UNL     1     -14.434  -0.313   2.040  1.00  0.00    -0.550 OA
ENDBRANCH   5   6
ENDBRANCH   4   5
ENDBRANCH   3   4
ENDBRANCH   2   3
ENDBRANCH   1   2
BRANCH   1   9
ATOM      9  C   UNL     1     -17.125  -3.603  -3.052  1.00  0.00     0.000 C 
BRANCH   9  10
ATOM     10  C   UNL     1     -16.264  -4.396  -4.055  1.00  0.00    -0.000 C 
BRANCH  10  11
ATOM     11  C   UNL     1     -14.793  -3.950  -4.142  1.00  0.00    -0.000 C 
BRANCH  11  12
ATOM     12  C   UNL     1     -13.807  -5.124  -4.037  1.00  0.00    -0.000 C 
BRANCH  12  13
ATOM     13  C   UNL     1     -12.945  -5.004  -2.777  1.00  0.00    -0.003 C 
ATOM     14  C   UNL     1     -13.794  -5.117  -1.514  1.00  0.00     0.004 C 
ENDBRANCH  12  13
ENDBRANCH  11  12
ENDBRANCH  10  11
ENDBRANCH   9  10
ENDBRANCH   1   9
TORSDOF 10
ENDMDL
MODEL 3
REMARK VINA RESULT:    -3.784      1.504      2.685
REMARK INTER + INTRA:          -6.738
REMARK INTER:                  -6.176
REMARK INTRA:                  -0.561
REMARK UNBOUND:                -0.742
REMARK SMILES CCCCCCCCCCCC(=O)[O-]
REMARK SMILES IDX 7 1 8 2 9 3 10 4 11 5 12 6 13 7 14 8 6 9 5 10 4 11 3 12 2 13
REMARK SMILES IDX 1 14
REMARK H PARENT
REMARK Flexibility Score: inf
ROOT
ATOM      1  C   UNL     1     -15.059  -3.602  -1.510  1.00  0.00     0.000 C 
ENDROOT
BRANCH   1   2
ATOM      2  C   UNL     1     -16.215  -3.474  -2.520  1.00  0.00     0.000 C 
BRANCH   2   3
ATOM      3  C   UNL     1     -16.962  -2.135  -2.403  1.00  0.00     0.000 C 
BRANCH   3   4
ATOM      4  C   UNL     1     -16.737  -1.451  -1.044  1.00  0.00     0.006 C 
BRANCH   4   5
ATOM      5  C   UNL     1     -16.775   0.081  -1.139  1.00  0.00     0.053 C 
BRANCH   5   6
ATOM      6  C   UNL     1     -16.004   0.691  -0.012  1.00  0.00     0.041 C 
ATOM      7  O   UNL     1     -15.702   1.913  -0.039  1.00  0.00    -0.550 OA
ATOM      8  O   UNL     1     -15.660  -0.078   1.092  1.00  0.00    -0.550 OA
ENDBRANCH   5   6
ENDBRANCH   4   5
ENDBRANCH   3   4
ENDBRANCH   2   3
ENDBRANCH   1   2
BRANCH   1   9
ATOM      9  C   UNL     1     -14.009  -4.677  -1.852  1.00  0.00     0.000 C 
BRANCH   9  10
ATOM     10  C   UNL     1     -13.984  -5.125  -3.327  1.00  0.00    -0.000 C 
BRANCH  10  11
ATOM     11  C   UNL     1     -13.009  -4.344  -4.226  1.00  0.00    -0.000 C 
BRANCH  11  12
ATOM     12  C   UNL     1     -12.917  -4.921  -5.647  1.00  0.00    -0.000 C 
BRANCH  12  13
ATOM     13  C   UNL     1     -14.244  -4.753  -6.394  1.00  0.00    -0.003 C 
ATOM     14  C   UNL     1     -14.898  -3.414  -6.066  1.00  0.00     0.004 C 
ENDBRANCH  12  13
ENDBRANCH  11  12
ENDBRANCH  10  11
ENDBRANCH   9  10
ENDBRANCH   1   9
TORSDOF 10
ENDMDL
MODEL 4
REMARK VINA RESULT:    -3.489      3.576      6.776
REMARK INTER + INTRA:          -6.271
REMARK INTER:                  -5.669
REMARK INTRA:                  -0.601
REMARK UNBOUND:                -0.742
REMARK SMILES CCCCCCCCCCCC(=O)[O-]
REMARK SMILES IDX 7 1 8 2 9 3 10 4 11 5 12 6 13 7 14 8 6 9 5 10 4 11 3 12 2 13
REMARK SMILES IDX 1 14
REMARK H PARENT
REMARK Flexibility Score: inf
ROOT
ATOM      1  C   UNL     1     -16.773  -2.776  -2.217  1.00  0.00     0.000 C 
ENDROOT
BRANCH   1   2
ATOM      2  C   UNL     1     -17.087  -3.882  -3.242  1.00  0.00     0.000 C 
BRANCH   2   3
ATOM      3  C   UNL     1     -15.878  -4.787  -3.531  1.00  0.00     0.000 C 
BRANCH   3   4
ATOM      4  C   UNL     1     -14.545  -4.020  -3.493  1.00  0.00     0.006 C 
BRANCH   4   5
ATOM      5  C   UNL     1     -13.817  -4.032  -4.844  1.00  0.00     0.053 C 
BRANCH   5   6
ATOM      6  C   UNL     1     -14.719  -3.530  -5.926  1.00  0.00     0.041 C 
ATOM      7  O   UNL     1     -15.096  -2.329  -5.931  1.00  0.00    -0.550 OA
ATOM      8  O   UNL     1     -15.106  -4.376  -6.957  1.00  0.00    -0.550 OA
ENDBRANCH   5   6
ENDBRANCH   4   5
ENDBRANCH   3   4
ENDBRANCH   2   3
ENDBRANCH   1   2
BRANCH   1   9
ATOM      9  C   UNL     1     -16.938  -1.336  -2.740  1.00  0.00     0.000 C 
BRANCH   9  10
ATOM     10  C   UNL     1     -17.003  -0.246  -1.652  1.00  0.00    -0.000 C 
BRANCH  10  11
ATOM     11  C   UNL     1     -17.006  -0.771  -0.205  1.00  0.00    -0.000 C 
BRANCH  11  12
ATOM     12  C   UNL     1     -16.063   0.015   0.717  1.00  0.00    -0.000 C 
BRANCH  12  13
ATOM     13  C   UNL     1     -15.947  -0.660   2.087  1.00  0.00    -0.003 C 
ATOM     14  C   UNL     1     -16.714   0.118   3.153  1.00  0.00     0.004 C 
ENDBRANCH  12  13
ENDBRANCH  11  12
ENDBRANCH  10  11
ENDBRANCH   9  10
ENDBRANCH   1   9
TORSDOF 10
ENDMDL
MODEL 5
REMARK VINA RESULT:    -3.373      2.737      6.292
REMARK INTER + INTRA:          -6.087
REMARK INTER:                  -5.530
REMARK INTRA:                  -0.557
REMARK UNBOUND:                -0.742
REMARK SMILES CCCCCCCCCCCC(=O)[O-]
REMARK SMILES IDX 7 1 8 2 9 3 10 4 11 5 12 6 13 7 14 8 6 9 5 10 4 11 3 12 2 13
REMARK SMILES IDX 1 14
REMARK H PARENT
REMARK Flexibility Score: inf
ROOT
ATOM      1  C   UNL     1     -16.737  -0.259  -2.520  1.00  0.00     0.000 C 
ENDROOT
BRANCH   1   2
ATOM      2  C   UNL     1     -17.072  -1.690  -2.981  1.00  0.00     0.000 C 
BRANCH   2   3
ATOM      3  C   UNL     1     -16.539  -2.765  -2.020  1.00  0.00     0.000 C 
BRANCH   3   4
ATOM      4  C   UNL     1     -16.350  -4.128  -2.706  1.00  0.00     0.006 C 
BRANCH   4   5
ATOM      5  C   UNL     1     -15.201  -4.122  -3.725  1.00  0.00     0.053 C 
BRANCH   5   6
ATOM      6  C   UNL     1     -13.917  -4.511  -3.063  1.00  0.00     0.041 C 
ATOM      7  O   UNL     1     -13.833  -4.533  -1.807  1.00  0.00    -0.550 OA
ATOM      8  O   UNL     1     -12.827  -4.897  -3.832  1.00  0.00    -0.550 OA
ENDBRANCH   5   6
ENDBRANCH   4   5
ENDBRANCH   3   4
ENDBRANCH   2   3
ENDBRANCH   1   2
BRANCH   1   9
ATOM      9  C   UNL     1     -17.124   0.066  -1.065  1.00  0.00     0.000 C 
BRANCH   9  10
ATOM     10  C   UNL     1     -15.997   0.671  -0.204  1.00  0.00    -0.000 C 
BRANCH  10  11
ATOM     11  C   UNL     1     -15.743  -0.050   1.132  1.00  0.00    -0.000 C 
BRANCH  11  12
ATOM     12  C   UNL     1     -16.991  -0.765   1.671  1.00  0.00    -0.000 C 
BRANCH  12  13
ATOM     13  C   UNL     1     -17.027  -0.726   3.202  1.00  0.00    -0.003 C 
ATOM     14  C   UNL     1     -16.915   0.704   3.722  1.00  0.00     0.004 C 
ENDBRANCH  12  13
ENDBRANCH  11  12
ENDBRANCH  10  11
ENDBRANCH   9  10
ENDBRANCH   1   9
TORSDOF 10
ENDMDL
MODEL 6
REMARK VINA RESULT:    -2.974      2.681      5.882
REMARK INTER + INTRA:          -5.454
REMARK INTER:                  -4.715
REMARK INTRA:                  -0.739
REMARK UNBOUND:                -0.742
REMARK SMILES CCCCCCCCCCCC(=O)[O-]
REMARK SMILES IDX 7 1 8 2 9 3 10 4 11 5 12 6 13 7 14 8 6 9 5 10 4 11 3 12 2 13
REMARK SMILES IDX 1 14
REMARK H PARENT
REMARK Flexibility Score: inf
ROOT
ATOM      1  C   UNL     1     -15.651  -1.666  -3.797  1.00  0.00     0.000 C 
ENDROOT
BRANCH   1   2
ATOM      2  C   UNL     1     -15.271  -2.627  -4.939  1.00  0.00     0.000 C 
BRANCH   2   3
ATOM      3  C   UNL     1     -15.895  -4.022  -4.777  1.00  0.00     0.000 C 
BRANCH   3   4
ATOM      4  C   UNL     1     -14.840  -5.115  -4.533  1.00  0.00     0.006 C 
BRANCH   4   5
ATOM      5  C   UNL     1     -13.620  -4.597  -3.759  1.00  0.00     0.053 C 
BRANCH   5   6
ATOM      6  C   UNL     1     -13.744  -4.933  -2.307  1.00  0.00     0.041 C 
ATOM      7  O   UNL     1     -12.717  -4.999  -1.582  1.00  0.00    -0.550 OA
ATOM      8  O   UNL     1     -14.998  -5.125  -1.742  1.00  0.00    -0.550 OA
ENDBRANCH   5   6
ENDBRANCH   4   5
ENDBRANCH   3   4
ENDBRANCH   2   3
ENDBRANCH   1   2
BRANCH   1   9
ATOM      9  C   UNL     1     -16.747  -2.185  -2.846  1.00  0.00     0.000 C 
BRANCH   9  10
ATOM     10  C   UNL     1     -16.471  -1.968  -1.345  1.00  0.00    -0.000 C 
BRANCH  10  11
ATOM     11  C   UNL     1     -17.097  -0.695  -0.746  1.00  0.00    -0.000 C 
BRANCH  11  12
ATOM     12  C   UNL     1     -16.082   0.162   0.025  1.00  0.00    -0.000 C 
BRANCH  12  13
ATOM     13  C   UNL     1     -15.687  -0.510   1.344  1.00  0.00    -0.003 C 
ATOM     14  C   UNL     1     -16.789  -0.366   2.389  1.00  0.00     0.004 C 
ENDBRANCH  12  13
ENDBRANCH  11  12
ENDBRANCH  10  11
ENDBRANCH   9  10
ENDBRANCH   1   9
TORSDOF 10
ENDMDL
MODEL 7
REMARK VINA RESULT:    -2.669      4.618      7.402
REMARK INTER + INTRA:          -4.971
REMARK INTER:                  -4.497
REMARK INTRA:                  -0.473
REMARK UNBOUND:                -0.742
REMARK SMILES CCCCCCCCCCCC(=O)[O-]
REMARK SMILES IDX 7 1 8 2 9 3 10 4 11 5 12 6 13 7 14 8 6 9 5 10 4 11 3 12 2 13
REMARK SMILES IDX 1 14
REMARK H PARENT
REMARK Flexibility Score: inf
ROOT
ATOM      1  C   UNL     1     -15.312  -2.066  -4.148  1.00  0.00     0.000 C 
ENDROOT
BRANCH   1   2
ATOM      2  C   UNL     1     -14.572  -3.416  -4.111  1.00  0.00     0.000 C 
BRANCH   2   3
ATOM      3  C   UNL     1     -15.524  -4.620  -4.211  1.00  0.00     0.000 C 
BRANCH   3   4
ATOM      4  C   UNL     1     -15.983  -4.890  -5.654  1.00  0.00     0.006 C 
BRANCH   4   5
ATOM      5  C   UNL     1     -14.807  -5.037  -6.630  1.00  0.00     0.053 C 
BRANCH   5   6
ATOM      6  C   UNL     1     -15.166  -4.468  -7.966  1.00  0.00     0.041 C 
ATOM      7  O   UNL     1     -14.503  -4.785  -8.989  1.00  0.00    -0.550 OA
ATOM      8  O   UNL     1     -16.263  -3.625  -8.091  1.00  0.00    -0.550 OA
ENDBRANCH   5   6
ENDBRANCH   4   5
ENDBRANCH   3   4
ENDBRANCH   2   3
ENDBRANCH   1   2
BRANCH   1   9
ATOM      9  C   UNL     1     -16.720  -2.075  -3.522  1.00  0.00     0.000 C 
BRANCH   9  10
ATOM     10  C   UNL     1     -16.757  -2.251  -1.991  1.00  0.00    -0.000 C 
BRANCH  10  11
ATOM     11  C   UNL     1     -17.124  -0.982  -1.200  1.00  0.00    -0.000 C 
BRANCH  11  12
ATOM     12  C   UNL     1     -16.598  -1.007   0.242  1.00  0.00    -0.000 C 
BRANCH  12  13
ATOM     13  C   UNL     1     -15.654   0.171   0.501  1.00  0.00    -0.003 C 
ATOM     14  C   UNL     1     -16.000   1.364  -0.386  1.00  0.00     0.004 C 
ENDBRANCH  12  13
ENDBRANCH  11  12
ENDBRANCH  10  11
ENDBRANCH   9  10
ENDBRANCH   1   9
TORSDOF 10
ENDMDL
MODEL 8
REMARK VINA RESULT:    -2.484      3.566      6.827
REMARK INTER + INTRA:          -4.678
REMARK INTER:                  -4.162
REMARK INTRA:                  -0.516
REMARK UNBOUND:                -0.742
REMARK SMILES CCCCCCCCCCCC(=O)[O-]
REMARK SMILES IDX 7 1 8 2 9 3 10 4 11 5 12 6 13 7 14 8 6 9 5 10 4 11 3 12 2 13
REMARK SMILES IDX 1 14
REMARK H PARENT
REMARK Flexibility Score: inf
ROOT
ATOM      1  C   UNL     1     -16.287  -2.680  -4.247  1.00  0.00     0.000 C 
ENDROOT
BRANCH   1   2
ATOM      2  C   UNL     1     -17.125  -3.530  -5.220  1.00  0.00     0.000 C 
BRANCH   2   3
ATOM      3  C   UNL     1     -16.278  -4.546  -6.004  1.00  0.00     0.000 C 
BRANCH   3   4
ATOM      4  C   UNL     1     -14.924  -3.966  -6.448  1.00  0.00     0.006 C 
BRANCH   4   5
ATOM      5  C   UNL     1     -13.818  -5.029  -6.510  1.00  0.00     0.053 C 
BRANCH   5   6
ATOM      6  C   UNL     1     -12.903  -4.896  -5.334  1.00  0.00     0.041 C 
ATOM      7  O   UNL     1     -11.668  -4.726  -5.507  1.00  0.00    -0.550 OA
ATOM      8  O   UNL     1     -13.421  -4.913  -4.045  1.00  0.00    -0.550 OA
ENDBRANCH   5   6
ENDBRANCH   4   5
ENDBRANCH   3   4
ENDBRANCH   2   3
ENDBRANCH   1   2
BRANCH   1   9
ATOM      9  C   UNL     1     -17.103  -1.854  -3.233  1.00  0.00     0.000 C 
BRANCH   9  10
ATOM     10  C   UNL     1     -17.125  -2.413  -1.796  1.00  0.00    -0.000 C 
BRANCH  10  11
ATOM     11  C   UNL     1     -16.502  -1.492  -0.732  1.00  0.00    -0.000 C 
BRANCH  11  12
ATOM     12  C   UNL     1     -16.629  -0.002  -1.084  1.00  0.00    -0.000 C 
BRANCH  12  13
ATOM     13  C   UNL     1     -16.017   0.875   0.013  1.00  0.00    -0.003 C 
ATOM     14  C   UNL     1     -16.243   0.269   1.395  1.00  0.00     0.004 C 
ENDBRANCH  12  13
ENDBRANCH  11  12
ENDBRANCH  10  11
ENDBRANCH   9  10
ENDBRANCH   1   9
TORSDOF 10
ENDMDL
