MODEL 1
REMARK VINA RESULT:    -3.553      0.000      0.000
REMARK INTER + INTRA:          -3.553
REMARK INTER:                  -3.553
REMARK INTRA:                   0.000
REMARK UNBOUND:                 0.000
REMARK SMILES C=C1CCC[C@]2(C)CC(=O)C(=C(C)C)C[C@H]12
REMARK SMILES IDX 13 1 12 2 11 3 15 4 16 5 2 6 1 7 3 8 4 9 5 10 6 11 8 12 9 13
REMARK SMILES IDX 10 14 7 15 14 16
REMARK H PARENT
REMARK Flexibility Score: inf
ROOT
ATOM      1  C   UNL     1      24.870 -11.831   1.875  1.00  0.00     0.039 C 
ATOM      2  C   UNL     1      25.551 -11.089   3.002  1.00  0.00    -0.070 C 
ATOM      3  C   UNL     1      25.256 -11.345   4.308  1.00  0.00    -0.006 C 
ATOM      4  C   UNL     1      26.021 -10.684   5.439  1.00  0.00     0.047 C 
ATOM      5  C   UNL     1      25.208 -10.721   6.750  1.00  0.00     0.025 C 
ATOM      6  C   UNL     1      25.921  -9.921   7.829  1.00  0.00    -0.073 C 
ATOM      7  C   UNL     1      25.640  -8.620   8.008  1.00  0.00     0.008 C 
ATOM      8  C   UNL     1      27.056 -10.560   8.589  1.00  0.00     0.031 C 
ATOM      9  C   UNL     1      26.645 -11.938   9.100  1.00  0.00     0.005 C 
ATOM     10  C   UNL     1      26.106 -12.814   7.962  1.00  0.00     0.008 C 
ATOM     11  C   UNL     1      24.885 -12.190   7.215  1.00  0.00    -0.018 C 
ATOM     12  C   UNL     1      24.522 -13.125   6.004  1.00  0.00     0.088 C 
ATOM     13  C   UNL     1      24.274 -12.378   4.726  1.00  0.00     0.159 C 
ATOM     14  O   UNL     1      23.243 -12.628   4.046  1.00  0.00    -0.295 OA
ATOM     15  C   UNL     1      23.664 -12.143   8.169  1.00  0.00     0.012 C 
ATOM     16  C   UNL     1      26.615 -10.081   2.631  1.00  0.00     0.039 C 
ENDROOT
TORSDOF 0
ENDMDL
MODEL 2
REMARK VINA RESULT:    -1.410      2.085      5.398
REMARK INTER + INTRA:          -1.410
REMARK INTER:                  -1.410
REMARK INTRA:                   0.000
REMARK UNBOUND:                 0.000
REMARK SMILES C=C1CCC[C@]2(C)CC(=O)C(=C(C)C)C[C@H]12
REMARK SMILES IDX 13 1 12 2 11 3 15 4 16 5 2 6 1 7 3 8 4 9 5 10 6 11 8 12 9 13
REMARK SMILES IDX 10 14 7 15 14 16
REMARK H PARENT
REMARK Flexibility Score: inf
ROOT
ATOM      1  C   UNL     1      24.887  -9.755   8.406  1.00  0.00     0.039 C 
ATOM      2  C   UNL     1      24.299 -10.544   7.259  1.00  0.00    -0.070 C 
ATOM      3  C   UNL     1      24.897 -10.579   6.035  1.00  0.00    -0.006 C 
ATOM      4  C   UNL     1      24.371 -11.464   4.920  1.00  0.00     0.047 C 
ATOM      5  C   UNL     1      24.865 -10.969   3.544  1.00  0.00     0.025 C 
ATOM      6  C   UNL     1      24.205 -11.770   2.433  1.00  0.00    -0.073 C 
ATOM      7  C   UNL     1      23.060 -11.343   1.875  1.00  0.00     0.008 C 
ATOM      8  C   UNL     1      24.760 -13.125   2.074  1.00  0.00     0.031 C 
ATOM      9  C   UNL     1      26.272 -13.044   1.878  1.00  0.00     0.005 C 
ATOM     10  C   UNL     1      26.956 -12.409   3.094  1.00  0.00     0.008 C 
ATOM     11  C   UNL     1      26.435 -10.977   3.430  1.00  0.00    -0.018 C 
ATOM     12  C   UNL     1      27.124 -10.504   4.763  1.00  0.00     0.088 C 
ATOM     13  C   UNL     1      26.172  -9.878   5.738  1.00  0.00     0.159 C 
ATOM     14  O   UNL     1      26.461  -8.773   6.272  1.00  0.00    -0.295 OA
ATOM     15  C   UNL     1      26.848  -9.998   2.302  1.00  0.00     0.012 C 
ATOM     16  C   UNL     1      23.042 -11.340   7.531  1.00  0.00     0.039 C 
ENDROOT
TORSDOF 0
ENDMDL
MODEL 3
REMARK VINA RESULT:    -1.264      1.957      4.960
REMARK INTER + INTRA:          -1.264
REMARK INTER:                  -1.264
REMARK INTRA:                   0.000
REMARK UNBOUND:                 0.000
REMARK SMILES C=C1CCC[C@]2(C)CC(=O)C(=C(C)C)C[C@H]12
REMARK SMILES IDX 13 1 12 2 11 3 15 4 16 5 2 6 1 7 3 8 4 9 5 10 6 11 8 12 9 13
REMARK SMILES IDX 10 14 7 15 14 16
REMARK H PARENT
REMARK Flexibility Score: inf
ROOT
ATOM      1  C   UNL     1      26.237  -9.491   8.998  1.00  0.00     0.039 C 
ATOM      2  C   UNL     1      25.999  -9.108   7.555  1.00  0.00    -0.070 C 
ATOM      3  C   UNL     1      26.065 -10.028   6.551  1.00  0.00    -0.006 C 
ATOM      4  C   UNL     1      25.712  -9.669   5.121  1.00  0.00     0.047 C 
ATOM      5  C   UNL     1      26.333 -10.675   4.130  1.00  0.00     0.025 C 
ATOM      6  C   UNL     1      26.098 -10.213   2.699  1.00  0.00    -0.073 C 
ATOM      7  C   UNL     1      27.008  -9.447   2.076  1.00  0.00     0.008 C 
ATOM      8  C   UNL     1      24.768 -10.489   2.047  1.00  0.00     0.031 C 
ATOM      9  C   UNL     1      24.381 -11.955   2.227  1.00  0.00     0.005 C 
ATOM     10  C   UNL     1      24.431 -12.364   3.704  1.00  0.00     0.008 C 
ATOM     11  C   UNL     1      25.826 -12.146   4.369  1.00  0.00    -0.018 C 
ATOM     12  C   UNL     1      25.698 -12.483   5.900  1.00  0.00     0.088 C 
ATOM     13  C   UNL     1      26.348 -11.466   6.792  1.00  0.00     0.159 C 
ATOM     14  O   UNL     1      27.125 -11.846   7.709  1.00  0.00    -0.295 OA
ATOM     15  C   UNL     1      26.855 -13.125   3.746  1.00  0.00     0.012 C 
ATOM     16  C   UNL     1      25.630  -7.671   7.266  1.00  0.00     0.039 C 
ENDROOT
TORSDOF 0
ENDMDL
MODEL 4
REMARK VINA RESULT:    -0.584      1.930      5.355
REMARK INTER + INTRA:          -0.584
REMARK INTER:                  -0.584
REMARK INTRA:                   0.000
REMARK UNBOUND:                 0.000
REMARK SMILES C=C1CCC[C@]2(C)CC(=O)C(=C(C)C)C[C@H]12
REMARK SMILES IDX 13 1 12 2 11 3 15 4 16 5 2 6 1 7 3 8 4 9 5 10 6 11 8 12 9 13
REMARK SMILES IDX 10 14 7 15 14 16
REMARK H PARENT
REMARK Flexibility Score: inf
ROOT
ATOM      1  C   UNL     1      26.263 -10.527   9.132  1.00  0.00     0.039 C 
ATOM      2  C   UNL     1      25.652 -11.406   8.065  1.00  0.00    -0.070 C 
ATOM      3  C   UNL     1      25.728 -11.083   6.742  1.00  0.00    -0.006 C 
ATOM      4  C   UNL     1      25.218 -12.023   5.666  1.00  0.00     0.047 C 
ATOM      5  C   UNL     1      24.946 -11.259   4.352  1.00  0.00     0.025 C 
ATOM      6  C   UNL     1      24.292 -12.184   3.337  1.00  0.00    -0.073 C 
ATOM      7  C   UNL     1      22.954 -12.264   3.254  1.00  0.00     0.008 C 
ATOM      8  C   UNL     1      25.156 -13.125   2.537  1.00  0.00     0.031 C 
ATOM      9  C   UNL     1      26.335 -12.373   1.925  1.00  0.00     0.005 C 
ATOM     10  C   UNL     1      27.111 -11.594   2.993  1.00  0.00     0.008 C 
ATOM     11  C   UNL     1      26.238 -10.567   3.780  1.00  0.00    -0.018 C 
ATOM     12  C   UNL     1      27.124  -9.940   4.918  1.00  0.00     0.088 C 
ATOM     13  C   UNL     1      26.429  -9.872   6.246  1.00  0.00     0.159 C 
ATOM     14  O   UNL     1      26.441  -8.796   6.903  1.00  0.00    -0.295 OA
ATOM     15  C   UNL     1      25.799  -9.425   2.828  1.00  0.00     0.012 C 
ATOM     16  C   UNL     1      24.994 -12.692   8.512  1.00  0.00     0.039 C 
ENDROOT
TORSDOF 0
ENDMDL
