MODEL 1
REMARK VINA RESULT:    -3.134      0.000      0.000
REMARK INTER + INTRA:          -9.196
REMARK INTER:                  -6.065
REMARK INTRA:                  -3.131
REMARK UNBOUND:                -3.131
REMARK SMILES CCCCCCCCCCCCCCCCCC(=O)[O-]
REMARK SMILES IDX 10 1 11 2 12 3 13 4 14 5 15 6 16 7 17 8 18 9 19 10 20 11
REMARK SMILES IDX 9 12 8 13 7 14 6 15 5 16 4 17 3 18 2 19 1 20
REMARK H PARENT
REMARK Flexibility Score: inf
ROOT
ATOM      1  C   UNL     1      -9.114  -0.208 -24.388  1.00  0.00     0.000 C 
ENDROOT
BRANCH   1   2
ATOM      2  C   UNL     1      -8.369  -1.490 -23.976  1.00  0.00     0.000 C 
BRANCH   2   3
ATOM      3  C   UNL     1      -7.183  -1.279 -23.013  1.00  0.00     0.000 C 
BRANCH   3   4
ATOM      4  C   UNL     1      -6.061  -2.331 -23.115  1.00  0.00     0.000 C 
BRANCH   4   5
ATOM      5  C   UNL     1      -5.475  -2.518 -24.526  1.00  0.00     0.000 C 
BRANCH   5   6
ATOM      6  C   UNL     1      -5.513  -3.981 -24.997  1.00  0.00     0.000 C 
BRANCH   6   7
ATOM      7  C   UNL     1      -6.570  -4.227 -26.088  1.00  0.00     0.006 C 
BRANCH   7   8
ATOM      8  C   UNL     1      -7.923  -4.723 -25.556  1.00  0.00     0.053 C 
BRANCH   8   9
ATOM      9  C   UNL     1      -8.260  -6.090 -26.065  1.00  0.00     0.041 C 
ATOM     10  O   UNL     1      -9.141  -6.238 -26.953  1.00  0.00    -0.550 OA
ATOM     11  O   UNL     1      -7.623  -7.205 -25.536  1.00  0.00    -0.550 OA
ENDBRANCH   8   9
ENDBRANCH   7   8
ENDBRANCH   6   7
ENDBRANCH   5   6
ENDBRANCH   4   5
ENDBRANCH   3   4
ENDBRANCH   2   3
ENDBRANCH   1   2
BRANCH   1  12
ATOM     12  C   UNL     1      -9.145  -0.001 -25.912  1.00  0.00     0.000 C 
BRANCH  12  13
ATOM     13  C   UNL     1      -8.302  -1.043 -26.666  1.00  0.00    -0.000 C 
BRANCH  13  14
ATOM     14  C   UNL     1      -7.018  -0.446 -27.273  1.00  0.00    -0.000 C 
BRANCH  14  15
ATOM     15  C   UNL     1      -6.569   0.831 -26.532  1.00  0.00    -0.000 C 
BRANCH  15  16
ATOM     16  C   UNL     1      -5.134   0.754 -25.981  1.00  0.00    -0.000 C 
BRANCH  16  17
ATOM     17  C   UNL     1      -5.010   1.329 -24.561  1.00  0.00    -0.000 C 
BRANCH  17  18
ATOM     18  C   UNL     1      -6.235   2.162 -24.141  1.00  0.00    -0.000 C 
BRANCH  18  19
ATOM     19  C   UNL     1      -6.337   2.457 -22.633  1.00  0.00    -0.003 C 
ATOM     20  C   UNL     1      -5.316   1.682 -21.800  1.00  0.00     0.004 C 
ENDBRANCH  18  19
ENDBRANCH  17  18
ENDBRANCH  16  17
ENDBRANCH  15  16
ENDBRANCH  14  15
ENDBRANCH  13  14
ENDBRANCH  12  13
ENDBRANCH   1  12
TORSDOF 16
ENDMDL
MODEL 2
REMARK VINA RESULT:    -2.971      3.323      6.596
REMARK INTER + INTRA:          -8.881
REMARK INTER:                  -6.147
REMARK INTRA:                  -2.734
REMARK UNBOUND:                -3.131
REMARK SMILES CCCCCCCCCCCCCCCCCC(=O)[O-]
REMARK SMILES IDX 10 1 11 2 12 3 13 4 14 5 15 6 16 7 17 8 18 9 19 10 20 11
REMARK SMILES IDX 9 12 8 13 7 14 6 15 5 16 4 17 3 18 2 19 1 20
REMARK H PARENT
REMARK Flexibility Score: inf
ROOT
ATOM      1  C   UNL     1      -8.471  -1.279 -23.768  1.00  0.00     0.000 C 
ENDROOT
BRANCH   1   2
ATOM      2  C   UNL     1      -8.958  -0.199 -24.750  1.00  0.00     0.000 C 
BRANCH   2   3
ATOM      3  C   UNL     1      -8.468  -0.365 -26.203  1.00  0.00     0.000 C 
BRANCH   3   4
ATOM      4  C   UNL     1      -7.469   0.707 -26.684  1.00  0.00     0.000 C 
BRANCH   4   5
ATOM      5  C   UNL     1      -6.024   0.209 -26.866  1.00  0.00     0.000 C 
BRANCH   5   6
ATOM      6  C   UNL     1      -5.037   0.880 -25.896  1.00  0.00     0.000 C 
BRANCH   6   7
ATOM      7  C   UNL     1      -5.426   2.331 -25.562  1.00  0.00     0.006 C 
BRANCH   7   8
ATOM      8  C   UNL     1      -5.191   2.726 -24.096  1.00  0.00     0.053 C 
BRANCH   8   9
ATOM      9  C   UNL     1      -6.470   2.791 -23.320  1.00  0.00     0.041 C 
ATOM     10  O   UNL     1      -7.574   2.857 -23.921  1.00  0.00    -0.550 OA
ATOM     11  O   UNL     1      -6.440   2.811 -21.931  1.00  0.00    -0.550 OA
ENDBRANCH   8   9
ENDBRANCH   7   8
ENDBRANCH   6   7
ENDBRANCH   5   6
ENDBRANCH   4   5
ENDBRANCH   3   4
ENDBRANCH   2   3
ENDBRANCH   1   2
BRANCH   1  12
ATOM     12  C   UNL     1      -7.128  -0.923 -23.109  1.00  0.00     0.000 C 
BRANCH  12  13
ATOM     13  C   UNL     1      -6.170  -2.124 -23.034  1.00  0.00    -0.000 C 
BRANCH  13  14
ATOM     14  C   UNL     1      -5.404  -2.360 -24.349  1.00  0.00    -0.000 C 
BRANCH  14  15
ATOM     15  C   UNL     1      -5.651  -3.774 -24.916  1.00  0.00    -0.000 C 
BRANCH  15  16
ATOM     16  C   UNL     1      -6.195  -3.776 -26.355  1.00  0.00    -0.000 C 
BRANCH  16  17
ATOM     17  C   UNL     1      -7.731  -3.829 -26.411  1.00  0.00    -0.000 C 
BRANCH  17  18
ATOM     18  C   UNL     1      -8.323  -4.985 -25.585  1.00  0.00    -0.000 C 
BRANCH  18  19
ATOM     19  C   UNL     1      -8.317  -6.356 -26.285  1.00  0.00    -0.003 C 
ATOM     20  C   UNL     1      -7.248  -7.304 -25.741  1.00  0.00     0.004 C 
ENDBRANCH  18  19
ENDBRANCH  17  18
ENDBRANCH  16  17
ENDBRANCH  15  16
ENDBRANCH  14  15
ENDBRANCH  13  14
ENDBRANCH  12  13
ENDBRANCH   1  12
TORSDOF 16
ENDMDL
MODEL 3
REMARK VINA RESULT:    -2.893      1.260      3.415
REMARK INTER + INTRA:          -8.729
REMARK INTER:                  -6.327
REMARK INTRA:                  -2.403
REMARK UNBOUND:                -3.131
REMARK SMILES CCCCCCCCCCCCCCCCCC(=O)[O-]
REMARK SMILES IDX 10 1 11 2 12 3 13 4 14 5 15 6 16 7 17 8 18 9 19 10 20 11
REMARK SMILES IDX 9 12 8 13 7 14 6 15 5 16 4 17 3 18 2 19 1 20
REMARK H PARENT
REMARK Flexibility Score: inf
ROOT
ATOM      1  C   UNL     1      -5.566   0.426 -22.643  1.00  0.00     0.000 C 
ENDROOT
BRANCH   1   2
ATOM      2  C   UNL     1      -6.749  -0.558 -22.670  1.00  0.00     0.000 C 
BRANCH   2   3
ATOM      3  C   UNL     1      -6.391  -2.003 -23.069  1.00  0.00     0.000 C 
BRANCH   3   4
ATOM      4  C   UNL     1      -7.431  -2.716 -23.957  1.00  0.00     0.000 C 
BRANCH   4   5
ATOM      5  C   UNL     1      -7.121  -2.690 -25.464  1.00  0.00     0.000 C 
BRANCH   5   6
ATOM      6  C   UNL     1      -8.330  -3.091 -26.327  1.00  0.00     0.000 C 
BRANCH   6   7
ATOM      7  C   UNL     1      -8.092  -4.392 -27.114  1.00  0.00     0.006 C 
BRANCH   7   8
ATOM      8  C   UNL     1      -7.166  -5.395 -26.408  1.00  0.00     0.053 C 
BRANCH   8   9
ATOM      9  C   UNL     1      -7.922  -6.562 -25.852  1.00  0.00     0.041 C 
ATOM     10  O   UNL     1      -7.315  -7.620 -25.537  1.00  0.00    -0.550 OA
ATOM     11  O   UNL     1      -9.302  -6.493 -25.710  1.00  0.00    -0.550 OA
ENDBRANCH   8   9
ENDBRANCH   7   8
ENDBRANCH   6   7
ENDBRANCH   5   6
ENDBRANCH   4   5
ENDBRANCH   3   4
ENDBRANCH   2   3
ENDBRANCH   1   2
BRANCH   1  12
ATOM     12  C   UNL     1      -5.979   1.842 -22.209  1.00  0.00     0.000 C 
BRANCH  12  13
ATOM     13  C   UNL     1      -6.097   2.813 -23.396  1.00  0.00    -0.000 C 
BRANCH  13  14
ATOM     14  C   UNL     1      -5.076   2.520 -24.511  1.00  0.00    -0.000 C 
BRANCH  14  15
ATOM     15  C   UNL     1      -5.758   2.320 -25.881  1.00  0.00    -0.000 C 
BRANCH  15  16
ATOM     16  C   UNL     1      -6.302   0.898 -26.100  1.00  0.00    -0.000 C 
BRANCH  16  17
ATOM     17  C   UNL     1      -7.808   0.877 -26.410  1.00  0.00    -0.000 C 
BRANCH  17  18
ATOM     18  C   UNL     1      -8.682   1.013 -25.149  1.00  0.00    -0.000 C 
BRANCH  18  19
ATOM     19  C   UNL     1      -9.786  -0.050 -25.004  1.00  0.00    -0.003 C 
ATOM     20  C   UNL     1     -10.771  -0.056 -26.173  1.00  0.00     0.004 C 
ENDBRANCH  18  19
ENDBRANCH  17  18
ENDBRANCH  16  17
ENDBRANCH  15  16
ENDBRANCH  14  15
ENDBRANCH  13  14
ENDBRANCH  12  13
ENDBRANCH   1  12
TORSDOF 16
ENDMDL
MODEL 4
REMARK VINA RESULT:    -2.838      1.990      4.226
REMARK INTER + INTRA:          -8.623
REMARK INTER:                  -6.389
REMARK INTRA:                  -2.235
REMARK UNBOUND:                -3.131
REMARK SMILES CCCCCCCCCCCCCCCCCC(=O)[O-]
REMARK SMILES IDX 10 1 11 2 12 3 13 4 14 5 15 6 16 7 17 8 18 9 19 10 20 11
REMARK SMILES IDX 9 12 8 13 7 14 6 15 5 16 4 17 3 18 2 19 1 20
REMARK H PARENT
REMARK Flexibility Score: inf
ROOT
ATOM      1  C   UNL     1      -4.901  -2.454 -26.045  1.00  0.00     0.000 C 
ENDROOT
BRANCH   1   2
ATOM      2  C   UNL     1      -5.903  -2.912 -27.120  1.00  0.00     0.000 C 
BRANCH   2   3
ATOM      3  C   UNL     1      -7.366  -2.492 -26.875  1.00  0.00     0.000 C 
BRANCH   3   4
ATOM      4  C   UNL     1      -8.377  -3.653 -26.792  1.00  0.00     0.000 C 
BRANCH   4   5
ATOM      5  C   UNL     1      -8.317  -4.471 -25.490  1.00  0.00     0.000 C 
BRANCH   5   6
ATOM      6  C   UNL     1      -7.654  -5.846 -25.681  1.00  0.00     0.000 C 
BRANCH   6   7
ATOM      7  C   UNL     1      -8.527  -6.819 -26.493  1.00  0.00     0.006 C 
BRANCH   7   8
ATOM      8  C   UNL     1      -8.443  -8.281 -26.027  1.00  0.00     0.053 C 
BRANCH   8   9
ATOM      9  C   UNL     1      -9.790  -8.934 -25.982  1.00  0.00     0.041 C 
ATOM     10  O   UNL     1     -10.617  -8.750 -26.913  1.00  0.00    -0.550 OA
ATOM     11  O   UNL     1     -10.144  -9.722 -24.894  1.00  0.00    -0.550 OA
ENDBRANCH   8   9
ENDBRANCH   7   8
ENDBRANCH   6   7
ENDBRANCH   5   6
ENDBRANCH   4   5
ENDBRANCH   3   4
ENDBRANCH   2   3
ENDBRANCH   1   2
BRANCH   1  12
ATOM     12  C   UNL     1      -4.977  -3.299 -24.762  1.00  0.00     0.000 C 
BRANCH  12  13
ATOM     13  C   UNL     1      -5.231  -2.447 -23.508  1.00  0.00    -0.000 C 
BRANCH  13  14
ATOM     14  C   UNL     1      -6.727  -2.164 -23.272  1.00  0.00    -0.000 C 
BRANCH  14  15
ATOM     15  C   UNL     1      -7.009  -0.657 -23.091  1.00  0.00    -0.000 C 
BRANCH  15  16
ATOM     16  C   UNL     1      -6.839   0.163 -24.382  1.00  0.00    -0.000 C 
BRANCH  16  17
ATOM     17  C   UNL     1      -8.155   0.798 -24.862  1.00  0.00    -0.000 C 
BRANCH  17  18
ATOM     18  C   UNL     1      -9.363  -0.146 -24.722  1.00  0.00    -0.000 C 
BRANCH  18  19
ATOM     19  C   UNL     1     -10.247  -0.264 -25.976  1.00  0.00    -0.003 C 
ATOM     20  C   UNL     1     -10.079   0.909 -26.942  1.00  0.00     0.004 C 
ENDBRANCH  18  19
ENDBRANCH  17  18
ENDBRANCH  16  17
ENDBRANCH  15  16
ENDBRANCH  14  15
ENDBRANCH  13  14
ENDBRANCH  12  13
ENDBRANCH   1  12
TORSDOF 16
ENDMDL
MODEL 5
REMARK VINA RESULT:    -2.777      2.353      4.751
REMARK INTER + INTRA:          -8.506
REMARK INTER:                  -6.710
REMARK INTRA:                  -1.796
REMARK UNBOUND:                -3.131
REMARK SMILES CCCCCCCCCCCCCCCCCC(=O)[O-]
REMARK SMILES IDX 10 1 11 2 12 3 13 4 14 5 15 6 16 7 17 8 18 9 19 10 20 11
REMARK SMILES IDX 9 12 8 13 7 14 6 15 5 16 4 17 3 18 2 19 1 20
REMARK H PARENT
REMARK Flexibility Score: inf
ROOT
ATOM      1  C   UNL     1      -5.955  -2.723 -23.506  1.00  0.00     0.000 C 
ENDROOT
BRANCH   1   2
ATOM      2  C   UNL     1      -4.995  -3.581 -24.349  1.00  0.00     0.000 C 
BRANCH   2   3
ATOM      3  C   UNL     1      -5.542  -4.018 -25.723  1.00  0.00     0.000 C 
BRANCH   3   4
ATOM      4  C   UNL     1      -5.685  -5.541 -25.919  1.00  0.00     0.000 C 
BRANCH   4   5
ATOM      5  C   UNL     1      -6.913  -5.975 -26.740  1.00  0.00     0.000 C 
BRANCH   5   6
ATOM      6  C   UNL     1      -8.092  -6.417 -25.857  1.00  0.00     0.000 C 
BRANCH   6   7
ATOM      7  C   UNL     1      -8.283  -7.944 -25.841  1.00  0.00     0.006 C 
BRANCH   7   8
ATOM      8  C   UNL     1      -9.746  -8.398 -25.962  1.00  0.00     0.053 C 
BRANCH   8   9
ATOM      9  C   UNL     1      -9.857  -9.848 -26.316  1.00  0.00     0.041 C 
ATOM     10  O   UNL     1      -9.034 -10.372 -27.112  1.00  0.00    -0.550 OA
ATOM     11  O   UNL     1     -10.888 -10.616 -25.790  1.00  0.00    -0.550 OA
ENDBRANCH   8   9
ENDBRANCH   7   8
ENDBRANCH   6   7
ENDBRANCH   5   6
ENDBRANCH   4   5
ENDBRANCH   3   4
ENDBRANCH   2   3
ENDBRANCH   1   2
BRANCH   1  12
ATOM     12  C   UNL     1      -7.400  -2.755 -24.030  1.00  0.00     0.000 C 
BRANCH  12  13
ATOM     13  C   UNL     1      -8.160  -1.448 -23.748  1.00  0.00    -0.000 C 
BRANCH  13  14
ATOM     14  C   UNL     1      -7.527  -0.228 -24.441  1.00  0.00    -0.000 C 
BRANCH  14  15
ATOM     15  C   UNL     1      -8.530   0.498 -25.363  1.00  0.00    -0.000 C 
BRANCH  15  16
ATOM     16  C   UNL     1     -10.002   0.252 -24.990  1.00  0.00    -0.000 C 
BRANCH  16  17
ATOM     17  C   UNL     1     -10.866  -0.140 -26.200  1.00  0.00    -0.000 C 
BRANCH  17  18
ATOM     18  C   UNL     1     -10.031  -0.588 -27.413  1.00  0.00    -0.000 C 
BRANCH  18  19
ATOM     19  C   UNL     1     -10.167  -2.076 -27.784  1.00  0.00    -0.003 C 
ATOM     20  C   UNL     1      -8.965  -2.915 -27.349  1.00  0.00     0.004 C 
ENDBRANCH  18  19
ENDBRANCH  17  18
ENDBRANCH  16  17
ENDBRANCH  15  16
ENDBRANCH  14  15
ENDBRANCH  13  14
ENDBRANCH  12  13
ENDBRANCH   1  12
TORSDOF 16
ENDMDL
MODEL 6
REMARK VINA RESULT:    -2.773      2.487      6.664
REMARK INTER + INTRA:          -8.497
REMARK INTER:                  -6.853
REMARK INTRA:                  -1.644
REMARK UNBOUND:                -3.131
REMARK SMILES CCCCCCCCCCCCCCCCCC(=O)[O-]
REMARK SMILES IDX 10 1 11 2 12 3 13 4 14 5 15 6 16 7 17 8 18 9 19 10 20 11
REMARK SMILES IDX 9 12 8 13 7 14 6 15 5 16 4 17 3 18 2 19 1 20
REMARK H PARENT
REMARK Flexibility Score: inf
ROOT
ATOM      1  C   UNL     1      -6.932  -0.953 -22.843  1.00  0.00     0.000 C 
ENDROOT
BRANCH   1   2
ATOM      2  C   UNL     1      -5.771   0.055 -22.921  1.00  0.00     0.000 C 
BRANCH   2   3
ATOM      3  C   UNL     1      -5.977   1.355 -22.118  1.00  0.00     0.000 C 
BRANCH   3   4
ATOM      4  C   UNL     1      -6.257   2.613 -22.965  1.00  0.00     0.000 C 
BRANCH   4   5
ATOM      5  C   UNL     1      -6.397   2.356 -24.476  1.00  0.00     0.000 C 
BRANCH   5   6
ATOM      6  C   UNL     1      -7.863   2.258 -24.930  1.00  0.00     0.000 C 
BRANCH   6   7
ATOM      7  C   UNL     1      -8.153   0.977 -25.731  1.00  0.00     0.006 C 
BRANCH   7   8
ATOM      8  C   UNL     1      -9.520   0.342 -25.432  1.00  0.00     0.053 C 
BRANCH   8   9
ATOM      9  C   UNL     1     -10.338   0.159 -26.672  1.00  0.00     0.041 C 
ATOM     10  O   UNL     1     -10.685   1.157 -27.357  1.00  0.00    -0.550 OA
ATOM     11  O   UNL     1     -10.745  -1.113 -27.056  1.00  0.00    -0.550 OA
ENDBRANCH   8   9
ENDBRANCH   7   8
ENDBRANCH   6   7
ENDBRANCH   5   6
ENDBRANCH   4   5
ENDBRANCH   3   4
ENDBRANCH   2   3
ENDBRANCH   1   2
BRANCH   1  12
ATOM     12  C   UNL     1      -6.531  -2.361 -23.314  1.00  0.00     0.000 C 
BRANCH  12  13
ATOM     13  C   UNL     1      -6.419  -2.462 -24.844  1.00  0.00    -0.000 C 
BRANCH  13  14
ATOM     14  C   UNL     1      -7.769  -2.758 -25.523  1.00  0.00    -0.000 C 
BRANCH  14  15
ATOM     15  C   UNL     1      -8.200  -4.229 -25.336  1.00  0.00    -0.000 C 
BRANCH  15  16
ATOM     16  C   UNL     1      -7.176  -5.245 -25.871  1.00  0.00    -0.000 C 
BRANCH  16  17
ATOM     17  C   UNL     1      -7.750  -6.668 -25.979  1.00  0.00    -0.000 C 
BRANCH  17  18
ATOM     18  C   UNL     1      -8.793  -6.810 -27.102  1.00  0.00    -0.000 C 
BRANCH  18  19
ATOM     19  C   UNL     1      -9.643  -8.092 -27.043  1.00  0.00    -0.003 C 
ATOM     20  C   UNL     1      -9.749  -8.679 -25.635  1.00  0.00     0.004 C 
ENDBRANCH  18  19
ENDBRANCH  17  18
ENDBRANCH  16  17
ENDBRANCH  15  16
ENDBRANCH  14  15
ENDBRANCH  13  14
ENDBRANCH  12  13
ENDBRANCH   1  12
TORSDOF 16
ENDMDL
MODEL 7
REMARK VINA RESULT:    -2.745      3.759      6.925
REMARK INTER + INTRA:          -8.444
REMARK INTER:                  -6.265
REMARK INTRA:                  -2.178
REMARK UNBOUND:                -3.131
REMARK SMILES CCCCCCCCCCCCCCCCCC(=O)[O-]
REMARK SMILES IDX 10 1 11 2 12 3 13 4 14 5 15 6 16 7 17 8 18 9 19 10 20 11
REMARK SMILES IDX 9 12 8 13 7 14 6 15 5 16 4 17 3 18 2 19 1 20
REMARK H PARENT
REMARK Flexibility Score: inf
ROOT
ATOM      1  C   UNL     1      -9.645  -2.315 -27.574  1.00  0.00     0.000 C 
ENDROOT
BRANCH   1   2
ATOM      2  C   UNL     1      -9.565  -0.800 -27.314  1.00  0.00     0.000 C 
BRANCH   2   3
ATOM      3  C   UNL     1     -10.418  -0.292 -26.135  1.00  0.00     0.000 C 
BRANCH   3   4
ATOM      4  C   UNL     1      -9.631   0.043 -24.852  1.00  0.00     0.000 C 
BRANCH   4   5
ATOM      5  C   UNL     1      -8.101   0.068 -25.020  1.00  0.00     0.000 C 
BRANCH   5   6
ATOM      6  C   UNL     1      -7.356  -0.379 -23.751  1.00  0.00     0.000 C 
BRANCH   6   7
ATOM      7  C   UNL     1      -6.033   0.379 -23.541  1.00  0.00     0.006 C 
BRANCH   7   8
ATOM      8  C   UNL     1      -5.896   1.035 -22.158  1.00  0.00     0.053 C 
BRANCH   8   9
ATOM      9  C   UNL     1      -6.096   2.518 -22.218  1.00  0.00     0.041 C 
ATOM     10  O   UNL     1      -6.807   3.027 -23.123  1.00  0.00    -0.550 OA
ATOM     11  O   UNL     1      -5.470   3.342 -21.290  1.00  0.00    -0.550 OA
ENDBRANCH   8   9
ENDBRANCH   7   8
ENDBRANCH   6   7
ENDBRANCH   5   6
ENDBRANCH   4   5
ENDBRANCH   3   4
ENDBRANCH   2   3
ENDBRANCH   1   2
BRANCH   1  12
ATOM     12  C   UNL     1      -8.356  -3.055 -27.180  1.00  0.00     0.000 C 
BRANCH  12  13
ATOM     13  C   UNL     1      -8.356  -3.497 -25.707  1.00  0.00    -0.000 C 
BRANCH  13  14
ATOM     14  C   UNL     1      -6.936  -3.693 -25.143  1.00  0.00    -0.000 C 
BRANCH  14  15
ATOM     15  C   UNL     1      -5.856  -3.556 -26.237  1.00  0.00    -0.000 C 
BRANCH  15  16
ATOM     16  C   UNL     1      -5.184  -4.887 -26.612  1.00  0.00    -0.000 C 
BRANCH  16  17
ATOM     17  C   UNL     1      -5.208  -5.911 -25.465  1.00  0.00    -0.000 C 
BRANCH  17  18
ATOM     18  C   UNL     1      -5.756  -7.284 -25.897  1.00  0.00    -0.000 C 
BRANCH  18  19
ATOM     19  C   UNL     1      -7.044  -7.235 -26.739  1.00  0.00    -0.003 C 
ATOM     20  C   UNL     1      -8.313  -7.159 -25.891  1.00  0.00     0.004 C 
ENDBRANCH  18  19
ENDBRANCH  17  18
ENDBRANCH  16  17
ENDBRANCH  15  16
ENDBRANCH  14  15
ENDBRANCH  13  14
ENDBRANCH  12  13
ENDBRANCH   1  12
TORSDOF 16
ENDMDL
MODEL 8
REMARK VINA RESULT:    -2.736      2.079      4.202
REMARK INTER + INTRA:          -8.426
REMARK INTER:                  -6.435
REMARK INTRA:                  -1.990
REMARK UNBOUND:                -3.131
REMARK SMILES CCCCCCCCCCCCCCCCCC(=O)[O-]
REMARK SMILES IDX 10 1 11 2 12 3 13 4 14 5 15 6 16 7 17 8 18 9 19 10 20 11
REMARK SMILES IDX 9 12 8 13 7 14 6 15 5 16 4 17 3 18 2 19 1 20
REMARK H PARENT
REMARK Flexibility Score: inf
ROOT
ATOM      1  C   UNL     1      -7.891  -2.831 -24.012  1.00  0.00     0.000 C 
ENDROOT
BRANCH   1   2
ATOM      2  C   UNL     1      -7.737  -3.496 -25.392  1.00  0.00     0.000 C 
BRANCH   2   3
ATOM      3  C   UNL     1      -6.295  -3.885 -25.775  1.00  0.00     0.000 C 
BRANCH   3   4
ATOM      4  C   UNL     1      -6.150  -5.245 -26.488  1.00  0.00     0.000 C 
BRANCH   4   5
ATOM      5  C   UNL     1      -6.539  -6.466 -25.637  1.00  0.00     0.000 C 
BRANCH   5   6
ATOM      6  C   UNL     1      -7.257  -7.555 -26.452  1.00  0.00     0.000 C 
BRANCH   6   7
ATOM      7  C   UNL     1      -8.763  -7.633 -26.143  1.00  0.00     0.006 C 
BRANCH   7   8
ATOM      8  C   UNL     1      -9.440  -8.925 -26.624  1.00  0.00     0.053 C 
BRANCH   8   9
ATOM      9  C   UNL     1      -9.652  -9.898 -25.506  1.00  0.00     0.041 C 
ATOM     10  O   UNL     1      -9.105 -11.032 -25.538  1.00  0.00    -0.550 OA
ATOM     11  O   UNL     1     -10.480  -9.564 -24.442  1.00  0.00    -0.550 OA
ENDBRANCH   8   9
ENDBRANCH   7   8
ENDBRANCH   6   7
ENDBRANCH   5   6
ENDBRANCH   4   5
ENDBRANCH   3   4
ENDBRANCH   2   3
ENDBRANCH   1   2
BRANCH   1  12
ATOM     12  C   UNL     1      -6.569  -2.258 -23.477  1.00  0.00     0.000 C 
BRANCH  12  13
ATOM     13  C   UNL     1      -6.760  -0.920 -22.742  1.00  0.00    -0.000 C 
BRANCH  13  14
ATOM     14  C   UNL     1      -6.017   0.245 -23.422  1.00  0.00    -0.000 C 
BRANCH  14  15
ATOM     15  C   UNL     1      -5.627  -0.089 -24.878  1.00  0.00    -0.000 C 
BRANCH  15  16
ATOM     16  C   UNL     1      -6.381   0.747 -25.926  1.00  0.00    -0.000 C 
BRANCH  16  17
ATOM     17  C   UNL     1      -7.699   0.094 -26.374  1.00  0.00    -0.000 C 
BRANCH  17  18
ATOM     18  C   UNL     1      -8.914   0.576 -25.561  1.00  0.00    -0.000 C 
BRANCH  18  19
ATOM     19  C   UNL     1     -10.253  -0.082 -25.939  1.00  0.00    -0.003 C 
ATOM     20  C   UNL     1     -10.130  -1.073 -27.097  1.00  0.00     0.004 C 
ENDBRANCH  18  19
ENDBRANCH  17  18
ENDBRANCH  16  17
ENDBRANCH  15  16
ENDBRANCH  14  15
ENDBRANCH  13  14
ENDBRANCH  12  13
ENDBRANCH   1  12
TORSDOF 16
ENDMDL
MODEL 9
REMARK VINA RESULT:    -2.713      3.368      8.183
REMARK INTER + INTRA:          -8.382
REMARK INTER:                  -6.993
REMARK INTRA:                  -1.389
REMARK UNBOUND:                -3.131
REMARK SMILES CCCCCCCCCCCCCCCCCC(=O)[O-]
REMARK SMILES IDX 10 1 11 2 12 3 13 4 14 5 15 6 16 7 17 8 18 9 19 10 20 11
REMARK SMILES IDX 9 12 8 13 7 14 6 15 5 16 4 17 3 18 2 19 1 20
REMARK H PARENT
REMARK Flexibility Score: inf
ROOT
ATOM      1  C   UNL     1      -8.181  -3.885 -25.612  1.00  0.00     0.000 C 
ENDROOT
BRANCH   1   2
ATOM      2  C   UNL     1      -8.260  -3.043 -26.898  1.00  0.00     0.000 C 
BRANCH   2   3
ATOM      3  C   UNL     1      -9.457  -2.075 -26.976  1.00  0.00     0.000 C 
BRANCH   3   4
ATOM      4  C   UNL     1      -9.166  -0.726 -27.663  1.00  0.00     0.000 C 
BRANCH   4   5
ATOM      5  C   UNL     1      -8.845   0.433 -26.702  1.00  0.00     0.000 C 
BRANCH   5   6
ATOM      6  C   UNL     1      -8.612  -0.041 -25.257  1.00  0.00     0.000 C 
BRANCH   6   7
ATOM      7  C   UNL     1      -7.197   0.286 -24.745  1.00  0.00     0.006 C 
BRANCH   7   8
ATOM      8  C   UNL     1      -6.316  -0.947 -24.495  1.00  0.00     0.053 C 
BRANCH   8   9
ATOM      9  C   UNL     1      -6.327  -1.363 -23.057  1.00  0.00     0.041 C 
ATOM     10  O   UNL     1      -6.809  -0.600 -22.179  1.00  0.00    -0.550 OA
ATOM     11  O   UNL     1      -5.777  -2.582 -22.681  1.00  0.00    -0.550 OA
ENDBRANCH   8   9
ENDBRANCH   7   8
ENDBRANCH   6   7
ENDBRANCH   5   6
ENDBRANCH   4   5
ENDBRANCH   3   4
ENDBRANCH   2   3
ENDBRANCH   1   2
BRANCH   1  12
ATOM     12  C   UNL     1      -6.861  -4.663 -25.489  1.00  0.00     0.000 C 
BRANCH  12  13
ATOM     13  C   UNL     1      -6.766  -5.827 -26.490  1.00  0.00    -0.000 C 
BRANCH  13  14
ATOM     14  C   UNL     1      -6.879  -7.206 -25.815  1.00  0.00    -0.000 C 
BRANCH  14  15
ATOM     15  C   UNL     1      -7.982  -8.075 -26.456  1.00  0.00    -0.000 C 
BRANCH  15  16
ATOM     16  C   UNL     1      -9.375  -7.861 -25.837  1.00  0.00    -0.000 C 
BRANCH  16  17
ATOM     17  C   UNL     1     -10.007  -9.167 -25.327  1.00  0.00    -0.000 C 
BRANCH  17  18
ATOM     18  C   UNL     1      -9.465 -10.416 -26.045  1.00  0.00    -0.000 C 
BRANCH  18  19
ATOM     19  C   UNL     1     -10.359 -10.956 -27.176  1.00  0.00    -0.003 C 
ATOM     20  C   UNL     1     -11.633 -11.630 -26.666  1.00  0.00     0.004 C 
ENDBRANCH  18  19
ENDBRANCH  17  18
ENDBRANCH  16  17
ENDBRANCH  15  16
ENDBRANCH  14  15
ENDBRANCH  13  14
ENDBRANCH  12  13
ENDBRANCH   1  12
TORSDOF 16
ENDMDL
