MODEL 1
REMARK VINA RESULT:    -4.543      0.000      0.000
REMARK INTER + INTRA:          -6.002
REMARK INTER:                  -5.871
REMARK INTRA:                  -0.131
REMARK UNBOUND:                -0.131
REMARK SMILES CCCCCCC(=O)[O-]
REMARK SMILES IDX 5 1 6 2 7 3 8 4 9 5 4 6 3 7 2 8 1 9
REMARK H PARENT
REMARK Flexibility Score: inf
ROOT
ATOM      1  C   UNL     1      15.027   2.747  14.678  1.00  0.00     0.006 C 
ENDROOT
BRANCH   1   2
ATOM      2  C   UNL     1      15.198   3.142  13.203  1.00  0.00     0.053 C 
BRANCH   2   3
ATOM      3  C   UNL     1      15.872   2.067  12.408  1.00  0.00     0.041 C 
ATOM      4  O   UNL     1      15.937   2.152  11.154  1.00  0.00    -0.550 OA
ATOM      5  O   UNL     1      16.397   0.953  13.051  1.00  0.00    -0.550 OA
ENDBRANCH   2   3
ENDBRANCH   1   2
BRANCH   1   6
ATOM      6  C   UNL     1      13.567   2.488  15.107  1.00  0.00     0.000 C 
BRANCH   6   7
ATOM      7  C   UNL     1      13.344   2.379  16.626  1.00  0.00    -0.000 C 
BRANCH   7   8
ATOM      8  C   UNL     1      12.948   3.716  17.269  1.00  0.00    -0.003 C 
ATOM      9  C   UNL     1      13.391   3.777  18.728  1.00  0.00     0.004 C 
ENDBRANCH   7   8
ENDBRANCH   6   7
ENDBRANCH   1   6
TORSDOF 5
ENDMDL
MODEL 2
REMARK VINA RESULT:    -4.506     15.823     17.742
REMARK INTER + INTRA:          -5.954
REMARK INTER:                  -5.591
REMARK INTRA:                  -0.363
REMARK UNBOUND:                -0.131
REMARK SMILES CCCCCCC(=O)[O-]
REMARK SMILES IDX 5 1 6 2 7 3 8 4 9 5 4 6 3 7 2 8 1 9
REMARK H PARENT
REMARK Flexibility Score: inf
ROOT
ATOM      1  C   UNL     1      31.034  -2.206   6.394  1.00  0.00     0.006 C 
ENDROOT
BRANCH   1   2
ATOM      2  C   UNL     1      31.469  -2.067   7.862  1.00  0.00     0.053 C 
BRANCH   2   3
ATOM      3  C   UNL     1      31.020  -0.770   8.459  1.00  0.00     0.041 C 
ATOM      4  O   UNL     1      30.816  -0.680   9.698  1.00  0.00    -0.550 OA
ATOM      5  O   UNL     1      30.793   0.331   7.642  1.00  0.00    -0.550 OA
ENDBRANCH   2   3
ENDBRANCH   1   2
BRANCH   1   6
ATOM      6  C   UNL     1      29.723  -2.991   6.186  1.00  0.00     0.000 C 
BRANCH   6   7
ATOM      7  C   UNL     1      28.544  -2.160   5.647  1.00  0.00    -0.000 C 
BRANCH   7   8
ATOM      8  C   UNL     1      27.354  -2.113   6.615  1.00  0.00    -0.003 C 
ATOM      9  C   UNL     1      27.363  -0.827   7.437  1.00  0.00     0.004 C 
ENDBRANCH   7   8
ENDBRANCH   6   7
ENDBRANCH   1   6
TORSDOF 5
ENDMDL
MODEL 3
REMARK VINA RESULT:    -4.475     16.009     17.796
REMARK INTER + INTRA:          -5.914
REMARK INTER:                  -5.655
REMARK INTRA:                  -0.259
REMARK UNBOUND:                -0.131
REMARK SMILES CCCCCCC(=O)[O-]
REMARK SMILES IDX 5 1 6 2 7 3 8 4 9 5 4 6 3 7 2 8 1 9
REMARK H PARENT
REMARK Flexibility Score: inf
ROOT
ATOM      1  C   UNL     1      30.117  -3.014   6.428  1.00  0.00     0.006 C 
ENDROOT
BRANCH   1   2
ATOM      2  C   UNL     1      31.428  -2.246   6.658  1.00  0.00     0.053 C 
BRANCH   2   3
ATOM      3  C   UNL     1      31.713  -2.047   8.115  1.00  0.00     0.041 C 
ATOM      4  O   UNL     1      31.116  -1.144   8.759  1.00  0.00    -0.550 OA
ATOM      5  O   UNL     1      32.663  -2.835   8.752  1.00  0.00    -0.550 OA
ENDBRANCH   2   3
ENDBRANCH   1   2
BRANCH   1   6
ATOM      6  C   UNL     1      29.011  -2.198   5.726  1.00  0.00     0.000 C 
BRANCH   6   7
ATOM      7  C   UNL     1      27.641  -2.220   6.427  1.00  0.00    -0.000 C 
BRANCH   7   8
ATOM      8  C   UNL     1      27.089  -0.815   6.706  1.00  0.00    -0.003 C 
ATOM      9  C   UNL     1      27.895  -0.113   7.795  1.00  0.00     0.004 C 
ENDBRANCH   7   8
ENDBRANCH   6   7
ENDBRANCH   1   6
TORSDOF 5
ENDMDL
MODEL 4
REMARK VINA RESULT:    -4.461      3.104      5.408
REMARK INTER + INTRA:          -5.896
REMARK INTER:                  -5.782
REMARK INTRA:                  -0.114
REMARK UNBOUND:                -0.131
REMARK SMILES CCCCCCC(=O)[O-]
REMARK SMILES IDX 5 1 6 2 7 3 8 4 9 5 4 6 3 7 2 8 1 9
REMARK H PARENT
REMARK Flexibility Score: inf
ROOT
ATOM      1  C   UNL     1      13.371   2.629  15.315  1.00  0.00     0.006 C 
ENDROOT
BRANCH   1   2
ATOM      2  C   UNL     1      13.048   3.376  16.618  1.00  0.00     0.053 C 
BRANCH   2   3
ATOM      3  C   UNL     1      13.473   2.603  17.828  1.00  0.00     0.041 C 
ATOM      4  O   UNL     1      13.850   3.209  18.866  1.00  0.00    -0.550 OA
ATOM      5  O   UNL     1      13.486   1.215  17.798  1.00  0.00    -0.550 OA
ENDBRANCH   2   3
ENDBRANCH   1   2
BRANCH   1   6
ATOM      6  C   UNL     1      14.860   2.656  14.913  1.00  0.00     0.000 C 
BRANCH   6   7
ATOM      7  C   UNL     1      15.130   2.992  13.435  1.00  0.00    -0.000 C 
BRANCH   7   8
ATOM      8  C   UNL     1      15.272   1.743  12.554  1.00  0.00    -0.003 C 
ATOM      9  C   UNL     1      16.167   2.019  11.349  1.00  0.00     0.004 C 
ENDBRANCH   7   8
ENDBRANCH   6   7
ENDBRANCH   1   6
TORSDOF 5
ENDMDL
MODEL 5
REMARK VINA RESULT:    -4.416     15.762     16.974
REMARK INTER + INTRA:          -5.837
REMARK INTER:                  -5.434
REMARK INTRA:                  -0.403
REMARK UNBOUND:                -0.131
REMARK SMILES CCCCCCC(=O)[O-]
REMARK SMILES IDX 5 1 6 2 7 3 8 4 9 5 4 6 3 7 2 8 1 9
REMARK H PARENT
REMARK Flexibility Score: inf
ROOT
ATOM      1  C   UNL     1      27.894   0.155   7.541  1.00  0.00     0.006 C 
ENDROOT
BRANCH   1   2
ATOM      2  C   UNL     1      28.603   0.357   8.890  1.00  0.00     0.053 C 
BRANCH   2   3
ATOM      3  C   UNL     1      30.072   0.081   8.798  1.00  0.00     0.041 C 
ATOM      4  O   UNL     1      30.656  -0.550   9.718  1.00  0.00    -0.550 OA
ATOM      5  O   UNL     1      30.802   0.550   7.713  1.00  0.00    -0.550 OA
ENDBRANCH   2   3
ENDBRANCH   1   2
BRANCH   1   6
ATOM      6  C   UNL     1      27.201  -1.214   7.380  1.00  0.00     0.000 C 
BRANCH   6   7
ATOM      7  C   UNL     1      27.563  -1.981   6.096  1.00  0.00    -0.000 C 
BRANCH   7   8
ATOM      8  C   UNL     1      29.038  -1.822   5.700  1.00  0.00    -0.003 C 
ATOM      9  C   UNL     1      29.914  -2.844   6.419  1.00  0.00     0.004 C 
ENDBRANCH   7   8
ENDBRANCH   6   7
ENDBRANCH   1   6
TORSDOF 5
ENDMDL
MODEL 6
REMARK VINA RESULT:    -4.384      4.211      5.740
REMARK INTER + INTRA:          -5.796
REMARK INTER:                  -5.642
REMARK INTRA:                  -0.154
REMARK UNBOUND:                -0.131
REMARK SMILES CCCCCCC(=O)[O-]
REMARK SMILES IDX 5 1 6 2 7 3 8 4 9 5 4 6 3 7 2 8 1 9
REMARK H PARENT
REMARK Flexibility Score: inf
ROOT
ATOM      1  C   UNL     1      14.755   1.541  20.239  1.00  0.00     0.006 C 
ENDROOT
BRANCH   1   2
ATOM      2  C   UNL     1      15.037   0.038  20.397  1.00  0.00     0.053 C 
BRANCH   2   3
ATOM      3  C   UNL     1      16.214  -0.401  19.582  1.00  0.00     0.041 C 
ATOM      4  O   UNL     1      16.161  -1.469  18.918  1.00  0.00    -0.550 OA
ATOM      5  O   UNL     1      17.381   0.352  19.584  1.00  0.00    -0.550 OA
ENDBRANCH   2   3
ENDBRANCH   1   2
BRANCH   1   6
ATOM      6  C   UNL     1      14.068   1.927  18.913  1.00  0.00     0.000 C 
BRANCH   6   7
ATOM      7  C   UNL     1      13.669   3.409  18.794  1.00  0.00    -0.000 C 
BRANCH   7   8
ATOM      8  C   UNL     1      12.881   3.716  17.512  1.00  0.00    -0.003 C 
ATOM      9  C   UNL     1      13.250   2.745  16.394  1.00  0.00     0.004 C 
ENDBRANCH   7   8
ENDBRANCH   6   7
ENDBRANCH   1   6
TORSDOF 5
ENDMDL
MODEL 7
REMARK VINA RESULT:    -4.369      2.665      5.051
REMARK INTER + INTRA:          -5.777
REMARK INTER:                  -5.499
REMARK INTRA:                  -0.278
REMARK UNBOUND:                -0.131
REMARK SMILES CCCCCCC(=O)[O-]
REMARK SMILES IDX 5 1 6 2 7 3 8 4 9 5 4 6 3 7 2 8 1 9
REMARK H PARENT
REMARK Flexibility Score: inf
ROOT
ATOM      1  C   UNL     1      14.787   2.348  14.401  1.00  0.00     0.006 C 
ENDROOT
BRANCH   1   2
ATOM      2  C   UNL     1      15.769   1.855  15.477  1.00  0.00     0.053 C 
BRANCH   2   3
ATOM      3  C   UNL     1      15.827   0.360  15.541  1.00  0.00     0.041 C 
ATOM      4  O   UNL     1      15.598  -0.236  16.626  1.00  0.00    -0.550 OA
ATOM      5  O   UNL     1      16.168  -0.372  14.411  1.00  0.00    -0.550 OA
ENDBRANCH   2   3
ENDBRANCH   1   2
BRANCH   1   6
ATOM      6  C   UNL     1      15.456   3.011  13.179  1.00  0.00     0.000 C 
BRANCH   6   7
ATOM      7  C   UNL     1      15.498   2.144  11.909  1.00  0.00    -0.000 C 
BRANCH   7   8
ATOM      8  C   UNL     1      16.876   2.140  11.232  1.00  0.00    -0.003 C 
ATOM      9  C   UNL     1      17.528   0.763  11.318  1.00  0.00     0.004 C 
ENDBRANCH   7   8
ENDBRANCH   6   7
ENDBRANCH   1   6
TORSDOF 5
ENDMDL
MODEL 8
REMARK VINA RESULT:    -4.346      2.823      5.409
REMARK INTER + INTRA:          -5.747
REMARK INTER:                  -5.549
REMARK INTRA:                  -0.199
REMARK UNBOUND:                -0.131
REMARK SMILES CCCCCCC(=O)[O-]
REMARK SMILES IDX 5 1 6 2 7 3 8 4 9 5 4 6 3 7 2 8 1 9
REMARK H PARENT
REMARK Flexibility Score: inf
ROOT
ATOM      1  C   UNL     1      14.677   2.112  13.670  1.00  0.00     0.006 C 
ENDROOT
BRANCH   1   2
ATOM      2  C   UNL     1      15.131   2.464  15.096  1.00  0.00     0.053 C 
BRANCH   2   3
ATOM      3  C   UNL     1      13.995   2.435  16.070  1.00  0.00     0.041 C 
ATOM      4  O   UNL     1      14.035   1.669  17.068  1.00  0.00    -0.550 OA
ATOM      5  O   UNL     1      12.875   3.230  15.857  1.00  0.00    -0.550 OA
ENDBRANCH   2   3
ENDBRANCH   1   2
BRANCH   1   6
ATOM      6  C   UNL     1      15.508   2.775  12.552  1.00  0.00     0.000 C 
BRANCH   6   7
ATOM      7  C   UNL     1      15.863   1.853  11.371  1.00  0.00    -0.000 C 
BRANCH   7   8
ATOM      8  C   UNL     1      17.356   1.500  11.316  1.00  0.00    -0.003 C 
ATOM      9  C   UNL     1      17.685   0.349  12.262  1.00  0.00     0.004 C 
ENDBRANCH   7   8
ENDBRANCH   6   7
ENDBRANCH   1   6
TORSDOF 5
ENDMDL
MODEL 9
REMARK VINA RESULT:    -4.294      3.375      5.276
REMARK INTER + INTRA:          -5.680
REMARK INTER:                  -5.415
REMARK INTRA:                  -0.266
REMARK UNBOUND:                -0.131
REMARK SMILES CCCCCCC(=O)[O-]
REMARK SMILES IDX 5 1 6 2 7 3 8 4 9 5 4 6 3 7 2 8 1 9
REMARK H PARENT
REMARK Flexibility Score: inf
ROOT
ATOM      1  C   UNL     1      13.314   3.140  18.182  1.00  0.00     0.006 C 
ENDROOT
BRANCH   1   2
ATOM      2  C   UNL     1      13.616   1.674  18.533  1.00  0.00     0.053 C 
BRANCH   2   3
ATOM      3  C   UNL     1      14.957   1.516  19.181  1.00  0.00     0.041 C 
ATOM      4  O   UNL     1      15.995   1.429  18.474  1.00  0.00    -0.550 OA
ATOM      5  O   UNL     1      15.055   1.431  20.563  1.00  0.00    -0.550 OA
ENDBRANCH   2   3
ENDBRANCH   1   2
BRANCH   1   6
ATOM      6  C   UNL     1      13.042   3.397  16.686  1.00  0.00     0.000 C 
BRANCH   6   7
ATOM      7  C   UNL     1      13.629   2.346  15.727  1.00  0.00    -0.000 C 
BRANCH   7   8
ATOM      8  C   UNL     1      15.048   2.693  15.255  1.00  0.00    -0.003 C 
ATOM      9  C   UNL     1      15.093   2.893  13.743  1.00  0.00     0.004 C 
ENDBRANCH   7   8
ENDBRANCH   6   7
ENDBRANCH   1   6
TORSDOF 5
ENDMDL
