MODEL 1
REMARK VINA RESULT:    -5.064      0.000      0.000
REMARK INTER + INTRA:          -7.914
REMARK INTER:                  -6.692
REMARK INTRA:                  -1.222
REMARK UNBOUND:                -1.222
REMARK SMILES CC[C@H](C=C[C@H](C)[C@H]1CC[C@H]2[C@@H]3CC[C@H]4C[C@@H](O)CC[C@]4(C)[C@H]3CC[C@@]12C)C(C)C
REMARK SMILES IDX 6 1 7 2 5 3 4 4 3 5 2 6 1 7 28 8 29 9 30 10 8 11 9 12 26 13
REMARK SMILES IDX 10 14 11 15 25 16 27 17 12 18 24 19 23 20 13 21 21 22 14 23
REMARK SMILES IDX 15 24 20 25 22 26 16 27 19 28 17 29 18 30
REMARK H PARENT 18 31
REMARK Flexibility Score: inf
ROOT
ATOM      1  C   UNL     1       4.922   2.913  -3.879  1.00  0.00     0.012 C 
ATOM      2  C   UNL     1       6.237   3.663  -4.162  1.00  0.00     0.012 C 
ENDROOT
BRANCH   1   3
ATOM      3  C   UNL     1       3.799   3.536  -4.681  1.00  0.00    -0.028 C 
ATOM      4  C   UNL     1       2.507   3.191  -4.521  1.00  0.00    -0.027 C 
BRANCH   4   5
ATOM      5  C   UNL     1       1.427   3.711  -5.451  1.00  0.00     0.014 C 
BRANCH   5   6
ATOM      6  C   UNL     1       1.780   3.384  -6.922  1.00  0.00     0.004 C 
ATOM      7  C   UNL     1       0.637   2.686  -7.662  1.00  0.00     0.004 C 
ENDBRANCH   5   6
BRANCH   5   8
ATOM      8  C   UNL     1       0.007   3.191  -5.074  1.00  0.00    -0.011 C 
ATOM      9  C   UNL     1       0.012   2.002  -4.093  1.00  0.00     0.008 C 
ATOM     10  C   UNL     1      -0.881   4.317  -4.528  1.00  0.00     0.008 C 
ENDBRANCH   5   8
ENDBRANCH   4   5
ENDBRANCH   1   3
BRANCH   1  11
ATOM     11  C   UNL     1       5.045   1.375  -4.137  1.00  0.00     0.002 C 
ATOM     12  C   UNL     1       6.482   0.947  -4.416  1.00  0.00     0.005 C 
ATOM     13  C   UNL     1       4.570   0.407  -2.998  1.00  0.00    -0.026 C 
ATOM     14  C   UNL     1       6.488  -0.557  -4.263  1.00  0.00     0.005 C 
ATOM     15  C   UNL     1       5.403  -0.900  -3.225  1.00  0.00    -0.001 C 
ATOM     16  C   UNL     1       4.848   0.987  -1.583  1.00  0.00     0.007 C 
ATOM     17  C   UNL     1       3.057   0.112  -3.150  1.00  0.00     0.012 C 
ATOM     18  C   UNL     1       6.031  -1.523  -1.932  1.00  0.00    -0.004 C 
ATOM     19  C   UNL     1       4.550  -0.007  -0.451  1.00  0.00     0.005 C 
ATOM     20  C   UNL     1       5.030  -1.461  -0.737  1.00  0.00    -0.001 C 
ATOM     21  C   UNL     1       6.475  -2.981  -2.220  1.00  0.00     0.004 C 
ATOM     22  C   UNL     1       5.555  -2.215   0.548  1.00  0.00    -0.026 C 
ATOM     23  C   UNL     1       6.975  -3.710  -0.971  1.00  0.00     0.004 C 
ATOM     24  C   UNL     1       5.897  -3.680   0.122  1.00  0.00    -0.002 C 
ATOM     25  C   UNL     1       4.419  -2.286   1.614  1.00  0.00     0.010 C 
ATOM     26  C   UNL     1       6.792  -1.486   1.169  1.00  0.00     0.012 C 
ATOM     27  C   UNL     1       6.262  -4.595   1.310  1.00  0.00     0.036 C 
ATOM     28  C   UNL     1       4.775  -3.189   2.806  1.00  0.00     0.032 C 
ATOM     29  C   UNL     1       5.132  -4.611   2.355  1.00  0.00     0.114 C 
BRANCH  29  30
ATOM     30  O   UNL     1       5.526  -5.362   3.473  1.00  0.00    -0.393 OA
ATOM     31  H   UNL     1       5.107  -6.257   3.379  1.00  0.00     0.210 HD
ENDBRANCH  29  30
ENDBRANCH   1  11
TORSDOF 6
ENDMDL
MODEL 2
REMARK VINA RESULT:    -4.834      3.146      8.799
REMARK INTER + INTRA:          -7.610
REMARK INTER:                  -6.417
REMARK INTRA:                  -1.193
REMARK UNBOUND:                -1.222
REMARK SMILES CC[C@H](C=C[C@H](C)[C@H]1CC[C@H]2[C@@H]3CC[C@H]4C[C@@H](O)CC[C@]4(C)[C@H]3CC[C@@]12C)C(C)C
REMARK SMILES IDX 6 1 7 2 5 3 4 4 3 5 2 6 1 7 28 8 29 9 30 10 8 11 9 12 26 13
REMARK SMILES IDX 10 14 11 15 25 16 27 17 12 18 24 19 23 20 13 21 21 22 14 23
REMARK SMILES IDX 15 24 20 25 22 26 16 27 19 28 17 29 18 30
REMARK H PARENT 18 31
REMARK Flexibility Score: inf
ROOT
ATOM      1  C   UNL     1       6.125  -1.454  -3.446  1.00  0.00     0.012 C 
ATOM      2  C   UNL     1       6.922  -1.882  -4.692  1.00  0.00     0.012 C 
ENDROOT
BRANCH   1   3
ATOM      3  C   UNL     1       6.673  -2.161  -2.224  1.00  0.00    -0.028 C 
ATOM      4  C   UNL     1       6.035  -3.182  -1.622  1.00  0.00    -0.027 C 
BRANCH   4   5
ATOM      5  C   UNL     1       6.525  -3.758  -0.307  1.00  0.00     0.014 C 
BRANCH   5   6
ATOM      6  C   UNL     1       5.947  -2.956   0.883  1.00  0.00     0.004 C 
ATOM      7  C   UNL     1       4.474  -2.594   0.691  1.00  0.00     0.004 C 
ENDBRANCH   5   6
BRANCH   5   8
ATOM      8  C   UNL     1       6.226  -5.282  -0.170  1.00  0.00    -0.011 C 
ATOM      9  C   UNL     1       5.109  -5.791  -1.100  1.00  0.00     0.008 C 
ATOM     10  C   UNL     1       7.493  -6.127  -0.359  1.00  0.00     0.008 C 
ENDBRANCH   5   8
ENDBRANCH   4   5
ENDBRANCH   1   3
BRANCH   1  11
ATOM     11  C   UNL     1       6.094   0.100  -3.261  1.00  0.00     0.002 C 
ATOM     12  C   UNL     1       6.658   0.838  -4.470  1.00  0.00     0.005 C 
ATOM     13  C   UNL     1       4.700   0.774  -3.014  1.00  0.00    -0.026 C 
ATOM     14  C   UNL     1       6.216   2.274  -4.303  1.00  0.00     0.005 C 
ATOM     15  C   UNL     1       4.877   2.239  -3.542  1.00  0.00    -0.001 C 
ATOM     16  C   UNL     1       3.557   0.056  -3.785  1.00  0.00     0.007 C 
ATOM     17  C   UNL     1       4.377   0.785  -1.499  1.00  0.00     0.012 C 
ATOM     18  C   UNL     1       3.704   2.772  -4.431  1.00  0.00    -0.004 C 
ATOM     19  C   UNL     1       2.212   0.791  -3.699  1.00  0.00     0.005 C 
ATOM     20  C   UNL     1       2.320   2.337  -3.855  1.00  0.00    -0.001 C 
ATOM     21  C   UNL     1       3.803   4.316  -4.551  1.00  0.00     0.004 C 
ATOM     22  C   UNL     1       1.100   2.980  -4.626  1.00  0.00    -0.026 C 
ATOM     23  C   UNL     1       2.615   4.935  -5.291  1.00  0.00     0.004 C 
ATOM     24  C   UNL     1       1.301   4.531  -4.608  1.00  0.00    -0.002 C 
ATOM     25  C   UNL     1      -0.224   2.666  -3.864  1.00  0.00     0.010 C 
ATOM     26  C   UNL     1       0.994   2.424  -6.084  1.00  0.00     0.012 C 
ATOM     27  C   UNL     1       0.098   5.311  -5.176  1.00  0.00     0.036 C 
ATOM     28  C   UNL     1      -1.432   3.433  -4.426  1.00  0.00     0.032 C 
ATOM     29  C   UNL     1      -1.194   4.949  -4.421  1.00  0.00     0.114 C 
BRANCH  29  30
ATOM     30  O   UNL     1      -2.292   5.588  -5.019  1.00  0.00    -0.393 OA
ATOM     31  H   UNL     1      -2.638   6.242  -4.357  1.00  0.00     0.210 HD
ENDBRANCH  29  30
ENDBRANCH   1  11
TORSDOF 6
ENDMDL
MODEL 3
REMARK VINA RESULT:    -4.700      5.730      8.946
REMARK INTER + INTRA:          -7.433
REMARK INTER:                  -6.170
REMARK INTRA:                  -1.263
REMARK UNBOUND:                -1.222
REMARK SMILES CC[C@H](C=C[C@H](C)[C@H]1CC[C@H]2[C@@H]3CC[C@H]4C[C@@H](O)CC[C@]4(C)[C@H]3CC[C@@]12C)C(C)C
REMARK SMILES IDX 6 1 7 2 5 3 4 4 3 5 2 6 1 7 28 8 29 9 30 10 8 11 9 12 26 13
REMARK SMILES IDX 10 14 11 15 25 16 27 17 12 18 24 19 23 20 13 21 21 22 14 23
REMARK SMILES IDX 15 24 20 25 22 26 16 27 19 28 17 29 18 30
REMARK H PARENT 18 31
REMARK Flexibility Score: inf
ROOT
ATOM      1  C   UNL     1      -2.617   4.104  -6.004  1.00  0.00     0.012 C 
ATOM      2  C   UNL     1      -3.249   2.874  -6.683  1.00  0.00     0.012 C 
ENDROOT
BRANCH   1   3
ATOM      3  C   UNL     1      -3.707   4.976  -5.416  1.00  0.00    -0.028 C 
ATOM      4  C   UNL     1      -3.802   5.239  -4.099  1.00  0.00    -0.027 C 
BRANCH   4   5
ATOM      5  C   UNL     1      -4.996   5.976  -3.523  1.00  0.00     0.014 C 
BRANCH   5   6
ATOM      6  C   UNL     1      -4.529   7.079  -2.543  1.00  0.00     0.004 C 
ATOM      7  C   UNL     1      -5.327   7.087  -1.239  1.00  0.00     0.004 C 
ENDBRANCH   5   6
BRANCH   5   8
ATOM      8  C   UNL     1      -5.937   6.551  -4.626  1.00  0.00    -0.011 C 
ATOM      9  C   UNL     1      -7.416   6.156  -4.461  1.00  0.00     0.008 C 
ATOM     10  C   UNL     1      -5.810   8.077  -4.738  1.00  0.00     0.008 C 
ENDBRANCH   5   8
ENDBRANCH   4   5
ENDBRANCH   1   3
BRANCH   1  11
ATOM     11  C   UNL     1      -1.541   3.710  -4.938  1.00  0.00     0.002 C 
ATOM     12  C   UNL     1      -1.170   2.233  -5.008  1.00  0.00     0.005 C 
ATOM     13  C   UNL     1      -0.162   4.456  -4.988  1.00  0.00    -0.026 C 
ATOM     14  C   UNL     1       0.109   2.104  -4.211  1.00  0.00     0.005 C 
ATOM     15  C   UNL     1       0.850   3.448  -4.344  1.00  0.00    -0.001 C 
ATOM     16  C   UNL     1       0.266   4.797  -6.442  1.00  0.00     0.007 C 
ATOM     17  C   UNL     1      -0.232   5.756  -4.148  1.00  0.00     0.012 C 
ATOM     18  C   UNL     1       2.202   3.278  -5.114  1.00  0.00    -0.004 C 
ATOM     19  C   UNL     1       1.686   5.374  -6.537  1.00  0.00     0.005 C 
ATOM     20  C   UNL     1       2.729   4.652  -5.634  1.00  0.00    -0.001 C 
ATOM     21  C   UNL     1       3.242   2.587  -4.194  1.00  0.00     0.004 C 
ATOM     22  C   UNL     1       4.167   4.557  -6.281  1.00  0.00    -0.026 C 
ATOM     23  C   UNL     1       4.635   2.506  -4.822  1.00  0.00     0.004 C 
ATOM     24  C   UNL     1       5.115   3.908  -5.221  1.00  0.00    -0.002 C 
ATOM     25  C   UNL     1       4.702   5.992  -6.578  1.00  0.00     0.010 C 
ATOM     26  C   UNL     1       4.136   3.738  -7.614  1.00  0.00     0.012 C 
ATOM     27  C   UNL     1       6.599   3.905  -5.646  1.00  0.00     0.036 C 
ATOM     28  C   UNL     1       6.178   6.000  -7.010  1.00  0.00     0.032 C 
ATOM     29  C   UNL     1       7.079   5.333  -5.963  1.00  0.00     0.114 C 
BRANCH  29  30
ATOM     30  O   UNL     1       8.396   5.297  -6.447  1.00  0.00    -0.393 OA
ATOM     31  H   UNL     1       8.340   5.092  -7.416  1.00  0.00     0.210 HD
ENDBRANCH  29  30
ENDBRANCH   1  11
TORSDOF 6
ENDMDL
MODEL 4
REMARK VINA RESULT:    -4.637      2.857      5.724
REMARK INTER + INTRA:          -7.350
REMARK INTER:                  -5.885
REMARK INTRA:                  -1.466
REMARK UNBOUND:                -1.222
REMARK SMILES CC[C@H](C=C[C@H](C)[C@H]1CC[C@H]2[C@@H]3CC[C@H]4C[C@@H](O)CC[C@]4(C)[C@H]3CC[C@@]12C)C(C)C
REMARK SMILES IDX 6 1 7 2 5 3 4 4 3 5 2 6 1 7 28 8 29 9 30 10 8 11 9 12 26 13
REMARK SMILES IDX 10 14 11 15 25 16 27 17 12 18 24 19 23 20 13 21 21 22 14 23
REMARK SMILES IDX 15 24 20 25 22 26 16 27 19 28 17 29 18 30
REMARK H PARENT 18 31
REMARK Flexibility Score: inf
ROOT
ATOM      1  C   UNL     1       0.673   6.332  -6.075  1.00  0.00     0.012 C 
ATOM      2  C   UNL     1       0.667   7.848  -6.348  1.00  0.00     0.012 C 
ENDROOT
BRANCH   1   3
ATOM      3  C   UNL     1      -0.639   5.728  -6.532  1.00  0.00    -0.028 C 
ATOM      4  C   UNL     1      -1.489   5.107  -5.692  1.00  0.00    -0.027 C 
BRANCH   4   5
ATOM      5  C   UNL     1      -2.711   4.370  -6.205  1.00  0.00     0.014 C 
BRANCH   5   6
ATOM      6  C   UNL     1      -2.553   2.846  -5.988  1.00  0.00     0.004 C 
ATOM      7  C   UNL     1      -1.507   2.506  -4.925  1.00  0.00     0.004 C 
ENDBRANCH   5   6
BRANCH   5   8
ATOM      8  C   UNL     1      -4.039   4.902  -5.585  1.00  0.00    -0.011 C 
ATOM      9  C   UNL     1      -3.892   5.441  -4.150  1.00  0.00     0.008 C 
ATOM     10  C   UNL     1      -4.696   5.962  -6.480  1.00  0.00     0.008 C 
ENDBRANCH   5   8
ENDBRANCH   4   5
ENDBRANCH   1   3
BRANCH   1  11
ATOM     11  C   UNL     1       1.906   5.615  -6.720  1.00  0.00     0.002 C 
ATOM     12  C   UNL     1       3.200   6.397  -6.521  1.00  0.00     0.005 C 
ATOM     13  C   UNL     1       2.249   4.170  -6.218  1.00  0.00    -0.026 C 
ATOM     14  C   UNL     1       4.309   5.422  -6.847  1.00  0.00     0.005 C 
ATOM     15  C   UNL     1       3.786   4.020  -6.483  1.00  0.00    -0.001 C 
ATOM     16  C   UNL     1       1.940   3.985  -4.707  1.00  0.00     0.007 C 
ATOM     17  C   UNL     1       1.458   3.121  -7.041  1.00  0.00     0.012 C 
ATOM     18  C   UNL     1       4.607   3.395  -5.306  1.00  0.00    -0.004 C 
ATOM     19  C   UNL     1       2.422   2.639  -4.148  1.00  0.00     0.005 C 
ATOM     20  C   UNL     1       3.833   2.209  -4.649  1.00  0.00    -0.001 C 
ATOM     21  C   UNL     1       5.997   2.941  -5.824  1.00  0.00     0.004 C 
ATOM     22  C   UNL     1       4.683   1.445  -3.559  1.00  0.00    -0.026 C 
ATOM     23  C   UNL     1       6.813   2.193  -4.767  1.00  0.00     0.004 C 
ATOM     24  C   UNL     1       6.016   0.992  -4.240  1.00  0.00    -0.002 C 
ATOM     25  C   UNL     1       3.922   0.159  -3.110  1.00  0.00     0.010 C 
ATOM     26  C   UNL     1       4.945   2.346  -2.308  1.00  0.00     0.012 C 
ATOM     27  C   UNL     1       6.882   0.080  -3.346  1.00  0.00     0.036 C 
ATOM     28  C   UNL     1       4.773  -0.754  -2.212  1.00  0.00     0.032 C 
ATOM     29  C   UNL     1       6.086  -1.158  -2.895  1.00  0.00     0.114 C 
BRANCH  29  30
ATOM     30  O   UNL     1       6.853  -1.920  -2.001  1.00  0.00    -0.393 OA
ATOM     31  H   UNL     1       6.664  -1.571  -1.091  1.00  0.00     0.210 HD
ENDBRANCH  29  30
ENDBRANCH   1  11
TORSDOF 6
ENDMDL
MODEL 5
REMARK VINA RESULT:    -4.602      3.073      6.226
REMARK INTER + INTRA:          -7.304
REMARK INTER:                  -5.980
REMARK INTRA:                  -1.324
REMARK UNBOUND:                -1.222
REMARK SMILES CC[C@H](C=C[C@H](C)[C@H]1CC[C@H]2[C@@H]3CC[C@H]4C[C@@H](O)CC[C@]4(C)[C@H]3CC[C@@]12C)C(C)C
REMARK SMILES IDX 6 1 7 2 5 3 4 4 3 5 2 6 1 7 28 8 29 9 30 10 8 11 9 12 26 13
REMARK SMILES IDX 10 14 11 15 25 16 27 17 12 18 24 19 23 20 13 21 21 22 14 23
REMARK SMILES IDX 15 24 20 25 22 26 16 27 19 28 17 29 18 30
REMARK H PARENT 18 31
REMARK Flexibility Score: inf
ROOT
ATOM      1  C   UNL     1      -0.886   5.168  -4.904  1.00  0.00     0.012 C 
ATOM      2  C   UNL     1      -0.908   6.533  -4.191  1.00  0.00     0.012 C 
ENDROOT
BRANCH   1   3
ATOM      3  C   UNL     1      -2.137   5.013  -5.744  1.00  0.00    -0.028 C 
ATOM      4  C   UNL     1      -2.618   3.814  -6.124  1.00  0.00    -0.027 C 
BRANCH   4   5
ATOM      5  C   UNL     1      -3.774   3.698  -7.099  1.00  0.00     0.014 C 
BRANCH   5   6
ATOM      6  C   UNL     1      -4.628   4.988  -7.081  1.00  0.00     0.004 C 
ATOM      7  C   UNL     1      -5.779   4.949  -8.087  1.00  0.00     0.004 C 
ENDBRANCH   5   6
BRANCH   5   8
ATOM      8  C   UNL     1      -3.308   3.340  -8.544  1.00  0.00    -0.011 C 
ATOM      9  C   UNL     1      -2.144   4.205  -9.062  1.00  0.00     0.008 C 
ATOM     10  C   UNL     1      -2.954   1.852  -8.672  1.00  0.00     0.008 C 
ENDBRANCH   5   8
ENDBRANCH   4   5
ENDBRANCH   1   3
BRANCH   1  11
ATOM     11  C   UNL     1       0.416   4.955  -5.746  1.00  0.00     0.002 C 
ATOM     12  C   UNL     1       1.468   6.023  -5.465  1.00  0.00     0.005 C 
ATOM     13  C   UNL     1       1.185   3.601  -5.563  1.00  0.00    -0.026 C 
ATOM     14  C   UNL     1       2.755   5.476  -6.039  1.00  0.00     0.005 C 
ATOM     15  C   UNL     1       2.668   3.941  -5.936  1.00  0.00    -0.001 C 
ATOM     16  C   UNL     1       1.102   3.072  -4.105  1.00  0.00     0.007 C 
ATOM     17  C   UNL     1       0.619   2.535  -6.536  1.00  0.00     0.012 C 
ATOM     18  C   UNL     1       3.749   3.376  -4.954  1.00  0.00    -0.004 C 
ATOM     19  C   UNL     1       1.983   1.839  -3.855  1.00  0.00     0.005 C 
ATOM     20  C   UNL     1       3.395   1.923  -4.508  1.00  0.00    -0.001 C 
ATOM     21  C   UNL     1       5.145   3.433  -5.628  1.00  0.00     0.004 C 
ATOM     22  C   UNL     1       4.531   1.249  -3.641  1.00  0.00    -0.026 C 
ATOM     23  C   UNL     1       6.240   2.772  -4.789  1.00  0.00     0.004 C 
ATOM     24  C   UNL     1       5.855   1.320  -4.470  1.00  0.00    -0.002 C 
ATOM     25  C   UNL     1       4.194  -0.257  -3.418  1.00  0.00     0.010 C 
ATOM     26  C   UNL     1       4.677   1.951  -2.251  1.00  0.00     0.012 C 
ATOM     27  C   UNL     1       7.024   0.547  -3.826  1.00  0.00     0.036 C 
ATOM     28  C   UNL     1       5.350  -1.037  -2.769  1.00  0.00     0.032 C 
ATOM     29  C   UNL     1       6.641  -0.925  -3.590  1.00  0.00     0.114 C 
BRANCH  29  30
ATOM     30  O   UNL     1       7.676  -1.585  -2.910  1.00  0.00    -0.393 OA
ATOM     31  H   UNL     1       8.156  -2.136  -3.582  1.00  0.00     0.210 HD
ENDBRANCH  29  30
ENDBRANCH   1  11
TORSDOF 6
ENDMDL
MODEL 6
REMARK VINA RESULT:    -4.499      6.218      8.744
REMARK INTER + INTRA:          -7.167
REMARK INTER:                  -5.990
REMARK INTRA:                  -1.178
REMARK UNBOUND:                -1.222
REMARK SMILES CC[C@H](C=C[C@H](C)[C@H]1CC[C@H]2[C@@H]3CC[C@H]4C[C@@H](O)CC[C@]4(C)[C@H]3CC[C@@]12C)C(C)C
REMARK SMILES IDX 6 1 7 2 5 3 4 4 3 5 2 6 1 7 28 8 29 9 30 10 8 11 9 12 26 13
REMARK SMILES IDX 10 14 11 15 25 16 27 17 12 18 24 19 23 20 13 21 21 22 14 23
REMARK SMILES IDX 15 24 20 25 22 26 16 27 19 28 17 29 18 30
REMARK H PARENT 18 31
REMARK Flexibility Score: inf
ROOT
ATOM      1  C   UNL     1       7.973   1.826  -0.430  1.00  0.00     0.012 C 
ATOM      2  C   UNL     1       9.501   1.809  -0.626  1.00  0.00     0.012 C 
ENDROOT
BRANCH   1   3
ATOM      3  C   UNL     1       7.359   0.625  -1.120  1.00  0.00    -0.028 C 
ATOM      4  C   UNL     1       6.166   0.670  -1.741  1.00  0.00    -0.027 C 
BRANCH   4   5
ATOM      5  C   UNL     1       5.504  -0.586  -2.276  1.00  0.00     0.014 C 
BRANCH   5   6
ATOM      6  C   UNL     1       4.476  -0.228  -3.375  1.00  0.00     0.004 C 
ATOM      7  C   UNL     1       3.478   0.840  -2.926  1.00  0.00     0.004 C 
ENDBRANCH   5   6
BRANCH   5   8
ATOM      8  C   UNL     1       6.535  -1.642  -2.778  1.00  0.00    -0.011 C 
ATOM      9  C   UNL     1       6.361  -3.039  -2.154  1.00  0.00     0.008 C 
ATOM     10  C   UNL     1       6.536  -1.747  -4.310  1.00  0.00     0.008 C 
ENDBRANCH   5   8
ENDBRANCH   4   5
ENDBRANCH   1   3
BRANCH   1  11
ATOM     11  C   UNL     1       7.565   1.910   1.078  1.00  0.00     0.002 C 
ATOM     12  C   UNL     1       8.708   2.403   1.960  1.00  0.00     0.005 C 
ATOM     13  C   UNL     1       6.361   2.840   1.453  1.00  0.00    -0.026 C 
ATOM     14  C   UNL     1       8.062   2.784   3.273  1.00  0.00     0.005 C 
ATOM     15  C   UNL     1       6.629   3.243   2.944  1.00  0.00    -0.001 C 
ATOM     16  C   UNL     1       6.295   4.106   0.555  1.00  0.00     0.007 C 
ATOM     17  C   UNL     1       5.029   2.055   1.342  1.00  0.00     0.012 C 
ATOM     18  C   UNL     1       6.429   4.761   3.270  1.00  0.00    -0.004 C 
ATOM     19  C   UNL     1       5.232   5.118   1.006  1.00  0.00     0.005 C 
ATOM     20  C   UNL     1       5.167   5.329   2.548  1.00  0.00    -0.001 C 
ATOM     21  C   UNL     1       6.333   4.955   4.806  1.00  0.00     0.004 C 
ATOM     22  C   UNL     1       4.832   6.815   2.967  1.00  0.00    -0.026 C 
ATOM     23  C   UNL     1       6.000   6.394   5.206  1.00  0.00     0.004 C 
ATOM     24  C   UNL     1       4.699   6.842   4.525  1.00  0.00    -0.002 C 
ATOM     25  C   UNL     1       3.452   7.228   2.368  1.00  0.00     0.010 C 
ATOM     26  C   UNL     1       5.927   7.809   2.459  1.00  0.00     0.012 C 
ATOM     27  C   UNL     1       4.203   8.196   5.074  1.00  0.00     0.036 C 
ATOM     28  C   UNL     1       2.951   8.580   2.903  1.00  0.00     0.032 C 
ATOM     29  C   UNL     1       2.858   8.585   4.434  1.00  0.00     0.114 C 
BRANCH  29  30
ATOM     30  O   UNL     1       2.476   9.864   4.867  1.00  0.00    -0.393 OA
ATOM     31  H   UNL     1       2.940  10.516   4.280  1.00  0.00     0.210 HD
ENDBRANCH  29  30
ENDBRANCH   1  11
TORSDOF 6
ENDMDL
MODEL 7
REMARK VINA RESULT:    -4.457      4.760      6.929
REMARK INTER + INTRA:          -7.111
REMARK INTER:                  -5.735
REMARK INTRA:                  -1.377
REMARK UNBOUND:                -1.222
REMARK SMILES CC[C@H](C=C[C@H](C)[C@H]1CC[C@H]2[C@@H]3CC[C@H]4C[C@@H](O)CC[C@]4(C)[C@H]3CC[C@@]12C)C(C)C
REMARK SMILES IDX 6 1 7 2 5 3 4 4 3 5 2 6 1 7 28 8 29 9 30 10 8 11 9 12 26 13
REMARK SMILES IDX 10 14 11 15 25 16 27 17 12 18 24 19 23 20 13 21 21 22 14 23
REMARK SMILES IDX 15 24 20 25 22 26 16 27 19 28 17 29 18 30
REMARK H PARENT 18 31
REMARK Flexibility Score: inf
ROOT
ATOM      1  C   UNL     1       6.705  -0.230   3.419  1.00  0.00     0.012 C 
ATOM      2  C   UNL     1       7.917  -0.440   4.345  1.00  0.00     0.012 C 
ENDROOT
BRANCH   1   3
ATOM      3  C   UNL     1       6.389   1.249   3.323  1.00  0.00    -0.028 C 
ATOM      4  C   UNL     1       6.940   2.055   2.396  1.00  0.00    -0.027 C 
BRANCH   4   5
ATOM      5  C   UNL     1       6.732   3.558   2.430  1.00  0.00     0.014 C 
BRANCH   5   6
ATOM      6  C   UNL     1       5.466   3.946   1.631  1.00  0.00     0.004 C 
ATOM      7  C   UNL     1       5.353   3.198   0.302  1.00  0.00     0.004 C 
ENDBRANCH   5   6
BRANCH   5   8
ATOM      8  C   UNL     1       6.691   4.126   3.882  1.00  0.00    -0.011 C 
ATOM      9  C   UNL     1       8.069   4.215   4.563  1.00  0.00     0.008 C 
ATOM     10  C   UNL     1       5.990   5.490   3.935  1.00  0.00     0.008 C 
ENDBRANCH   5   8
ENDBRANCH   4   5
ENDBRANCH   1   3
BRANCH   1  11
ATOM     11  C   UNL     1       6.910  -0.879   2.010  1.00  0.00     0.002 C 
ATOM     12  C   UNL     1       7.979  -1.967   2.024  1.00  0.00     0.005 C 
ATOM     13  C   UNL     1       5.671  -1.567   1.340  1.00  0.00    -0.026 C 
ATOM     14  C   UNL     1       7.789  -2.730   0.733  1.00  0.00     0.005 C 
ATOM     15  C   UNL     1       6.291  -2.642   0.384  1.00  0.00    -0.001 C 
ATOM     16  C   UNL     1       4.741  -2.244   2.384  1.00  0.00     0.007 C 
ATOM     17  C   UNL     1       4.864  -0.525   0.523  1.00  0.00     0.012 C 
ATOM     18  C   UNL     1       5.612  -4.052   0.437  1.00  0.00    -0.004 C 
ATOM     19  C   UNL     1       3.612  -3.068   1.748  1.00  0.00     0.005 C 
ATOM     20  C   UNL     1       4.059  -3.923   0.525  1.00  0.00    -0.001 C 
ATOM     21  C   UNL     1       6.038  -4.882  -0.803  1.00  0.00     0.004 C 
ATOM     22  C   UNL     1       3.317  -5.314   0.424  1.00  0.00    -0.026 C 
ATOM     23  C   UNL     1       5.311  -6.225  -0.901  1.00  0.00     0.004 C 
ATOM     24  C   UNL     1       3.792  -6.001  -0.898  1.00  0.00    -0.002 C 
ATOM     25  C   UNL     1       1.780  -5.079   0.308  1.00  0.00     0.010 C 
ATOM     26  C   UNL     1       3.605  -6.204   1.678  1.00  0.00     0.012 C 
ATOM     27  C   UNL     1       3.023  -7.298  -1.225  1.00  0.00     0.036 C 
ATOM     28  C   UNL     1       1.002  -6.367  -0.010  1.00  0.00     0.032 C 
ATOM     29  C   UNL     1       1.509  -7.033  -1.296  1.00  0.00     0.114 C 
BRANCH  29  30
ATOM     30  O   UNL     1       0.821  -8.241  -1.490  1.00  0.00    -0.393 OA
ATOM     31  H   UNL     1       1.271  -8.710  -2.239  1.00  0.00     0.210 HD
ENDBRANCH  29  30
ENDBRANCH   1  11
TORSDOF 6
ENDMDL
MODEL 8
REMARK VINA RESULT:    -4.412      7.082      9.961
REMARK INTER + INTRA:          -7.052
REMARK INTER:                  -5.741
REMARK INTRA:                  -1.312
REMARK UNBOUND:                -1.222
REMARK SMILES CC[C@H](C=C[C@H](C)[C@H]1CC[C@H]2[C@@H]3CC[C@H]4C[C@@H](O)CC[C@]4(C)[C@H]3CC[C@@]12C)C(C)C
REMARK SMILES IDX 6 1 7 2 5 3 4 4 3 5 2 6 1 7 28 8 29 9 30 10 8 11 9 12 26 13
REMARK SMILES IDX 10 14 11 15 25 16 27 17 12 18 24 19 23 20 13 21 21 22 14 23
REMARK SMILES IDX 15 24 20 25 22 26 16 27 19 28 17 29 18 30
REMARK H PARENT 18 31
REMARK Flexibility Score: inf
ROOT
ATOM      1  C   UNL     1       1.832  -2.414   7.937  1.00  0.00     0.012 C 
ATOM      2  C   UNL     1       2.871  -2.614   9.056  1.00  0.00     0.012 C 
ENDROOT
BRANCH   1   3
ATOM      3  C   UNL     1       0.711  -1.525   8.437  1.00  0.00    -0.028 C 
ATOM      4  C   UNL     1       0.396  -0.352   7.858  1.00  0.00    -0.027 C 
BRANCH   4   5
ATOM      5  C   UNL     1      -0.618   0.590   8.480  1.00  0.00     0.014 C 
BRANCH   5   6
ATOM      6  C   UNL     1       0.067   1.514   9.515  1.00  0.00     0.004 C 
ATOM      7  C   UNL     1       0.355   2.910   8.961  1.00  0.00     0.004 C 
ENDBRANCH   5   6
BRANCH   5   8
ATOM      8  C   UNL     1      -1.409   1.410   7.415  1.00  0.00    -0.011 C 
ATOM      9  C   UNL     1      -1.198   0.930   5.966  1.00  0.00     0.008 C 
ATOM     10  C   UNL     1      -2.908   1.460   7.739  1.00  0.00     0.008 C 
ENDBRANCH   5   8
ENDBRANCH   4   5
ENDBRANCH   1   3
BRANCH   1  11
ATOM     11  C   UNL     1       2.473  -1.866   6.619  1.00  0.00     0.002 C 
ATOM     12  C   UNL     1       3.994  -1.979   6.623  1.00  0.00     0.005 C 
ATOM     13  C   UNL     1       2.041  -2.536   5.269  1.00  0.00    -0.026 C 
ATOM     14  C   UNL     1       4.413  -1.777   5.185  1.00  0.00     0.005 C 
ATOM     15  C   UNL     1       3.258  -2.301   4.310  1.00  0.00    -0.001 C 
ATOM     16  C   UNL     1       1.768  -4.057   5.431  1.00  0.00     0.007 C 
ATOM     17  C   UNL     1       0.776  -1.838   4.710  1.00  0.00     0.012 C 
ATOM     18  C   UNL     1       3.699  -3.549   3.474  1.00  0.00    -0.004 C 
ATOM     19  C   UNL     1       1.509  -4.774   4.098  1.00  0.00     0.005 C 
ATOM     20  C   UNL     1       2.460  -4.336   2.944  1.00  0.00    -0.001 C 
ATOM     21  C   UNL     1       4.618  -3.096   2.309  1.00  0.00     0.004 C 
ATOM     22  C   UNL     1       2.848  -5.513   1.966  1.00  0.00    -0.026 C 
ATOM     23  C   UNL     1       4.984  -4.239   1.359  1.00  0.00     0.004 C 
ATOM     24  C   UNL     1       3.710  -4.899   0.815  1.00  0.00    -0.002 C 
ATOM     25  C   UNL     1       1.556  -6.107   1.324  1.00  0.00     0.010 C 
ATOM     26  C   UNL     1       3.612  -6.651   2.721  1.00  0.00     0.012 C 
ATOM     27  C   UNL     1       4.024  -5.900  -0.317  1.00  0.00     0.036 C 
ATOM     28  C   UNL     1       1.857  -7.111   0.199  1.00  0.00     0.032 C 
ATOM     29  C   UNL     1       2.727  -6.488  -0.901  1.00  0.00     0.114 C 
BRANCH  29  30
ATOM     30  O   UNL     1       3.035  -7.471  -1.854  1.00  0.00    -0.393 OA
ATOM     31  H   UNL     1       3.764  -8.024  -1.471  1.00  0.00     0.210 HD
ENDBRANCH  29  30
ENDBRANCH   1  11
TORSDOF 6
ENDMDL
MODEL 9
REMARK VINA RESULT:    -4.386      3.986      6.238
REMARK INTER + INTRA:          -7.018
REMARK INTER:                  -5.669
REMARK INTRA:                  -1.348
REMARK UNBOUND:                -1.222
REMARK SMILES CC[C@H](C=C[C@H](C)[C@H]1CC[C@H]2[C@@H]3CC[C@H]4C[C@@H](O)CC[C@]4(C)[C@H]3CC[C@@]12C)C(C)C
REMARK SMILES IDX 6 1 7 2 5 3 4 4 3 5 2 6 1 7 28 8 29 9 30 10 8 11 9 12 26 13
REMARK SMILES IDX 10 14 11 15 25 16 27 17 12 18 24 19 23 20 13 21 21 22 14 23
REMARK SMILES IDX 15 24 20 25 22 26 16 27 19 28 17 29 18 30
REMARK H PARENT 18 31
REMARK Flexibility Score: inf
ROOT
ATOM      1  C   UNL     1       6.108  -0.082   2.472  1.00  0.00     0.012 C 
ATOM      2  C   UNL     1       6.984  -0.303   3.720  1.00  0.00     0.012 C 
ENDROOT
BRANCH   1   3
ATOM      3  C   UNL     1       6.041   1.397   2.154  1.00  0.00    -0.028 C 
ATOM      4  C   UNL     1       5.027   1.951   1.462  1.00  0.00    -0.027 C 
BRANCH   4   5
ATOM      5  C   UNL     1       5.072   3.400   1.017  1.00  0.00     0.014 C 
BRANCH   5   6
ATOM      6  C   UNL     1       5.696   4.286   2.122  1.00  0.00     0.004 C 
ATOM      7  C   UNL     1       5.112   5.699   2.146  1.00  0.00     0.004 C 
ENDBRANCH   5   6
BRANCH   5   8
ATOM      8  C   UNL     1       5.802   3.588  -0.348  1.00  0.00    -0.011 C 
ATOM      9  C   UNL     1       7.330   3.737  -0.230  1.00  0.00     0.008 C 
ATOM     10  C   UNL     1       5.458   2.462  -1.333  1.00  0.00     0.008 C 
ENDBRANCH   5   8
ENDBRANCH   4   5
ENDBRANCH   1   3
BRANCH   1  11
ATOM     11  C   UNL     1       6.590  -0.926   1.246  1.00  0.00     0.002 C 
ATOM     12  C   UNL     1       7.756  -1.845   1.598  1.00  0.00     0.005 C 
ATOM     13  C   UNL     1       5.546  -1.874   0.561  1.00  0.00    -0.026 C 
ATOM     14  C   UNL     1       7.844  -2.832   0.457  1.00  0.00     0.005 C 
ATOM     15  C   UNL     1       6.415  -3.004  -0.091  1.00  0.00    -0.001 C 
ATOM     16  C   UNL     1       4.548  -2.483   1.585  1.00  0.00     0.007 C 
ATOM     17  C   UNL     1       4.764  -1.101  -0.530  1.00  0.00     0.012 C 
ATOM     18  C   UNL     1       5.890  -4.461   0.134  1.00  0.00    -0.004 C 
ATOM     19  C   UNL     1       3.623  -3.545   0.973  1.00  0.00     0.005 C 
ATOM     20  C   UNL     1       4.337  -4.527  -0.003  1.00  0.00    -0.001 C 
ATOM     21  C   UNL     1       6.584  -5.424  -0.866  1.00  0.00     0.004 C 
ATOM     22  C   UNL     1       3.773  -6.000   0.060  1.00  0.00    -0.026 C 
ATOM     23  C   UNL     1       6.028  -6.849  -0.806  1.00  0.00     0.004 C 
ATOM     24  C   UNL     1       4.511  -6.831  -1.040  1.00  0.00    -0.002 C 
ATOM     25  C   UNL     1       2.253  -5.994  -0.292  1.00  0.00     0.010 C 
ATOM     26  C   UNL     1       3.964  -6.621   1.484  1.00  0.00     0.012 C 
ATOM     27  C   UNL     1       3.944  -8.255  -1.217  1.00  0.00     0.036 C 
ATOM     28  C   UNL     1       1.675  -7.409  -0.464  1.00  0.00     0.032 C 
ATOM     29  C   UNL     1       2.437  -8.208  -1.529  1.00  0.00     0.114 C 
BRANCH  29  30
ATOM     30  O   UNL     1       1.920  -9.511  -1.583  1.00  0.00    -0.393 OA
ATOM     31  H   UNL     1       2.313 -10.008  -0.819  1.00  0.00     0.210 HD
ENDBRANCH  29  30
ENDBRANCH   1  11
TORSDOF 6
ENDMDL
