MODEL 1
REMARK VINA RESULT:    -6.515      0.000      0.000
REMARK INTER + INTRA:          -7.790
REMARK INTER:                  -7.657
REMARK INTRA:                  -0.133
REMARK UNBOUND:                -0.133
REMARK SMILES O=C([O-])C=Cc1ccc(O)c(O)c1
REMARK SMILES IDX 6 1 13 2 7 3 11 4 8 5 9 6 5 7 4 8 2 9 1 10 3 11 12 12 10 14
REMARK H PARENT 12 13 10 15
REMARK Flexibility Score: inf
ROOT
ATOM      1  C   UNL     1      11.459   8.300  28.526  1.00  0.00    -0.022 A 
ATOM      2  C   UNL     1      11.871   9.021  29.660  1.00  0.00     0.058 A 
ATOM      3  C   UNL     1      10.237   8.639  27.914  1.00  0.00     0.012 A 
ATOM      4  C   UNL     1      11.073  10.040  30.192  1.00  0.00     0.157 A 
ATOM      5  C   UNL     1       9.439   9.657  28.442  1.00  0.00     0.051 A 
ATOM      6  C   UNL     1       9.849  10.359  29.583  1.00  0.00     0.157 A 
ENDROOT
BRANCH   1   7
ATOM      7  C   UNL     1      12.349   7.236  27.998  1.00  0.00     0.010 C 
ATOM      8  C   UNL     1      13.124   6.463  28.770  1.00  0.00     0.025 C 
BRANCH   8   9
ATOM      9  C   UNL     1      14.001   5.428  28.201  1.00  0.00     0.064 C 
ATOM     10  O   UNL     1      14.457   5.570  27.036  1.00  0.00    -0.545 OA
ATOM     11  O   UNL     1      14.339   4.293  28.931  1.00  0.00    -0.545 OA
ENDBRANCH   8   9
ENDBRANCH   1   7
BRANCH   4  12
ATOM     12  O   UNL     1      11.514  10.724  31.325  1.00  0.00    -0.504 OA
ATOM     13  H   UNL     1      12.104  10.285  32.021  1.00  0.00     0.293 HD
ENDBRANCH   4  12
BRANCH   6  14
ATOM     14  O   UNL     1       9.049  11.373  30.107  1.00  0.00    -0.504 OA
ATOM     15  H   UNL     1       8.850  11.432  31.100  1.00  0.00     0.293 HD
ENDBRANCH   6  14
TORSDOF 4
ENDMDL
MODEL 2
REMARK VINA RESULT:    -6.268      1.071      2.043
REMARK INTER + INTRA:          -7.500
REMARK INTER:                  -7.358
REMARK INTRA:                  -0.141
REMARK UNBOUND:                -0.133
REMARK SMILES O=C([O-])C=Cc1ccc(O)c(O)c1
REMARK SMILES IDX 6 1 13 2 7 3 11 4 8 5 9 6 5 7 4 8 2 9 1 10 3 11 12 12 10 14
REMARK H PARENT 12 13 10 15
REMARK Flexibility Score: inf
ROOT
ATOM      1  C   UNL     1      12.359   8.610  29.144  1.00  0.00    -0.022 A 
ATOM      2  C   UNL     1      11.201   9.248  28.670  1.00  0.00     0.058 A 
ATOM      3  C   UNL     1      13.050   9.177  30.233  1.00  0.00     0.012 A 
ATOM      4  C   UNL     1      10.752  10.441  29.247  1.00  0.00     0.157 A 
ATOM      5  C   UNL     1      12.603  10.368  30.810  1.00  0.00     0.051 A 
ATOM      6  C   UNL     1      11.457  11.007  30.321  1.00  0.00     0.157 A 
ENDROOT
BRANCH   1   7
ATOM      7  C   UNL     1      12.784   7.341  28.503  1.00  0.00     0.010 C 
ATOM      8  C   UNL     1      13.510   6.400  29.121  1.00  0.00     0.025 C 
BRANCH   8   9
ATOM      9  C   UNL     1      13.920   5.161  28.441  1.00  0.00     0.064 C 
ATOM     10  O   UNL     1      14.362   5.216  27.263  1.00  0.00    -0.545 OA
ATOM     11  O   UNL     1      13.830   3.929  29.079  1.00  0.00    -0.545 OA
ENDBRANCH   8   9
ENDBRANCH   1   7
BRANCH   4  12
ATOM     12  O   UNL     1       9.603  11.049  28.739  1.00  0.00    -0.504 OA
ATOM     13  H   UNL     1       9.605  11.553  27.861  1.00  0.00     0.293 HD
ENDBRANCH   4  12
BRANCH   6  14
ATOM     14  O   UNL     1      11.015  12.196  30.900  1.00  0.00    -0.504 OA
ATOM     15  H   UNL     1      11.006  13.067  30.381  1.00  0.00     0.293 HD
ENDBRANCH   6  14
TORSDOF 4
ENDMDL
MODEL 3
REMARK VINA RESULT:    -6.213      1.225      5.840
REMARK INTER + INTRA:          -7.435
REMARK INTER:                  -7.306
REMARK INTRA:                  -0.130
REMARK UNBOUND:                -0.133
REMARK SMILES O=C([O-])C=Cc1ccc(O)c(O)c1
REMARK SMILES IDX 6 1 13 2 7 3 11 4 8 5 9 6 5 7 4 8 2 9 1 10 3 11 12 12 10 14
REMARK H PARENT 12 13 10 15
REMARK Flexibility Score: inf
ROOT
ATOM      1  C   UNL     1      12.899   8.148  28.942  1.00  0.00    -0.022 A 
ATOM      2  C   UNL     1      12.917   7.041  29.808  1.00  0.00     0.058 A 
ATOM      3  C   UNL     1      13.459   8.015  27.657  1.00  0.00     0.012 A 
ATOM      4  C   UNL     1      13.505   5.834  29.416  1.00  0.00     0.157 A 
ATOM      5  C   UNL     1      14.046   6.809  27.263  1.00  0.00     0.051 A 
ATOM      6  C   UNL     1      14.076   5.716  28.138  1.00  0.00     0.157 A 
ENDROOT
BRANCH   1   7
ATOM      7  C   UNL     1      12.253   9.401  29.406  1.00  0.00     0.010 C 
ATOM      8  C   UNL     1      10.928   9.599  29.410  1.00  0.00     0.025 C 
BRANCH   8   9
ATOM      9  C   UNL     1      10.332  10.864  29.867  1.00  0.00     0.064 C 
ATOM     10  O   UNL     1      11.073  11.766  30.339  1.00  0.00    -0.545 OA
ATOM     11  O   UNL     1       8.962  11.083  29.785  1.00  0.00    -0.545 OA
ENDBRANCH   8   9
ENDBRANCH   1   7
BRANCH   4  12
ATOM     12  O   UNL     1      13.512   4.762  30.309  1.00  0.00    -0.504 OA
ATOM     13  H   UNL     1      14.337   4.510  30.839  1.00  0.00     0.293 HD
ENDBRANCH   4  12
BRANCH   6  14
ATOM     14  O   UNL     1      14.663   4.515  27.742  1.00  0.00    -0.504 OA
ATOM     15  H   UNL     1      15.007   4.380  26.798  1.00  0.00     0.293 HD
ENDBRANCH   6  14
TORSDOF 4
ENDMDL
MODEL 4
REMARK VINA RESULT:    -5.772      1.181      5.973
REMARK INTER + INTRA:          -6.917
REMARK INTER:                  -6.781
REMARK INTRA:                  -0.136
REMARK UNBOUND:                -0.133
REMARK SMILES O=C([O-])C=Cc1ccc(O)c(O)c1
REMARK SMILES IDX 6 1 13 2 7 3 11 4 8 5 9 6 5 7 4 8 2 9 1 10 3 11 12 12 10 14
REMARK H PARENT 12 13 10 15
REMARK Flexibility Score: inf
ROOT
ATOM      1  C   UNL     1      12.493   8.013  28.931  1.00  0.00    -0.022 A 
ATOM      2  C   UNL     1      13.213   7.694  27.767  1.00  0.00     0.058 A 
ATOM      3  C   UNL     1      12.574   7.147  30.039  1.00  0.00     0.012 A 
ATOM      4  C   UNL     1      13.976   6.523  27.695  1.00  0.00     0.157 A 
ATOM      5  C   UNL     1      13.336   5.979  29.969  1.00  0.00     0.051 A 
ATOM      6  C   UNL     1      14.038   5.659  28.800  1.00  0.00     0.157 A 
ENDROOT
BRANCH   1   7
ATOM      7  C   UNL     1      11.707   9.272  28.957  1.00  0.00     0.010 C 
ATOM      8  C   UNL     1      10.675   9.489  29.782  1.00  0.00     0.025 C 
BRANCH   8   9
ATOM      9  C   UNL     1       9.916  10.749  29.765  1.00  0.00     0.064 C 
ATOM     10  O   UNL     1      10.436  11.795  30.236  1.00  0.00    -0.545 OA
ATOM     11  O   UNL     1       8.632  10.806  29.232  1.00  0.00    -0.545 OA
ENDBRANCH   8   9
ENDBRANCH   1   7
BRANCH   4  12
ATOM     12  O   UNL     1      14.668   6.237  26.518  1.00  0.00    -0.504 OA
ATOM     13  H   UNL     1      14.862   6.948  25.823  1.00  0.00     0.293 HD
ENDBRANCH   4  12
BRANCH   6  14
ATOM     14  O   UNL     1      14.797   4.491  28.734  1.00  0.00    -0.504 OA
ATOM     15  H   UNL     1      14.491   3.634  29.181  1.00  0.00     0.293 HD
ENDBRANCH   6  14
TORSDOF 4
ENDMDL
MODEL 5
REMARK VINA RESULT:    -4.494     12.456     14.560
REMARK INTER + INTRA:          -5.415
REMARK INTER:                  -5.289
REMARK INTRA:                  -0.126
REMARK UNBOUND:                -0.133
REMARK SMILES O=C([O-])C=Cc1ccc(O)c(O)c1
REMARK SMILES IDX 6 1 13 2 7 3 11 4 8 5 9 6 5 7 4 8 2 9 1 10 3 11 12 12 10 14
REMARK H PARENT 12 13 10 15
REMARK Flexibility Score: inf
ROOT
ATOM      1  C   UNL     1      15.637  20.332  26.245  1.00  0.00    -0.022 A 
ATOM      2  C   UNL     1      17.007  20.558  26.026  1.00  0.00     0.058 A 
ATOM      3  C   UNL     1      15.233  19.110  26.817  1.00  0.00     0.012 A 
ATOM      4  C   UNL     1      17.955  19.578  26.343  1.00  0.00     0.157 A 
ATOM      5  C   UNL     1      16.178  18.132  27.136  1.00  0.00     0.051 A 
ATOM      6  C   UNL     1      17.540  18.358  26.899  1.00  0.00     0.157 A 
ENDROOT
BRANCH   1   7
ATOM      7  C   UNL     1      14.676  21.409  25.899  1.00  0.00     0.010 C 
ATOM      8  C   UNL     1      14.670  22.617  26.478  1.00  0.00     0.025 C 
BRANCH   8   9
ATOM      9  C   UNL     1      13.690  23.650  26.112  1.00  0.00     0.064 C 
ATOM     10  O   UNL     1      12.928  24.125  26.995  1.00  0.00    -0.545 OA
ATOM     11  O   UNL     1      13.591  24.115  24.805  1.00  0.00    -0.545 OA
ENDBRANCH   8   9
ENDBRANCH   1   7
BRANCH   4  12
ATOM     12  O   UNL     1      19.304  19.838  26.100  1.00  0.00    -0.504 OA
ATOM     13  H   UNL     1      19.910  20.237  26.806  1.00  0.00     0.293 HD
ENDBRANCH   4  12
BRANCH   6  14
ATOM     14  O   UNL     1      18.480  17.378  27.217  1.00  0.00    -0.504 OA
ATOM     15  H   UNL     1      19.261  17.573  27.833  1.00  0.00     0.293 HD
ENDBRANCH   6  14
TORSDOF 4
ENDMDL
MODEL 6
REMARK VINA RESULT:    -4.078     12.150     14.283
REMARK INTER + INTRA:          -4.926
REMARK INTER:                  -4.798
REMARK INTRA:                  -0.127
REMARK UNBOUND:                -0.133
REMARK SMILES O=C([O-])C=Cc1ccc(O)c(O)c1
REMARK SMILES IDX 6 1 13 2 7 3 11 4 8 5 9 6 5 7 4 8 2 9 1 10 3 11 12 12 10 14
REMARK H PARENT 12 13 10 15
REMARK Flexibility Score: inf
ROOT
ATOM      1  C   UNL     1      15.956  20.314  26.130  1.00  0.00    -0.022 A 
ATOM      2  C   UNL     1      15.514  19.197  26.859  1.00  0.00     0.058 A 
ATOM      3  C   UNL     1      17.306  20.375  25.733  1.00  0.00     0.012 A 
ATOM      4  C   UNL     1      16.401  18.174  27.211  1.00  0.00     0.157 A 
ATOM      5  C   UNL     1      18.193  19.353  26.083  1.00  0.00     0.051 A 
ATOM      6  C   UNL     1      17.748  18.251  26.824  1.00  0.00     0.157 A 
ENDROOT
BRANCH   1   7
ATOM      7  C   UNL     1      14.971  21.366  25.775  1.00  0.00     0.010 C 
ATOM      8  C   UNL     1      14.750  22.460  26.515  1.00  0.00     0.025 C 
BRANCH   8   9
ATOM      9  C   UNL     1      13.754  23.472  26.130  1.00  0.00     0.064 C 
ATOM     10  O   UNL     1      13.153  24.125  27.024  1.00  0.00    -0.545 OA
ATOM     11  O   UNL     1      13.465  23.723  24.793  1.00  0.00    -0.545 OA
ENDBRANCH   8   9
ENDBRANCH   1   7
BRANCH   4  12
ATOM     12  O   UNL     1      15.923  17.087  27.944  1.00  0.00    -0.504 OA
ATOM     13  H   UNL     1      16.386  16.760  28.783  1.00  0.00     0.293 HD
ENDBRANCH   4  12
BRANCH   6  14
ATOM     14  O   UNL     1      18.636  17.235  27.172  1.00  0.00    -0.504 OA
ATOM     15  H   UNL     1      18.519  16.697  28.023  1.00  0.00     0.293 HD
ENDBRANCH   6  14
TORSDOF 4
ENDMDL
MODEL 7
REMARK VINA RESULT:    -3.640     18.864     20.019
REMARK INTER + INTRA:          -4.411
REMARK INTER:                  -4.275
REMARK INTRA:                  -0.136
REMARK UNBOUND:                -0.133
REMARK SMILES O=C([O-])C=Cc1ccc(O)c(O)c1
REMARK SMILES IDX 6 1 13 2 7 3 11 4 8 5 9 6 5 7 4 8 2 9 1 10 3 11 12 12 10 14
REMARK H PARENT 12 13 10 15
REMARK Flexibility Score: inf
ROOT
ATOM      1  C   UNL     1      23.891  12.702  13.200  1.00  0.00    -0.022 A 
ATOM      2  C   UNL     1      23.528  13.452  14.331  1.00  0.00     0.058 A 
ATOM      3  C   UNL     1      24.125  13.374  11.985  1.00  0.00     0.012 A 
ATOM      4  C   UNL     1      23.372  14.841  14.250  1.00  0.00     0.157 A 
ATOM      5  C   UNL     1      23.971  14.761  11.903  1.00  0.00     0.051 A 
ATOM      6  C   UNL     1      23.592  15.500  13.030  1.00  0.00     0.157 A 
ENDROOT
BRANCH   1   7
ATOM      7  C   UNL     1      24.052  11.233  13.344  1.00  0.00     0.010 C 
ATOM      8  C   UNL     1      23.857  10.572  14.492  1.00  0.00     0.025 C 
BRANCH   8   9
ATOM      9  C   UNL     1      24.040   9.115  14.591  1.00  0.00     0.064 C 
ATOM     10  O   UNL     1      24.125   8.426  13.541  1.00  0.00    -0.545 OA
ATOM     11  O   UNL     1      24.124   8.485  15.828  1.00  0.00    -0.545 OA
ENDBRANCH   8   9
ENDBRANCH   1   7
BRANCH   4  12
ATOM     12  O   UNL     1      22.999  15.548  15.394  1.00  0.00    -0.504 OA
ATOM     13  H   UNL     1      22.501  16.428  15.343  1.00  0.00     0.293 HD
ENDBRANCH   4  12
BRANCH   6  14
ATOM     14  O   UNL     1      23.439  16.883  12.944  1.00  0.00    -0.504 OA
ATOM     15  H   UNL     1      22.522  17.314  12.920  1.00  0.00     0.293 HD
ENDBRANCH   6  14
TORSDOF 4
ENDMDL
