MODEL 1
REMARK VINA RESULT:    -4.257      0.000      0.000
REMARK INTER + INTRA:          -7.059
REMARK INTER:                  -6.496
REMARK INTRA:                  -0.562
REMARK UNBOUND:                -0.562
REMARK SMILES CCCCCCCCCCC(=O)[O-]
REMARK SMILES IDX 7 1 8 2 9 3 10 4 11 5 12 6 13 7 6 8 5 9 4 10 3 11 2 12 1 13
REMARK H PARENT
REMARK Flexibility Score: inf
ROOT
ATOM      1  C   UNL     1      33.832   5.020  47.138  1.00  0.00     0.000 C 
ENDROOT
BRANCH   1   2
ATOM      2  C   UNL     1      33.852   6.058  48.275  1.00  0.00     0.000 C 
BRANCH   2   3
ATOM      3  C   UNL     1      32.440   6.475  48.719  1.00  0.00     0.006 C 
BRANCH   3   4
ATOM      4  C   UNL     1      31.356   6.018  47.735  1.00  0.00     0.053 C 
BRANCH   4   5
ATOM      5  C   UNL     1      30.004   6.444  48.214  1.00  0.00     0.041 C 
ATOM      6  O   UNL     1      29.827   7.608  48.661  1.00  0.00    -0.550 OA
ATOM      7  O   UNL     1      28.949   5.540  48.213  1.00  0.00    -0.550 OA
ENDBRANCH   4   5
ENDBRANCH   3   4
ENDBRANCH   2   3
ENDBRANCH   1   2
BRANCH   1   8
ATOM      8  C   UNL     1      34.592   5.494  45.889  1.00  0.00     0.000 C 
BRANCH   8   9
ATOM      9  C   UNL     1      33.752   6.433  45.008  1.00  0.00    -0.000 C 
BRANCH   9  10
ATOM     10  C   UNL     1      34.086   7.915  45.240  1.00  0.00    -0.000 C 
BRANCH  10  11
ATOM     11  C   UNL     1      34.449   8.652  43.941  1.00  0.00    -0.000 C 
BRANCH  11  12
ATOM     12  C   UNL     1      34.418  10.171  44.147  1.00  0.00    -0.003 C 
ATOM     13  C   UNL     1      35.071  10.563  45.469  1.00  0.00     0.004 C 
ENDBRANCH  11  12
ENDBRANCH  10  11
ENDBRANCH   9  10
ENDBRANCH   8   9
ENDBRANCH   1   8
TORSDOF 9
ENDMDL
MODEL 2
REMARK VINA RESULT:    -4.234      3.136      5.649
REMARK INTER + INTRA:          -7.024
REMARK INTER:                  -6.297
REMARK INTRA:                  -0.727
REMARK UNBOUND:                -0.562
REMARK SMILES CCCCCCCCCCC(=O)[O-]
REMARK SMILES IDX 7 1 8 2 9 3 10 4 11 5 12 6 13 7 6 8 5 9 4 10 3 11 2 12 1 13
REMARK H PARENT
REMARK Flexibility Score: inf
ROOT
ATOM      1  C   UNL     1      33.681   8.447  47.217  1.00  0.00     0.000 C 
ENDROOT
BRANCH   1   2
ATOM      2  C   UNL     1      33.907   8.229  45.710  1.00  0.00     0.000 C 
BRANCH   2   3
ATOM      3  C   UNL     1      33.968   6.741  45.332  1.00  0.00     0.006 C 
BRANCH   3   4
ATOM      4  C   UNL     1      33.980   5.822  46.560  1.00  0.00     0.053 C 
BRANCH   4   5
ATOM      5  C   UNL     1      35.084   4.818  46.450  1.00  0.00     0.041 C 
ATOM      6  O   UNL     1      35.309   4.240  45.354  1.00  0.00    -0.550 OA
ATOM      7  O   UNL     1      35.833   4.482  47.571  1.00  0.00    -0.550 OA
ENDBRANCH   4   5
ENDBRANCH   3   4
ENDBRANCH   2   3
ENDBRANCH   1   2
BRANCH   1   8
ATOM      8  C   UNL     1      32.577   9.476  47.509  1.00  0.00     0.000 C 
BRANCH   8   9
ATOM      9  C   UNL     1      31.519   8.943  48.490  1.00  0.00    -0.000 C 
BRANCH   9  10
ATOM     10  C   UNL     1      31.571   7.414  48.641  1.00  0.00    -0.000 C 
BRANCH  10  11
ATOM     11  C   UNL     1      30.524   6.697  47.776  1.00  0.00    -0.000 C 
BRANCH  11  12
ATOM     12  C   UNL     1      29.429   6.070  48.648  1.00  0.00    -0.003 C 
ATOM     13  C   UNL     1      28.293   5.517  47.793  1.00  0.00     0.004 C 
ENDBRANCH  11  12
ENDBRANCH  10  11
ENDBRANCH   9  10
ENDBRANCH   8   9
ENDBRANCH   1   8
TORSDOF 9
ENDMDL
MODEL 3
REMARK VINA RESULT:    -4.177     16.695     17.721
REMARK INTER + INTRA:          -6.937
REMARK INTER:                  -6.054
REMARK INTRA:                  -0.883
REMARK UNBOUND:                -0.562
REMARK SMILES CCCCCCCCCCC(=O)[O-]
REMARK SMILES IDX 7 1 8 2 9 3 10 4 11 5 12 6 13 7 6 8 5 9 4 10 3 11 2 12 1 13
REMARK H PARENT
REMARK Flexibility Score: inf
ROOT
ATOM      1  C   UNL     1      20.927   9.743  35.043  1.00  0.00     0.000 C 
ENDROOT
BRANCH   1   2
ATOM      2  C   UNL     1      20.065   9.129  36.161  1.00  0.00     0.000 C 
BRANCH   2   3
ATOM      3  C   UNL     1      19.574   7.713  35.817  1.00  0.00     0.006 C 
BRANCH   3   4
ATOM      4  C   UNL     1      20.628   6.892  35.065  1.00  0.00     0.053 C 
BRANCH   4   5
ATOM      5  C   UNL     1      20.086   6.427  33.750  1.00  0.00     0.041 C 
ATOM      6  O   UNL     1      18.866   6.578  33.477  1.00  0.00    -0.550 OA
ATOM      7  O   UNL     1      20.919   5.782  32.843  1.00  0.00    -0.550 OA
ENDBRANCH   4   5
ENDBRANCH   3   4
ENDBRANCH   2   3
ENDBRANCH   1   2
BRANCH   1   8
ATOM      8  C   UNL     1      22.243  10.338  35.567  1.00  0.00     0.000 C 
BRANCH   8   9
ATOM      9  C   UNL     1      22.191  11.871  35.689  1.00  0.00    -0.000 C 
BRANCH   9  10
ATOM     10  C   UNL     1      21.264  12.514  34.645  1.00  0.00    -0.000 C 
BRANCH  10  11
ATOM     11  C   UNL     1      20.322  13.564  35.255  1.00  0.00    -0.000 C 
BRANCH  11  12
ATOM     12  C   UNL     1      19.169  12.892  36.010  1.00  0.00    -0.003 C 
ATOM     13  C   UNL     1      18.209  12.199  35.048  1.00  0.00     0.004 C 
ENDBRANCH  11  12
ENDBRANCH  10  11
ENDBRANCH   9  10
ENDBRANCH   8   9
ENDBRANCH   1   8
TORSDOF 9
ENDMDL
MODEL 4
REMARK VINA RESULT:    -4.170      1.925      3.336
REMARK INTER + INTRA:          -6.927
REMARK INTER:                  -6.318
REMARK INTRA:                  -0.609
REMARK UNBOUND:                -0.562
REMARK SMILES CCCCCCCCCCC(=O)[O-]
REMARK SMILES IDX 7 1 8 2 9 3 10 4 11 5 12 6 13 7 6 8 5 9 4 10 3 11 2 12 1 13
REMARK H PARENT
REMARK Flexibility Score: inf
ROOT
ATOM      1  C   UNL     1      33.149  10.516  48.482  1.00  0.00     0.000 C 
ENDROOT
BRANCH   1   2
ATOM      2  C   UNL     1      31.721   9.960  48.340  1.00  0.00     0.000 C 
BRANCH   2   3
ATOM      3  C   UNL     1      31.682   8.423  48.344  1.00  0.00     0.006 C 
BRANCH   3   4
ATOM      4  C   UNL     1      30.288   7.871  48.667  1.00  0.00     0.053 C 
BRANCH   4   5
ATOM      5  C   UNL     1      30.056   6.584  47.940  1.00  0.00     0.041 C 
ATOM      6  O   UNL     1      28.983   5.946  48.107  1.00  0.00    -0.550 OA
ATOM      7  O   UNL     1      31.045   6.062  47.115  1.00  0.00    -0.550 OA
ENDBRANCH   4   5
ENDBRANCH   3   4
ENDBRANCH   2   3
ENDBRANCH   1   2
BRANCH   1   8
ATOM      8  C   UNL     1      34.145   9.844  47.523  1.00  0.00     0.000 C 
BRANCH   8   9
ATOM      9  C   UNL     1      35.254  10.803  47.058  1.00  0.00    -0.000 C 
BRANCH   9  10
ATOM     10  C   UNL     1      35.431  10.806  45.532  1.00  0.00    -0.000 C 
BRANCH  10  11
ATOM     11  C   UNL     1      34.256  10.142  44.798  1.00  0.00    -0.000 C 
BRANCH  11  12
ATOM     12  C   UNL     1      34.729   8.924  43.996  1.00  0.00    -0.003 C 
ATOM     13  C   UNL     1      34.077   7.641  44.504  1.00  0.00     0.004 C 
ENDBRANCH  11  12
ENDBRANCH  10  11
ENDBRANCH   9  10
ENDBRANCH   8   9
ENDBRANCH   1   8
TORSDOF 9
ENDMDL
MODEL 5
REMARK VINA RESULT:    -4.150      3.709      6.306
REMARK INTER + INTRA:          -6.896
REMARK INTER:                  -6.346
REMARK INTRA:                  -0.549
REMARK UNBOUND:                -0.562
REMARK SMILES CCCCCCCCCCC(=O)[O-]
REMARK SMILES IDX 7 1 8 2 9 3 10 4 11 5 12 6 13 7 6 8 5 9 4 10 3 11 2 12 1 13
REMARK H PARENT
REMARK Flexibility Score: inf
ROOT
ATOM      1  C   UNL     1      33.076   9.019  49.039  1.00  0.00     0.000 C 
ENDROOT
BRANCH   1   2
ATOM      2  C   UNL     1      34.062   9.777  48.132  1.00  0.00     0.000 C 
BRANCH   2   3
ATOM      3  C   UNL     1      33.799   9.530  46.638  1.00  0.00     0.006 C 
BRANCH   3   4
ATOM      4  C   UNL     1      34.822  10.233  45.737  1.00  0.00     0.053 C 
BRANCH   4   5
ATOM      5  C   UNL     1      34.567   9.900  44.300  1.00  0.00     0.041 C 
ATOM      6  O   UNL     1      35.202   8.967  43.743  1.00  0.00    -0.550 OA
ATOM      7  O   UNL     1      33.664  10.655  43.561  1.00  0.00    -0.550 OA
ENDBRANCH   4   5
ENDBRANCH   3   4
ENDBRANCH   2   3
ENDBRANCH   1   2
BRANCH   1   8
ATOM      8  C   UNL     1      31.612   9.411  48.783  1.00  0.00     0.000 C 
BRANCH   8   9
ATOM      9  C   UNL     1      30.679   8.190  48.705  1.00  0.00    -0.000 C 
BRANCH   9  10
ATOM     10  C   UNL     1      31.303   7.019  47.930  1.00  0.00    -0.000 C 
BRANCH  10  11
ATOM     11  C   UNL     1      30.496   5.719  48.068  1.00  0.00    -0.000 C 
BRANCH  11  12
ATOM     12  C   UNL     1      29.064   6.011  48.534  1.00  0.00    -0.003 C 
ATOM     13  C   UNL     1      28.040   5.478  47.537  1.00  0.00     0.004 C 
ENDBRANCH  11  12
ENDBRANCH  10  11
ENDBRANCH   9  10
ENDBRANCH   8   9
ENDBRANCH   1   8
TORSDOF 9
ENDMDL
MODEL 6
REMARK VINA RESULT:    -4.130     16.674     17.995
REMARK INTER + INTRA:          -6.866
REMARK INTER:                  -6.211
REMARK INTRA:                  -0.655
REMARK UNBOUND:                -0.562
REMARK SMILES CCCCCCCCCCC(=O)[O-]
REMARK SMILES IDX 7 1 8 2 9 3 10 4 11 5 12 6 13 7 6 8 5 9 4 10 3 11 2 12 1 13
REMARK H PARENT
REMARK Flexibility Score: inf
ROOT
ATOM      1  C   UNL     1      22.242  10.375  35.322  1.00  0.00     0.000 C 
ENDROOT
BRANCH   1   2
ATOM      2  C   UNL     1      22.109  11.873  35.652  1.00  0.00     0.000 C 
BRANCH   2   3
ATOM      3  C   UNL     1      21.220  12.622  34.646  1.00  0.00     0.006 C 
BRANCH   3   4
ATOM      4  C   UNL     1      20.257  13.601  35.329  1.00  0.00     0.053 C 
BRANCH   4   5
ATOM      5  C   UNL     1      18.938  12.943  35.585  1.00  0.00     0.041 C 
ATOM      6  O   UNL     1      18.572  11.962  34.884  1.00  0.00    -0.550 OA
ATOM      7  O   UNL     1      18.089  13.443  36.565  1.00  0.00    -0.550 OA
ENDBRANCH   4   5
ENDBRANCH   3   4
ENDBRANCH   2   3
ENDBRANCH   1   2
BRANCH   1   8
ATOM      8  C   UNL     1      20.972   9.578  35.659  1.00  0.00     0.000 C 
BRANCH   8   9
ATOM      9  C   UNL     1      20.470   8.737  34.473  1.00  0.00    -0.000 C 
BRANCH   9  10
ATOM     10  C   UNL     1      20.383   7.240  34.806  1.00  0.00    -0.000 C 
BRANCH  10  11
ATOM     11  C   UNL     1      18.969   6.670  34.613  1.00  0.00    -0.000 C 
BRANCH  11  12
ATOM     12  C   UNL     1      18.317   6.356  35.965  1.00  0.00    -0.003 C 
ATOM     13  C   UNL     1      19.363   6.248  37.070  1.00  0.00     0.004 C 
ENDBRANCH  11  12
ENDBRANCH  10  11
ENDBRANCH   9  10
ENDBRANCH   8   9
ENDBRANCH   1   8
TORSDOF 9
ENDMDL
MODEL 7
REMARK VINA RESULT:    -4.115      2.981      4.547
REMARK INTER + INTRA:          -6.843
REMARK INTER:                  -6.093
REMARK INTRA:                  -0.750
REMARK UNBOUND:                -0.562
REMARK SMILES CCCCCCCCCCC(=O)[O-]
REMARK SMILES IDX 7 1 8 2 9 3 10 4 11 5 12 6 13 7 6 8 5 9 4 10 3 11 2 12 1 13
REMARK H PARENT
REMARK Flexibility Score: inf
ROOT
ATOM      1  C   UNL     1      29.927   6.649  48.542  1.00  0.00     0.000 C 
ENDROOT
BRANCH   1   2
ATOM      2  C   UNL     1      30.039   8.136  48.925  1.00  0.00     0.000 C 
BRANCH   2   3
ATOM      3  C   UNL     1      31.497   8.612  49.023  1.00  0.00     0.006 C 
BRANCH   3   4
ATOM      4  C   UNL     1      31.692  10.025  48.458  1.00  0.00     0.053 C 
BRANCH   4   5
ATOM      5  C   UNL     1      33.138  10.272  48.160  1.00  0.00     0.041 C 
ATOM      6  O   UNL     1      33.853  10.909  48.976  1.00  0.00    -0.550 OA
ATOM      7  O   UNL     1      33.683   9.841  46.956  1.00  0.00    -0.550 OA
ENDBRANCH   4   5
ENDBRANCH   3   4
ENDBRANCH   2   3
ENDBRANCH   1   2
BRANCH   1   8
ATOM      8  C   UNL     1      30.880   6.257  47.401  1.00  0.00     0.000 C 
BRANCH   8   9
ATOM      9  C   UNL     1      31.867   5.151  47.811  1.00  0.00    -0.000 C 
BRANCH   9  10
ATOM     10  C   UNL     1      33.333   5.600  47.709  1.00  0.00    -0.000 C 
BRANCH  10  11
ATOM     11  C   UNL     1      33.609   6.445  46.456  1.00  0.00    -0.000 C 
BRANCH  11  12
ATOM     12  C   UNL     1      34.387   5.636  45.411  1.00  0.00    -0.003 C 
ATOM     13  C   UNL     1      35.137   4.476  46.058  1.00  0.00     0.004 C 
ENDBRANCH  11  12
ENDBRANCH  10  11
ENDBRANCH   9  10
ENDBRANCH   8   9
ENDBRANCH   1   8
TORSDOF 9
ENDMDL
MODEL 8
REMARK VINA RESULT:    -4.078      2.898      4.003
REMARK INTER + INTRA:          -6.786
REMARK INTER:                  -6.022
REMARK INTRA:                  -0.764
REMARK UNBOUND:                -0.562
REMARK SMILES CCCCCCCCCCC(=O)[O-]
REMARK SMILES IDX 7 1 8 2 9 3 10 4 11 5 12 6 13 7 6 8 5 9 4 10 3 11 2 12 1 13
REMARK H PARENT
REMARK Flexibility Score: inf
ROOT
ATOM      1  C   UNL     1      30.989   7.034  48.563  1.00  0.00     0.000 C 
ENDROOT
BRANCH   1   2
ATOM      2  C   UNL     1      31.487   6.236  47.344  1.00  0.00     0.000 C 
BRANCH   2   3
ATOM      3  C   UNL     1      32.589   5.228  47.709  1.00  0.00     0.006 C 
BRANCH   3   4
ATOM      4  C   UNL     1      33.998   5.778  47.448  1.00  0.00     0.053 C 
BRANCH   4   5
ATOM      5  C   UNL     1      34.452   5.415  46.069  1.00  0.00     0.041 C 
ATOM      6  O   UNL     1      34.110   6.119  45.083  1.00  0.00    -0.550 OA
ATOM      7  O   UNL     1      35.214   4.270  45.867  1.00  0.00    -0.550 OA
ENDBRANCH   4   5
ENDBRANCH   3   4
ENDBRANCH   2   3
ENDBRANCH   1   2
BRANCH   1   8
ATOM      8  C   UNL     1      31.179   8.550  48.397  1.00  0.00     0.000 C 
BRANCH   8   9
ATOM      9  C   UNL     1      32.605   9.008  48.747  1.00  0.00    -0.000 C 
BRANCH   9  10
ATOM     10  C   UNL     1      33.196   9.957  47.693  1.00  0.00    -0.000 C 
BRANCH  10  11
ATOM     11  C   UNL     1      33.999   9.218  46.612  1.00  0.00    -0.000 C 
BRANCH  11  12
ATOM     12  C   UNL     1      34.689  10.210  45.668  1.00  0.00    -0.003 C 
ATOM     13  C   UNL     1      34.386   9.884  44.208  1.00  0.00     0.004 C 
ENDBRANCH  11  12
ENDBRANCH  10  11
ENDBRANCH   9  10
ENDBRANCH   8   9
ENDBRANCH   1   8
TORSDOF 9
ENDMDL
MODEL 9
REMARK VINA RESULT:    -4.014     16.819     18.165
REMARK INTER + INTRA:          -6.688
REMARK INTER:                  -5.884
REMARK INTRA:                  -0.805
REMARK UNBOUND:                -0.562
REMARK SMILES CCCCCCCCCCC(=O)[O-]
REMARK SMILES IDX 7 1 8 2 9 3 10 4 11 5 12 6 13 7 6 8 5 9 4 10 3 11 2 12 1 13
REMARK H PARENT
REMARK Flexibility Score: inf
ROOT
ATOM      1  C   UNL     1      20.101  10.429  35.899  1.00  0.00     0.000 C 
ENDROOT
BRANCH   1   2
ATOM      2  C   UNL     1      21.621  10.357  35.673  1.00  0.00     0.000 C 
BRANCH   2   3
ATOM      3  C   UNL     1      22.227  11.717  35.293  1.00  0.00     0.006 C 
BRANCH   3   4
ATOM      4  C   UNL     1      21.184  12.841  35.276  1.00  0.00     0.053 C 
BRANCH   4   5
ATOM      5  C   UNL     1      20.762  13.140  33.871  1.00  0.00     0.041 C 
ATOM      6  O   UNL     1      21.607  13.537  33.026  1.00  0.00    -0.550 OA
ATOM      7  O   UNL     1      19.425  13.028  33.508  1.00  0.00    -0.550 OA
ENDBRANCH   4   5
ENDBRANCH   3   4
ENDBRANCH   2   3
ENDBRANCH   1   2
BRANCH   1   8
ATOM      8  C   UNL     1      19.305   9.654  34.837  1.00  0.00     0.000 C 
BRANCH   8   9
ATOM      9  C   UNL     1      20.179   8.657  34.056  1.00  0.00    -0.000 C 
BRANCH   9  10
ATOM     10  C   UNL     1      19.796   7.195  34.331  1.00  0.00    -0.000 C 
BRANCH  10  11
ATOM     11  C   UNL     1      20.460   6.635  35.598  1.00  0.00    -0.000 C 
BRANCH  11  12
ATOM     12  C   UNL     1      19.473   6.619  36.772  1.00  0.00    -0.003 C 
ATOM     13  C   UNL     1      18.174   5.916  36.391  1.00  0.00     0.004 C 
ENDBRANCH  11  12
ENDBRANCH  10  11
ENDBRANCH   9  10
ENDBRANCH   8   9
ENDBRANCH   1   8
TORSDOF 9
ENDMDL
