MODEL 1
REMARK VINA RESULT:    -7.210      0.000      0.000
REMARK INTER + INTRA:          -8.108
REMARK INTER:                  -7.842
REMARK INTRA:                  -0.266
REMARK UNBOUND:                -0.266
REMARK SMILES C[C@@H]1[C@H](C)CC[C@]2(C(=O)[O-])CC[C@]3(C)C(=CC[C@@H]4[C@]5(C)CC[C@@H](O)C(C)(C)[C@H]5CC[C@@]43C)[C@H]12
REMARK SMILES IDX 7 1 6 2 11 3 33 4 5 5 12 6 15 7 2 8 3 9 13 10 16 11 1 12
REMARK SMILES IDX 4 13 14 14 31 15 17 16 18 17 30 18 32 19 19 20 29 21 28 22
REMARK SMILES IDX 21 23 20 24 25 25 22 26 23 27 26 28 27 29 8 30 9 31 10 32
REMARK SMILES IDX 24 33
REMARK H PARENT 24 34
REMARK Flexibility Score: inf
ROOT
ATOM      1  C   UNL     1      99.635  83.318  81.946  1.00  0.00     0.017 C 
ATOM      2  C   UNL     1      99.815  82.199  83.020  1.00  0.00     0.014 C 
ATOM      3  C   UNL     1     101.050  83.515  81.255  1.00  0.00     0.014 C 
ATOM      4  C   UNL     1      98.981  84.648  82.566  1.00  0.00     0.030 C 
ATOM      5  C   UNL     1      98.672  82.122  84.028  1.00  0.00     0.004 C 
ATOM      6  C   UNL     1     101.502  84.954  80.903  1.00  0.00     0.013 C 
ATOM      7  C   UNL     1      99.684  85.949  82.118  1.00  0.00    -0.063 C 
ATOM      8  C   UNL     1      98.381  84.637  84.045  1.00  0.00    -0.003 C 
ATOM      9  C   UNL     1      98.647  83.372  84.913  1.00  0.00    -0.011 C 
ATOM     10  C   UNL     1     101.207  86.016  82.011  1.00  0.00    -0.006 C 
ATOM     11  C   UNL     1      98.944  86.789  81.358  1.00  0.00    -0.027 C 
ATOM     12  C   UNL     1      98.546  85.957  84.822  1.00  0.00     0.008 C 
ATOM     13  C   UNL     1      99.866  83.457  85.866  1.00  0.00     0.008 C 
ATOM     14  C   UNL     1     101.882  85.476  83.313  1.00  0.00     0.017 C 
ATOM     15  C   UNL     1     101.763  87.546  81.679  1.00  0.00    -0.020 C 
ATOM     16  C   UNL     1      99.557  87.707  80.358  1.00  0.00     0.032 C 
ATOM     17  C   UNL     1     100.670  88.525  81.018  1.00  0.00     0.006 C 
ATOM     18  C   UNL     1     103.034  87.445  80.776  1.00  0.00     0.008 C 
ATOM     19  C   UNL     1     102.202  88.247  83.008  1.00  0.00     0.012 C 
ATOM     20  C   UNL     1     101.195  89.784  80.128  1.00  0.00    -0.025 C 
ATOM     21  C   UNL     1     103.550  88.774  80.233  1.00  0.00     0.005 C 
ATOM     22  C   UNL     1     102.480  89.396  79.314  1.00  0.00     0.003 C 
ATOM     23  C   UNL     1     100.123  90.240  79.078  1.00  0.00     0.010 C 
ATOM     24  C   UNL     1     101.434  91.001  81.086  1.00  0.00     0.012 C 
ATOM     25  C   UNL     1     103.031  90.488  78.301  1.00  0.00    -0.006 C 
ATOM     26  C   UNL     1     100.591  91.336  78.105  1.00  0.00     0.033 C 
ATOM     27  C   UNL     1     101.867  90.928  77.354  1.00  0.00     0.120 C 
ATOM     28  C   UNL     1     104.125  89.848  77.392  1.00  0.00     0.014 C 
ATOM     29  C   UNL     1     103.676  91.721  79.004  1.00  0.00     0.014 C 
ENDROOT
BRANCH   1  30
ATOM     30  C   UNL     1      98.702  82.795  80.840  1.00  0.00     0.048 C 
ATOM     31  O   UNL     1      99.144  81.984  79.984  1.00  0.00    -0.550 OA
ATOM     32  O   UNL     1      97.386  83.234  80.728  1.00  0.00    -0.550 OA
ENDBRANCH   1  30
BRANCH  27  33
ATOM     33  O   UNL     1     102.279  91.996  76.535  1.00  0.00    -0.393 OA
ATOM     34  H   UNL     1     102.226  92.827  77.078  1.00  0.00     0.210 HD
ENDBRANCH  27  33
TORSDOF 2
ENDMDL
MODEL 2
REMARK VINA RESULT:    -6.884      1.896      7.868
REMARK INTER + INTRA:          -7.754
REMARK INTER:                  -7.594
REMARK INTRA:                  -0.159
REMARK UNBOUND:                -0.266
REMARK SMILES C[C@@H]1[C@H](C)CC[C@]2(C(=O)[O-])CC[C@]3(C)C(=CC[C@@H]4[C@]5(C)CC[C@@H](O)C(C)(C)[C@H]5CC[C@@]43C)[C@H]12
REMARK SMILES IDX 7 1 6 2 11 3 33 4 5 5 12 6 15 7 2 8 3 9 13 10 16 11 1 12
REMARK SMILES IDX 4 13 14 14 31 15 17 16 18 17 30 18 32 19 19 20 29 21 28 22
REMARK SMILES IDX 21 23 20 24 25 25 22 26 23 27 26 28 27 29 8 30 9 31 10 32
REMARK SMILES IDX 24 33
REMARK H PARENT 24 34
REMARK Flexibility Score: inf
ROOT
ATOM      1  C   UNL     1     101.906  90.121  78.834  1.00  0.00     0.017 C 
ATOM      2  C   UNL     1     102.213  91.628  79.106  1.00  0.00     0.014 C 
ATOM      3  C   UNL     1     100.371  90.035  78.441  1.00  0.00     0.014 C 
ATOM      4  C   UNL     1     102.356  89.186  80.059  1.00  0.00     0.030 C 
ATOM      5  C   UNL     1     103.528  91.867  79.842  1.00  0.00     0.004 C 
ATOM      6  C   UNL     1      99.541  88.842  78.977  1.00  0.00     0.013 C 
ATOM      7  C   UNL     1     101.299  88.129  80.451  1.00  0.00    -0.063 C 
ATOM      8  C   UNL     1     103.238  89.783  81.248  1.00  0.00    -0.003 C 
ATOM      9  C   UNL     1     103.453  91.324  81.272  1.00  0.00    -0.011 C 
ATOM     10  C   UNL     1      99.813  88.482  80.473  1.00  0.00    -0.006 C 
ATOM     11  C   UNL     1     101.654  86.837  80.256  1.00  0.00    -0.027 C 
ATOM     12  C   UNL     1     102.945  89.185  82.637  1.00  0.00     0.008 C 
ATOM     13  C   UNL     1     102.474  92.124  82.167  1.00  0.00     0.008 C 
ATOM     14  C   UNL     1      99.565  89.798  81.281  1.00  0.00     0.017 C 
ATOM     15  C   UNL     1      98.867  87.259  81.082  1.00  0.00    -0.020 C 
ATOM     16  C   UNL     1     100.654  85.771  79.972  1.00  0.00     0.032 C 
ATOM     17  C   UNL     1      99.548  85.801  81.030  1.00  0.00     0.006 C 
ATOM     18  C   UNL     1      97.493  87.256  80.339  1.00  0.00     0.008 C 
ATOM     19  C   UNL     1      98.569  87.527  82.595  1.00  0.00     0.012 C 
ATOM     20  C   UNL     1      98.577  84.494  81.022  1.00  0.00    -0.025 C 
ATOM     21  C   UNL     1      96.587  86.070  80.659  1.00  0.00     0.005 C 
ATOM     22  C   UNL     1      97.272  84.770  80.194  1.00  0.00     0.003 C 
ATOM     23  C   UNL     1      99.275  83.257  80.357  1.00  0.00     0.010 C 
ATOM     24  C   UNL     1      98.273  84.095  82.508  1.00  0.00     0.012 C 
ATOM     25  C   UNL     1      96.290  83.539  79.994  1.00  0.00    -0.006 C 
ATOM     26  C   UNL     1      98.377  82.018  80.189  1.00  0.00     0.033 C 
ATOM     27  C   UNL     1      97.099  82.340  79.400  1.00  0.00     0.120 C 
ATOM     28  C   UNL     1      95.204  83.908  78.936  1.00  0.00     0.014 C 
ATOM     29  C   UNL     1      95.543  83.119  81.297  1.00  0.00     0.014 C 
ENDROOT
BRANCH   1  30
ATOM     30  C   UNL     1     102.681  89.678  77.581  1.00  0.00     0.048 C 
ATOM     31  O   UNL     1     102.055  89.423  76.519  1.00  0.00    -0.550 OA
ATOM     32  O   UNL     1     104.062  89.501  77.603  1.00  0.00    -0.550 OA
ENDBRANCH   1  30
BRANCH  27  33
ATOM     33  O   UNL     1      96.294  81.187  79.340  1.00  0.00    -0.393 OA
ATOM     34  H   UNL     1      95.407  81.460  78.983  1.00  0.00     0.210 HD
ENDBRANCH  27  33
TORSDOF 2
ENDMDL
MODEL 3
REMARK VINA RESULT:    -6.718      4.551      5.961
REMARK INTER + INTRA:          -7.573
REMARK INTER:                  -7.559
REMARK INTRA:                  -0.014
REMARK UNBOUND:                -0.266
REMARK SMILES C[C@@H]1[C@H](C)CC[C@]2(C(=O)[O-])CC[C@]3(C)C(=CC[C@@H]4[C@]5(C)CC[C@@H](O)C(C)(C)[C@H]5CC[C@@]43C)[C@H]12
REMARK SMILES IDX 7 1 6 2 11 3 33 4 5 5 12 6 15 7 2 8 3 9 13 10 16 11 1 12
REMARK SMILES IDX 4 13 14 14 31 15 17 16 18 17 30 18 32 19 19 20 29 21 28 22
REMARK SMILES IDX 21 23 20 24 25 25 22 26 23 27 26 28 27 29 8 30 9 31 10 32
REMARK SMILES IDX 24 33
REMARK H PARENT 24 34
REMARK Flexibility Score: inf
ROOT
ATOM      1  C   UNL     1      93.404  84.443  78.433  1.00  0.00     0.017 C 
ATOM      2  C   UNL     1      92.219  83.510  78.837  1.00  0.00     0.014 C 
ATOM      3  C   UNL     1      94.717  83.554  78.477  1.00  0.00     0.014 C 
ATOM      4  C   UNL     1      93.448  85.779  79.323  1.00  0.00     0.030 C 
ATOM      5  C   UNL     1      90.941  84.259  79.202  1.00  0.00     0.004 C 
ATOM      6  C   UNL     1      96.017  84.188  79.034  1.00  0.00     0.013 C 
ATOM      7  C   UNL     1      94.863  86.140  79.827  1.00  0.00    -0.063 C 
ATOM      8  C   UNL     1      92.234  86.141  80.294  1.00  0.00    -0.003 C 
ATOM      9  C   UNL     1      91.133  85.058  80.494  1.00  0.00    -0.011 C 
ATOM     10  C   UNL     1      95.817  85.053  80.320  1.00  0.00    -0.006 C 
ATOM     11  C   UNL     1      95.387  87.291  79.344  1.00  0.00    -0.027 C 
ATOM     12  C   UNL     1      92.637  86.851  81.601  1.00  0.00     0.008 C 
ATOM     13  C   UNL     1      91.302  84.153  81.740  1.00  0.00     0.008 C 
ATOM     14  C   UNL     1      95.111  84.121  81.358  1.00  0.00     0.017 C 
ATOM     15  C   UNL     1      97.216  85.668  80.973  1.00  0.00    -0.020 C 
ATOM     16  C   UNL     1      96.855  87.494  79.192  1.00  0.00     0.032 C 
ATOM     17  C   UNL     1      97.565  87.170  80.508  1.00  0.00     0.006 C 
ATOM     18  C   UNL     1      98.399  84.701  80.654  1.00  0.00     0.008 C 
ATOM     19  C   UNL     1      97.085  85.733  82.531  1.00  0.00     0.012 C 
ATOM     20  C   UNL     1      99.117  87.658  80.572  1.00  0.00    -0.025 C 
ATOM     21  C   UNL     1      99.783  85.224  81.028  1.00  0.00     0.005 C 
ATOM     22  C   UNL     1     100.089  86.485  80.195  1.00  0.00     0.003 C 
ATOM     23  C   UNL     1      99.402  88.818  79.555  1.00  0.00     0.010 C 
ATOM     24  C   UNL     1      99.395  88.235  82.003  1.00  0.00     0.012 C 
ATOM     25  C   UNL     1     101.631  86.852  80.091  1.00  0.00    -0.006 C 
ATOM     26  C   UNL     1     100.877  89.247  79.456  1.00  0.00     0.033 C 
ATOM     27  C   UNL     1     101.795  88.063  79.117  1.00  0.00     0.120 C 
ATOM     28  C   UNL     1     102.406  85.658  79.450  1.00  0.00     0.014 C 
ATOM     29  C   UNL     1     102.295  87.148  81.470  1.00  0.00     0.014 C 
ENDROOT
BRANCH   1  30
ATOM     30  C   UNL     1      93.230  84.853  76.960  1.00  0.00     0.048 C 
ATOM     31  O   UNL     1      94.218  85.292  76.314  1.00  0.00    -0.550 OA
ATOM     32  O   UNL     1      91.989  84.800  76.331  1.00  0.00    -0.550 OA
ENDBRANCH   1  30
BRANCH  27  33
ATOM     33  O   UNL     1     103.131  88.507  79.107  1.00  0.00    -0.393 OA
ATOM     34  H   UNL     1     103.117  89.499  79.177  1.00  0.00     0.210 HD
ENDBRANCH  27  33
TORSDOF 2
ENDMDL
MODEL 4
REMARK VINA RESULT:    -6.714      5.250      8.749
REMARK INTER + INTRA:          -7.569
REMARK INTER:                  -7.316
REMARK INTRA:                  -0.253
REMARK UNBOUND:                -0.266
REMARK SMILES C[C@@H]1[C@H](C)CC[C@]2(C(=O)[O-])CC[C@]3(C)C(=CC[C@@H]4[C@]5(C)CC[C@@H](O)C(C)(C)[C@H]5CC[C@@]43C)[C@H]12
REMARK SMILES IDX 7 1 6 2 11 3 33 4 5 5 12 6 15 7 2 8 3 9 13 10 16 11 1 12
REMARK SMILES IDX 4 13 14 14 31 15 17 16 18 17 30 18 32 19 19 20 29 21 28 22
REMARK SMILES IDX 21 23 20 24 25 25 22 26 23 27 26 28 27 29 8 30 9 31 10 32
REMARK SMILES IDX 24 33
REMARK H PARENT 24 34
REMARK Flexibility Score: inf
ROOT
ATOM      1  C   UNL     1      98.786  83.447  81.635  1.00  0.00     0.017 C 
ATOM      2  C   UNL     1     100.195  83.420  80.961  1.00  0.00     0.014 C 
ATOM      3  C   UNL     1      97.806  82.658  80.668  1.00  0.00     0.014 C 
ATOM      4  C   UNL     1      98.328  84.940  82.009  1.00  0.00     0.030 C 
ATOM      5  C   UNL     1     101.180  84.425  81.551  1.00  0.00     0.004 C 
ATOM      6  C   UNL     1      96.369  83.203  80.472  1.00  0.00     0.013 C 
ATOM      7  C   UNL     1      96.864  85.253  81.624  1.00  0.00    -0.063 C 
ATOM      8  C   UNL     1      99.363  86.151  81.908  1.00  0.00    -0.003 C 
ATOM      9  C   UNL     1     100.739  85.859  81.241  1.00  0.00    -0.011 C 
ATOM     10  C   UNL     1      96.282  84.754  80.302  1.00  0.00    -0.006 C 
ATOM     11  C   UNL     1      96.020  85.492  82.654  1.00  0.00    -0.027 C 
ATOM     12  C   UNL     1      98.749  87.496  81.478  1.00  0.00     0.008 C 
ATOM     13  C   UNL     1     100.841  86.206  79.735  1.00  0.00     0.008 C 
ATOM     14  C   UNL     1      97.227  85.108  79.108  1.00  0.00     0.017 C 
ATOM     15  C   UNL     1      94.756  85.340  80.007  1.00  0.00    -0.020 C 
ATOM     16  C   UNL     1      94.562  85.198  82.572  1.00  0.00     0.032 C 
ATOM     17  C   UNL     1      93.971  85.847  81.319  1.00  0.00     0.006 C 
ATOM     18  C   UNL     1      93.926  84.255  79.251  1.00  0.00     0.008 C 
ATOM     19  C   UNL     1      94.843  86.588  79.065  1.00  0.00     0.012 C 
ATOM     20  C   UNL     1      92.343  85.877  81.283  1.00  0.00    -0.025 C 
ATOM     21  C   UNL     1      92.445  84.576  79.075  1.00  0.00     0.005 C 
ATOM     22  C   UNL     1      91.778  84.663  80.462  1.00  0.00     0.003 C 
ATOM     23  C   UNL     1      91.729  85.767  82.722  1.00  0.00     0.010 C 
ATOM     24  C   UNL     1      91.887  87.260  80.702  1.00  0.00     0.012 C 
ATOM     25  C   UNL     1      90.200  84.493  80.450  1.00  0.00    -0.006 C 
ATOM     26  C   UNL     1      90.195  85.652  82.766  1.00  0.00     0.033 C 
ATOM     27  C   UNL     1      89.685  84.472  81.926  1.00  0.00     0.120 C 
ATOM     28  C   UNL     1      89.832  83.107  79.833  1.00  0.00     0.014 C 
ATOM     29  C   UNL     1      89.462  85.582  79.615  1.00  0.00     0.014 C 
ENDROOT
BRANCH   1  30
ATOM     30  C   UNL     1      98.844  82.623  82.932  1.00  0.00     0.048 C 
ATOM     31  O   UNL     1      99.616  81.630  83.006  1.00  0.00    -0.550 OA
ATOM     32  O   UNL     1      98.023  82.915  84.018  1.00  0.00    -0.550 OA
ENDBRANCH   1  30
BRANCH  27  33
ATOM     33  O   UNL     1      88.277  84.463  81.954  1.00  0.00    -0.393 OA
ATOM     34  H   UNL     1      87.985  85.228  82.518  1.00  0.00     0.210 HD
ENDBRANCH  27  33
TORSDOF 2
ENDMDL
MODEL 5
REMARK VINA RESULT:    -6.617      4.358      7.605
REMARK INTER + INTRA:          -7.463
REMARK INTER:                  -7.328
REMARK INTRA:                  -0.135
REMARK UNBOUND:                -0.266
REMARK SMILES C[C@@H]1[C@H](C)CC[C@]2(C(=O)[O-])CC[C@]3(C)C(=CC[C@@H]4[C@]5(C)CC[C@@H](O)C(C)(C)[C@H]5CC[C@@]43C)[C@H]12
REMARK SMILES IDX 7 1 6 2 11 3 33 4 5 5 12 6 15 7 2 8 3 9 13 10 16 11 1 12
REMARK SMILES IDX 4 13 14 14 31 15 17 16 18 17 30 18 32 19 19 20 29 21 28 22
REMARK SMILES IDX 21 23 20 24 25 25 22 26 23 27 26 28 27 29 8 30 9 31 10 32
REMARK SMILES IDX 24 33
REMARK H PARENT 24 34
REMARK Flexibility Score: inf
ROOT
ATOM      1  C   UNL     1      98.985  83.942  84.114  1.00  0.00     0.017 C 
ATOM      2  C   UNL     1     100.522  83.891  84.385  1.00  0.00     0.014 C 
ATOM      3  C   UNL     1      98.674  82.809  83.048  1.00  0.00     0.014 C 
ATOM      4  C   UNL     1      98.494  85.418  83.712  1.00  0.00     0.030 C 
ATOM      5  C   UNL     1     101.064  85.126  85.098  1.00  0.00     0.004 C 
ATOM      6  C   UNL     1      97.640  83.111  81.934  1.00  0.00     0.013 C 
ATOM      7  C   UNL     1      97.530  85.442  82.505  1.00  0.00    -0.063 C 
ATOM      8  C   UNL     1      99.482  86.663  83.857  1.00  0.00    -0.003 C 
ATOM      9  C   UNL     1     100.971  86.358  84.192  1.00  0.00    -0.011 C 
ATOM     10  C   UNL     1      97.766  84.533  81.300  1.00  0.00    -0.006 C 
ATOM     11  C   UNL     1      96.268  85.859  82.764  1.00  0.00    -0.027 C 
ATOM     12  C   UNL     1      99.308  87.758  82.786  1.00  0.00     0.008 C 
ATOM     13  C   UNL     1     101.929  86.283  82.977  1.00  0.00     0.008 C 
ATOM     14  C   UNL     1      99.241  84.648  80.796  1.00  0.00     0.017 C 
ATOM     15  C   UNL     1      96.716  84.836  80.048  1.00  0.00    -0.020 C 
ATOM     16  C   UNL     1      95.097  85.389  81.973  1.00  0.00     0.032 C 
ATOM     17  C   UNL     1      95.362  85.592  80.480  1.00  0.00     0.006 C 
ATOM     18  C   UNL     1      96.391  83.496  79.315  1.00  0.00     0.008 C 
ATOM     19  C   UNL     1      97.403  85.775  79.000  1.00  0.00     0.012 C 
ATOM     20  C   UNL     1      94.047  85.425  79.535  1.00  0.00    -0.025 C 
ATOM     21  C   UNL     1      95.294  83.583  78.258  1.00  0.00     0.005 C 
ATOM     22  C   UNL     1      93.967  83.975  78.938  1.00  0.00     0.003 C 
ATOM     23  C   UNL     1      92.721  85.648  80.343  1.00  0.00     0.010 C 
ATOM     24  C   UNL     1      94.091  86.531  78.425  1.00  0.00     0.012 C 
ATOM     25  C   UNL     1      92.665  83.628  78.098  1.00  0.00    -0.006 C 
ATOM     26  C   UNL     1      91.427  85.376  79.555  1.00  0.00     0.033 C 
ATOM     27  C   UNL     1      91.406  83.958  78.963  1.00  0.00     0.120 C 
ATOM     28  C   UNL     1      92.622  82.093  77.819  1.00  0.00     0.014 C 
ATOM     29  C   UNL     1      92.603  84.352  76.719  1.00  0.00     0.014 C 
ENDROOT
BRANCH   1  30
ATOM     30  C   UNL     1      98.244  83.522  85.395  1.00  0.00     0.048 C 
ATOM     31  O   UNL     1      96.984  83.524  85.415  1.00  0.00    -0.550 OA
ATOM     32  O   UNL     1      98.931  83.184  86.557  1.00  0.00    -0.550 OA
ENDBRANCH   1  30
BRANCH  27  33
ATOM     33  O   UNL     1      90.232  83.796  78.202  1.00  0.00    -0.393 OA
ATOM     34  H   UNL     1      90.108  82.822  78.048  1.00  0.00     0.210 HD
ENDBRANCH  27  33
TORSDOF 2
ENDMDL
MODEL 6
REMARK VINA RESULT:    -6.600      4.305      8.292
REMARK INTER + INTRA:          -7.445
REMARK INTER:                  -7.227
REMARK INTRA:                  -0.217
REMARK UNBOUND:                -0.266
REMARK SMILES C[C@@H]1[C@H](C)CC[C@]2(C(=O)[O-])CC[C@]3(C)C(=CC[C@@H]4[C@]5(C)CC[C@@H](O)C(C)(C)[C@H]5CC[C@@]43C)[C@H]12
REMARK SMILES IDX 7 1 6 2 11 3 33 4 5 5 12 6 15 7 2 8 3 9 13 10 16 11 1 12
REMARK SMILES IDX 4 13 14 14 31 15 17 16 18 17 30 18 32 19 19 20 29 21 28 22
REMARK SMILES IDX 21 23 20 24 25 25 22 26 23 27 26 28 27 29 8 30 9 31 10 32
REMARK SMILES IDX 24 33
REMARK H PARENT 24 34
REMARK Flexibility Score: inf
ROOT
ATOM      1  C   UNL     1      99.834  84.346  80.951  1.00  0.00     0.017 C 
ATOM      2  C   UNL     1     101.138  85.068  80.486  1.00  0.00     0.014 C 
ATOM      3  C   UNL     1      98.701  84.740  79.913  1.00  0.00     0.014 C 
ATOM      4  C   UNL     1      99.494  84.653  82.491  1.00  0.00     0.030 C 
ATOM      5  C   UNL     1     102.235  85.106  81.546  1.00  0.00     0.004 C 
ATOM      6  C   UNL     1      97.275  85.020  80.451  1.00  0.00     0.013 C 
ATOM      7  C   UNL     1      98.006  84.991  82.739  1.00  0.00    -0.063 C 
ATOM      8  C   UNL     1     100.556  85.400  83.418  1.00  0.00    -0.003 C 
ATOM      9  C   UNL     1     101.817  85.992  82.723  1.00  0.00    -0.011 C 
ATOM     10  C   UNL     1      97.232  85.872  81.760  1.00  0.00    -0.006 C 
ATOM     11  C   UNL     1      97.318  84.107  83.498  1.00  0.00    -0.027 C 
ATOM     12  C   UNL     1      99.948  86.336  84.480  1.00  0.00     0.008 C 
ATOM     13  C   UNL     1     101.732  87.492  82.344  1.00  0.00     0.008 C 
ATOM     14  C   UNL     1      98.023  87.184  81.444  1.00  0.00     0.017 C 
ATOM     15  C   UNL     1      95.706  86.250  82.299  1.00  0.00    -0.020 C 
ATOM     16  C   UNL     1      95.850  83.900  83.345  1.00  0.00     0.032 C 
ATOM     17  C   UNL     1      95.125  85.245  83.415  1.00  0.00     0.006 C 
ATOM     18  C   UNL     1      94.738  86.338  81.077  1.00  0.00     0.008 C 
ATOM     19  C   UNL     1      95.720  87.662  82.974  1.00  0.00     0.012 C 
ATOM     20  C   UNL     1      93.510  85.129  83.586  1.00  0.00    -0.025 C 
ATOM     21  C   UNL     1      93.261  86.493  81.429  1.00  0.00     0.005 C 
ATOM     22  C   UNL     1      92.790  85.241  82.196  1.00  0.00     0.003 C 
ATOM     23  C   UNL     1      93.090  83.747  84.196  1.00  0.00     0.010 C 
ATOM     24  C   UNL     1      93.040  86.230  84.598  1.00  0.00     0.012 C 
ATOM     25  C   UNL     1      91.218  85.017  82.195  1.00  0.00    -0.006 C 
ATOM     26  C   UNL     1      91.572  83.502  84.266  1.00  0.00     0.033 C 
ATOM     27  C   UNL     1      90.904  83.653  82.890  1.00  0.00     0.120 C 
ATOM     28  C   UNL     1      90.713  84.891  80.724  1.00  0.00     0.014 C 
ATOM     29  C   UNL     1      90.422  86.181  82.860  1.00  0.00     0.014 C 
ENDROOT
BRANCH   1  30
ATOM     30  C   UNL     1     100.029  82.827  80.797  1.00  0.00     0.048 C 
ATOM     31  O   UNL     1     100.913  82.389  80.015  1.00  0.00    -0.550 OA
ATOM     32  O   UNL     1      99.215  81.916  81.465  1.00  0.00    -0.550 OA
ENDBRANCH   1  30
BRANCH  27  33
ATOM     33  O   UNL     1      89.514  83.484  83.034  1.00  0.00    -0.393 OA
ATOM     34  H   UNL     1      89.073  84.007  82.313  1.00  0.00     0.210 HD
ENDBRANCH  27  33
TORSDOF 2
ENDMDL
MODEL 7
REMARK VINA RESULT:    -6.469      2.340      8.167
REMARK INTER + INTRA:          -7.302
REMARK INTER:                  -7.020
REMARK INTRA:                  -0.282
REMARK UNBOUND:                -0.266
REMARK SMILES C[C@@H]1[C@H](C)CC[C@]2(C(=O)[O-])CC[C@]3(C)C(=CC[C@@H]4[C@]5(C)CC[C@@H](O)C(C)(C)[C@H]5CC[C@@]43C)[C@H]12
REMARK SMILES IDX 7 1 6 2 11 3 33 4 5 5 12 6 15 7 2 8 3 9 13 10 16 11 1 12
REMARK SMILES IDX 4 13 14 14 31 15 17 16 18 17 30 18 32 19 19 20 29 21 28 22
REMARK SMILES IDX 21 23 20 24 25 25 22 26 23 27 26 28 27 29 8 30 9 31 10 32
REMARK SMILES IDX 24 33
REMARK H PARENT 24 34
REMARK Flexibility Score: inf
ROOT
ATOM      1  C   UNL     1     103.036  90.267  80.446  1.00  0.00     0.017 C 
ATOM      2  C   UNL     1     104.080  90.519  79.312  1.00  0.00     0.014 C 
ATOM      3  C   UNL     1     103.626  89.111  81.358  1.00  0.00     0.014 C 
ATOM      4  C   UNL     1     101.565  89.999  79.859  1.00  0.00     0.030 C 
ATOM      5  C   UNL     1     103.536  91.331  78.140  1.00  0.00     0.004 C 
ATOM      6  C   UNL     1     102.652  88.037  81.905  1.00  0.00     0.013 C 
ATOM      7  C   UNL     1     100.842  88.807  80.526  1.00  0.00    -0.063 C 
ATOM      8  C   UNL     1     101.258  90.241  78.312  1.00  0.00    -0.003 C 
ATOM      9  C   UNL     1     102.471  90.534  77.381  1.00  0.00    -0.011 C 
ATOM     10  C   UNL     1     101.601  87.526  80.868  1.00  0.00    -0.006 C 
ATOM     11  C   UNL     1      99.733  89.112  81.239  1.00  0.00    -0.027 C 
ATOM     12  C   UNL     1     100.234  89.269  77.693  1.00  0.00     0.008 C 
ATOM     13  C   UNL     1     103.056  89.309  76.635  1.00  0.00     0.008 C 
ATOM     14  C   UNL     1     102.424  87.020  79.638  1.00  0.00     0.017 C 
ATOM     15  C   UNL     1     100.607  86.314  81.419  1.00  0.00    -0.020 C 
ATOM     16  C   UNL     1      99.284  88.294  82.400  1.00  0.00     0.032 C 
ATOM     17  C   UNL     1      99.192  86.822  81.995  1.00  0.00     0.006 C 
ATOM     18  C   UNL     1     101.370  85.472  82.490  1.00  0.00     0.008 C 
ATOM     19  C   UNL     1     100.255  85.344  80.241  1.00  0.00     0.012 C 
ATOM     20  C   UNL     1      98.408  85.878  83.066  1.00  0.00    -0.025 C 
ATOM     21  C   UNL     1     100.523  84.437  83.225  1.00  0.00     0.005 C 
ATOM     22  C   UNL     1      99.422  85.160  84.026  1.00  0.00     0.003 C 
ATOM     23  C   UNL     1      97.445  86.714  83.978  1.00  0.00     0.010 C 
ATOM     24  C   UNL     1      97.512  84.867  82.271  1.00  0.00     0.012 C 
ATOM     25  C   UNL     1      98.791  84.305  85.206  1.00  0.00    -0.006 C 
ATOM     26  C   UNL     1      96.767  85.918  85.108  1.00  0.00     0.033 C 
ATOM     27  C   UNL     1      97.793  85.206  86.002  1.00  0.00     0.120 C 
ATOM     28  C   UNL     1      99.916  83.896  86.207  1.00  0.00     0.014 C 
ATOM     29  C   UNL     1      98.100  82.993  84.725  1.00  0.00     0.014 C 
ENDROOT
BRANCH   1  30
ATOM     30  C   UNL     1     102.974  91.514  81.345  1.00  0.00     0.048 C 
ATOM     31  O   UNL     1     101.863  92.063  81.573  1.00  0.00    -0.550 OA
ATOM     32  O   UNL     1     104.125  92.089  81.876  1.00  0.00    -0.550 OA
ENDBRANCH   1  30
BRANCH  27  33
ATOM     33  O   UNL     1      97.110  84.445  86.969  1.00  0.00    -0.393 OA
ATOM     34  H   UNL     1      97.511  83.536  86.973  1.00  0.00     0.210 HD
ENDBRANCH  27  33
TORSDOF 2
ENDMDL
MODEL 8
REMARK VINA RESULT:    -6.364      5.287      8.598
REMARK INTER + INTRA:          -7.189
REMARK INTER:                  -6.928
REMARK INTRA:                  -0.261
REMARK UNBOUND:                -0.266
REMARK SMILES C[C@@H]1[C@H](C)CC[C@]2(C(=O)[O-])CC[C@]3(C)C(=CC[C@@H]4[C@]5(C)CC[C@@H](O)C(C)(C)[C@H]5CC[C@@]43C)[C@H]12
REMARK SMILES IDX 7 1 6 2 11 3 33 4 5 5 12 6 15 7 2 8 3 9 13 10 16 11 1 12
REMARK SMILES IDX 4 13 14 14 31 15 17 16 18 17 30 18 32 19 19 20 29 21 28 22
REMARK SMILES IDX 21 23 20 24 25 25 22 26 23 27 26 28 27 29 8 30 9 31 10 32
REMARK SMILES IDX 24 33
REMARK H PARENT 24 34
REMARK Flexibility Score: inf
ROOT
ATOM      1  C   UNL     1      98.887  84.036  81.494  1.00  0.00     0.017 C 
ATOM      2  C   UNL     1     100.333  84.607  81.347  1.00  0.00     0.014 C 
ATOM      3  C   UNL     1      98.382  83.697  80.029  1.00  0.00     0.014 C 
ATOM      4  C   UNL     1      97.937  85.017  82.341  1.00  0.00     0.030 C 
ATOM      5  C   UNL     1     100.845  85.321  82.595  1.00  0.00     0.004 C 
ATOM      6  C   UNL     1      96.906  84.004  79.671  1.00  0.00     0.013 C 
ATOM      7  C   UNL     1      96.541  85.220  81.711  1.00  0.00    -0.063 C 
ATOM      8  C   UNL     1      98.556  86.267  83.116  1.00  0.00    -0.003 C 
ATOM      9  C   UNL     1     100.051  86.606  82.845  1.00  0.00    -0.011 C 
ATOM     10  C   UNL     1      96.382  85.378  80.199  1.00  0.00    -0.006 C 
ATOM     11  C   UNL     1      95.495  84.743  82.425  1.00  0.00    -0.027 C 
ATOM     12  C   UNL     1      97.647  87.510  83.173  1.00  0.00     0.008 C 
ATOM     13  C   UNL     1     100.307  87.690  81.768  1.00  0.00     0.008 C 
ATOM     14  C   UNL     1      97.370  86.455  79.645  1.00  0.00     0.017 C 
ATOM     15  C   UNL     1      94.827  85.753  79.750  1.00  0.00    -0.020 C 
ATOM     16  C   UNL     1      94.234  84.282  81.779  1.00  0.00     0.032 C 
ATOM     17  C   UNL     1      93.706  85.367  80.838  1.00  0.00     0.006 C 
ATOM     18  C   UNL     1      94.516  85.085  78.373  1.00  0.00     0.008 C 
ATOM     19  C   UNL     1      94.696  87.300  79.546  1.00  0.00     0.012 C 
ATOM     20  C   UNL     1      92.180  85.124  80.325  1.00  0.00    -0.025 C 
ATOM     21  C   UNL     1      93.063  85.184  77.918  1.00  0.00     0.005 C 
ATOM     22  C   UNL     1      92.166  84.427  78.918  1.00  0.00     0.003 C 
ATOM     23  C   UNL     1      91.383  84.185  81.296  1.00  0.00     0.010 C 
ATOM     24  C   UNL     1      91.435  86.504  80.320  1.00  0.00     0.012 C 
ATOM     25  C   UNL     1      90.743  84.013  78.349  1.00  0.00    -0.006 C 
ATOM     26  C   UNL     1      89.975  83.796  80.814  1.00  0.00     0.033 C 
ATOM     27  C   UNL     1      90.005  83.147  79.421  1.00  0.00     0.120 C 
ATOM     28  C   UNL     1      90.930  83.103  77.096  1.00  0.00     0.014 C 
ATOM     29  C   UNL     1      89.868  85.228  77.913  1.00  0.00     0.014 C 
ENDROOT
BRANCH   1  30
ATOM     30  C   UNL     1      98.962  82.687  82.230  1.00  0.00     0.048 C 
ATOM     31  O   UNL     1      99.119  81.625  81.571  1.00  0.00    -0.550 OA
ATOM     32  O   UNL     1      98.809  82.600  83.611  1.00  0.00    -0.550 OA
ENDBRANCH   1  30
BRANCH  27  33
ATOM     33  O   UNL     1      88.686  82.878  79.011  1.00  0.00    -0.393 OA
ATOM     34  H   UNL     1      88.076  83.360  79.631  1.00  0.00     0.210 HD
ENDBRANCH  27  33
TORSDOF 2
ENDMDL
MODEL 9
REMARK VINA RESULT:    -6.341      7.219     10.662
REMARK INTER + INTRA:          -7.163
REMARK INTER:                  -6.917
REMARK INTRA:                  -0.246
REMARK UNBOUND:                -0.266
REMARK SMILES C[C@@H]1[C@H](C)CC[C@]2(C(=O)[O-])CC[C@]3(C)C(=CC[C@@H]4[C@]5(C)CC[C@@H](O)C(C)(C)[C@H]5CC[C@@]43C)[C@H]12
REMARK SMILES IDX 7 1 6 2 11 3 33 4 5 5 12 6 15 7 2 8 3 9 13 10 16 11 1 12
REMARK SMILES IDX 4 13 14 14 31 15 17 16 18 17 30 18 32 19 19 20 29 21 28 22
REMARK SMILES IDX 21 23 20 24 25 25 22 26 23 27 26 28 27 29 8 30 9 31 10 32
REMARK SMILES IDX 24 33
REMARK H PARENT 24 34
REMARK Flexibility Score: inf
ROOT
ATOM      1  C   UNL     1      96.116  86.858  79.117  1.00  0.00     0.017 C 
ATOM      2  C   UNL     1      97.566  87.218  79.572  1.00  0.00     0.014 C 
ATOM      3  C   UNL     1      95.147  87.895  79.826  1.00  0.00     0.014 C 
ATOM      4  C   UNL     1      95.773  85.309  79.374  1.00  0.00     0.030 C 
ATOM      5  C   UNL     1      98.591  86.124  79.290  1.00  0.00     0.004 C 
ATOM      6  C   UNL     1      93.790  87.381  80.368  1.00  0.00     0.013 C 
ATOM      7  C   UNL     1      94.382  85.081  80.007  1.00  0.00    -0.063 C 
ATOM      8  C   UNL     1      96.924  84.289  79.799  1.00  0.00    -0.003 C 
ATOM      9  C   UNL     1      98.315  84.890  80.154  1.00  0.00    -0.011 C 
ATOM     10  C   UNL     1      93.865  86.007  81.107  1.00  0.00    -0.006 C 
ATOM     11  C   UNL     1      93.483  84.423  79.238  1.00  0.00    -0.027 C 
ATOM     12  C   UNL     1      96.477  83.171  80.761  1.00  0.00     0.008 C 
ATOM     13  C   UNL     1      98.572  85.142  81.661  1.00  0.00     0.008 C 
ATOM     14  C   UNL     1      94.933  86.184  82.235  1.00  0.00     0.017 C 
ATOM     15  C   UNL     1      92.430  85.487  81.765  1.00  0.00    -0.020 C 
ATOM     16  C   UNL     1      92.015  84.641  79.367  1.00  0.00     0.032 C 
ATOM     17  C   UNL     1      91.592  84.480  80.829  1.00  0.00     0.006 C 
ATOM     18  C   UNL     1      91.565  86.728  82.154  1.00  0.00     0.008 C 
ATOM     19  C   UNL     1      92.712  84.695  83.085  1.00  0.00     0.012 C 
ATOM     20  C   UNL     1      89.984  84.372  81.054  1.00  0.00    -0.025 C 
ATOM     21  C   UNL     1      90.140  86.412  82.599  1.00  0.00     0.005 C 
ATOM     22  C   UNL     1      89.374  85.770  81.426  1.00  0.00     0.003 C 
ATOM     23  C   UNL     1      89.247  83.895  79.754  1.00  0.00     0.010 C 
ATOM     24  C   UNL     1      89.710  83.285  82.151  1.00  0.00     0.012 C 
ATOM     25  C   UNL     1      87.793  85.841  81.549  1.00  0.00    -0.006 C 
ATOM     26  C   UNL     1      87.710  83.896  79.841  1.00  0.00     0.033 C 
ATOM     27  C   UNL     1      87.160  85.274  80.237  1.00  0.00     0.120 C 
ATOM     28  C   UNL     1      87.347  87.333  81.648  1.00  0.00     0.014 C 
ATOM     29  C   UNL     1      87.232  85.105  82.804  1.00  0.00     0.014 C 
ENDROOT
BRANCH   1  30
ATOM     30  C   UNL     1      95.989  87.134  77.609  1.00  0.00     0.048 C 
ATOM     31  O   UNL     1      95.153  86.486  76.925  1.00  0.00    -0.550 OA
ATOM     32  O   UNL     1      96.813  88.052  76.964  1.00  0.00    -0.550 OA
ENDBRANCH   1  30
BRANCH  27  33
ATOM     33  O   UNL     1      85.761  85.190  80.364  1.00  0.00    -0.393 OA
ATOM     34  H   UNL     1      85.510  84.231  80.284  1.00  0.00     0.210 HD
ENDBRANCH  27  33
TORSDOF 2
ENDMDL
