MODEL 1
REMARK VINA RESULT:    -4.449      0.000      0.000
REMARK INTER + INTRA:          -4.876
REMARK INTER:                  -4.709
REMARK INTRA:                  -0.167
REMARK UNBOUND:                -0.167
REMARK SMILES CC1=CC=C(C(C)C)CC1
REMARK SMILES IDX 1 1 2 2 3 3 4 4 5 5 9 6 10 7 6 8 7 9 8 10
REMARK H PARENT
REMARK Flexibility Score: inf
ROOT
ATOM      1  C   UNL     1      13.883  65.665  16.484  1.00  0.00     0.039 C 
ATOM      2  C   UNL     1      15.280  65.208  16.184  1.00  0.00    -0.073 C 
ATOM      3  C   UNL     1      15.652  64.988  14.914  1.00  0.00    -0.001 C 
ATOM      4  C   UNL     1      17.022  64.544  14.594  1.00  0.00    -0.001 C 
ATOM      5  C   UNL     1      17.993  64.566  15.527  1.00  0.00    -0.067 C 
ATOM      6  C   UNL     1      17.694  65.159  16.889  1.00  0.00     0.035 C 
ATOM      7  C   UNL     1      16.240  64.896  17.309  1.00  0.00     0.035 C 
ENDROOT
BRANCH   5   8
ATOM      8  C   UNL     1      19.401  64.093  15.213  1.00  0.00     0.009 C 
ATOM      9  C   UNL     1      20.127  63.631  16.483  1.00  0.00     0.012 C 
ATOM     10  C   UNL     1      19.397  62.989  14.147  1.00  0.00     0.012 C 
ENDBRANCH   5   8
TORSDOF 1
ENDMDL
MODEL 2
REMARK VINA RESULT:    -4.177      3.831      5.483
REMARK INTER + INTRA:          -4.588
REMARK INTER:                  -4.449
REMARK INTRA:                  -0.138
REMARK UNBOUND:                -0.167
REMARK SMILES CC1=CC=C(C(C)C)CC1
REMARK SMILES IDX 1 1 2 2 3 3 4 4 5 5 9 6 10 7 6 8 7 9 8 10
REMARK H PARENT
REMARK Flexibility Score: inf
ROOT
ATOM      1  C   UNL     1      22.128  63.297  19.978  1.00  0.00     0.039 C 
ATOM      2  C   UNL     1      21.836  63.194  18.510  1.00  0.00    -0.073 C 
ATOM      3  C   UNL     1      20.633  63.559  18.041  1.00  0.00    -0.001 C 
ATOM      4  C   UNL     1      20.326  63.471  16.601  1.00  0.00    -0.001 C 
ATOM      5  C   UNL     1      21.298  63.243  15.697  1.00  0.00    -0.067 C 
ATOM      6  C   UNL     1      22.739  63.187  16.163  1.00  0.00     0.035 C 
ATOM      7  C   UNL     1      22.852  62.584  17.571  1.00  0.00     0.035 C 
ENDROOT
BRANCH   5   8
ATOM      8  C   UNL     1      20.989  63.131  14.215  1.00  0.00     0.009 C 
ATOM      9  C   UNL     1      19.542  62.680  13.984  1.00  0.00     0.012 C 
ATOM     10  C   UNL     1      21.282  64.445  13.480  1.00  0.00     0.012 C 
ENDBRANCH   5   8
TORSDOF 1
ENDMDL
MODEL 3
REMARK VINA RESULT:    -4.076      0.459      1.621
REMARK INTER + INTRA:          -4.482
REMARK INTER:                  -4.341
REMARK INTRA:                  -0.141
REMARK UNBOUND:                -0.167
REMARK SMILES CC1=CC=C(C(C)C)CC1
REMARK SMILES IDX 1 1 2 2 3 3 4 4 5 5 9 6 10 7 6 8 7 9 8 10
REMARK H PARENT
REMARK Flexibility Score: inf
ROOT
ATOM      1  C   UNL     1      13.880  65.999  16.889  1.00  0.00     0.039 C 
ATOM      2  C   UNL     1      15.229  65.610  16.361  1.00  0.00    -0.073 C 
ATOM      3  C   UNL     1      16.244  65.401  17.212  1.00  0.00    -0.001 C 
ATOM      4  C   UNL     1      17.578  65.012  16.716  1.00  0.00    -0.001 C 
ATOM      5  C   UNL     1      17.759  64.639  15.436  1.00  0.00    -0.067 C 
ATOM      6  C   UNL     1      16.554  64.512  14.527  1.00  0.00     0.035 C 
ATOM      7  C   UNL     1      15.478  65.553  14.871  1.00  0.00     0.035 C 
ENDROOT
BRANCH   5   8
ATOM      8  C   UNL     1      19.132  64.256  14.911  1.00  0.00     0.009 C 
ATOM      9  C   UNL     1      20.120  64.025  16.061  1.00  0.00     0.012 C 
ATOM     10  C   UNL     1      19.060  63.032  13.989  1.00  0.00     0.012 C 
ENDBRANCH   5   8
TORSDOF 1
ENDMDL
MODEL 4
REMARK VINA RESULT:    -3.963      3.844      5.544
REMARK INTER + INTRA:          -4.362
REMARK INTER:                  -4.222
REMARK INTRA:                  -0.140
REMARK UNBOUND:                -0.167
REMARK SMILES CC1=CC=C(C(C)C)CC1
REMARK SMILES IDX 1 1 2 2 3 3 4 4 5 5 9 6 10 7 6 8 7 9 8 10
REMARK H PARENT
REMARK Flexibility Score: inf
ROOT
ATOM      1  C   UNL     1      22.117  63.394  20.485  1.00  0.00     0.039 C 
ATOM      2  C   UNL     1      21.876  63.448  19.006  1.00  0.00    -0.073 C 
ATOM      3  C   UNL     1      22.815  62.999  18.159  1.00  0.00    -0.001 C 
ATOM      4  C   UNL     1      22.597  63.037  16.701  1.00  0.00    -0.001 C 
ATOM      5  C   UNL     1      21.381  63.306  16.188  1.00  0.00    -0.067 C 
ATOM      6  C   UNL     1      20.203  63.461  17.128  1.00  0.00     0.035 C 
ATOM      7  C   UNL     1      20.626  64.100  18.460  1.00  0.00     0.035 C 
ENDROOT
BRANCH   5   8
ATOM      8  C   UNL     1      21.151  63.367  14.689  1.00  0.00     0.009 C 
ATOM      9  C   UNL     1      22.345  62.788  13.922  1.00  0.00     0.012 C 
ATOM     10  C   UNL     1      19.846  62.666  14.292  1.00  0.00     0.012 C 
ENDBRANCH   5   8
TORSDOF 1
ENDMDL
MODEL 5
REMARK VINA RESULT:    -3.954      1.372      4.760
REMARK INTER + INTRA:          -4.352
REMARK INTER:                  -4.213
REMARK INTRA:                  -0.139
REMARK UNBOUND:                -0.167
REMARK SMILES CC1=CC=C(C(C)C)CC1
REMARK SMILES IDX 1 1 2 2 3 3 4 4 5 5 9 6 10 7 6 8 7 9 8 10
REMARK H PARENT
REMARK Flexibility Score: inf
ROOT
ATOM      1  C   UNL     1      22.290  62.743  14.239  1.00  0.00     0.039 C 
ATOM      2  C   UNL     1      20.985  63.410  14.557  1.00  0.00    -0.073 C 
ATOM      3  C   UNL     1      19.854  62.976  13.981  1.00  0.00    -0.001 C 
ATOM      4  C   UNL     1      18.558  63.613  14.283  1.00  0.00    -0.001 C 
ATOM      5  C   UNL     1      18.436  64.486  15.302  1.00  0.00    -0.067 C 
ATOM      6  C   UNL     1      19.622  64.727  16.212  1.00  0.00     0.035 C 
ATOM      7  C   UNL     1      20.949  64.635  15.443  1.00  0.00     0.035 C 
ENDROOT
BRANCH   5   8
ATOM      8  C   UNL     1      17.112  65.162  15.608  1.00  0.00     0.009 C 
ATOM      9  C   UNL     1      16.002  64.651  14.682  1.00  0.00     0.012 C 
ATOM     10  C   UNL     1      16.723  64.993  17.083  1.00  0.00     0.012 C 
ENDBRANCH   5   8
TORSDOF 1
ENDMDL
MODEL 6
REMARK VINA RESULT:    -3.889      2.731      4.623
REMARK INTER + INTRA:          -4.283
REMARK INTER:                  -4.115
REMARK INTRA:                  -0.167
REMARK UNBOUND:                -0.167
REMARK SMILES CC1=CC=C(C(C)C)CC1
REMARK SMILES IDX 1 1 2 2 3 3 4 4 5 5 9 6 10 7 6 8 7 9 8 10
REMARK H PARENT
REMARK Flexibility Score: inf
ROOT
ATOM      1  C   UNL     1      18.206  64.459  15.023  1.00  0.00     0.039 C 
ATOM      2  C   UNL     1      19.600  63.907  15.071  1.00  0.00    -0.073 C 
ATOM      3  C   UNL     1      20.246  63.625  13.929  1.00  0.00    -0.001 C 
ATOM      4  C   UNL     1      21.620  63.087  13.952  1.00  0.00    -0.001 C 
ATOM      5  C   UNL     1      22.342  63.077  15.088  1.00  0.00    -0.067 C 
ATOM      6  C   UNL     1      21.770  63.728  16.330  1.00  0.00     0.035 C 
ATOM      7  C   UNL     1      20.243  63.570  16.397  1.00  0.00     0.035 C 
ENDROOT
BRANCH   5   8
ATOM      8  C   UNL     1      23.748  62.507  15.125  1.00  0.00     0.009 C 
ATOM      9  C   UNL     1      24.012  61.767  16.442  1.00  0.00     0.012 C 
ATOM     10  C   UNL     1      24.018  61.600  13.918  1.00  0.00     0.012 C 
ENDBRANCH   5   8
TORSDOF 1
ENDMDL
MODEL 7
REMARK VINA RESULT:    -3.734      5.508      7.972
REMARK INTER + INTRA:          -4.119
REMARK INTER:                  -3.974
REMARK INTRA:                  -0.145
REMARK UNBOUND:                -0.167
REMARK SMILES CC1=CC=C(C(C)C)CC1
REMARK SMILES IDX 1 1 2 2 3 3 4 4 5 5 9 6 10 7 6 8 7 9 8 10
REMARK H PARENT
REMARK Flexibility Score: inf
ROOT
ATOM      1  C   UNL     1      24.990  60.986  12.821  1.00  0.00     0.039 C 
ATOM      2  C   UNL     1      24.437  61.395  14.154  1.00  0.00    -0.073 C 
ATOM      3  C   UNL     1      24.925  60.848  15.277  1.00  0.00    -0.001 C 
ATOM      4  C   UNL     1      24.400  61.240  16.599  1.00  0.00    -0.001 C 
ATOM      5  C   UNL     1      23.589  62.306  16.734  1.00  0.00    -0.067 C 
ATOM      6  C   UNL     1      23.305  63.174  15.526  1.00  0.00     0.035 C 
ATOM      7  C   UNL     1      23.263  62.344  14.234  1.00  0.00     0.035 C 
ENDROOT
BRANCH   5   8
ATOM      8  C   UNL     1      23.027  62.705  18.087  1.00  0.00     0.009 C 
ATOM      9  C   UNL     1      23.824  63.863  18.698  1.00  0.00     0.012 C 
ATOM     10  C   UNL     1      21.534  63.048  17.996  1.00  0.00     0.012 C 
ENDBRANCH   5   8
TORSDOF 1
ENDMDL
MODEL 8
REMARK VINA RESULT:    -3.697      1.065      4.196
REMARK INTER + INTRA:          -4.080
REMARK INTER:                  -3.942
REMARK INTRA:                  -0.138
REMARK UNBOUND:                -0.167
REMARK SMILES CC1=CC=C(C(C)C)CC1
REMARK SMILES IDX 1 1 2 2 3 3 4 4 5 5 9 6 10 7 6 8 7 9 8 10
REMARK H PARENT
REMARK Flexibility Score: inf
ROOT
ATOM      1  C   UNL     1      20.870  64.463  16.884  1.00  0.00     0.039 C 
ATOM      2  C   UNL     1      19.449  64.777  16.523  1.00  0.00    -0.073 C 
ATOM      3  C   UNL     1      18.961  64.393  15.334  1.00  0.00    -0.001 C 
ATOM      4  C   UNL     1      17.564  64.686  14.960  1.00  0.00    -0.001 C 
ATOM      5  C   UNL     1      16.683  65.138  15.872  1.00  0.00    -0.067 C 
ATOM      6  C   UNL     1      17.109  65.239  17.322  1.00  0.00     0.035 C 
ATOM      7  C   UNL     1      18.593  65.613  17.447  1.00  0.00     0.035 C 
ENDROOT
BRANCH   5   8
ATOM      8  C   UNL     1      15.249  65.461  15.492  1.00  0.00     0.009 C 
ATOM      9  C   UNL     1      15.065  65.460  13.970  1.00  0.00     0.012 C 
ATOM     10  C   UNL     1      14.259  64.504  16.169  1.00  0.00     0.012 C 
ENDBRANCH   5   8
TORSDOF 1
ENDMDL
MODEL 9
REMARK VINA RESULT:    -3.687      4.431      7.101
REMARK INTER + INTRA:          -4.069
REMARK INTER:                  -3.906
REMARK INTRA:                  -0.164
REMARK UNBOUND:                -0.167
REMARK SMILES CC1=CC=C(C(C)C)CC1
REMARK SMILES IDX 1 1 2 2 3 3 4 4 5 5 9 6 10 7 6 8 7 9 8 10
REMARK H PARENT
REMARK Flexibility Score: inf
ROOT
ATOM      1  C   UNL     1      24.480  61.749  13.159  1.00  0.00     0.039 C 
ATOM      2  C   UNL     1      23.720  62.187  14.376  1.00  0.00    -0.073 C 
ATOM      3  C   UNL     1      24.202  61.917  15.598  1.00  0.00    -0.001 C 
ATOM      4  C   UNL     1      23.474  62.344  16.809  1.00  0.00    -0.001 C 
ATOM      5  C   UNL     1      22.439  63.201  16.729  1.00  0.00    -0.067 C 
ATOM      6  C   UNL     1      22.093  63.817  15.389  1.00  0.00     0.035 C 
ATOM      7  C   UNL     1      22.363  62.840  14.234  1.00  0.00     0.035 C 
ENDROOT
BRANCH   5   8
ATOM      8  C   UNL     1      21.671  63.629  17.966  1.00  0.00     0.009 C 
ATOM      9  C   UNL     1      20.207  63.179  17.894  1.00  0.00     0.012 C 
ATOM     10  C   UNL     1      22.343  63.120  19.248  1.00  0.00     0.012 C 
ENDBRANCH   5   8
TORSDOF 1
ENDMDL
