MODEL 1
REMARK VINA RESULT:    -4.532      0.000      0.000
REMARK INTER + INTRA:          -8.507
REMARK INTER:                  -7.181
REMARK INTRA:                  -1.326
REMARK UNBOUND:                -1.326
REMARK SMILES CCCCCCCCCCCC(=O)[O-]
REMARK SMILES IDX 7 1 8 2 9 3 10 4 11 5 12 6 13 7 14 8 6 9 5 10 4 11 3 12 2 13
REMARK SMILES IDX 1 14
REMARK H PARENT
REMARK Flexibility Score: inf
ROOT
ATOM      1  C   UNL     1       8.209  12.229   8.181  1.00  0.00     0.000 C 
ENDROOT
BRANCH   1   2
ATOM      2  C   UNL     1       6.953  12.480   9.024  1.00  0.00     0.000 C 
BRANCH   2   3
ATOM      3  C   UNL     1       5.713  12.623   8.135  1.00  0.00     0.000 C 
BRANCH   3   4
ATOM      4  C   UNL     1       4.429  12.346   8.932  1.00  0.00     0.006 C 
BRANCH   4   5
ATOM      5  C   UNL     1       4.275  10.862   9.287  1.00  0.00     0.053 C 
BRANCH   5   6
ATOM      6  C   UNL     1       3.995  10.027   8.075  1.00  0.00     0.041 C 
ATOM      7  O   UNL     1       4.766   9.081   7.765  1.00  0.00    -0.550 OA
ATOM      8  O   UNL     1       2.866  10.276   7.306  1.00  0.00    -0.550 OA
ENDBRANCH   5   6
ENDBRANCH   4   5
ENDBRANCH   3   4
ENDBRANCH   2   3
ENDBRANCH   1   2
BRANCH   1   9
ATOM      9  C   UNL     1       8.129  10.877   7.461  1.00  0.00     0.000 C 
BRANCH   9  10
ATOM     10  C   UNL     1       8.934  10.901   6.155  1.00  0.00    -0.000 C 
BRANCH  10  11
ATOM     11  C   UNL     1       8.734  12.198   5.353  1.00  0.00    -0.000 C 
BRANCH  11  12
ATOM     12  C   UNL     1       7.784  12.039   4.146  1.00  0.00    -0.000 C 
BRANCH  12  13
ATOM     13  C   UNL     1       6.332  12.388   4.502  1.00  0.00    -0.003 C 
ATOM     14  C   UNL     1       5.519  11.131   4.797  1.00  0.00     0.004 C 
ENDBRANCH  12  13
ENDBRANCH  11  12
ENDBRANCH  10  11
ENDBRANCH   9  10
ENDBRANCH   1   9
TORSDOF 10
ENDMDL
MODEL 2
REMARK VINA RESULT:    -4.389      3.099      5.951
REMARK INTER + INTRA:          -8.282
REMARK INTER:                  -7.677
REMARK INTRA:                  -0.604
REMARK UNBOUND:                -1.326
REMARK SMILES CCCCCCCCCCCC(=O)[O-]
REMARK SMILES IDX 7 1 8 2 9 3 10 4 11 5 12 6 13 7 14 8 6 9 5 10 4 11 3 12 2 13
REMARK SMILES IDX 1 14
REMARK H PARENT
REMARK Flexibility Score: inf
ROOT
ATOM      1  C   UNL     1       5.260  11.440   8.174  1.00  0.00     0.000 C 
ENDROOT
BRANCH   1   2
ATOM      2  C   UNL     1       6.087  11.512   6.885  1.00  0.00     0.000 C 
BRANCH   2   3
ATOM      3  C   UNL     1       5.257  11.072   5.674  1.00  0.00     0.000 C 
BRANCH   3   4
ATOM      4  C   UNL     1       5.967  11.433   4.360  1.00  0.00     0.006 C 
BRANCH   4   5
ATOM      5  C   UNL     1       6.980  12.570   4.541  1.00  0.00     0.053 C 
BRANCH   5   6
ATOM      6  C   UNL     1       8.366  12.144   4.165  1.00  0.00     0.041 C 
ATOM      7  O   UNL     1       8.828  12.419   3.026  1.00  0.00    -0.550 OA
ATOM      8  O   UNL     1       9.159  11.469   5.085  1.00  0.00    -0.550 OA
ENDBRANCH   5   6
ENDBRANCH   4   5
ENDBRANCH   3   4
ENDBRANCH   2   3
ENDBRANCH   1   2
BRANCH   1   9
ATOM      9  C   UNL     1       4.984   9.985   8.571  1.00  0.00     0.000 C 
BRANCH   9  10
ATOM     10  C   UNL     1       3.482   9.745   8.771  1.00  0.00    -0.000 C 
BRANCH  10  11
ATOM     11  C   UNL     1       2.651  11.036   8.673  1.00  0.00    -0.000 C 
BRANCH  11  12
ATOM     12  C   UNL     1       1.612  11.190   9.805  1.00  0.00    -0.000 C 
BRANCH  12  13
ATOM     13  C   UNL     1       1.111  12.635   9.940  1.00  0.00    -0.003 C 
ATOM     14  C   UNL     1      -0.102  12.883   9.049  1.00  0.00     0.004 C 
ENDBRANCH  12  13
ENDBRANCH  11  12
ENDBRANCH  10  11
ENDBRANCH   9  10
ENDBRANCH   1   9
TORSDOF 10
ENDMDL
MODEL 3
REMARK VINA RESULT:    -4.372      1.966      2.415
REMARK INTER + INTRA:          -8.255
REMARK INTER:                  -7.097
REMARK INTRA:                  -1.158
REMARK UNBOUND:                -1.326
REMARK SMILES CCCCCCCCCCCC(=O)[O-]
REMARK SMILES IDX 7 1 8 2 9 3 10 4 11 5 12 6 13 7 14 8 6 9 5 10 4 11 3 12 2 13
REMARK SMILES IDX 1 14
REMARK H PARENT
REMARK Flexibility Score: inf
ROOT
ATOM      1  C   UNL     1       6.798  12.297   8.494  1.00  0.00     0.000 C 
ENDROOT
BRANCH   1   2
ATOM      2  C   UNL     1       5.269  12.412   8.515  1.00  0.00     0.000 C 
BRANCH   2   3
ATOM      3  C   UNL     1       4.611  11.061   8.216  1.00  0.00     0.000 C 
BRANCH   3   4
ATOM      4  C   UNL     1       3.269  10.928   8.951  1.00  0.00     0.006 C 
BRANCH   4   5
ATOM      5  C   UNL     1       2.636  12.292   9.256  1.00  0.00     0.053 C 
BRANCH   5   6
ATOM      6  C   UNL     1       1.221  12.154   9.729  1.00  0.00     0.041 C 
ATOM      7  O   UNL     1       0.937  11.350  10.655  1.00  0.00    -0.550 OA
ATOM      8  O   UNL     1       0.222  12.937   9.165  1.00  0.00    -0.550 OA
ENDBRANCH   5   6
ENDBRANCH   4   5
ENDBRANCH   3   4
ENDBRANCH   2   3
ENDBRANCH   1   2
BRANCH   1   9
ATOM      9  C   UNL     1       7.239  10.874   8.133  1.00  0.00     0.000 C 
BRANCH   9  10
ATOM     10  C   UNL     1       8.339  10.893   7.063  1.00  0.00    -0.000 C 
BRANCH  10  11
ATOM     11  C   UNL     1       8.411  12.228   6.302  1.00  0.00    -0.000 C 
BRANCH  11  12
ATOM     12  C   UNL     1       7.906  12.139   4.846  1.00  0.00    -0.000 C 
BRANCH  12  13
ATOM     13  C   UNL     1       6.415  12.484   4.727  1.00  0.00    -0.003 C 
ATOM     14  C   UNL     1       5.561  11.222   4.639  1.00  0.00     0.004 C 
ENDBRANCH  12  13
ENDBRANCH  11  12
ENDBRANCH  10  11
ENDBRANCH   9  10
ENDBRANCH   1   9
TORSDOF 10
ENDMDL
MODEL 4
REMARK VINA RESULT:    -4.274      2.571      3.385
REMARK INTER + INTRA:          -8.099
REMARK INTER:                  -7.519
REMARK INTRA:                  -0.580
REMARK UNBOUND:                -1.326
REMARK SMILES CCCCCCCCCCCC(=O)[O-]
REMARK SMILES IDX 7 1 8 2 9 3 10 4 11 5 12 6 13 7 14 8 6 9 5 10 4 11 3 12 2 13
REMARK SMILES IDX 1 14
REMARK H PARENT
REMARK Flexibility Score: inf
ROOT
ATOM      1  C   UNL     1       5.648  10.618   6.619  1.00  0.00     0.000 C 
ENDROOT
BRANCH   1   2
ATOM      2  C   UNL     1       4.712   9.737   7.454  1.00  0.00     0.000 C 
BRANCH   2   3
ATOM      3  C   UNL     1       4.784  10.108   8.939  1.00  0.00     0.000 C 
BRANCH   3   4
ATOM      4  C   UNL     1       3.378  10.240   9.543  1.00  0.00     0.006 C 
BRANCH   4   5
ATOM      5  C   UNL     1       2.563  11.357   8.878  1.00  0.00     0.053 C 
BRANCH   5   6
ATOM      6  C   UNL     1       1.349  11.710   9.681  1.00  0.00     0.041 C 
ATOM      7  O   UNL     1       1.092  11.094  10.749  1.00  0.00    -0.550 OA
ATOM      8  O   UNL     1       0.517  12.742   9.264  1.00  0.00    -0.550 OA
ENDBRANCH   5   6
ENDBRANCH   4   5
ENDBRANCH   3   4
ENDBRANCH   2   3
ENDBRANCH   1   2
BRANCH   1   9
ATOM      9  C   UNL     1       5.066  10.874   5.223  1.00  0.00     0.000 C 
BRANCH   9  10
ATOM     10  C   UNL     1       6.016  11.734   4.380  1.00  0.00    -0.000 C 
BRANCH  10  11
ATOM     11  C   UNL     1       6.556  12.955   5.144  1.00  0.00    -0.000 C 
BRANCH  11  12
ATOM     12  C   UNL     1       8.087  13.123   5.040  1.00  0.00    -0.000 C 
BRANCH  12  13
ATOM     13  C   UNL     1       8.695  12.231   3.948  1.00  0.00    -0.003 C 
ATOM     14  C   UNL     1       9.374  13.068   2.868  1.00  0.00     0.004 C 
ENDBRANCH  12  13
ENDBRANCH  11  12
ENDBRANCH  10  11
ENDBRANCH   9  10
ENDBRANCH   1   9
TORSDOF 10
ENDMDL
MODEL 5
REMARK VINA RESULT:    -4.144      2.375      5.190
REMARK INTER + INTRA:          -7.893
REMARK INTER:                  -7.085
REMARK INTRA:                  -0.808
REMARK UNBOUND:                -1.326
REMARK SMILES CCCCCCCCCCCC(=O)[O-]
REMARK SMILES IDX 7 1 8 2 9 3 10 4 11 5 12 6 13 7 14 8 6 9 5 10 4 11 3 12 2 13
REMARK SMILES IDX 1 14
REMARK H PARENT
REMARK Flexibility Score: inf
ROOT
ATOM      1  C   UNL     1       5.872  13.057   8.322  1.00  0.00     0.000 C 
ENDROOT
BRANCH   1   2
ATOM      2  C   UNL     1       6.787  11.935   8.825  1.00  0.00     0.000 C 
BRANCH   2   3
ATOM      3  C   UNL     1       8.055  11.833   7.970  1.00  0.00     0.000 C 
BRANCH   3   4
ATOM      4  C   UNL     1       7.757  12.170   6.501  1.00  0.00     0.006 C 
BRANCH   4   5
ATOM      5  C   UNL     1       7.271  10.948   5.712  1.00  0.00     0.053 C 
BRANCH   5   6
ATOM      6  C   UNL     1       5.919  11.177   5.109  1.00  0.00     0.041 C 
ATOM      7  O   UNL     1       5.807  11.794   4.018  1.00  0.00    -0.550 OA
ATOM      8  O   UNL     1       4.785  10.681   5.740  1.00  0.00    -0.550 OA
ENDBRANCH   5   6
ENDBRANCH   4   5
ENDBRANCH   3   4
ENDBRANCH   2   3
ENDBRANCH   1   2
BRANCH   1   9
ATOM      9  C   UNL     1       4.465  12.931   8.921  1.00  0.00     0.000 C 
BRANCH   9  10
ATOM     10  C   UNL     1       4.096  11.459   9.151  1.00  0.00    -0.000 C 
BRANCH  10  11
ATOM     11  C   UNL     1       2.666  11.123   8.693  1.00  0.00    -0.000 C 
BRANCH  11  12
ATOM     12  C   UNL     1       1.627  11.155   9.834  1.00  0.00    -0.000 C 
BRANCH  12  13
ATOM     13  C   UNL     1       1.017  12.551  10.024  1.00  0.00    -0.003 C 
ATOM     14  C   UNL     1      -0.073  12.821   8.992  1.00  0.00     0.004 C 
ENDBRANCH  12  13
ENDBRANCH  11  12
ENDBRANCH  10  11
ENDBRANCH   9  10
ENDBRANCH   1   9
TORSDOF 10
ENDMDL
MODEL 6
REMARK VINA RESULT:    -4.014      2.711      5.500
REMARK INTER + INTRA:          -7.687
REMARK INTER:                  -7.017
REMARK INTRA:                  -0.670
REMARK UNBOUND:                -1.326
REMARK SMILES CCCCCCCCCCCC(=O)[O-]
REMARK SMILES IDX 7 1 8 2 9 3 10 4 11 5 12 6 13 7 14 8 6 9 5 10 4 11 3 12 2 13
REMARK SMILES IDX 1 14
REMARK H PARENT
REMARK Flexibility Score: inf
ROOT
ATOM      1  C   UNL     1       7.061  12.615   8.900  1.00  0.00     0.000 C 
ENDROOT
BRANCH   1   2
ATOM      2  C   UNL     1       8.310  12.105   8.172  1.00  0.00     0.000 C 
BRANCH   2   3
ATOM      3  C   UNL     1       8.015  10.807   7.413  1.00  0.00     0.000 C 
BRANCH   3   4
ATOM      4  C   UNL     1       8.805  10.747   6.097  1.00  0.00     0.006 C 
BRANCH   4   5
ATOM      5  C   UNL     1       8.977  12.131   5.459  1.00  0.00     0.053 C 
BRANCH   5   6
ATOM      6  C   UNL     1       8.128  12.287   4.234  1.00  0.00     0.041 C 
ATOM      7  O   UNL     1       8.651  12.246   3.090  1.00  0.00    -0.550 OA
ATOM      8  O   UNL     1       6.753  12.447   4.358  1.00  0.00    -0.550 OA
ENDBRANCH   5   6
ENDBRANCH   4   5
ENDBRANCH   3   4
ENDBRANCH   2   3
ENDBRANCH   1   2
BRANCH   1   9
ATOM      9  C   UNL     1       5.814  12.476   8.018  1.00  0.00     0.000 C 
BRANCH   9  10
ATOM     10  C   UNL     1       4.532  12.608   8.852  1.00  0.00    -0.000 C 
BRANCH  10  11
ATOM     11  C   UNL     1       3.947  11.249   9.270  1.00  0.00    -0.000 C 
BRANCH  11  12
ATOM     12  C   UNL     1       2.403  11.217   9.280  1.00  0.00    -0.000 C 
BRANCH  12  13
ATOM     13  C   UNL     1       1.797  12.588   9.611  1.00  0.00    -0.003 C 
ATOM     14  C   UNL     1       0.307  12.626   9.283  1.00  0.00     0.004 C 
ENDBRANCH  12  13
ENDBRANCH  11  12
ENDBRANCH  10  11
ENDBRANCH   9  10
ENDBRANCH   1   9
TORSDOF 10
ENDMDL
MODEL 7
REMARK VINA RESULT:    -3.930      1.087      2.149
REMARK INTER + INTRA:          -7.554
REMARK INTER:                  -6.535
REMARK INTRA:                  -1.019
REMARK UNBOUND:                -1.326
REMARK SMILES CCCCCCCCCCCC(=O)[O-]
REMARK SMILES IDX 7 1 8 2 9 3 10 4 11 5 12 6 13 7 14 8 6 9 5 10 4 11 3 12 2 13
REMARK SMILES IDX 1 14
REMARK H PARENT
REMARK Flexibility Score: inf
ROOT
ATOM      1  C   UNL     1       7.223  12.578   7.951  1.00  0.00     0.000 C 
ENDROOT
BRANCH   1   2
ATOM      2  C   UNL     1       6.250  12.320   9.107  1.00  0.00     0.000 C 
BRANCH   2   3
ATOM      3  C   UNL     1       4.957  13.125   8.929  1.00  0.00     0.000 C 
BRANCH   3   4
ATOM      4  C   UNL     1       3.723  12.223   9.079  1.00  0.00     0.006 C 
BRANCH   4   5
ATOM      5  C   UNL     1       4.100  10.766   9.372  1.00  0.00     0.053 C 
BRANCH   5   6
ATOM      6  C   UNL     1       3.747   9.861   8.231  1.00  0.00     0.041 C 
ATOM      7  O   UNL     1       2.850  10.193   7.412  1.00  0.00    -0.550 OA
ATOM      8  O   UNL     1       4.432   8.664   8.056  1.00  0.00    -0.550 OA
ENDBRANCH   5   6
ENDBRANCH   4   5
ENDBRANCH   3   4
ENDBRANCH   2   3
ENDBRANCH   1   2
BRANCH   1   9
ATOM      9  C   UNL     1       6.472  12.991   6.679  1.00  0.00     0.000 C 
BRANCH   9  10
ATOM     10  C   UNL     1       6.127  11.766   5.822  1.00  0.00    -0.000 C 
BRANCH  10  11
ATOM     11  C   UNL     1       7.320  11.259   4.995  1.00  0.00    -0.000 C 
BRANCH  11  12
ATOM     12  C   UNL     1       7.872  12.303   4.001  1.00  0.00    -0.000 C 
BRANCH  12  13
ATOM     13  C   UNL     1       9.406  12.361   4.011  1.00  0.00    -0.003 C 
ATOM     14  C   UNL     1       9.962  12.006   5.387  1.00  0.00     0.004 C 
ENDBRANCH  12  13
ENDBRANCH  11  12
ENDBRANCH  10  11
ENDBRANCH   9  10
ENDBRANCH   1   9
TORSDOF 10
ENDMDL
MODEL 8
REMARK VINA RESULT:    -3.812      2.946      5.600
REMARK INTER + INTRA:          -7.367
REMARK INTER:                  -6.460
REMARK INTRA:                  -0.907
REMARK UNBOUND:                -1.326
REMARK SMILES CCCCCCCCCCCC(=O)[O-]
REMARK SMILES IDX 7 1 8 2 9 3 10 4 11 5 12 6 13 7 14 8 6 9 5 10 4 11 3 12 2 13
REMARK SMILES IDX 1 14
REMARK H PARENT
REMARK Flexibility Score: inf
ROOT
ATOM      1  C   UNL     1       6.900  10.609   6.642  1.00  0.00     0.000 C 
ENDROOT
BRANCH   1   2
ATOM      2  C   UNL     1       8.290  10.794   7.262  1.00  0.00     0.000 C 
BRANCH   2   3
ATOM      3  C   UNL     1       9.363  10.937   6.178  1.00  0.00     0.000 C 
BRANCH   3   4
ATOM      4  C   UNL     1       9.581  12.413   5.810  1.00  0.00     0.006 C 
BRANCH   4   5
ATOM      5  C   UNL     1      10.124  12.582   4.386  1.00  0.00     0.053 C 
BRANCH   5   6
ATOM      6  C   UNL     1       9.019  12.696   3.380  1.00  0.00     0.041 C 
ATOM      7  O   UNL     1       7.820  12.555   3.737  1.00  0.00    -0.550 OA
ATOM      8  O   UNL     1       9.314  12.987   2.054  1.00  0.00    -0.550 OA
ENDBRANCH   5   6
ENDBRANCH   4   5
ENDBRANCH   3   4
ENDBRANCH   2   3
ENDBRANCH   1   2
BRANCH   1   9
ATOM      9  C   UNL     1       6.011  11.830   6.909  1.00  0.00     0.000 C 
BRANCH   9  10
ATOM     10  C   UNL     1       6.140  12.297   8.365  1.00  0.00    -0.000 C 
BRANCH  10  11
ATOM     11  C   UNL     1       4.797  12.297   9.115  1.00  0.00    -0.000 C 
BRANCH  11  12
ATOM     12  C   UNL     1       3.741  11.358   8.493  1.00  0.00    -0.000 C 
BRANCH  12  13
ATOM     13  C   UNL     1       3.728   9.976   9.162  1.00  0.00    -0.003 C 
ATOM     14  C   UNL     1       4.041   8.873   8.155  1.00  0.00     0.004 C 
ENDBRANCH  12  13
ENDBRANCH  11  12
ENDBRANCH  10  11
ENDBRANCH   9  10
ENDBRANCH   1   9
TORSDOF 10
ENDMDL
MODEL 9
REMARK VINA RESULT:    -3.808      1.847      3.345
REMARK INTER + INTRA:          -7.361
REMARK INTER:                  -6.554
REMARK INTRA:                  -0.807
REMARK UNBOUND:                -1.326
REMARK SMILES CCCCCCCCCCCC(=O)[O-]
REMARK SMILES IDX 7 1 8 2 9 3 10 4 11 5 12 6 13 7 14 8 6 9 5 10 4 11 3 12 2 13
REMARK SMILES IDX 1 14
REMARK H PARENT
REMARK Flexibility Score: inf
ROOT
ATOM      1  C   UNL     1       5.741  11.352   6.129  1.00  0.00     0.000 C 
ENDROOT
BRANCH   1   2
ATOM      2  C   UNL     1       4.465  10.512   6.002  1.00  0.00     0.000 C 
BRANCH   2   3
ATOM      3  C   UNL     1       3.962  10.061   7.378  1.00  0.00     0.000 C 
BRANCH   3   4
ATOM      4  C   UNL     1       3.739  11.266   8.304  1.00  0.00     0.006 C 
BRANCH   4   5
ATOM      5  C   UNL     1       3.099  10.863   9.638  1.00  0.00     0.053 C 
BRANCH   5   6
ATOM      6  C   UNL     1       1.624  11.126   9.647  1.00  0.00     0.041 C 
ATOM      7  O   UNL     1       1.011  11.263  10.739  1.00  0.00    -0.550 OA
ATOM      8  O   UNL     1       0.932  11.250   8.449  1.00  0.00    -0.550 OA
ENDBRANCH   5   6
ENDBRANCH   4   5
ENDBRANCH   3   4
ENDBRANCH   2   3
ENDBRANCH   1   2
BRANCH   1   9
ATOM      9  C   UNL     1       6.992  10.464   6.084  1.00  0.00     0.000 C 
BRANCH   9  10
ATOM     10  C   UNL     1       8.191  11.233   5.514  1.00  0.00    -0.000 C 
BRANCH  10  11
ATOM     11  C   UNL     1       8.594  12.440   6.378  1.00  0.00    -0.000 C 
BRANCH  11  12
ATOM     12  C   UNL     1       9.196  12.049   7.745  1.00  0.00    -0.000 C 
BRANCH  12  13
ATOM     13  C   UNL     1       8.680  12.941   8.883  1.00  0.00    -0.003 C 
ATOM     14  C   UNL     1       7.193  12.711   9.134  1.00  0.00     0.004 C 
ENDBRANCH  12  13
ENDBRANCH  11  12
ENDBRANCH  10  11
ENDBRANCH   9  10
ENDBRANCH   1   9
TORSDOF 10
ENDMDL
