MODEL 1
REMARK VINA RESULT:    -5.418      0.000      0.000
REMARK INTER + INTRA:          -6.670
REMARK INTER:                  -6.685
REMARK INTRA:                   0.014
REMARK UNBOUND:                 0.014
REMARK SMILES O=c1c(O)c(-c2cc(O)c(O)c(O)c2)oc2cc(O)cc(O)c12
REMARK SMILES IDX 5 1 3 2 2 3 1 4 23 5 21 6 20 7 18 8 17 9 16 10 15 11 6 12
REMARK SMILES IDX 7 13 8 14 14 15 10 16 12 17 9 18 11 20 13 22 4 24 22 26
REMARK SMILES IDX 19 28
REMARK H PARENT 9 19 11 21 13 23 4 25 22 27 19 29
REMARK Flexibility Score: inf
ROOT
ATOM      1  C   UNL     1       8.598  27.831   5.193  1.00  0.00     0.180 A 
ATOM      2  C   UNL     1       9.233  29.085   5.225  1.00  0.00     0.208 A 
ATOM      3  C   UNL     1      10.615  29.156   4.989  1.00  0.00     0.238 A 
ATOM      4  O   UNL     1      11.186  30.274   5.073  1.00  0.00    -0.285 OA
ATOM      5  C   UNL     1      11.343  27.974   4.707  1.00  0.00     0.111 A 
ATOM      6  C   UNL     1      12.739  27.934   4.412  1.00  0.00     0.134 A 
ATOM      7  C   UNL     1      13.380  26.695   4.278  1.00  0.00     0.093 A 
ATOM      8  C   UNL     1      12.665  25.502   4.361  1.00  0.00     0.123 A 
ATOM      9  C   UNL     1      11.289  25.531   4.590  1.00  0.00     0.094 A 
ATOM     10  C   UNL     1      10.628  26.750   4.764  1.00  0.00     0.146 A 
ATOM     11  O   UNL     1       9.319  26.734   4.991  1.00  0.00    -0.452 OA
ENDROOT
BRANCH   1  12
ATOM     12  C   UNL     1       7.141  27.679   5.408  1.00  0.00     0.029 A 
ATOM     13  C   UNL     1       6.217  28.530   4.779  1.00  0.00     0.062 A 
ATOM     14  C   UNL     1       4.840  28.357   4.976  1.00  0.00     0.162 A 
ATOM     15  C   UNL     1       6.667  26.629   6.210  1.00  0.00     0.062 A 
ATOM     16  C   UNL     1       4.376  27.317   5.800  1.00  0.00     0.200 A 
ATOM     17  C   UNL     1       5.292  26.453   6.412  1.00  0.00     0.162 A 
BRANCH  14  18
ATOM     18  O   UNL     1       3.931  29.211   4.353  1.00  0.00    -0.504 OA
ATOM     19  H   UNL     1       3.022  28.885   4.044  1.00  0.00     0.293 HD
ENDBRANCH  14  18
BRANCH  16  20
ATOM     20  O   UNL     1       3.010  27.127   6.014  1.00  0.00    -0.502 OA
ATOM     21  H   UNL     1       2.532  26.285   5.722  1.00  0.00     0.293 HD
ENDBRANCH  16  20
BRANCH  17  22
ATOM     22  O   UNL     1       4.826  25.417   7.222  1.00  0.00    -0.504 OA
ATOM     23  H   UNL     1       3.915  25.458   7.663  1.00  0.00     0.293 HD
ENDBRANCH  17  22
ENDBRANCH   1  12
BRANCH   2  24
ATOM     24  O   UNL     1       8.500  30.235   5.528  1.00  0.00    -0.502 OA
ATOM     25  H   UNL     1       8.206  30.461   6.470  1.00  0.00     0.293 HD
ENDBRANCH   2  24
BRANCH   6  26
ATOM     26  O   UNL     1      13.528  29.070   4.216  1.00  0.00    -0.507 OA
ATOM     27  H   UNL     1      13.485  29.904   4.781  1.00  0.00     0.293 HD
ENDBRANCH   6  26
BRANCH   8  28
ATOM     28  O   UNL     1      13.334  24.288   4.206  1.00  0.00    -0.508 OA
ATOM     29  H   UNL     1      14.209  24.101   4.682  1.00  0.00     0.293 HD
ENDBRANCH   8  28
TORSDOF 7
ENDMDL
MODEL 2
REMARK VINA RESULT:    -5.399      1.812      3.770
REMARK INTER + INTRA:          -6.647
REMARK INTER:                  -6.302
REMARK INTRA:                  -0.346
REMARK UNBOUND:                 0.014
REMARK SMILES O=c1c(O)c(-c2cc(O)c(O)c(O)c2)oc2cc(O)cc(O)c12
REMARK SMILES IDX 5 1 3 2 2 3 1 4 23 5 21 6 20 7 18 8 17 9 16 10 15 11 6 12
REMARK SMILES IDX 7 13 8 14 14 15 10 16 12 17 9 18 11 20 13 22 4 24 22 26
REMARK SMILES IDX 19 28
REMARK H PARENT 9 19 11 21 13 23 4 25 22 27 19 29
REMARK Flexibility Score: inf
ROOT
ATOM      1  C   UNL     1       7.209  27.059   4.448  1.00  0.00     0.180 A 
ATOM      2  C   UNL     1       7.209  25.653   4.420  1.00  0.00     0.208 A 
ATOM      3  C   UNL     1       8.433  24.971   4.509  1.00  0.00     0.238 A 
ATOM      4  O   UNL     1       8.431  23.715   4.429  1.00  0.00    -0.285 OA
ATOM      5  C   UNL     1       9.639  25.700   4.641  1.00  0.00     0.111 A 
ATOM      6  C   UNL     1      10.932  25.111   4.780  1.00  0.00     0.134 A 
ATOM      7  C   UNL     1      12.068  25.930   4.771  1.00  0.00     0.093 A 
ATOM      8  C   UNL     1      11.955  27.317   4.696  1.00  0.00     0.123 A 
ATOM      9  C   UNL     1      10.693  27.908   4.621  1.00  0.00     0.094 A 
ATOM     10  C   UNL     1       9.543  27.115   4.590  1.00  0.00     0.146 A 
ATOM     11  O   UNL     1       8.361  27.716   4.506  1.00  0.00    -0.452 OA
ENDROOT
BRANCH   1  12
ATOM     12  C   UNL     1       5.957  27.848   4.384  1.00  0.00     0.029 A 
ATOM     13  C   UNL     1       5.155  28.039   5.521  1.00  0.00     0.062 A 
ATOM     14  C   UNL     1       3.986  28.809   5.447  1.00  0.00     0.162 A 
ATOM     15  C   UNL     1       5.592  28.467   3.178  1.00  0.00     0.062 A 
ATOM     16  C   UNL     1       3.616  29.405   4.229  1.00  0.00     0.200 A 
ATOM     17  C   UNL     1       4.424  29.235   3.098  1.00  0.00     0.162 A 
BRANCH  14  18
ATOM     18  O   UNL     1       3.192  28.988   6.580  1.00  0.00    -0.504 OA
ATOM     19  H   UNL     1       3.592  29.261   7.470  1.00  0.00     0.293 HD
ENDBRANCH  14  18
BRANCH  16  20
ATOM     20  O   UNL     1       2.455  30.172   4.130  1.00  0.00    -0.502 OA
ATOM     21  H   UNL     1       1.938  30.476   4.946  1.00  0.00     0.293 HD
ENDBRANCH  16  20
BRANCH  17  22
ATOM     22  O   UNL     1       4.057  29.836   1.894  1.00  0.00    -0.504 OA
ATOM     23  H   UNL     1       4.749  30.218   1.260  1.00  0.00     0.293 HD
ENDBRANCH  17  22
ENDBRANCH   1  12
BRANCH   2  24
ATOM     24  O   UNL     1       6.010  24.954   4.267  1.00  0.00    -0.502 OA
ATOM     25  H   UNL     1       5.912  24.175   3.626  1.00  0.00     0.293 HD
ENDBRANCH   2  24
BRANCH   6  26
ATOM     26  O   UNL     1      11.150  23.742   4.955  1.00  0.00    -0.507 OA
ATOM     27  H   UNL     1      12.038  23.281   4.826  1.00  0.00     0.293 HD
ENDBRANCH   6  26
BRANCH   8  28
ATOM     28  O   UNL     1      13.107  28.102   4.707  1.00  0.00    -0.508 OA
ATOM     29  H   UNL     1      13.988  27.745   5.060  1.00  0.00     0.293 HD
ENDBRANCH   8  28
TORSDOF 7
ENDMDL
MODEL 3
REMARK VINA RESULT:    -5.376      2.071      7.683
REMARK INTER + INTRA:          -6.619
REMARK INTER:                  -6.435
REMARK INTRA:                  -0.184
REMARK UNBOUND:                 0.014
REMARK SMILES O=c1c(O)c(-c2cc(O)c(O)c(O)c2)oc2cc(O)cc(O)c12
REMARK SMILES IDX 5 1 3 2 2 3 1 4 23 5 21 6 20 7 18 8 17 9 16 10 15 11 6 12
REMARK SMILES IDX 7 13 8 14 14 15 10 16 12 17 9 18 11 20 13 22 4 24 22 26
REMARK SMILES IDX 19 28
REMARK H PARENT 9 19 11 21 13 23 4 25 22 27 19 29
REMARK Flexibility Score: inf
ROOT
ATOM      1  C   UNL     1       9.608  25.160   4.772  1.00  0.00     0.180 A 
ATOM      2  C   UNL     1       9.058  23.919   5.141  1.00  0.00     0.208 A 
ATOM      3  C   UNL     1       7.734  23.872   5.605  1.00  0.00     0.238 A 
ATOM      4  O   UNL     1       7.265  22.768   5.984  1.00  0.00    -0.285 OA
ATOM      5  C   UNL     1       6.970  25.062   5.678  1.00  0.00     0.111 A 
ATOM      6  C   UNL     1       5.606  25.126   6.095  1.00  0.00     0.134 A 
ATOM      7  C   UNL     1       4.991  26.374   6.254  1.00  0.00     0.093 A 
ATOM      8  C   UNL     1       5.666  27.554   5.949  1.00  0.00     0.123 A 
ATOM      9  C   UNL     1       6.981  27.501   5.484  1.00  0.00     0.094 A 
ATOM     10  C   UNL     1       7.633  26.273   5.350  1.00  0.00     0.146 A 
ATOM     11  O   UNL     1       8.889  26.266   4.914  1.00  0.00    -0.452 OA
ENDROOT
BRANCH   1  12
ATOM     12  C   UNL     1      10.988  25.286   4.251  1.00  0.00     0.029 A 
ATOM     13  C   UNL     1      11.385  24.638   3.069  1.00  0.00     0.062 A 
ATOM     14  C   UNL     1      12.690  24.788   2.578  1.00  0.00     0.162 A 
ATOM     15  C   UNL     1      11.905  26.114   4.917  1.00  0.00     0.062 A 
ATOM     16  C   UNL     1      13.607  25.601   3.265  1.00  0.00     0.200 A 
ATOM     17  C   UNL     1      13.210  26.266   4.433  1.00  0.00     0.162 A 
BRANCH  14  18
ATOM     18  O   UNL     1      13.077  24.136   1.408  1.00  0.00    -0.504 OA
ATOM     19  H   UNL     1      14.029  24.182   1.064  1.00  0.00     0.293 HD
ENDBRANCH  14  18
BRANCH  16  20
ATOM     20  O   UNL     1      14.912  25.762   2.799  1.00  0.00    -0.502 OA
ATOM     21  H   UNL     1      15.670  25.164   3.101  1.00  0.00     0.293 HD
ENDBRANCH  16  20
BRANCH  17  22
ATOM     22  O   UNL     1      14.122  27.078   5.106  1.00  0.00    -0.504 OA
ATOM     23  H   UNL     1      14.851  26.685   5.690  1.00  0.00     0.293 HD
ENDBRANCH  17  22
ENDBRANCH   1  12
BRANCH   2  24
ATOM     24  O   UNL     1       9.836  22.760   5.082  1.00  0.00    -0.502 OA
ATOM     25  H   UNL     1       9.438  21.845   4.912  1.00  0.00     0.293 HD
ENDBRANCH   2  24
BRANCH   6  26
ATOM     26  O   UNL     1       4.811  24.002   6.336  1.00  0.00    -0.507 OA
ATOM     27  H   UNL     1       3.940  23.804   5.868  1.00  0.00     0.293 HD
ENDBRANCH   6  26
BRANCH   8  28
ATOM     28  O   UNL     1       5.016  28.778   6.104  1.00  0.00    -0.508 OA
ATOM     29  H   UNL     1       4.513  29.007   6.954  1.00  0.00     0.293 HD
ENDBRANCH   8  28
TORSDOF 7
ENDMDL
MODEL 4
REMARK VINA RESULT:    -5.312      2.003      7.337
REMARK INTER + INTRA:          -6.540
REMARK INTER:                  -6.198
REMARK INTRA:                  -0.342
REMARK UNBOUND:                 0.014
REMARK SMILES O=c1c(O)c(-c2cc(O)c(O)c(O)c2)oc2cc(O)cc(O)c12
REMARK SMILES IDX 5 1 3 2 2 3 1 4 23 5 21 6 20 7 18 8 17 9 16 10 15 11 6 12
REMARK SMILES IDX 7 13 8 14 14 15 10 16 12 17 9 18 11 20 13 22 4 24 22 26
REMARK SMILES IDX 19 28
REMARK H PARENT 9 19 11 21 13 23 4 25 22 27 19 29
REMARK Flexibility Score: inf
ROOT
ATOM      1  C   UNL     1       8.572  27.520   3.760  1.00  0.00     0.180 A 
ATOM      2  C   UNL     1       8.133  27.275   2.447  1.00  0.00     0.208 A 
ATOM      3  C   UNL     1       6.775  27.454   2.138  1.00  0.00     0.238 A 
ATOM      4  O   UNL     1       6.379  27.181   0.975  1.00  0.00    -0.285 OA
ATOM      5  C   UNL     1       5.875  27.890   3.141  1.00  0.00     0.111 A 
ATOM      6  C   UNL     1       4.487  28.143   2.930  1.00  0.00     0.134 A 
ATOM      7  C   UNL     1       3.666  28.445   4.024  1.00  0.00     0.093 A 
ATOM      8  C   UNL     1       4.194  28.569   5.308  1.00  0.00     0.123 A 
ATOM      9  C   UNL     1       5.561  28.382   5.517  1.00  0.00     0.094 A 
ATOM     10  C   UNL     1       6.399  28.044   4.451  1.00  0.00     0.146 A 
ATOM     11  O   UNL     1       7.693  27.865   4.694  1.00  0.00    -0.452 OA
ENDROOT
BRANCH   1  12
ATOM     12  C   UNL     1       9.992  27.378   4.156  1.00  0.00     0.029 A 
ATOM     13  C   UNL     1      10.534  26.127   4.495  1.00  0.00     0.062 A 
ATOM     14  C   UNL     1      11.886  26.008   4.844  1.00  0.00     0.162 A 
ATOM     15  C   UNL     1      10.830  28.503   4.137  1.00  0.00     0.062 A 
ATOM     16  C   UNL     1      12.712  27.145   4.845  1.00  0.00     0.200 A 
ATOM     17  C   UNL     1      12.181  28.390   4.487  1.00  0.00     0.162 A 
BRANCH  14  18
ATOM     18  O   UNL     1      12.414  24.763   5.186  1.00  0.00    -0.504 OA
ATOM     19  H   UNL     1      12.340  23.966   4.564  1.00  0.00     0.293 HD
ENDBRANCH  14  18
BRANCH  16  20
ATOM     20  O   UNL     1      14.060  27.052   5.193  1.00  0.00    -0.502 OA
ATOM     21  H   UNL     1      14.492  27.689   5.851  1.00  0.00     0.293 HD
ENDBRANCH  16  20
BRANCH  17  22
ATOM     22  O   UNL     1      13.007  29.515   4.481  1.00  0.00    -0.504 OA
ATOM     23  H   UNL     1      13.227  30.014   5.335  1.00  0.00     0.293 HD
ENDBRANCH  17  22
ENDBRANCH   1  12
BRANCH   2  24
ATOM     24  O   UNL     1       9.033  26.824   1.478  1.00  0.00    -0.502 OA
ATOM     25  H   UNL     1       9.467  27.446   0.807  1.00  0.00     0.293 HD
ENDBRANCH   2  24
BRANCH   6  26
ATOM     26  O   UNL     1       3.875  28.137   1.674  1.00  0.00    -0.507 OA
ATOM     27  H   UNL     1       4.075  28.793   0.934  1.00  0.00     0.293 HD
ENDBRANCH   6  26
BRANCH   8  28
ATOM     28  O   UNL     1       3.350  28.887   6.371  1.00  0.00    -0.508 OA
ATOM     29  H   UNL     1       2.683  28.216   6.737  1.00  0.00     0.293 HD
ENDBRANCH   8  28
TORSDOF 7
ENDMDL
MODEL 5
REMARK VINA RESULT:    -5.296      1.433      2.469
REMARK INTER + INTRA:          -6.520
REMARK INTER:                  -6.270
REMARK INTRA:                  -0.250
REMARK UNBOUND:                 0.014
REMARK SMILES O=c1c(O)c(-c2cc(O)c(O)c(O)c2)oc2cc(O)cc(O)c12
REMARK SMILES IDX 5 1 3 2 2 3 1 4 23 5 21 6 20 7 18 8 17 9 16 10 15 11 6 12
REMARK SMILES IDX 7 13 8 14 14 15 10 16 12 17 9 18 11 20 13 22 4 24 22 26
REMARK SMILES IDX 19 28
REMARK H PARENT 9 19 11 21 13 23 4 25 22 27 19 29
REMARK Flexibility Score: inf
ROOT
ATOM      1  C   UNL     1       7.995  28.449   4.537  1.00  0.00     0.180 A 
ATOM      2  C   UNL     1       8.967  29.435   4.782  1.00  0.00     0.208 A 
ATOM      3  C   UNL     1      10.315  29.053   4.877  1.00  0.00     0.238 A 
ATOM      4  O   UNL     1      11.173  29.932   5.151  1.00  0.00    -0.285 OA
ATOM      5  C   UNL     1      10.677  27.695   4.711  1.00  0.00     0.111 A 
ATOM      6  C   UNL     1      12.015  27.202   4.748  1.00  0.00     0.134 A 
ATOM      7  C   UNL     1      12.244  25.821   4.702  1.00  0.00     0.093 A 
ATOM      8  C   UNL     1      11.191  24.921   4.554  1.00  0.00     0.123 A 
ATOM      9  C   UNL     1       9.882  25.395   4.457  1.00  0.00     0.094 A 
ATOM     10  C   UNL     1       9.619  26.765   4.536  1.00  0.00     0.146 A 
ATOM     11  O   UNL     1       8.358  27.175   4.451  1.00  0.00    -0.452 OA
ENDROOT
BRANCH   1  12
ATOM     12  C   UNL     1       6.558  28.777   4.398  1.00  0.00     0.029 A 
ATOM     13  C   UNL     1       5.631  28.437   5.398  1.00  0.00     0.062 A 
ATOM     14  C   UNL     1       4.278  28.777   5.260  1.00  0.00     0.162 A 
ATOM     15  C   UNL     1       6.118  29.492   3.273  1.00  0.00     0.062 A 
ATOM     16  C   UNL     1       3.843  29.472   4.119  1.00  0.00     0.200 A 
ATOM     17  C   UNL     1       4.766  29.832   3.129  1.00  0.00     0.162 A 
BRANCH  14  18
ATOM     18  O   UNL     1       3.364  28.429   6.255  1.00  0.00    -0.504 OA
ATOM     19  H   UNL     1       3.666  28.044   7.142  1.00  0.00     0.293 HD
ENDBRANCH  14  18
BRANCH  16  20
ATOM     20  O   UNL     1       2.501  29.818   3.958  1.00  0.00    -0.502 OA
ATOM     21  H   UNL     1       1.749  29.202   4.240  1.00  0.00     0.293 HD
ENDBRANCH  16  20
BRANCH  17  22
ATOM     22  O   UNL     1       4.332  30.530   2.003  1.00  0.00    -0.504 OA
ATOM     23  H   UNL     1       4.613  31.488   1.833  1.00  0.00     0.293 HD
ENDBRANCH  17  22
ENDBRANCH   1  12
BRANCH   2  24
ATOM     24  O   UNL     1       8.586  30.766   4.965  1.00  0.00    -0.502 OA
ATOM     25  H   UNL     1       8.216  31.111   5.843  1.00  0.00     0.293 HD
ENDBRANCH   2  24
BRANCH   6  26
ATOM     26  O   UNL     1      13.147  28.021   4.801  1.00  0.00    -0.507 OA
ATOM     27  H   UNL     1      13.850  27.983   5.524  1.00  0.00     0.293 HD
ENDBRANCH   6  26
BRANCH   8  28
ATOM     28  O   UNL     1      11.457  23.554   4.495  1.00  0.00    -0.508 OA
ATOM     29  H   UNL     1      10.803  22.871   4.859  1.00  0.00     0.293 HD
ENDBRANCH   8  28
TORSDOF 7
ENDMDL
MODEL 6
REMARK VINA RESULT:    -5.288      1.629      3.245
REMARK INTER + INTRA:          -6.510
REMARK INTER:                  -6.240
REMARK INTRA:                  -0.271
REMARK UNBOUND:                 0.014
REMARK SMILES O=c1c(O)c(-c2cc(O)c(O)c(O)c2)oc2cc(O)cc(O)c12
REMARK SMILES IDX 5 1 3 2 2 3 1 4 23 5 21 6 20 7 18 8 17 9 16 10 15 11 6 12
REMARK SMILES IDX 7 13 8 14 14 15 10 16 12 17 9 18 11 20 13 22 4 24 22 26
REMARK SMILES IDX 19 28
REMARK H PARENT 9 19 11 21 13 23 4 25 22 27 19 29
REMARK Flexibility Score: inf
ROOT
ATOM      1  C   UNL     1       7.617  27.467   4.398  1.00  0.00     0.180 A 
ATOM      2  C   UNL     1       7.727  26.068   4.491  1.00  0.00     0.208 A 
ATOM      3  C   UNL     1       9.002  25.492   4.604  1.00  0.00     0.238 A 
ATOM      4  O   UNL     1       9.097  24.237   4.631  1.00  0.00    -0.285 OA
ATOM      5  C   UNL     1      10.150  26.320   4.641  1.00  0.00     0.111 A 
ATOM      6  C   UNL     1      11.487  25.845   4.794  1.00  0.00     0.134 A 
ATOM      7  C   UNL     1      12.555  26.745   4.686  1.00  0.00     0.093 A 
ATOM      8  C   UNL     1      12.333  28.107   4.496  1.00  0.00     0.123 A 
ATOM      9  C   UNL     1      11.027  28.591   4.405  1.00  0.00     0.094 A 
ATOM     10  C   UNL     1       9.942  27.714   4.473  1.00  0.00     0.146 A 
ATOM     11  O   UNL     1       8.715  28.213   4.370  1.00  0.00    -0.452 OA
ENDROOT
BRANCH   1  12
ATOM     12  C   UNL     1       6.307  28.150   4.301  1.00  0.00     0.029 A 
ATOM     13  C   UNL     1       5.859  28.703   3.090  1.00  0.00     0.062 A 
ATOM     14  C   UNL     1       4.605  29.325   3.011  1.00  0.00     0.162 A 
ATOM     15  C   UNL     1       5.467  28.197   5.426  1.00  0.00     0.062 A 
ATOM     16  C   UNL     1       3.782  29.388   4.148  1.00  0.00     0.200 A 
ATOM     17  C   UNL     1       4.214  28.819   5.353  1.00  0.00     0.162 A 
BRANCH  14  18
ATOM     18  O   UNL     1       4.172  29.878   1.806  1.00  0.00    -0.504 OA
ATOM     19  H   UNL     1       3.766  29.305   1.076  1.00  0.00     0.293 HD
ENDBRANCH  14  18
BRANCH  16  20
ATOM     20  O   UNL     1       2.532  30.005   4.096  1.00  0.00    -0.502 OA
ATOM     21  H   UNL     1       1.858  29.921   4.846  1.00  0.00     0.293 HD
ENDBRANCH  16  20
BRANCH  17  22
ATOM     22  O   UNL     1       3.390  28.876   6.477  1.00  0.00    -0.504 OA
ATOM     23  H   UNL     1       2.721  28.143   6.680  1.00  0.00     0.293 HD
ENDBRANCH  17  22
ENDBRANCH   1  12
BRANCH   2  24
ATOM     24  O   UNL     1       6.583  25.269   4.429  1.00  0.00    -0.502 OA
ATOM     25  H   UNL     1       6.565  24.317   4.777  1.00  0.00     0.293 HD
ENDBRANCH   2  24
BRANCH   6  26
ATOM     26  O   UNL     1      11.816  24.517   5.079  1.00  0.00    -0.507 OA
ATOM     27  H   UNL     1      11.178  23.739   5.007  1.00  0.00     0.293 HD
ENDBRANCH   6  26
BRANCH   8  28
ATOM     28  O   UNL     1      13.420  28.976   4.409  1.00  0.00    -0.508 OA
ATOM     29  H   UNL     1      14.017  28.997   3.590  1.00  0.00     0.293 HD
ENDBRANCH   8  28
TORSDOF 7
ENDMDL
MODEL 7
REMARK VINA RESULT:    -5.274      5.384      9.713
REMARK INTER + INTRA:          -6.493
REMARK INTER:                  -6.137
REMARK INTRA:                  -0.356
REMARK UNBOUND:                 0.014
REMARK SMILES O=c1c(O)c(-c2cc(O)c(O)c(O)c2)oc2cc(O)cc(O)c12
REMARK SMILES IDX 5 1 3 2 2 3 1 4 23 5 21 6 20 7 18 8 17 9 16 10 15 11 6 12
REMARK SMILES IDX 7 13 8 14 14 15 10 16 12 17 9 18 11 20 13 22 4 24 22 26
REMARK SMILES IDX 19 28
REMARK H PARENT 9 19 11 21 13 23 4 25 22 27 19 29
REMARK Flexibility Score: inf
ROOT
ATOM      1  C   UNL     1      13.433  33.289   4.752  1.00  0.00     0.180 A 
ATOM      2  C   UNL     1      12.886  33.866   3.592  1.00  0.00     0.208 A 
ATOM      3  C   UNL     1      11.598  33.486   3.185  1.00  0.00     0.238 A 
ATOM      4  O   UNL     1      11.136  33.965   2.116  1.00  0.00    -0.285 OA
ATOM      5  C   UNL     1      10.864  32.547   3.950  1.00  0.00     0.111 A 
ATOM      6  C   UNL     1       9.536  32.120   3.653  1.00  0.00     0.134 A 
ATOM      7  C   UNL     1       8.957  31.090   4.405  1.00  0.00     0.093 A 
ATOM      8  C   UNL     1       9.632  30.518   5.481  1.00  0.00     0.123 A 
ATOM      9  C   UNL     1      10.909  30.969   5.818  1.00  0.00     0.094 A 
ATOM     10  C   UNL     1      11.527  31.970   5.065  1.00  0.00     0.146 A 
ATOM     11  O   UNL     1      12.747  32.363   5.411  1.00  0.00    -0.452 OA
ENDROOT
BRANCH   1  12
ATOM     12  C   UNL     1      14.775  33.658   5.258  1.00  0.00     0.029 A 
ATOM     13  C   UNL     1      14.968  34.803   6.049  1.00  0.00     0.062 A 
ATOM     14  C   UNL     1      16.242  35.123   6.539  1.00  0.00     0.162 A 
ATOM     15  C   UNL     1      15.868  32.818   4.992  1.00  0.00     0.062 A 
ATOM     16  C   UNL     1      17.334  34.288   6.248  1.00  0.00     0.200 A 
ATOM     17  C   UNL     1      17.143  33.134   5.478  1.00  0.00     0.162 A 
BRANCH  14  18
ATOM     18  O   UNL     1      16.426  36.266   7.317  1.00  0.00    -0.504 OA
ATOM     19  H   UNL     1      15.694  36.958   7.425  1.00  0.00     0.293 HD
ENDBRANCH  14  18
BRANCH  16  20
ATOM     20  O   UNL     1      18.613  34.588   6.721  1.00  0.00    -0.502 OA
ATOM     21  H   UNL     1      18.797  35.400   7.297  1.00  0.00     0.293 HD
ENDBRANCH  16  20
BRANCH  17  22
ATOM     22  O   UNL     1      18.228  32.304   5.199  1.00  0.00    -0.504 OA
ATOM     23  H   UNL     1      19.182  32.607   5.358  1.00  0.00     0.293 HD
ENDBRANCH  17  22
ENDBRANCH   1  12
BRANCH   2  24
ATOM     24  O   UNL     1      13.636  34.774   2.839  1.00  0.00    -0.502 OA
ATOM     25  H   UNL     1      13.704  34.719   1.830  1.00  0.00     0.293 HD
ENDBRANCH   2  24
BRANCH   6  26
ATOM     26  O   UNL     1       8.738  32.690   2.657  1.00  0.00    -0.507 OA
ATOM     27  H   UNL     1       8.835  32.509   1.669  1.00  0.00     0.293 HD
ENDBRANCH   6  26
BRANCH   8  28
ATOM     28  O   UNL     1       9.019  29.505   6.218  1.00  0.00    -0.508 OA
ATOM     29  H   UNL     1       9.562  28.829   6.742  1.00  0.00     0.293 HD
ENDBRANCH   8  28
TORSDOF 7
ENDMDL
MODEL 8
REMARK VINA RESULT:    -5.269      5.106      7.639
REMARK INTER + INTRA:          -6.487
REMARK INTER:                  -6.148
REMARK INTRA:                  -0.339
REMARK UNBOUND:                 0.014
REMARK SMILES O=c1c(O)c(-c2cc(O)c(O)c(O)c2)oc2cc(O)cc(O)c12
REMARK SMILES IDX 5 1 3 2 2 3 1 4 23 5 21 6 20 7 18 8 17 9 16 10 15 11 6 12
REMARK SMILES IDX 7 13 8 14 14 15 10 16 12 17 9 18 11 20 13 22 4 24 22 26
REMARK SMILES IDX 19 28
REMARK H PARENT 9 19 11 21 13 23 4 25 22 27 19 29
REMARK Flexibility Score: inf
ROOT
ATOM      1  C   UNL     1      13.136  32.371   4.712  1.00  0.00     0.180 A 
ATOM      2  C   UNL     1      14.174  31.767   3.979  1.00  0.00     0.208 A 
ATOM      3  C   UNL     1      15.491  32.213   4.170  1.00  0.00     0.238 A 
ATOM      4  O   UNL     1      16.407  31.706   3.472  1.00  0.00    -0.285 OA
ATOM      5  C   UNL     1      15.758  33.246   5.101  1.00  0.00     0.111 A 
ATOM      6  C   UNL     1      17.059  33.748   5.404  1.00  0.00     0.134 A 
ATOM      7  C   UNL     1      17.190  34.860   6.245  1.00  0.00     0.093 A 
ATOM      8  C   UNL     1      16.077  35.445   6.846  1.00  0.00     0.123 A 
ATOM      9  C   UNL     1      14.805  34.925   6.604  1.00  0.00     0.094 A 
ATOM     10  C   UNL     1      14.638  33.839   5.741  1.00  0.00     0.146 A 
ATOM     11  O   UNL     1      13.409  33.380   5.529  1.00  0.00    -0.452 OA
ENDROOT
BRANCH   1  12
ATOM     12  C   UNL     1      11.726  31.938   4.583  1.00  0.00     0.029 A 
ATOM     13  C   UNL     1      11.142  31.063   5.515  1.00  0.00     0.062 A 
ATOM     14  C   UNL     1       9.799  30.683   5.391  1.00  0.00     0.162 A 
ATOM     15  C   UNL     1      10.936  32.454   3.544  1.00  0.00     0.062 A 
ATOM     16  C   UNL     1       9.023  31.187   4.333  1.00  0.00     0.200 A 
ATOM     17  C   UNL     1       9.594  32.076   3.414  1.00  0.00     0.162 A 
BRANCH  14  18
ATOM     18  O   UNL     1       9.230  29.808   6.317  1.00  0.00    -0.504 OA
ATOM     19  H   UNL     1       8.734  28.975   6.025  1.00  0.00     0.293 HD
ENDBRANCH  14  18
BRANCH  16  20
ATOM     20  O   UNL     1       7.685  30.820   4.187  1.00  0.00    -0.502 OA
ATOM     21  H   UNL     1       6.972  31.109   4.844  1.00  0.00     0.293 HD
ENDBRANCH  16  20
BRANCH  17  22
ATOM     22  O   UNL     1       8.818  32.581   2.371  1.00  0.00    -0.504 OA
ATOM     23  H   UNL     1       9.000  33.493   1.969  1.00  0.00     0.293 HD
ENDBRANCH  17  22
ENDBRANCH   1  12
BRANCH   2  24
ATOM     24  O   UNL     1      13.885  30.765   3.049  1.00  0.00    -0.502 OA
ATOM     25  H   UNL     1      14.217  30.799   2.092  1.00  0.00     0.293 HD
ENDBRANCH   2  24
BRANCH   6  26
ATOM     26  O   UNL     1      18.244  33.179   4.930  1.00  0.00    -0.507 OA
ATOM     27  H   UNL     1      18.541  32.233   5.114  1.00  0.00     0.293 HD
ENDBRANCH   6  26
BRANCH   8  28
ATOM     28  O   UNL     1      16.248  36.541   7.690  1.00  0.00    -0.508 OA
ATOM     29  H   UNL     1      16.006  36.494   8.674  1.00  0.00     0.293 HD
ENDBRANCH   8  28
TORSDOF 7
ENDMDL
MODEL 9
REMARK VINA RESULT:    -5.127      1.818      3.530
REMARK INTER + INTRA:          -6.312
REMARK INTER:                  -5.954
REMARK INTRA:                  -0.358
REMARK UNBOUND:                 0.014
REMARK SMILES O=c1c(O)c(-c2cc(O)c(O)c(O)c2)oc2cc(O)cc(O)c12
REMARK SMILES IDX 5 1 3 2 2 3 1 4 23 5 21 6 20 7 18 8 17 9 16 10 15 11 6 12
REMARK SMILES IDX 7 13 8 14 14 15 10 16 12 17 9 18 11 20 13 22 4 24 22 26
REMARK SMILES IDX 19 28
REMARK H PARENT 9 19 11 21 13 23 4 25 22 27 19 29
REMARK Flexibility Score: inf
ROOT
ATOM      1  C   UNL     1       8.017  26.002   4.679  1.00  0.00     0.180 A 
ATOM      2  C   UNL     1       8.563  24.708   4.744  1.00  0.00     0.208 A 
ATOM      3  C   UNL     1       9.958  24.559   4.793  1.00  0.00     0.238 A 
ATOM      4  O   UNL     1      10.441  23.397   4.796  1.00  0.00    -0.285 OA
ATOM      5  C   UNL     1      10.790  25.704   4.792  1.00  0.00     0.111 A 
ATOM      6  C   UNL     1      12.214  25.671   4.879  1.00  0.00     0.134 A 
ATOM      7  C   UNL     1      12.941  26.860   4.737  1.00  0.00     0.093 A 
ATOM      8  C   UNL     1      12.296  28.085   4.578  1.00  0.00     0.123 A 
ATOM      9  C   UNL     1      10.902  28.136   4.552  1.00  0.00     0.094 A 
ATOM     10  C   UNL     1      10.150  26.963   4.654  1.00  0.00     0.146 A 
ATOM     11  O   UNL     1       8.825  27.054   4.613  1.00  0.00    -0.452 OA
ENDROOT
BRANCH   1  12
ATOM     12  C   UNL     1       6.556  26.241   4.650  1.00  0.00     0.029 A 
ATOM     13  C   UNL     1       5.833  26.492   5.829  1.00  0.00     0.062 A 
ATOM     14  C   UNL     1       4.454  26.740   5.780  1.00  0.00     0.162 A 
ATOM     15  C   UNL     1       5.885  26.274   3.418  1.00  0.00     0.062 A 
ATOM     16  C   UNL     1       3.788  26.747   4.543  1.00  0.00     0.200 A 
ATOM     17  C   UNL     1       4.507  26.518   3.363  1.00  0.00     0.162 A 
BRANCH  14  18
ATOM     18  O   UNL     1       3.744  26.982   6.955  1.00  0.00    -0.504 OA
ATOM     19  H   UNL     1       3.672  26.283   7.685  1.00  0.00     0.293 HD
ENDBRANCH  14  18
BRANCH  16  20
ATOM     20  O   UNL     1       2.415  26.987   4.469  1.00  0.00    -0.502 OA
ATOM     21  H   UNL     1       1.987  27.424   3.663  1.00  0.00     0.293 HD
ENDBRANCH  16  20
BRANCH  17  22
ATOM     22  O   UNL     1       3.843  26.535   2.137  1.00  0.00    -0.504 OA
ATOM     23  H   UNL     1       3.046  27.139   1.975  1.00  0.00     0.293 HD
ENDBRANCH  17  22
ENDBRANCH   1  12
BRANCH   2  24
ATOM     24  O   UNL     1       7.724  23.590   4.722  1.00  0.00    -0.502 OA
ATOM     25  H   UNL     1       7.014  23.457   4.011  1.00  0.00     0.293 HD
ENDBRANCH   2  24
BRANCH   6  26
ATOM     26  O   UNL     1      12.954  24.513   5.128  1.00  0.00    -0.507 OA
ATOM     27  H   UNL     1      12.822  23.907   5.924  1.00  0.00     0.293 HD
ENDBRANCH   6  26
BRANCH   8  28
ATOM     28  O   UNL     1      13.052  29.250   4.457  1.00  0.00    -0.508 OA
ATOM     29  H   UNL     1      14.036  29.220   4.217  1.00  0.00     0.293 HD
ENDBRANCH   8  28
TORSDOF 7
ENDMDL
