MODEL 1
REMARK VINA RESULT:    -6.692      0.000      0.000
REMARK INTER + INTRA:         -11.312
REMARK INTER:                  -9.039
REMARK INTRA:                  -2.273
REMARK UNBOUND:                -2.273
REMARK SMILES CC[C@H](CC[C@@H](C)[C@@H]1CC[C@H]2[C@H]3CC(=O)C4=CC(=O)CC[C@@]4(C)[C@@H]3CC[C@]21C)C(C)C
REMARK SMILES IDX 4 1 3 2 2 3 1 4 29 5 30 6 31 7 5 8 6 9 7 10 8 11 9 12 27 13
REMARK SMILES IDX 10 14 11 15 26 16 28 17 12 18 25 19 24 20 13 21 22 22 14 23
REMARK SMILES IDX 16 24 21 25 23 26 15 27 17 28 20 29 18 30 19 31
REMARK H PARENT
REMARK Flexibility Score: inf
ROOT
ATOM      1  C   UNL     1      -0.824   9.070  22.614  1.00  0.00     0.004 C 
ENDROOT
BRANCH   1   2
ATOM      2  C   UNL     1      -1.087  10.314  23.514  1.00  0.00    -0.009 C 
BRANCH   2   3
ATOM      3  C   UNL     1       0.231  11.063  23.883  1.00  0.00     0.000 C 
ATOM      4  C   UNL     1       0.324  11.487  25.351  1.00  0.00     0.004 C 
ENDBRANCH   2   3
BRANCH   2   5
ATOM      5  C   UNL     1      -2.172  11.255  22.877  1.00  0.00    -0.014 C 
ATOM      6  C   UNL     1      -2.899  10.595  21.688  1.00  0.00     0.007 C 
ATOM      7  C   UNL     1      -1.569  12.592  22.401  1.00  0.00     0.007 C 
ENDBRANCH   2   5
ENDBRANCH   1   2
BRANCH   1   8
ATOM      8  C   UNL     1       0.621   8.528  22.688  1.00  0.00     0.004 C 
BRANCH   8   9
ATOM      9  C   UNL     1       1.333   8.518  21.305  1.00  0.00    -0.011 C 
ATOM     10  C   UNL     1       1.811   7.083  20.968  1.00  0.00     0.008 C 
BRANCH   9  11
ATOM     11  C   UNL     1       0.414   9.180  20.205  1.00  0.00    -0.002 C 
ATOM     12  C   UNL     1       0.208   8.276  18.973  1.00  0.00     0.005 C 
ATOM     13  C   UNL     1       0.847  10.565  19.614  1.00  0.00    -0.026 C 
ATOM     14  C   UNL     1       0.953   8.926  17.804  1.00  0.00     0.005 C 
ATOM     15  C   UNL     1       1.648  10.183  18.355  1.00  0.00    -0.001 C 
ATOM     16  C   UNL     1      -0.444  11.346  19.204  1.00  0.00     0.007 C 
ATOM     17  C   UNL     1       1.671  11.434  20.598  1.00  0.00     0.012 C 
ATOM     18  C   UNL     1       1.856  11.344  17.332  1.00  0.00     0.004 C 
ATOM     19  C   UNL     1      -0.182  12.533  18.271  1.00  0.00     0.005 C 
ATOM     20  C   UNL     1       0.541  12.100  16.972  1.00  0.00     0.003 C 
ATOM     21  C   UNL     1       2.567  10.821  16.070  1.00  0.00     0.085 C 
ATOM     22  C   UNL     1       0.775  13.306  15.966  1.00  0.00    -0.000 C 
ATOM     23  C   UNL     1       2.767  11.905  15.068  1.00  0.00     0.159 C 
ATOM     24  C   UNL     1       1.677  12.867  14.806  1.00  0.00     0.005 C 
ATOM     25  C   UNL     1      -0.606  13.765  15.395  1.00  0.00     0.020 C 
ATOM     26  C   UNL     1       1.469  14.509  16.661  1.00  0.00     0.017 C 
ATOM     27  O   UNL     1       3.833  11.937  14.393  1.00  0.00    -0.295 OA
ATOM     28  C   UNL     1       1.570  13.417  13.582  1.00  0.00     0.055 C 
ATOM     29  C   UNL     1      -0.483  14.810  14.280  1.00  0.00     0.081 C 
ATOM     30  C   UNL     1       0.509  14.375  13.247  1.00  0.00     0.156 C 
ATOM     31  O   UNL     1       0.457  14.866  12.088  1.00  0.00    -0.295 OA
ENDBRANCH   9  11
ENDBRANCH   8   9
ENDBRANCH   1   8
TORSDOF 6
ENDMDL
MODEL 2
REMARK VINA RESULT:    -6.568      4.292      9.156
REMARK INTER + INTRA:         -11.145
REMARK INTER:                  -9.216
REMARK INTRA:                  -1.929
REMARK UNBOUND:                -2.273
REMARK SMILES CC[C@H](CC[C@@H](C)[C@@H]1CC[C@H]2[C@H]3CC(=O)C4=CC(=O)CC[C@@]4(C)[C@@H]3CC[C@]21C)C(C)C
REMARK SMILES IDX 4 1 3 2 2 3 1 4 29 5 30 6 31 7 5 8 6 9 7 10 8 11 9 12 27 13
REMARK SMILES IDX 10 14 11 15 26 16 28 17 12 18 25 19 24 20 13 21 22 22 14 23
REMARK SMILES IDX 16 24 21 25 23 26 15 27 17 28 20 29 18 30 19 31
REMARK H PARENT
REMARK Flexibility Score: inf
ROOT
ATOM      1  C   UNL     1      -0.438  16.187  17.087  1.00  0.00     0.004 C 
ENDROOT
BRANCH   1   2
ATOM      2  C   UNL     1      -0.140  14.659  17.028  1.00  0.00    -0.009 C 
BRANCH   2   3
ATOM      3  C   UNL     1      -1.445  13.804  17.044  1.00  0.00     0.000 C 
ATOM      4  C   UNL     1      -1.999  13.526  18.445  1.00  0.00     0.004 C 
ENDBRANCH   2   3
BRANCH   2   5
ATOM      5  C   UNL     1       0.807  14.312  15.823  1.00  0.00    -0.014 C 
ATOM      6  C   UNL     1       0.237  13.194  14.929  1.00  0.00     0.007 C 
ATOM      7  C   UNL     1       2.213  13.890  16.297  1.00  0.00     0.007 C 
ENDBRANCH   2   5
ENDBRANCH   1   2
BRANCH   1   8
ATOM      8  C   UNL     1      -0.144  16.837  18.457  1.00  0.00     0.004 C 
BRANCH   8   9
ATOM      9  C   UNL     1       1.037  16.155  19.208  1.00  0.00    -0.011 C 
ATOM     10  C   UNL     1       2.264  17.100  19.231  1.00  0.00     0.008 C 
BRANCH   9  11
ATOM     11  C   UNL     1       0.570  15.649  20.628  1.00  0.00    -0.002 C 
ATOM     12  C   UNL     1       0.964  16.612  21.767  1.00  0.00     0.005 C 
ATOM     13  C   UNL     1       1.059  14.241  21.112  1.00  0.00    -0.026 C 
ATOM     14  C   UNL     1       2.043  15.913  22.598  1.00  0.00     0.005 C 
ATOM     15  C   UNL     1       2.330  14.562  21.921  1.00  0.00    -0.001 C 
ATOM     16  C   UNL     1      -0.034  13.642  22.055  1.00  0.00     0.007 C 
ATOM     17  C   UNL     1       1.330  13.244  19.956  1.00  0.00     0.012 C 
ATOM     18  C   UNL     1       2.809  13.418  22.870  1.00  0.00     0.004 C 
ATOM     19  C   UNL     1       0.456  12.463  22.902  1.00  0.00     0.005 C 
ATOM     20  C   UNL     1       1.677  12.845  23.776  1.00  0.00     0.003 C 
ATOM     21  C   UNL     1       4.013  13.890  23.706  1.00  0.00     0.085 C 
ATOM     22  C   UNL     1       2.168  11.653  24.703  1.00  0.00    -0.000 C 
ATOM     23  C   UNL     1       4.485  12.823  24.634  1.00  0.00     0.159 C 
ATOM     24  C   UNL     1       3.497  12.014  25.377  1.00  0.00     0.005 C 
ATOM     25  C   UNL     1       1.090  11.389  25.803  1.00  0.00     0.020 C 
ATOM     26  C   UNL     1       2.402  10.350  23.890  1.00  0.00     0.017 C 
ATOM     27  O   UNL     1       5.721  12.680  24.838  1.00  0.00    -0.295 OA
ATOM     28  C   UNL     1       3.832  11.522  26.585  1.00  0.00     0.055 C 
ATOM     29  C   UNL     1       1.541  10.374  26.861  1.00  0.00     0.081 C 
ATOM     30  C   UNL     1       2.900  10.716  27.385  1.00  0.00     0.156 C 
ATOM     31  O   UNL     1       3.266  10.274  28.506  1.00  0.00    -0.295 OA
ENDBRANCH   9  11
ENDBRANCH   8   9
ENDBRANCH   1   8
TORSDOF 6
ENDMDL
MODEL 3
REMARK VINA RESULT:    -6.497      0.754      1.827
REMARK INTER + INTRA:         -11.048
REMARK INTER:                  -9.375
REMARK INTRA:                  -1.673
REMARK UNBOUND:                -2.273
REMARK SMILES CC[C@H](CC[C@@H](C)[C@@H]1CC[C@H]2[C@H]3CC(=O)C4=CC(=O)CC[C@@]4(C)[C@@H]3CC[C@]21C)C(C)C
REMARK SMILES IDX 4 1 3 2 2 3 1 4 29 5 30 6 31 7 5 8 6 9 7 10 8 11 9 12 27 13
REMARK SMILES IDX 10 14 11 15 26 16 28 17 12 18 25 19 24 20 13 21 22 22 14 23
REMARK SMILES IDX 16 24 21 25 23 26 15 27 17 28 20 29 18 30 19 31
REMARK H PARENT
REMARK Flexibility Score: inf
ROOT
ATOM      1  C   UNL     1       1.404   9.498  23.693  1.00  0.00     0.004 C 
ENDROOT
BRANCH   1   2
ATOM      2  C   UNL     1       1.081  11.013  23.851  1.00  0.00    -0.009 C 
BRANCH   2   3
ATOM      3  C   UNL     1      -0.453  11.283  23.940  1.00  0.00     0.000 C 
ATOM      4  C   UNL     1      -0.996  12.201  22.841  1.00  0.00     0.004 C 
ENDBRANCH   2   3
BRANCH   2   5
ATOM      5  C   UNL     1       1.887  11.643  25.044  1.00  0.00    -0.014 C 
ATOM      6  C   UNL     1       1.035  11.779  26.322  1.00  0.00     0.007 C 
ATOM      7  C   UNL     1       2.457  13.031  24.687  1.00  0.00     0.007 C 
ENDBRANCH   2   5
ENDBRANCH   1   2
BRANCH   1   8
ATOM      8  C   UNL     1       0.578   8.784  22.600  1.00  0.00     0.004 C 
BRANCH   8   9
ATOM      9  C   UNL     1       1.305   8.745  21.224  1.00  0.00    -0.011 C 
ATOM     10  C   UNL     1       1.769   7.300  20.914  1.00  0.00     0.008 C 
BRANCH   9  11
ATOM     11  C   UNL     1       0.406   9.401  20.106  1.00  0.00    -0.002 C 
ATOM     12  C   UNL     1       0.165   8.465  18.904  1.00  0.00     0.005 C 
ATOM     13  C   UNL     1       0.883  10.751  19.468  1.00  0.00    -0.026 C 
ATOM     14  C   UNL     1       0.929   9.051  17.713  1.00  0.00     0.005 C 
ATOM     15  C   UNL     1       1.667  10.301  18.221  1.00  0.00    -0.001 C 
ATOM     16  C   UNL     1      -0.382  11.561  19.036  1.00  0.00     0.007 C 
ATOM     17  C   UNL     1       1.739  11.624  20.422  1.00  0.00     0.012 C 
ATOM     18  C   UNL     1       1.911  11.420  17.161  1.00  0.00     0.004 C 
ATOM     19  C   UNL     1      -0.083  12.707  18.064  1.00  0.00     0.005 C 
ATOM     20  C   UNL     1       0.621  12.208  16.778  1.00  0.00     0.003 C 
ATOM     21  C   UNL     1       2.600  10.833  15.915  1.00  0.00     0.085 C 
ATOM     22  C   UNL     1       0.892  13.372  15.733  1.00  0.00    -0.000 C 
ATOM     23  C   UNL     1       2.833  11.876  14.877  1.00  0.00     0.159 C 
ATOM     24  C   UNL     1       1.775  12.865  14.586  1.00  0.00     0.005 C 
ATOM     25  C   UNL     1      -0.475  13.859  15.150  1.00  0.00     0.020 C 
ATOM     26  C   UNL     1       1.628  14.573  16.386  1.00  0.00     0.017 C 
ATOM     27  O   UNL     1       3.897  11.850  14.200  1.00  0.00    -0.295 OA
ATOM     28  C   UNL     1       1.683  13.378  13.345  1.00  0.00     0.055 C 
ATOM     29  C   UNL     1      -0.320  14.861  14.000  1.00  0.00     0.081 C 
ATOM     30  C   UNL     1       0.653  14.360  12.981  1.00  0.00     0.156 C 
ATOM     31  O   UNL     1       0.615  14.813  11.806  1.00  0.00    -0.295 OA
ENDBRANCH   9  11
ENDBRANCH   8   9
ENDBRANCH   1   8
TORSDOF 6
ENDMDL
MODEL 4
REMARK VINA RESULT:    -6.496      3.287      5.448
REMARK INTER + INTRA:         -11.048
REMARK INTER:                  -9.236
REMARK INTRA:                  -1.812
REMARK UNBOUND:                -2.273
REMARK SMILES CC[C@H](CC[C@@H](C)[C@@H]1CC[C@H]2[C@H]3CC(=O)C4=CC(=O)CC[C@@]4(C)[C@@H]3CC[C@]21C)C(C)C
REMARK SMILES IDX 4 1 3 2 2 3 1 4 29 5 30 6 31 7 5 8 6 9 7 10 8 11 9 12 27 13
REMARK SMILES IDX 10 14 11 15 26 16 28 17 12 18 25 19 24 20 13 21 22 22 14 23
REMARK SMILES IDX 16 24 21 25 23 26 15 27 17 28 20 29 18 30 19 31
REMARK H PARENT
REMARK Flexibility Score: inf
ROOT
ATOM      1  C   UNL     1       3.118  14.678  23.929  1.00  0.00     0.004 C 
ENDROOT
BRANCH   1   2
ATOM      2  C   UNL     1       2.974  13.355  23.120  1.00  0.00    -0.009 C 
BRANCH   2   3
ATOM      3  C   UNL     1       4.356  12.778  22.685  1.00  0.00     0.000 C 
ATOM      4  C   UNL     1       4.657  12.923  21.191  1.00  0.00     0.004 C 
ENDBRANCH   2   3
BRANCH   2   5
ATOM      5  C   UNL     1       2.087  12.312  23.892  1.00  0.00    -0.014 C 
ATOM      6  C   UNL     1       0.594  12.422  23.523  1.00  0.00     0.007 C 
ATOM      7  C   UNL     1       2.225  12.458  25.421  1.00  0.00     0.007 C 
ENDBRANCH   2   5
ENDBRANCH   1   2
BRANCH   1   8
ATOM      8  C   UNL     1       2.744  15.950  23.135  1.00  0.00     0.004 C 
BRANCH   8   9
ATOM      9  C   UNL     1       1.611  15.702  22.098  1.00  0.00    -0.011 C 
ATOM     10  C   UNL     1       0.490  16.755  22.280  1.00  0.00     0.008 C 
BRANCH   9  11
ATOM     11  C   UNL     1       2.206  15.622  20.638  1.00  0.00    -0.002 C 
ATOM     12  C   UNL     1       2.484  17.010  20.027  1.00  0.00     0.005 C 
ATOM     13  C   UNL     1       1.381  14.863  19.542  1.00  0.00    -0.026 C 
ATOM     14  C   UNL     1       1.472  17.219  18.897  1.00  0.00     0.005 C 
ATOM     15  C   UNL     1       0.558  15.982  18.875  1.00  0.00    -0.001 C 
ATOM     16  C   UNL     1       2.384  14.255  18.510  1.00  0.00     0.007 C 
ATOM     17  C   UNL     1       0.488  13.729  20.107  1.00  0.00     0.012 C 
ATOM     18  C   UNL     1      -0.045  15.612  17.484  1.00  0.00     0.004 C 
ATOM     19  C   UNL     1       1.733  13.822  17.192  1.00  0.00     0.005 C 
ATOM     20  C   UNL     1       0.993  14.993  16.499  1.00  0.00     0.003 C 
ATOM     21  C   UNL     1      -0.747  16.835  16.865  1.00  0.00     0.085 C 
ATOM     22  C   UNL     1       0.356  14.580  15.105  1.00  0.00    -0.000 C 
ATOM     23  C   UNL     1      -1.321  16.516  15.527  1.00  0.00     0.159 C 
ATOM     24  C   UNL     1      -0.538  15.707  14.572  1.00  0.00     0.005 C 
ATOM     25  C   UNL     1       1.507  14.312  14.081  1.00  0.00     0.020 C 
ATOM     26  C   UNL     1      -0.527  13.309  15.229  1.00  0.00     0.017 C 
ATOM     27  O   UNL     1      -2.432  17.012  15.195  1.00  0.00    -0.295 OA
ATOM     28  C   UNL     1      -0.712  15.905  13.251  1.00  0.00     0.055 C 
ATOM     29  C   UNL     1       1.003  14.076  12.652  1.00  0.00     0.081 C 
ATOM     30  C   UNL     1       0.036  15.142  12.243  1.00  0.00     0.156 C 
ATOM     31  O   UNL     1      -0.169  15.362  11.020  1.00  0.00    -0.295 OA
ENDBRANCH   9  11
ENDBRANCH   8   9
ENDBRANCH   1   8
TORSDOF 6
ENDMDL
MODEL 5
REMARK VINA RESULT:    -6.426      1.187      2.110
REMARK INTER + INTRA:         -10.953
REMARK INTER:                  -8.828
REMARK INTRA:                  -2.125
REMARK UNBOUND:                -2.273
REMARK SMILES CC[C@H](CC[C@@H](C)[C@@H]1CC[C@H]2[C@H]3CC(=O)C4=CC(=O)CC[C@@]4(C)[C@@H]3CC[C@]21C)C(C)C
REMARK SMILES IDX 4 1 3 2 2 3 1 4 29 5 30 6 31 7 5 8 6 9 7 10 8 11 9 12 27 13
REMARK SMILES IDX 10 14 11 15 26 16 28 17 12 18 25 19 24 20 13 21 22 22 14 23
REMARK SMILES IDX 16 24 21 25 23 26 15 27 17 28 20 29 18 30 19 31
REMARK H PARENT
REMARK Flexibility Score: inf
ROOT
ATOM      1  C   UNL     1       0.065   9.468  23.276  1.00  0.00     0.004 C 
ENDROOT
BRANCH   1   2
ATOM      2  C   UNL     1      -1.120   8.604  23.800  1.00  0.00    -0.009 C 
BRANCH   2   3
ATOM      3  C   UNL     1      -2.314   8.573  22.798  1.00  0.00     0.000 C 
ATOM      4  C   UNL     1      -2.638   9.928  22.162  1.00  0.00     0.004 C 
ENDBRANCH   2   3
BRANCH   2   5
ATOM      5  C   UNL     1      -0.633   7.171  24.222  1.00  0.00    -0.014 C 
ATOM      6  C   UNL     1      -1.257   6.059  23.356  1.00  0.00     0.007 C 
ATOM      7  C   UNL     1      -0.942   6.869  25.702  1.00  0.00     0.007 C 
ENDBRANCH   2   5
ENDBRANCH   1   2
BRANCH   1   8
ATOM      8  C   UNL     1       1.375   8.679  23.053  1.00  0.00     0.004 C 
BRANCH   8   9
ATOM      9  C   UNL     1       1.697   8.458  21.547  1.00  0.00    -0.011 C 
ATOM     10  C   UNL     1       1.791   6.942  21.244  1.00  0.00     0.008 C 
BRANCH   9  11
ATOM     11  C   UNL     1       0.672   9.247  20.641  1.00  0.00    -0.002 C 
ATOM     12  C   UNL     1       0.102   8.388  19.494  1.00  0.00     0.005 C 
ATOM     13  C   UNL     1       1.159  10.565  19.947  1.00  0.00    -0.026 C 
ATOM     14  C   UNL     1       0.677   8.940  18.186  1.00  0.00     0.005 C 
ATOM     15  C   UNL     1       1.630  10.087  18.561  1.00  0.00    -0.001 C 
ATOM     16  C   UNL     1      -0.072  11.516  19.790  1.00  0.00     0.007 C 
ATOM     17  C   UNL     1       2.273  11.307  20.728  1.00  0.00     0.012 C 
ATOM     18  C   UNL     1       1.782  11.217  17.494  1.00  0.00     0.004 C 
ATOM     19  C   UNL     1       0.153  12.664  18.799  1.00  0.00     0.005 C 
ATOM     20  C   UNL     1       0.535  12.146  17.390  1.00  0.00     0.003 C 
ATOM     21  C   UNL     1       2.147  10.612  16.126  1.00  0.00     0.085 C 
ATOM     22  C   UNL     1       0.720  13.317  16.334  1.00  0.00    -0.000 C 
ATOM     23  C   UNL     1       2.284  11.666  15.082  1.00  0.00     0.159 C 
ATOM     24  C   UNL     1       1.302  12.768  15.026  1.00  0.00     0.005 C 
ATOM     25  C   UNL     1      -0.673  13.964  16.043  1.00  0.00     0.020 C 
ATOM     26  C   UNL     1       1.695  14.410  16.851  1.00  0.00     0.017 C 
ATOM     27  O   UNL     1       3.186  11.559  14.206  1.00  0.00    -0.295 OA
ATOM     28  C   UNL     1       1.026  13.337  13.837  1.00  0.00     0.055 C 
ATOM     29  C   UNL     1      -0.639  14.990  14.905  1.00  0.00     0.081 C 
ATOM     30  C   UNL     1       0.056  14.433  13.703  1.00  0.00     0.156 C 
ATOM     31  O   UNL     1      -0.161  14.934  12.568  1.00  0.00    -0.295 OA
ENDBRANCH   9  11
ENDBRANCH   8   9
ENDBRANCH   1   8
TORSDOF 6
ENDMDL
MODEL 6
REMARK VINA RESULT:    -6.377      2.166      4.154
REMARK INTER + INTRA:         -10.887
REMARK INTER:                  -9.087
REMARK INTRA:                  -1.800
REMARK UNBOUND:                -2.273
REMARK SMILES CC[C@H](CC[C@@H](C)[C@@H]1CC[C@H]2[C@H]3CC(=O)C4=CC(=O)CC[C@@]4(C)[C@@H]3CC[C@]21C)C(C)C
REMARK SMILES IDX 4 1 3 2 2 3 1 4 29 5 30 6 31 7 5 8 6 9 7 10 8 11 9 12 27 13
REMARK SMILES IDX 10 14 11 15 26 16 28 17 12 18 25 19 24 20 13 21 22 22 14 23
REMARK SMILES IDX 16 24 21 25 23 26 15 27 17 28 20 29 18 30 19 31
REMARK H PARENT
REMARK Flexibility Score: inf
ROOT
ATOM      1  C   UNL     1       1.325   8.056  20.694  1.00  0.00     0.004 C 
ENDROOT
BRANCH   1   2
ATOM      2  C   UNL     1       0.857   8.000  22.179  1.00  0.00    -0.009 C 
BRANCH   2   3
ATOM      3  C   UNL     1       1.148   6.615  22.836  1.00  0.00     0.000 C 
ATOM      4  C   UNL     1      -0.105   5.832  23.238  1.00  0.00     0.004 C 
ENDBRANCH   2   3
BRANCH   2   5
ATOM      5  C   UNL     1       1.438   9.206  23.002  1.00  0.00    -0.014 C 
ATOM      6  C   UNL     1       0.379  10.291  23.282  1.00  0.00     0.007 C 
ATOM      7  C   UNL     1       2.637   9.865  22.292  1.00  0.00     0.007 C 
ENDBRANCH   2   5
ENDBRANCH   1   2
BRANCH   1   8
ATOM      8  C   UNL     1       0.172   8.039  19.666  1.00  0.00     0.004 C 
BRANCH   8   9
ATOM      9  C   UNL     1      -0.108   9.441  19.051  1.00  0.00    -0.011 C 
ATOM     10  C   UNL     1      -1.184  10.178  19.887  1.00  0.00     0.008 C 
BRANCH   9  11
ATOM     11  C   UNL     1       1.239  10.241  18.863  1.00  0.00    -0.002 C 
ATOM     12  C   UNL     1       1.149  11.695  19.371  1.00  0.00     0.005 C 
ATOM     13  C   UNL     1       1.835  10.361  17.418  1.00  0.00    -0.026 C 
ATOM     14  C   UNL     1       1.200  12.608  18.143  1.00  0.00     0.005 C 
ATOM     15  C   UNL     1       1.263  11.696  16.905  1.00  0.00    -0.001 C 
ATOM     16  C   UNL     1       3.390  10.461  17.538  1.00  0.00     0.007 C 
ATOM     17  C   UNL     1       1.475   9.169  16.494  1.00  0.00     0.012 C 
ATOM     18  C   UNL     1       2.000  12.291  15.664  1.00  0.00     0.004 C 
ATOM     19  C   UNL     1       4.080  10.964  16.265  1.00  0.00     0.005 C 
ATOM     20  C   UNL     1       3.549  12.352  15.829  1.00  0.00     0.003 C 
ATOM     21  C   UNL     1       1.418  13.672  15.310  1.00  0.00     0.085 C 
ATOM     22  C   UNL     1       4.288  12.916  14.542  1.00  0.00    -0.000 C 
ATOM     23  C   UNL     1       2.112  14.273  14.136  1.00  0.00     0.159 C 
ATOM     24  C   UNL     1       3.582  14.179  14.032  1.00  0.00     0.005 C 
ATOM     25  C   UNL     1       5.763  13.271  14.919  1.00  0.00     0.020 C 
ATOM     26  C   UNL     1       4.288  11.887  13.379  1.00  0.00     0.017 C 
ATOM     27  O   UNL     1       1.444  14.928  13.290  1.00  0.00    -0.295 OA
ATOM     28  C   UNL     1       4.256  15.155  13.394  1.00  0.00     0.055 C 
ATOM     29  C   UNL     1       6.520  13.989  13.795  1.00  0.00     0.081 C 
ATOM     30  C   UNL     1       5.718  15.132  13.256  1.00  0.00     0.156 C 
ATOM     31  O   UNL     1       6.299  16.067  12.644  1.00  0.00    -0.295 OA
ENDBRANCH   9  11
ENDBRANCH   8   9
ENDBRANCH   1   8
TORSDOF 6
ENDMDL
MODEL 7
REMARK VINA RESULT:    -6.315      3.448      8.387
REMARK INTER + INTRA:         -10.803
REMARK INTER:                  -9.205
REMARK INTRA:                  -1.598
REMARK UNBOUND:                -2.273
REMARK SMILES CC[C@H](CC[C@@H](C)[C@@H]1CC[C@H]2[C@H]3CC(=O)C4=CC(=O)CC[C@@]4(C)[C@@H]3CC[C@]21C)C(C)C
REMARK SMILES IDX 4 1 3 2 2 3 1 4 29 5 30 6 31 7 5 8 6 9 7 10 8 11 9 12 27 13
REMARK SMILES IDX 10 14 11 15 26 16 28 17 12 18 25 19 24 20 13 21 22 22 14 23
REMARK SMILES IDX 16 24 21 25 23 26 15 27 17 28 20 29 18 30 19 31
REMARK H PARENT
REMARK Flexibility Score: inf
ROOT
ATOM      1  C   UNL     1       2.815  10.945  14.818  1.00  0.00     0.004 C 
ENDROOT
BRANCH   1   2
ATOM      2  C   UNL     1       2.320  12.378  14.460  1.00  0.00    -0.009 C 
BRANCH   2   3
ATOM      3  C   UNL     1       0.848  12.623  14.916  1.00  0.00     0.000 C 
ATOM      4  C   UNL     1       0.086  13.641  14.062  1.00  0.00     0.004 C 
ENDBRANCH   2   3
BRANCH   2   5
ATOM      5  C   UNL     1       3.318  13.471  14.988  1.00  0.00    -0.014 C 
ATOM      6  C   UNL     1       3.783  14.429  13.874  1.00  0.00     0.007 C 
ATOM      7  C   UNL     1       4.563  12.845  15.647  1.00  0.00     0.007 C 
ENDBRANCH   2   5
ENDBRANCH   1   2
BRANCH   1   8
ATOM      8  C   UNL     1       1.705  10.001  15.331  1.00  0.00     0.004 C 
BRANCH   8   9
ATOM      9  C   UNL     1       1.929   9.550  16.804  1.00  0.00    -0.011 C 
ATOM     10  C   UNL     1       3.446   9.461  17.104  1.00  0.00     0.008 C 
BRANCH   9  11
ATOM     11  C   UNL     1       1.117  10.474  17.793  1.00  0.00    -0.002 C 
ATOM     12  C   UNL     1       1.923  11.701  18.266  1.00  0.00     0.005 C 
ATOM     13  C   UNL     1       0.556   9.836  19.110  1.00  0.00    -0.026 C 
ATOM     14  C   UNL     1       2.232  11.497  19.751  1.00  0.00     0.005 C 
ATOM     15  C   UNL     1       1.660  10.125  20.146  1.00  0.00    -0.001 C 
ATOM     16  C   UNL     1      -0.751  10.598  19.503  1.00  0.00     0.007 C 
ATOM     17  C   UNL     1       0.241   8.324  18.987  1.00  0.00     0.012 C 
ATOM     18  C   UNL     1       1.215   9.980  21.636  1.00  0.00     0.004 C 
ATOM     19  C   UNL     1      -1.201  10.356  20.948  1.00  0.00     0.005 C 
ATOM     20  C   UNL     1      -0.103  10.744  21.969  1.00  0.00     0.003 C 
ATOM     21  C   UNL     1       2.360  10.399  22.576  1.00  0.00     0.085 C 
ATOM     22  C   UNL     1      -0.568  10.552  23.475  1.00  0.00    -0.000 C 
ATOM     23  C   UNL     1       1.960  10.286  24.007  1.00  0.00     0.159 C 
ATOM     24  C   UNL     1       0.619  10.743  24.428  1.00  0.00     0.005 C 
ATOM     25  C   UNL     1      -1.666  11.614  23.807  1.00  0.00     0.020 C 
ATOM     26  C   UNL     1      -1.137   9.129  23.725  1.00  0.00     0.017 C 
ATOM     27  O   UNL     1       2.800   9.882  24.856  1.00  0.00    -0.295 OA
ATOM     28  C   UNL     1       0.452  11.214  25.678  1.00  0.00     0.055 C 
ATOM     29  C   UNL     1      -2.062  11.634  25.288  1.00  0.00     0.081 C 
ATOM     30  C   UNL     1      -0.850  11.691  26.164  1.00  0.00     0.156 C 
ATOM     31  O   UNL     1      -0.954  12.116  27.345  1.00  0.00    -0.295 OA
ENDBRANCH   9  11
ENDBRANCH   8   9
ENDBRANCH   1   8
TORSDOF 6
ENDMDL
MODEL 8
REMARK VINA RESULT:    -6.312      1.947      3.111
REMARK INTER + INTRA:         -10.799
REMARK INTER:                  -9.228
REMARK INTRA:                  -1.571
REMARK UNBOUND:                -2.273
REMARK SMILES CC[C@H](CC[C@@H](C)[C@@H]1CC[C@H]2[C@H]3CC(=O)C4=CC(=O)CC[C@@]4(C)[C@@H]3CC[C@]21C)C(C)C
REMARK SMILES IDX 4 1 3 2 2 3 1 4 29 5 30 6 31 7 5 8 6 9 7 10 8 11 9 12 27 13
REMARK SMILES IDX 10 14 11 15 26 16 28 17 12 18 25 19 24 20 13 21 22 22 14 23
REMARK SMILES IDX 16 24 21 25 23 26 15 27 17 28 20 29 18 30 19 31
REMARK H PARENT
REMARK Flexibility Score: inf
ROOT
ATOM      1  C   UNL     1       2.002   8.474  24.017  1.00  0.00     0.004 C 
ENDROOT
BRANCH   1   2
ATOM      2  C   UNL     1       3.513   8.526  23.644  1.00  0.00    -0.009 C 
BRANCH   2   3
ATOM      3  C   UNL     1       4.121   9.948  23.845  1.00  0.00     0.000 C 
ATOM      4  C   UNL     1       5.234  10.015  24.895  1.00  0.00     0.004 C 
ENDBRANCH   2   3
BRANCH   2   5
ATOM      5  C   UNL     1       4.320   7.401  24.389  1.00  0.00    -0.014 C 
ATOM      6  C   UNL     1       5.164   6.546  23.424  1.00  0.00     0.007 C 
ATOM      7  C   UNL     1       3.395   6.464  25.191  1.00  0.00     0.007 C 
ENDBRANCH   2   5
ENDBRANCH   1   2
BRANCH   1   8
ATOM      8  C   UNL     1       1.093   7.909  22.903  1.00  0.00     0.004 C 
BRANCH   8   9
ATOM      9  C   UNL     1       1.682   8.122  21.478  1.00  0.00    -0.011 C 
ATOM     10  C   UNL     1       2.095   6.760  20.869  1.00  0.00     0.008 C 
BRANCH   9  11
ATOM     11  C   UNL     1       0.687   8.965  20.589  1.00  0.00    -0.002 C 
ATOM     12  C   UNL     1       0.082   8.149  19.428  1.00  0.00     0.005 C 
ATOM     13  C   UNL     1       1.222  10.276  19.917  1.00  0.00    -0.026 C 
ATOM     14  C   UNL     1       0.675   8.702  18.129  1.00  0.00     0.005 C 
ATOM     15  C   UNL     1       1.673   9.805  18.521  1.00  0.00    -0.001 C 
ATOM     16  C   UNL     1       0.028  11.276  19.779  1.00  0.00     0.007 C 
ATOM     17  C   UNL     1       2.365  10.962  20.708  1.00  0.00     0.012 C 
ATOM     18  C   UNL     1       1.865  10.947  17.474  1.00  0.00     0.004 C 
ATOM     19  C   UNL     1       0.295  12.432  18.809  1.00  0.00     0.005 C 
ATOM     20  C   UNL     1       0.654  11.925  17.390  1.00  0.00     0.003 C 
ATOM     21  C   UNL     1       2.204  10.353  16.095  1.00  0.00     0.085 C 
ATOM     22  C   UNL     1       0.881  13.107  16.354  1.00  0.00    -0.000 C 
ATOM     23  C   UNL     1       2.379  11.419  15.069  1.00  0.00     0.159 C 
ATOM     24  C   UNL     1       1.440  12.559  15.035  1.00  0.00     0.005 C 
ATOM     25  C   UNL     1      -0.487  13.810  16.078  1.00  0.00     0.020 C 
ATOM     26  C   UNL     1       1.898  14.152  16.887  1.00  0.00     0.017 C 
ATOM     27  O   UNL     1       3.275  11.294  14.190  1.00  0.00    -0.295 OA
ATOM     28  C   UNL     1       1.183  13.159  13.857  1.00  0.00     0.055 C 
ATOM     29  C   UNL     1      -0.416  14.855  14.958  1.00  0.00     0.081 C 
ATOM     30  C   UNL     1       0.256  14.293  13.745  1.00  0.00     0.156 C 
ATOM     31  O   UNL     1       0.055  14.822  12.620  1.00  0.00    -0.295 OA
ENDBRANCH   9  11
ENDBRANCH   8   9
ENDBRANCH   1   8
TORSDOF 6
ENDMDL
MODEL 9
REMARK VINA RESULT:    -6.230      2.131      3.841
REMARK INTER + INTRA:         -10.688
REMARK INTER:                  -8.590
REMARK INTRA:                  -2.098
REMARK UNBOUND:                -2.273
REMARK SMILES CC[C@H](CC[C@@H](C)[C@@H]1CC[C@H]2[C@H]3CC(=O)C4=CC(=O)CC[C@@]4(C)[C@@H]3CC[C@]21C)C(C)C
REMARK SMILES IDX 4 1 3 2 2 3 1 4 29 5 30 6 31 7 5 8 6 9 7 10 8 11 9 12 27 13
REMARK SMILES IDX 10 14 11 15 26 16 28 17 12 18 25 19 24 20 13 21 22 22 14 23
REMARK SMILES IDX 16 24 21 25 23 26 15 27 17 28 20 29 18 30 19 31
REMARK H PARENT
REMARK Flexibility Score: inf
ROOT
ATOM      1  C   UNL     1       0.910  11.901  25.012  1.00  0.00     0.004 C 
ENDROOT
BRANCH   1   2
ATOM      2  C   UNL     1       2.349  12.245  25.497  1.00  0.00    -0.009 C 
BRANCH   2   3
ATOM      3  C   UNL     1       3.081  11.006  26.098  1.00  0.00     0.000 C 
ATOM      4  C   UNL     1       3.254  11.052  27.619  1.00  0.00     0.004 C 
ENDBRANCH   2   3
BRANCH   2   5
ATOM      5  C   UNL     1       3.174  12.956  24.364  1.00  0.00    -0.014 C 
ATOM      6  C   UNL     1       4.692  12.733  24.513  1.00  0.00     0.007 C 
ATOM      7  C   UNL     1       2.905  14.474  24.320  1.00  0.00     0.007 C 
ENDBRANCH   2   5
ENDBRANCH   1   2
BRANCH   1   8
ATOM      8  C   UNL     1       0.569  10.395  25.056  1.00  0.00     0.004 C 
BRANCH   8   9
ATOM      9  C   UNL     1       0.232   9.811  23.654  1.00  0.00    -0.011 C 
ATOM     10  C   UNL     1      -1.149   9.112  23.691  1.00  0.00     0.008 C 
BRANCH   9  11
ATOM     11  C   UNL     1       0.376  10.924  22.544  1.00  0.00    -0.002 C 
ATOM     12  C   UNL     1      -0.872  11.038  21.644  1.00  0.00     0.005 C 
ATOM     13  C   UNL     1       1.578  10.822  21.543  1.00  0.00    -0.026 C 
ATOM     14  C   UNL     1      -0.479  10.528  20.255  1.00  0.00     0.005 C 
ATOM     15  C   UNL     1       0.983  10.058  20.345  1.00  0.00    -0.001 C 
ATOM     16  C   UNL     1       1.973  12.270  21.106  1.00  0.00     0.007 C 
ATOM     17  C   UNL     1       2.825  10.116  22.135  1.00  0.00     0.012 C 
ATOM     18  C   UNL     1       1.809  10.164  19.025  1.00  0.00     0.004 C 
ATOM     19  C   UNL     1       2.859  12.321  19.857  1.00  0.00     0.005 C 
ATOM     20  C   UNL     1       2.191  11.626  18.644  1.00  0.00     0.003 C 
ATOM     21  C   UNL     1       1.067   9.460  17.874  1.00  0.00     0.085 C 
ATOM     22  C   UNL     1       3.070  11.715  17.324  1.00  0.00    -0.000 C 
ATOM     23  C   UNL     1       1.825   9.556  16.595  1.00  0.00     0.159 C 
ATOM     24  C   UNL     1       2.467  10.833  16.223  1.00  0.00     0.005 C 
ATOM     25  C   UNL     1       3.099  13.199  16.833  1.00  0.00     0.020 C 
ATOM     26  C   UNL     1       4.523  11.224  17.565  1.00  0.00     0.017 C 
ATOM     27  O   UNL     1       1.837   8.573  15.805  1.00  0.00    -0.295 OA
ATOM     28  C   UNL     1       2.607  11.139  14.919  1.00  0.00     0.055 C 
ATOM     29  C   UNL     1       3.774  13.371  15.467  1.00  0.00     0.081 C 
ATOM     30  C   UNL     1       3.229  12.393  14.474  1.00  0.00     0.156 C 
ATOM     31  O   UNL     1       3.341  12.628  13.242  1.00  0.00    -0.295 OA
ENDBRANCH   9  11
ENDBRANCH   8   9
ENDBRANCH   1   8
TORSDOF 6
ENDMDL
