MODEL 1
REMARK VINA RESULT:    -7.483      0.000      0.000
REMARK INTER + INTRA:         -11.714
REMARK INTER:                 -10.982
REMARK INTRA:                  -0.732
REMARK UNBOUND:                -0.732
REMARK SMILES Cc1cc2c(C(C)C)c(O)c(O)c(C=O)c2c(O)c1-c1c(C)cc2c(C(C)C)c(O)c(O)c(C=O)c2c1O
REMARK SMILES IDX 1 1 2 2 3 3 4 4 16 5 13 6 11 7 9 8 5 9 17 10 19 11 20 12
REMARK SMILES IDX 37 13 21 14 36 15 23 16 22 17 24 18 33 19 25 20 31 21 29 22
REMARK SMILES IDX 38 23 34 25 35 26 26 27 27 28 28 29 32 30 30 32 18 34 6 36
REMARK SMILES IDX 7 37 8 38 14 39 15 40 10 41 12 43
REMARK H PARENT 38 24 32 31 30 33 18 35 10 42 12 44
REMARK Flexibility Score: inf
ROOT
ATOM      1  C   UNL     1      -5.789  -8.519  22.892  1.00  0.00     0.045 C 
ATOM      2  C   UNL     1      -5.428  -7.059  23.032  1.00  0.00    -0.039 A 
ATOM      3  C   UNL     1      -5.656  -6.410  24.245  1.00  0.00     0.013 A 
ATOM      4  C   UNL     1      -5.355  -5.043  24.430  1.00  0.00    -0.006 A 
ATOM      5  C   UNL     1      -4.701  -4.333  23.375  1.00  0.00     0.039 A 
ATOM      6  C   UNL     1      -4.270  -2.992  23.612  1.00  0.00     0.072 A 
ATOM      7  C   UNL     1      -4.435  -2.415  24.888  1.00  0.00     0.169 A 
ATOM      8  C   UNL     1      -5.086  -3.117  25.906  1.00  0.00     0.162 A 
ATOM      9  C   UNL     1      -5.656  -4.384  25.662  1.00  0.00     0.008 A 
ATOM     10  C   UNL     1      -4.467  -5.004  22.134  1.00  0.00     0.132 A 
ATOM     11  C   UNL     1      -4.843  -6.354  21.968  1.00  0.00     0.031 A 
ENDROOT
BRANCH  11  12
ATOM     12  C   UNL     1      -4.587  -7.049  20.678  1.00  0.00     0.031 A 
ATOM     13  C   UNL     1      -5.633  -7.222  19.748  1.00  0.00     0.132 A 
ATOM     14  C   UNL     1      -3.301  -7.538  20.389  1.00  0.00    -0.039 A 
ATOM     15  C   UNL     1      -5.404  -7.928  18.532  1.00  0.00     0.039 A 
ATOM     16  C   UNL     1      -3.048  -8.101  19.136  1.00  0.00     0.013 A 
ATOM     17  C   UNL     1      -2.171  -7.397  21.378  1.00  0.00     0.045 C 
ATOM     18  C   UNL     1      -4.063  -8.241  18.165  1.00  0.00    -0.006 A 
ATOM     19  C   UNL     1      -6.466  -8.310  17.660  1.00  0.00     0.072 A 
ATOM     20  C   UNL     1      -3.773  -8.709  16.847  1.00  0.00     0.008 A 
ATOM     21  C   UNL     1      -6.173  -8.908  16.418  1.00  0.00     0.169 A 
ATOM     22  C   UNL     1      -4.846  -9.103  16.018  1.00  0.00     0.162 A 
BRANCH  13  23
ATOM     23  O   UNL     1      -6.888  -6.657  20.007  1.00  0.00    -0.507 OA
ATOM     24  H   UNL     1      -7.050  -5.941  20.704  1.00  0.00     0.293 HD
ENDBRANCH  13  23
BRANCH  19  25
ATOM     25  C   UNL     1      -7.885  -8.218  18.063  1.00  0.00     0.264 C 
ATOM     26  O   UNL     1      -8.629  -9.234  18.019  1.00  0.00    -0.298 OA
ENDBRANCH  19  25
BRANCH  20  27
ATOM     27  C   UNL     1      -2.329  -8.791  16.320  1.00  0.00     0.017 C 
ATOM     28  C   UNL     1      -1.554  -7.512  16.647  1.00  0.00     0.012 C 
ATOM     29  C   UNL     1      -1.568 -10.045  16.793  1.00  0.00     0.012 C 
ENDBRANCH  20  27
BRANCH  21  30
ATOM     30  O   UNL     1      -7.189  -9.339  15.556  1.00  0.00    -0.504 OA
ATOM     31  H   UNL     1      -7.706  -8.726  14.938  1.00  0.00     0.293 HD
ENDBRANCH  21  30
BRANCH  22  32
ATOM     32  O   UNL     1      -4.587  -9.722  14.793  1.00  0.00    -0.504 OA
ATOM     33  H   UNL     1      -4.898  -9.344  13.906  1.00  0.00     0.293 HD
ENDBRANCH  22  32
ENDBRANCH  11  12
BRANCH  10  34
ATOM     34  O   UNL     1      -3.853  -4.333  21.071  1.00  0.00    -0.507 OA
ATOM     35  H   UNL     1      -3.084  -3.683  21.177  1.00  0.00     0.293 HD
ENDBRANCH  10  34
BRANCH   9  36
ATOM     36  C   UNL     1      -6.566  -5.027  26.725  1.00  0.00     0.017 C 
ATOM     37  C   UNL     1      -5.963  -4.873  28.125  1.00  0.00     0.012 C 
ATOM     38  C   UNL     1      -8.022  -4.526  26.684  1.00  0.00     0.012 C 
ENDBRANCH   9  36
BRANCH   6  39
ATOM     39  C   UNL     1      -3.627  -2.179  22.561  1.00  0.00     0.264 C 
ATOM     40  O   UNL     1      -2.391  -1.937  22.606  1.00  0.00    -0.298 OA
ENDBRANCH   6  39
BRANCH   8  41
ATOM     41  O   UNL     1      -5.171  -2.549  27.180  1.00  0.00    -0.504 OA
ATOM     42  H   UNL     1      -4.712  -2.942  27.992  1.00  0.00     0.293 HD
ENDBRANCH   8  41
BRANCH   7  43
ATOM     43  O   UNL     1      -3.988  -1.119  25.170  1.00  0.00    -0.504 OA
ATOM     44  H   UNL     1      -3.175  -0.908  25.734  1.00  0.00     0.293 HD
ENDBRANCH   7  43
TORSDOF 11
ENDMDL
MODEL 2
REMARK VINA RESULT:    -7.049      0.516      9.254
REMARK INTER + INTRA:         -11.079
REMARK INTER:                 -10.713
REMARK INTRA:                  -0.366
REMARK UNBOUND:                -0.732
REMARK SMILES Cc1cc2c(C(C)C)c(O)c(O)c(C=O)c2c(O)c1-c1c(C)cc2c(C(C)C)c(O)c(O)c(C=O)c2c1O
REMARK SMILES IDX 1 1 2 2 3 3 4 4 16 5 13 6 11 7 9 8 5 9 17 10 19 11 20 12
REMARK SMILES IDX 37 13 21 14 36 15 23 16 22 17 24 18 33 19 25 20 31 21 29 22
REMARK SMILES IDX 38 23 34 25 35 26 26 27 27 28 28 29 32 30 30 32 18 34 6 36
REMARK SMILES IDX 7 37 8 38 14 39 15 40 10 41 12 43
REMARK H PARENT 38 24 32 31 30 33 18 35 10 42 12 44
REMARK Flexibility Score: inf
ROOT
ATOM      1  C   UNL     1      -2.085  -7.044  21.261  1.00  0.00     0.045 C 
ATOM      2  C   UNL     1      -3.223  -7.318  20.306  1.00  0.00    -0.039 A 
ATOM      3  C   UNL     1      -2.948  -7.859  19.050  1.00  0.00     0.013 A 
ATOM      4  C   UNL     1      -3.968  -8.121  18.109  1.00  0.00    -0.006 A 
ATOM      5  C   UNL     1      -5.330  -7.921  18.496  1.00  0.00     0.039 A 
ATOM      6  C   UNL     1      -6.366  -8.318  17.597  1.00  0.00     0.072 A 
ATOM      7  C   UNL     1      -6.038  -8.952  16.381  1.00  0.00     0.169 A 
ATOM      8  C   UNL     1      -4.702  -9.130  16.011  1.00  0.00     0.162 A 
ATOM      9  C   UNL     1      -3.656  -8.616  16.806  1.00  0.00     0.008 A 
ATOM     10  C   UNL     1      -5.607  -7.369  19.786  1.00  0.00     0.132 A 
ATOM     11  C   UNL     1      -4.553  -7.060  20.673  1.00  0.00     0.031 A 
ENDROOT
BRANCH  11  12
ATOM     12  C   UNL     1      -4.848  -6.495  22.017  1.00  0.00     0.031 A 
ATOM     13  C   UNL     1      -4.621  -5.127  22.276  1.00  0.00     0.132 A 
ATOM     14  C   UNL     1      -5.349  -7.328  23.033  1.00  0.00    -0.039 A 
ATOM     15  C   UNL     1      -4.857  -4.592  23.575  1.00  0.00     0.039 A 
ATOM     16  C   UNL     1      -5.715  -6.770  24.260  1.00  0.00     0.013 A 
ATOM     17  C   UNL     1      -5.571  -8.802  22.796  1.00  0.00     0.045 C 
ATOM     18  C   UNL     1      -5.547  -5.394  24.530  1.00  0.00    -0.006 A 
ATOM     19  C   UNL     1      -4.450  -3.276  23.943  1.00  0.00     0.072 A 
ATOM     20  C   UNL     1      -6.030  -4.808  25.740  1.00  0.00     0.008 A 
ATOM     21  C   UNL     1      -4.809  -2.758  25.204  1.00  0.00     0.169 A 
ATOM     22  C   UNL     1      -5.587  -3.514  26.088  1.00  0.00     0.162 A 
BRANCH  13  23
ATOM     23  O   UNL     1      -4.203  -4.288  21.235  1.00  0.00    -0.507 OA
ATOM     24  H   UNL     1      -3.421  -3.649  21.307  1.00  0.00     0.293 HD
ENDBRANCH  13  23
BRANCH  19  25
ATOM     25  C   UNL     1      -3.550  -2.465  23.096  1.00  0.00     0.264 C 
ATOM     26  O   UNL     1      -3.982  -1.444  22.499  1.00  0.00    -0.298 OA
ENDBRANCH  19  25
BRANCH  20  27
ATOM     27  C   UNL     1      -7.012  -5.555  26.661  1.00  0.00     0.017 C 
ATOM     28  C   UNL     1      -6.793  -5.165  28.125  1.00  0.00     0.012 C 
ATOM     29  C   UNL     1      -8.489  -5.393  26.252  1.00  0.00     0.012 C 
ENDBRANCH  20  27
BRANCH  21  30
ATOM     30  O   UNL     1      -4.388  -1.489  25.619  1.00  0.00    -0.504 OA
ATOM     31  H   UNL     1      -5.017  -0.724  25.829  1.00  0.00     0.293 HD
ENDBRANCH  21  30
BRANCH  22  32
ATOM     32  O   UNL     1      -5.904  -2.984  27.341  1.00  0.00    -0.504 OA
ATOM     33  H   UNL     1      -5.438  -2.175  27.733  1.00  0.00     0.293 HD
ENDBRANCH  22  32
ENDBRANCH  11  12
BRANCH  10  34
ATOM     34  O   UNL     1      -6.926  -7.136  20.189  1.00  0.00    -0.507 OA
ATOM     35  H   UNL     1      -7.537  -7.847  20.570  1.00  0.00     0.293 HD
ENDBRANCH  10  34
BRANCH   9  36
ATOM     36  C   UNL     1      -2.216  -8.617  16.262  1.00  0.00     0.017 C 
ATOM     37  C   UNL     1      -1.498  -7.310  16.615  1.00  0.00     0.012 C 
ATOM     38  C   UNL     1      -1.388  -9.843  16.691  1.00  0.00     0.012 C 
ENDBRANCH   9  36
BRANCH   6  39
ATOM     39  C   UNL     1      -7.795  -8.106  17.905  1.00  0.00     0.264 C 
ATOM     40  O   UNL     1      -8.523  -9.072  18.257  1.00  0.00    -0.298 OA
ENDBRANCH   6  39
BRANCH   8  41
ATOM     41  O   UNL     1      -4.407  -9.825  14.836  1.00  0.00    -0.504 OA
ATOM     42  H   UNL     1      -4.747  -9.542  13.925  1.00  0.00     0.293 HD
ENDBRANCH   8  41
BRANCH   7  43
ATOM     43  O   UNL     1      -7.027  -9.393  15.494  1.00  0.00    -0.504 OA
ATOM     44  H   UNL     1      -7.330 -10.354  15.413  1.00  0.00     0.293 HD
ENDBRANCH   7  43
TORSDOF 11
ENDMDL
MODEL 3
REMARK VINA RESULT:    -6.862      3.050      8.034
REMARK INTER + INTRA:         -10.804
REMARK INTER:                  -9.912
REMARK INTRA:                  -0.892
REMARK UNBOUND:                -0.732
REMARK SMILES Cc1cc2c(C(C)C)c(O)c(O)c(C=O)c2c(O)c1-c1c(C)cc2c(C(C)C)c(O)c(O)c(C=O)c2c1O
REMARK SMILES IDX 1 1 2 2 3 3 4 4 16 5 13 6 11 7 9 8 5 9 17 10 19 11 20 12
REMARK SMILES IDX 37 13 21 14 36 15 23 16 22 17 24 18 33 19 25 20 31 21 29 22
REMARK SMILES IDX 38 23 34 25 35 26 26 27 27 28 28 29 32 30 30 32 18 34 6 36
REMARK SMILES IDX 7 37 8 38 14 39 15 40 10 41 12 43
REMARK H PARENT 38 24 32 31 30 33 18 35 10 42 12 44
REMARK Flexibility Score: inf
ROOT
ATOM      1  C   UNL     1      -4.068  -4.162  25.618  1.00  0.00     0.045 C 
ATOM      2  C   UNL     1      -4.622  -4.901  24.423  1.00  0.00    -0.039 A 
ATOM      3  C   UNL     1      -5.443  -6.011  24.623  1.00  0.00     0.013 A 
ATOM      4  C   UNL     1      -5.977  -6.751  23.545  1.00  0.00    -0.006 A 
ATOM      5  C   UNL     1      -5.752  -6.285  22.212  1.00  0.00     0.039 A 
ATOM      6  C   UNL     1      -6.407  -6.950  21.131  1.00  0.00     0.072 A 
ATOM      7  C   UNL     1      -7.305  -8.005  21.394  1.00  0.00     0.169 A 
ATOM      8  C   UNL     1      -7.506  -8.457  22.702  1.00  0.00     0.162 A 
ATOM      9  C   UNL     1      -6.763  -7.922  23.775  1.00  0.00     0.008 A 
ATOM     10  C   UNL     1      -4.912  -5.145  22.012  1.00  0.00     0.132 A 
ATOM     11  C   UNL     1      -4.345  -4.472  23.115  1.00  0.00     0.031 A 
ENDROOT
BRANCH  11  12
ATOM     12  C   UNL     1      -3.480  -3.280  22.901  1.00  0.00     0.031 A 
ATOM     13  C   UNL     1      -3.998  -1.984  23.106  1.00  0.00     0.132 A 
ATOM     14  C   UNL     1      -2.147  -3.447  22.487  1.00  0.00    -0.039 A 
ATOM     15  C   UNL     1      -3.187  -0.839  22.856  1.00  0.00     0.039 A 
ATOM     16  C   UNL     1      -1.316  -2.330  22.383  1.00  0.00     0.013 A 
ATOM     17  C   UNL     1      -1.576  -4.820  22.228  1.00  0.00     0.045 C 
ATOM     18  C   UNL     1      -1.791  -1.024  22.632  1.00  0.00    -0.006 A 
ATOM     19  C   UNL     1      -3.720   0.484  22.846  1.00  0.00     0.072 A 
ATOM     20  C   UNL     1      -0.911   0.101  22.639  1.00  0.00     0.008 A 
ATOM     21  C   UNL     1      -2.853   1.587  22.705  1.00  0.00     0.169 A 
ATOM     22  C   UNL     1      -1.470   1.396  22.603  1.00  0.00     0.162 A 
BRANCH  13  23
ATOM     23  O   UNL     1      -5.299  -1.830  23.599  1.00  0.00    -0.507 OA
ATOM     24  H   UNL     1      -5.520  -1.361  24.468  1.00  0.00     0.293 HD
ENDBRANCH  13  23
BRANCH  19  25
ATOM     25  C   UNL     1      -5.174   0.747  22.854  1.00  0.00     0.264 C 
ATOM     26  O   UNL     1      -5.738   1.186  23.891  1.00  0.00    -0.298 OA
ENDBRANCH  19  25
BRANCH  20  27
ATOM     27  C   UNL     1       0.617  -0.073  22.683  1.00  0.00     0.017 C 
ATOM     28  C   UNL     1       1.039  -0.914  23.891  1.00  0.00     0.012 C 
ATOM     29  C   UNL     1       1.214  -0.630  21.376  1.00  0.00     0.012 C 
ENDBRANCH  20  27
BRANCH  21  30
ATOM     30  O   UNL     1      -3.342   2.897  22.644  1.00  0.00    -0.504 OA
ATOM     31  H   UNL     1      -4.186   3.210  23.108  1.00  0.00     0.293 HD
ENDBRANCH  21  30
BRANCH  22  32
ATOM     32  O   UNL     1      -0.640   2.507  22.437  1.00  0.00    -0.504 OA
ATOM     33  H   UNL     1      -0.497   3.204  23.159  1.00  0.00     0.293 HD
ENDBRANCH  22  32
ENDBRANCH  11  12
BRANCH  10  34
ATOM     34  O   UNL     1      -4.649  -4.676  20.721  1.00  0.00    -0.507 OA
ATOM     35  H   UNL     1      -5.269  -4.809  19.931  1.00  0.00     0.293 HD
ENDBRANCH  10  34
BRANCH   9  36
ATOM     36  C   UNL     1      -6.830  -8.595  25.158  1.00  0.00     0.017 C 
ATOM     37  C   UNL     1      -8.115  -8.200  25.895  1.00  0.00     0.012 C 
ATOM     38  C   UNL     1      -6.657 -10.125  25.116  1.00  0.00     0.012 C 
ENDBRANCH   9  36
BRANCH   6  39
ATOM     39  C   UNL     1      -6.192  -6.557  19.724  1.00  0.00     0.264 C 
ATOM     40  O   UNL     1      -5.437  -7.236  18.979  1.00  0.00    -0.298 OA
ENDBRANCH   6  39
BRANCH   8  41
ATOM     41  O   UNL     1      -8.455  -9.454  22.941  1.00  0.00    -0.504 OA
ATOM     42  H   UNL     1      -9.451  -9.304  22.838  1.00  0.00     0.293 HD
ENDBRANCH   8  41
BRANCH   7  43
ATOM     43  O   UNL     1      -7.997  -8.654  20.365  1.00  0.00    -0.504 OA
ATOM     44  H   UNL     1      -8.143  -9.654  20.321  1.00  0.00     0.293 HD
ENDBRANCH   7  43
TORSDOF 11
ENDMDL
MODEL 4
REMARK VINA RESULT:    -6.757      3.203      6.354
REMARK INTER + INTRA:         -10.649
REMARK INTER:                  -9.727
REMARK INTRA:                  -0.922
REMARK UNBOUND:                -0.732
REMARK SMILES Cc1cc2c(C(C)C)c(O)c(O)c(C=O)c2c(O)c1-c1c(C)cc2c(C(C)C)c(O)c(O)c(C=O)c2c1O
REMARK SMILES IDX 1 1 2 2 3 3 4 4 16 5 13 6 11 7 9 8 5 9 17 10 19 11 20 12
REMARK SMILES IDX 37 13 21 14 36 15 23 16 22 17 24 18 33 19 25 20 31 21 29 22
REMARK SMILES IDX 38 23 34 25 35 26 26 27 27 28 28 29 32 30 30 32 18 34 6 36
REMARK SMILES IDX 7 37 8 38 14 39 15 40 10 41 12 43
REMARK H PARENT 38 24 32 31 30 33 18 35 10 42 12 44
REMARK Flexibility Score: inf
ROOT
ATOM      1  C   UNL     1      -1.583  -4.689  22.608  1.00  0.00     0.045 C 
ATOM      2  C   UNL     1      -2.163  -3.301  22.739  1.00  0.00    -0.039 A 
ATOM      3  C   UNL     1      -1.334  -2.193  22.568  1.00  0.00     0.013 A 
ATOM      4  C   UNL     1      -1.816  -0.871  22.696  1.00  0.00    -0.006 A 
ATOM      5  C   UNL     1      -3.215  -0.666  22.903  1.00  0.00     0.039 A 
ATOM      6  C   UNL     1      -3.724   0.669  22.892  1.00  0.00     0.072 A 
ATOM      7  C   UNL     1      -2.861   1.749  22.616  1.00  0.00     0.169 A 
ATOM      8  C   UNL     1      -1.492   1.534  22.426  1.00  0.00     0.162 A 
ATOM      9  C   UNL     1      -0.934   0.247  22.579  1.00  0.00     0.008 A 
ATOM     10  C   UNL     1      -4.062  -1.805  23.075  1.00  0.00     0.132 A 
ATOM     11  C   UNL     1      -3.528  -3.110  23.005  1.00  0.00     0.031 A 
ENDROOT
BRANCH  11  12
ATOM     12  C   UNL     1      -4.416  -4.292  23.174  1.00  0.00     0.031 A 
ATOM     13  C   UNL     1      -4.874  -5.001  22.044  1.00  0.00     0.132 A 
ATOM     14  C   UNL     1      -4.804  -4.698  24.463  1.00  0.00    -0.039 A 
ATOM     15  C   UNL     1      -5.762  -6.104  22.199  1.00  0.00     0.039 A 
ATOM     16  C   UNL     1      -5.556  -5.864  24.617  1.00  0.00     0.013 A 
ATOM     17  C   UNL     1      -4.357  -3.939  25.688  1.00  0.00     0.045 C 
ATOM     18  C   UNL     1      -5.986  -6.624  23.508  1.00  0.00    -0.006 A 
ATOM     19  C   UNL     1      -6.414  -6.720  21.090  1.00  0.00     0.072 A 
ATOM     20  C   UNL     1      -6.653  -7.876  23.675  1.00  0.00     0.008 A 
ATOM     21  C   UNL     1      -7.194  -7.877  21.290  1.00  0.00     0.169 A 
ATOM     22  C   UNL     1      -7.310  -8.445  22.564  1.00  0.00     0.162 A 
BRANCH  13  23
ATOM     23  O   UNL     1      -4.415  -4.642  20.771  1.00  0.00    -0.507 OA
ATOM     24  H   UNL     1      -3.833  -5.236  20.194  1.00  0.00     0.293 HD
ENDBRANCH  13  23
BRANCH  19  25
ATOM     25  C   UNL     1      -6.409  -6.116  19.741  1.00  0.00     0.264 C 
ATOM     26  O   UNL     1      -5.749  -6.646  18.807  1.00  0.00    -0.298 OA
ENDBRANCH  19  25
BRANCH  20  27
ATOM     27  C   UNL     1      -6.668  -8.606  25.030  1.00  0.00     0.017 C 
ATOM     28  C   UNL     1      -7.959  -8.308  25.797  1.00  0.00     0.012 C 
ATOM     29  C   UNL     1      -6.419 -10.122  24.919  1.00  0.00     0.012 C 
ENDBRANCH  20  27
BRANCH  21  30
ATOM     30  O   UNL     1      -7.887  -8.482  20.235  1.00  0.00    -0.504 OA
ATOM     31  H   UNL     1      -8.574  -8.008  19.662  1.00  0.00     0.293 HD
ENDBRANCH  21  30
BRANCH  22  32
ATOM     32  O   UNL     1      -8.112  -9.577  22.734  1.00  0.00    -0.504 OA
ATOM     33  H   UNL     1      -9.082  -9.530  23.021  1.00  0.00     0.293 HD
ENDBRANCH  22  32
ENDBRANCH  11  12
BRANCH  10  34
ATOM     34  O   UNL     1      -5.432  -1.643  23.306  1.00  0.00    -0.507 OA
ATOM     35  H   UNL     1      -5.878  -1.795  24.202  1.00  0.00     0.293 HD
ENDBRANCH  10  34
BRANCH   9  36
ATOM     36  C   UNL     1       0.596   0.079  22.599  1.00  0.00     0.017 C 
ATOM     37  C   UNL     1       1.066  -0.488  23.942  1.00  0.00     0.012 C 
ATOM     38  C   UNL     1       1.148  -0.745  21.420  1.00  0.00     0.012 C 
ENDBRANCH   9  36
BRANCH   6  39
ATOM     39  C   UNL     1      -5.149   0.966  23.141  1.00  0.00     0.264 C 
ATOM     40  O   UNL     1      -5.511   1.494  24.226  1.00  0.00    -0.298 OA
ENDBRANCH   6  39
BRANCH   8  41
ATOM     41  O   UNL     1      -0.674   2.612  22.083  1.00  0.00    -0.504 OA
ATOM     42  H   UNL     1      -0.977   3.577  22.139  1.00  0.00     0.293 HD
ENDBRANCH   8  41
BRANCH   7  43
ATOM     43  O   UNL     1      -3.330   3.066  22.555  1.00  0.00    -0.504 OA
ATOM     44  H   UNL     1      -2.807   3.871  22.874  1.00  0.00     0.293 HD
ENDBRANCH   7  43
TORSDOF 11
ENDMDL
MODEL 5
REMARK VINA RESULT:    -6.533      1.502      9.058
REMARK INTER + INTRA:         -10.321
REMARK INTER:                  -9.732
REMARK INTRA:                  -0.589
REMARK UNBOUND:                -0.732
REMARK SMILES Cc1cc2c(C(C)C)c(O)c(O)c(C=O)c2c(O)c1-c1c(C)cc2c(C(C)C)c(O)c(O)c(C=O)c2c1O
REMARK SMILES IDX 1 1 2 2 3 3 4 4 16 5 13 6 11 7 9 8 5 9 17 10 19 11 20 12
REMARK SMILES IDX 37 13 21 14 36 15 23 16 22 17 24 18 33 19 25 20 31 21 29 22
REMARK SMILES IDX 38 23 34 25 35 26 26 27 27 28 28 29 32 30 30 32 18 34 6 36
REMARK SMILES IDX 7 37 8 38 14 39 15 40 10 41 12 43
REMARK H PARENT 38 24 32 31 30 33 18 35 10 42 12 44
REMARK Flexibility Score: inf
ROOT
ATOM      1  C   UNL     1      -7.903  -6.540  20.438  1.00  0.00     0.045 C 
ATOM      2  C   UNL     1      -6.658  -7.216  19.914  1.00  0.00    -0.039 A 
ATOM      3  C   UNL     1      -6.698  -7.864  18.679  1.00  0.00     0.013 A 
ATOM      4  C   UNL     1      -5.572  -8.526  18.145  1.00  0.00    -0.006 A 
ATOM      5  C   UNL     1      -4.327  -8.442  18.844  1.00  0.00     0.039 A 
ATOM      6  C   UNL     1      -3.157  -8.991  18.236  1.00  0.00     0.072 A 
ATOM      7  C   UNL     1      -3.231  -9.547  16.943  1.00  0.00     0.169 A 
ATOM      8  C   UNL     1      -4.457  -9.634  16.276  1.00  0.00     0.162 A 
ATOM      9  C   UNL     1      -5.654  -9.237  16.907  1.00  0.00     0.008 A 
ATOM     10  C   UNL     1      -4.291  -7.774  20.108  1.00  0.00     0.132 A 
ATOM     11  C   UNL     1      -5.456  -7.180  20.638  1.00  0.00     0.031 A 
ENDROOT
BRANCH  11  12
ATOM     12  C   UNL     1      -5.409  -6.478  21.949  1.00  0.00     0.031 A 
ATOM     13  C   UNL     1      -4.873  -5.176  22.036  1.00  0.00     0.132 A 
ATOM     14  C   UNL     1      -5.893  -7.117  23.103  1.00  0.00    -0.039 A 
ATOM     15  C   UNL     1      -4.783  -4.519  23.297  1.00  0.00     0.039 A 
ATOM     16  C   UNL     1      -5.935  -6.415  24.310  1.00  0.00     0.013 A 
ATOM     17  C   UNL     1      -6.441  -8.522  23.047  1.00  0.00     0.045 C 
ATOM     18  C   UNL     1      -5.454  -5.092  24.417  1.00  0.00    -0.006 A 
ATOM     19  C   UNL     1      -4.066  -3.298  23.471  1.00  0.00     0.072 A 
ATOM     20  C   UNL     1      -5.606  -4.339  25.621  1.00  0.00     0.008 A 
ATOM     21  C   UNL     1      -4.104  -2.635  24.714  1.00  0.00     0.169 A 
ATOM     22  C   UNL     1      -4.862  -3.149  25.772  1.00  0.00     0.162 A 
BRANCH  13  23
ATOM     23  O   UNL     1      -4.472  -4.515  20.868  1.00  0.00    -0.507 OA
ATOM     24  H   UNL     1      -3.579  -4.050  20.764  1.00  0.00     0.293 HD
ENDBRANCH  13  23
BRANCH  19  25
ATOM     25  C   UNL     1      -3.173  -2.755  22.426  1.00  0.00     0.264 C 
ATOM     26  O   UNL     1      -2.051  -3.285  22.206  1.00  0.00    -0.298 OA
ENDBRANCH  19  25
BRANCH  20  27
ATOM     27  C   UNL     1      -6.553  -4.798  26.744  1.00  0.00     0.017 C 
ATOM     28  C   UNL     1      -5.887  -4.653  28.115  1.00  0.00     0.012 C 
ATOM     29  C   UNL     1      -7.930  -4.107  26.713  1.00  0.00     0.012 C 
ENDBRANCH  20  27
BRANCH  21  30
ATOM     30  O   UNL     1      -3.376  -1.460  24.937  1.00  0.00    -0.504 OA
ATOM     31  H   UNL     1      -3.166  -1.089  25.855  1.00  0.00     0.293 HD
ENDBRANCH  21  30
BRANCH  22  32
ATOM     32  O   UNL     1      -4.858  -2.483  27.000  1.00  0.00    -0.504 OA
ATOM     33  H   UNL     1      -4.105  -1.873  27.296  1.00  0.00     0.293 HD
ENDBRANCH  22  32
ENDBRANCH  11  12
BRANCH  10  34
ATOM     34  O   UNL     1      -3.097  -7.694  20.833  1.00  0.00    -0.507 OA
ATOM     35  H   UNL     1      -2.896  -8.244  21.659  1.00  0.00     0.293 HD
ENDBRANCH  10  34
BRANCH   9  36
ATOM     36  C   UNL     1      -7.007  -9.561  16.247  1.00  0.00     0.017 C 
ATOM     37  C   UNL     1      -8.011 -10.076  17.284  1.00  0.00     0.012 C 
ATOM     38  C   UNL     1      -7.595  -8.396  15.429  1.00  0.00     0.012 C 
ENDBRANCH   9  36
BRANCH   6  39
ATOM     39  C   UNL     1      -1.845  -8.981  18.913  1.00  0.00     0.264 C 
ATOM     40  O   UNL     1      -1.538  -9.893  19.727  1.00  0.00    -0.298 OA
ENDBRANCH   6  39
BRANCH   8  41
ATOM     41  O   UNL     1      -4.489 -10.122  14.967  1.00  0.00    -0.504 OA
ATOM     42  H   UNL     1      -4.202  -9.573  14.166  1.00  0.00     0.293 HD
ENDBRANCH   8  41
BRANCH   7  43
ATOM     43  O   UNL     1      -2.099 -10.057  16.297  1.00  0.00    -0.504 OA
ATOM     44  H   UNL     1      -1.332 -10.515  16.772  1.00  0.00     0.293 HD
ENDBRANCH   7  43
TORSDOF 11
ENDMDL
MODEL 6
REMARK VINA RESULT:    -6.480      1.539      2.953
REMARK INTER + INTRA:         -10.243
REMARK INTER:                  -9.491
REMARK INTRA:                  -0.752
REMARK UNBOUND:                -0.732
REMARK SMILES Cc1cc2c(C(C)C)c(O)c(O)c(C=O)c2c(O)c1-c1c(C)cc2c(C(C)C)c(O)c(O)c(C=O)c2c1O
REMARK SMILES IDX 1 1 2 2 3 3 4 4 16 5 13 6 11 7 9 8 5 9 17 10 19 11 20 12
REMARK SMILES IDX 37 13 21 14 36 15 23 16 22 17 24 18 33 19 25 20 31 21 29 22
REMARK SMILES IDX 38 23 34 25 35 26 26 27 27 28 28 29 32 30 30 32 18 34 6 36
REMARK SMILES IDX 7 37 8 38 14 39 15 40 10 41 12 43
REMARK H PARENT 38 24 32 31 30 33 18 35 10 42 12 44
REMARK Flexibility Score: inf
ROOT
ATOM      1  C   UNL     1      -3.425  -3.967  20.372  1.00  0.00     0.045 C 
ATOM      2  C   UNL     1      -4.086  -4.579  21.584  1.00  0.00    -0.039 A 
ATOM      3  C   UNL     1      -4.260  -3.807  22.733  1.00  0.00     0.013 A 
ATOM      4  C   UNL     1      -4.856  -4.329  23.902  1.00  0.00    -0.006 A 
ATOM      5  C   UNL     1      -5.390  -5.655  23.869  1.00  0.00     0.039 A 
ATOM      6  C   UNL     1      -6.117  -6.132  25.002  1.00  0.00     0.072 A 
ATOM      7  C   UNL     1      -6.350  -5.278  26.099  1.00  0.00     0.169 A 
ATOM      8  C   UNL     1      -5.812  -3.988  26.122  1.00  0.00     0.162 A 
ATOM      9  C   UNL     1      -4.966  -3.538  25.087  1.00  0.00     0.008 A 
ATOM     10  C   UNL     1      -5.212  -6.441  22.688  1.00  0.00     0.132 A 
ATOM     11  C   UNL     1      -4.552  -5.903  21.563  1.00  0.00     0.031 A 
ENDROOT
BRANCH  11  12
ATOM     12  C   UNL     1      -4.378  -6.723  20.334  1.00  0.00     0.031 A 
ATOM     13  C   UNL     1      -5.475  -6.957  19.478  1.00  0.00     0.132 A 
ATOM     14  C   UNL     1      -3.121  -7.271  20.029  1.00  0.00    -0.039 A 
ATOM     15  C   UNL     1      -5.326  -7.780  18.325  1.00  0.00     0.039 A 
ATOM     16  C   UNL     1      -2.945  -7.956  18.824  1.00  0.00     0.013 A 
ATOM     17  C   UNL     1      -1.937  -7.067  20.942  1.00  0.00     0.045 C 
ATOM     18  C   UNL     1      -4.012  -8.162  17.923  1.00  0.00    -0.006 A 
ATOM     19  C   UNL     1      -6.440  -8.215  17.549  1.00  0.00     0.072 A 
ATOM     20  C   UNL     1      -3.801  -8.758  16.643  1.00  0.00     0.008 A 
ATOM     21  C   UNL     1      -6.224  -8.934  16.356  1.00  0.00     0.169 A 
ATOM     22  C   UNL     1      -4.924  -9.201  15.911  1.00  0.00     0.162 A 
BRANCH  13  23
ATOM     23  O   UNL     1      -6.703  -6.337  19.745  1.00  0.00    -0.507 OA
ATOM     24  H   UNL     1      -6.832  -5.624  20.452  1.00  0.00     0.293 HD
ENDBRANCH  13  23
BRANCH  19  25
ATOM     25  C   UNL     1      -7.833  -8.048  18.011  1.00  0.00     0.264 C 
ATOM     26  O   UNL     1      -8.318  -8.828  18.874  1.00  0.00    -0.298 OA
ENDBRANCH  19  25
BRANCH  20  27
ATOM     27  C   UNL     1      -2.389  -8.927  16.055  1.00  0.00     0.017 C 
ATOM     28  C   UNL     1      -1.586  -7.630  16.178  1.00  0.00     0.012 C 
ATOM     29  C   UNL     1      -1.615 -10.124  16.640  1.00  0.00     0.012 C 
ENDBRANCH  20  27
BRANCH  21  30
ATOM     30  O   UNL     1      -7.293  -9.418  15.591  1.00  0.00    -0.504 OA
ATOM     31  H   UNL     1      -7.938 -10.131  15.906  1.00  0.00     0.293 HD
ENDBRANCH  21  30
BRANCH  22  32
ATOM     32  O   UNL     1      -4.744  -9.940  14.739  1.00  0.00    -0.504 OA
ATOM     33  H   UNL     1      -4.333 -10.866  14.726  1.00  0.00     0.293 HD
ENDBRANCH  22  32
ENDBRANCH  11  12
BRANCH  10  34
ATOM     34  O   UNL     1      -5.697  -7.752  22.629  1.00  0.00    -0.507 OA
ATOM     35  H   UNL     1      -5.743  -8.377  23.425  1.00  0.00     0.293 HD
ENDBRANCH  10  34
BRANCH   9  36
ATOM     36  C   UNL     1      -4.202  -2.211  25.251  1.00  0.00     0.017 C 
ATOM     37  C   UNL     1      -2.739  -2.368  24.824  1.00  0.00     0.012 C 
ATOM     38  C   UNL     1      -4.868  -1.018  24.540  1.00  0.00     0.012 C 
ENDBRANCH   9  36
BRANCH   6  39
ATOM     39  C   UNL     1      -6.661  -7.504  25.063  1.00  0.00     0.264 C 
ATOM     40  O   UNL     1      -7.891  -7.711  24.890  1.00  0.00    -0.298 OA
ENDBRANCH   6  39
BRANCH   8  41
ATOM     41  O   UNL     1      -6.121  -3.139  27.188  1.00  0.00    -0.504 OA
ATOM     42  H   UNL     1      -6.925  -3.275  27.788  1.00  0.00     0.293 HD
ENDBRANCH   8  41
BRANCH   7  43
ATOM     43  O   UNL     1      -7.093  -5.696  27.210  1.00  0.00    -0.504 OA
ATOM     44  H   UNL     1      -7.814  -6.405  27.177  1.00  0.00     0.293 HD
ENDBRANCH   7  43
TORSDOF 11
ENDMDL
MODEL 7
REMARK VINA RESULT:    -6.396      1.548      3.060
REMARK INTER + INTRA:         -10.120
REMARK INTER:                 -11.146
REMARK INTRA:                   1.026
REMARK UNBOUND:                -0.732
REMARK SMILES Cc1cc2c(C(C)C)c(O)c(O)c(C=O)c2c(O)c1-c1c(C)cc2c(C(C)C)c(O)c(O)c(C=O)c2c1O
REMARK SMILES IDX 1 1 2 2 3 3 4 4 16 5 13 6 11 7 9 8 5 9 17 10 19 11 20 12
REMARK SMILES IDX 37 13 21 14 36 15 23 16 22 17 24 18 33 19 25 20 31 21 29 22
REMARK SMILES IDX 38 23 34 25 35 26 26 27 27 28 28 29 32 30 30 32 18 34 6 36
REMARK SMILES IDX 7 37 8 38 14 39 15 40 10 41 12 43
REMARK H PARENT 38 24 32 31 30 33 18 35 10 42 12 44
REMARK Flexibility Score: inf
ROOT
ATOM      1  C   UNL     1      -6.385  -8.313  22.526  1.00  0.00     0.045 C 
ATOM      2  C   UNL     1      -5.887  -6.903  22.742  1.00  0.00    -0.039 A 
ATOM      3  C   UNL     1      -5.935  -6.348  24.020  1.00  0.00     0.013 A 
ATOM      4  C   UNL     1      -5.500  -5.030  24.280  1.00  0.00    -0.006 A 
ATOM      5  C   UNL     1      -4.898  -4.282  23.221  1.00  0.00     0.039 A 
ATOM      6  C   UNL     1      -4.331  -3.005  23.515  1.00  0.00     0.072 A 
ATOM      7  C   UNL     1      -4.316  -2.531  24.843  1.00  0.00     0.169 A 
ATOM      8  C   UNL     1      -4.919  -3.268  25.867  1.00  0.00     0.162 A 
ATOM      9  C   UNL     1      -5.617  -4.461  25.586  1.00  0.00     0.008 A 
ATOM     10  C   UNL     1      -4.849  -4.857  21.912  1.00  0.00     0.132 A 
ATOM     11  C   UNL     1      -5.355  -6.154  21.681  1.00  0.00     0.031 A 
ENDROOT
BRANCH  11  12
ATOM     12  C   UNL     1      -5.292  -6.750  20.319  1.00  0.00     0.031 A 
ATOM     13  C   UNL     1      -4.043  -7.025  19.724  1.00  0.00     0.132 A 
ATOM     14  C   UNL     1      -6.479  -7.034  19.623  1.00  0.00    -0.039 A 
ATOM     15  C   UNL     1      -3.977  -7.551  18.402  1.00  0.00     0.039 A 
ATOM     16  C   UNL     1      -6.412  -7.683  18.388  1.00  0.00     0.013 A 
ATOM     17  C   UNL     1      -7.829  -6.721  20.220  1.00  0.00     0.045 C 
ATOM     18  C   UNL     1      -5.177  -8.017  17.790  1.00  0.00    -0.006 A 
ATOM     19  C   UNL     1      -2.750  -7.650  17.681  1.00  0.00     0.072 A 
ATOM     20  C   UNL     1      -5.116  -8.783  16.586  1.00  0.00     0.008 A 
ATOM     21  C   UNL     1      -2.727  -8.282  16.421  1.00  0.00     0.169 A 
ATOM     22  C   UNL     1      -3.893  -8.839  15.883  1.00  0.00     0.162 A 
BRANCH  13  23
ATOM     23  O   UNL     1      -2.868  -6.818  20.458  1.00  0.00    -0.507 OA
ATOM     24  H   UNL     1      -2.409  -5.920  20.543  1.00  0.00     0.293 HD
ENDBRANCH  13  23
BRANCH  19  25
ATOM     25  C   UNL     1      -1.508  -7.001  18.149  1.00  0.00     0.264 C 
ATOM     26  O   UNL     1      -1.043  -5.999  17.542  1.00  0.00    -0.298 OA
ENDBRANCH  19  25
BRANCH  20  27
ATOM     27  C   UNL     1      -6.344  -9.537  16.047  1.00  0.00     0.017 C 
ATOM     28  C   UNL     1      -7.172 -10.125  17.193  1.00  0.00     0.012 C 
ATOM     29  C   UNL     1      -7.219  -8.696  15.097  1.00  0.00     0.012 C 
ENDBRANCH  20  27
BRANCH  21  30
ATOM     30  O   UNL     1      -1.553  -8.357  15.662  1.00  0.00    -0.504 OA
ATOM     31  H   UNL     1      -1.086  -9.223  15.424  1.00  0.00     0.293 HD
ENDBRANCH  21  30
BRANCH  22  32
ATOM     32  O   UNL     1      -3.844  -9.435  14.621  1.00  0.00    -0.504 OA
ATOM     33  H   UNL     1      -3.006  -9.860  14.241  1.00  0.00     0.293 HD
ENDBRANCH  22  32
ENDBRANCH  11  12
BRANCH  10  34
ATOM     34  O   UNL     1      -4.291  -4.144  20.845  1.00  0.00    -0.507 OA
ATOM     35  H   UNL     1      -4.820  -3.540  20.228  1.00  0.00     0.293 HD
ENDBRANCH  10  34
BRANCH   9  36
ATOM     36  C   UNL     1      -6.466  -5.123  26.686  1.00  0.00     0.017 C 
ATOM     37  C   UNL     1      -7.461  -4.123  27.285  1.00  0.00     0.012 C 
ATOM     38  C   UNL     1      -7.175  -6.414  26.234  1.00  0.00     0.012 C 
ENDBRANCH   9  36
BRANCH   6  39
ATOM     39  C   UNL     1      -3.731  -2.154  22.469  1.00  0.00     0.264 C 
ATOM     40  O   UNL     1      -2.486  -1.962  22.437  1.00  0.00    -0.298 OA
ENDBRANCH   6  39
BRANCH   8  41
ATOM     41  O   UNL     1      -4.825  -2.810  27.184  1.00  0.00    -0.504 OA
ATOM     42  H   UNL     1      -3.946  -2.563  27.622  1.00  0.00     0.293 HD
ENDBRANCH   8  41
BRANCH   7  43
ATOM     43  O   UNL     1      -3.733  -1.304  25.178  1.00  0.00    -0.504 OA
ATOM     44  H   UNL     1      -3.522  -1.014  26.124  1.00  0.00     0.293 HD
ENDBRANCH   7  43
TORSDOF 11
ENDMDL
MODEL 8
REMARK VINA RESULT:    -6.225      3.371      6.706
REMARK INTER + INTRA:          -9.869
REMARK INTER:                  -9.175
REMARK INTRA:                  -0.693
REMARK UNBOUND:                -0.732
REMARK SMILES Cc1cc2c(C(C)C)c(O)c(O)c(C=O)c2c(O)c1-c1c(C)cc2c(C(C)C)c(O)c(O)c(C=O)c2c1O
REMARK SMILES IDX 1 1 2 2 3 3 4 4 16 5 13 6 11 7 9 8 5 9 17 10 19 11 20 12
REMARK SMILES IDX 37 13 21 14 36 15 23 16 22 17 24 18 33 19 25 20 31 21 29 22
REMARK SMILES IDX 38 23 34 25 35 26 26 27 27 28 28 29 32 30 30 32 18 34 6 36
REMARK SMILES IDX 7 37 8 38 14 39 15 40 10 41 12 43
REMARK H PARENT 38 24 32 31 30 33 18 35 10 42 12 44
REMARK Flexibility Score: inf
ROOT
ATOM      1  C   UNL     1      -5.625  -8.404  24.683  1.00  0.00     0.045 C 
ATOM      2  C   UNL     1      -6.699  -7.474  25.197  1.00  0.00    -0.039 A 
ATOM      3  C   UNL     1      -7.869  -8.010  25.734  1.00  0.00     0.013 A 
ATOM      4  C   UNL     1      -8.915  -7.192  26.215  1.00  0.00    -0.006 A 
ATOM      5  C   UNL     1      -8.722  -5.775  26.245  1.00  0.00     0.039 A 
ATOM      6  C   UNL     1      -9.720  -4.958  26.859  1.00  0.00     0.072 A 
ATOM      7  C   UNL     1     -10.837  -5.556  27.477  1.00  0.00     0.169 A 
ATOM      8  C   UNL     1     -11.018  -6.941  27.429  1.00  0.00     0.162 A 
ATOM      9  C   UNL     1     -10.131  -7.763  26.703  1.00  0.00     0.008 A 
ATOM     10  C   UNL     1      -7.520  -5.231  25.695  1.00  0.00     0.132 A 
ATOM     11  C   UNL     1      -6.526  -6.082  25.165  1.00  0.00     0.031 A 
ENDROOT
BRANCH  11  12
ATOM     12  C   UNL     1      -5.273  -5.510  24.604  1.00  0.00     0.031 A 
ATOM     13  C   UNL     1      -5.057  -5.509  23.210  1.00  0.00     0.132 A 
ATOM     14  C   UNL     1      -4.300  -4.974  25.465  1.00  0.00    -0.039 A 
ATOM     15  C   UNL     1      -3.838  -5.005  22.671  1.00  0.00     0.039 A 
ATOM     16  C   UNL     1      -3.172  -4.352  24.924  1.00  0.00     0.013 A 
ATOM     17  C   UNL     1      -4.488  -4.991  26.962  1.00  0.00     0.045 C 
ATOM     18  C   UNL     1      -2.954  -4.290  23.531  1.00  0.00    -0.006 A 
ATOM     19  C   UNL     1      -3.484  -5.171  21.300  1.00  0.00     0.072 A 
ATOM     20  C   UNL     1      -1.863  -3.552  22.980  1.00  0.00     0.008 A 
ATOM     21  C   UNL     1      -2.320  -4.556  20.797  1.00  0.00     0.169 A 
ATOM     22  C   UNL     1      -1.522  -3.759  21.626  1.00  0.00     0.162 A 
BRANCH  13  23
ATOM     23  O   UNL     1      -6.068  -5.967  22.355  1.00  0.00    -0.507 OA
ATOM     24  H   UNL     1      -6.640  -5.358  21.784  1.00  0.00     0.293 HD
ENDBRANCH  13  23
BRANCH  19  25
ATOM     25  C   UNL     1      -4.230  -6.075  20.399  1.00  0.00     0.264 C 
ATOM     26  O   UNL     1      -5.045  -5.609  19.557  1.00  0.00    -0.298 OA
ENDBRANCH  19  25
BRANCH  20  27
ATOM     27  C   UNL     1      -1.059  -2.549  23.827  1.00  0.00     0.017 C 
ATOM     28  C   UNL     1       0.368  -3.051  24.062  1.00  0.00     0.012 C 
ATOM     29  C   UNL     1      -1.063  -1.117  23.258  1.00  0.00     0.012 C 
ENDBRANCH  20  27
BRANCH  21  30
ATOM     30  O   UNL     1      -1.915  -4.734  19.468  1.00  0.00    -0.504 OA
ATOM     31  H   UNL     1      -1.046  -4.380  19.089  1.00  0.00     0.293 HD
ENDBRANCH  21  30
BRANCH  22  32
ATOM     32  O   UNL     1      -0.360  -3.184  21.105  1.00  0.00    -0.504 OA
ATOM     33  H   UNL     1      -0.207  -3.048  20.113  1.00  0.00     0.293 HD
ENDBRANCH  22  32
ENDBRANCH  11  12
BRANCH  10  34
ATOM     34  O   UNL     1      -7.308  -3.848  25.684  1.00  0.00    -0.507 OA
ATOM     35  H   UNL     1      -7.998  -3.171  25.382  1.00  0.00     0.293 HD
ENDBRANCH  10  34
BRANCH   9  36
ATOM     36  C   UNL     1     -10.482  -9.244  26.470  1.00  0.00     0.017 C 
ATOM     37  C   UNL     1     -10.902  -9.917  27.781  1.00  0.00     0.012 C 
ATOM     38  C   UNL     1     -11.530  -9.469  25.365  1.00  0.00     0.012 C 
ENDBRANCH   9  36
BRANCH   6  39
ATOM     39  C   UNL     1      -9.615  -3.485  26.892  1.00  0.00     0.264 C 
ATOM     40  O   UNL     1      -9.347  -2.887  27.968  1.00  0.00    -0.298 OA
ENDBRANCH   6  39
BRANCH   8  41
ATOM     41  O   UNL     1     -12.095  -7.512  28.111  1.00  0.00    -0.504 OA
ATOM     42  H   UNL     1     -13.055  -7.218  27.975  1.00  0.00     0.293 HD
ENDBRANCH   8  41
BRANCH   7  43
ATOM     43  O   UNL     1     -11.814  -4.791  28.125  1.00  0.00    -0.504 OA
ATOM     44  H   UNL     1     -12.097  -3.865  27.832  1.00  0.00     0.293 HD
ENDBRANCH   7  43
TORSDOF 11
ENDMDL
