MODEL 1
REMARK VINA RESULT:    -4.640      0.000      0.000
REMARK INTER + INTRA:          -6.591
REMARK INTER:                  -6.538
REMARK INTRA:                  -0.052
REMARK UNBOUND:                -0.052
REMARK SMILES CC1=CCC(=C(C)C)C(=O)CC(C)=CCC1
REMARK SMILES IDX 12 1 14 2 13 3 15 4 16 5 2 6 1 7 3 8 11 10 9 11 10 12 5 13
REMARK SMILES IDX 6 14 7 15 8 16 4 17
REMARK H PARENT
REMARK Flexibility Score: 60.00
ROOT
ATOM      1  C   UNL     1     124.283 177.705 121.876  1.00  0.00    -0.070 C 
ATOM      2  C   UNL     1     124.126 177.197 123.133  1.00  0.00    -0.027 C 
ATOM      3  C   UNL     1     123.025 178.145 121.163  1.00  0.00     0.039 C 
ENDROOT
BRANCH   2   4
ATOM      4  C   UNL     1     125.143 176.712 124.159  1.00  0.00     0.032 C 
BRANCH   4   5
ATOM      5  C   UNL     1     125.931 175.440 123.825  1.00  0.00     0.034 C 
BRANCH   5   6
ATOM      6  C   UNL     1     127.422 175.575 123.485  1.00  0.00    -0.077 C 
ATOM      7  C   UNL     1     128.325 175.915 124.652  1.00  0.00     0.039 C 
ATOM      8  C   UNL     1     128.058 175.351 122.296  1.00  0.00    -0.023 CG0
ATOM      9  G   UNL     1     127.515 174.939 120.942  1.00  0.00     0.000 G0
ENDBRANCH   5   6
ENDBRANCH   4   5
ENDBRANCH   2   4
BRANCH   1  10
ATOM     10  C   UNL     1     125.589 177.868 121.115  1.00  0.00     0.111 C 
BRANCH  10  11
ATOM     11  C   UNL     1     125.843 176.715 120.192  1.00  0.00     0.163 C 
ATOM     12  O   UNL     1     124.890 176.261 119.504  1.00  0.00    -0.294 OA
BRANCH  11  13
ATOM     13  C   UNL     1     127.206 176.139 120.053  1.00  0.00    -0.002 C 
ATOM     14  C   UNL     1     128.120 176.669 119.191  1.00  0.00    -0.069 C 
ATOM     15  C   UNL     1     129.540 176.154 119.123  1.00  0.00     0.039 C 
ATOM     16  C   UNL     1     127.745 177.792 118.248  1.00  0.00     0.039 C 
BRANCH  13  17
ATOM     17  C   UNL     1     127.518 174.948 120.934  1.00  0.00     0.066 CG0
ATOM     18  G   UNL     1     128.050 175.367 122.291  1.00  0.00     0.000 G0
ENDBRANCH  13  17
ENDBRANCH  11  13
ENDBRANCH  10  11
ENDBRANCH   1  10
TORSDOF 0
ENDMDL
MODEL 2
REMARK VINA RESULT:    -4.626      2.070      4.007
REMARK INTER + INTRA:          -6.571
REMARK INTER:                  -6.613
REMARK INTRA:                   0.042
REMARK UNBOUND:                -0.052
REMARK SMILES CC1=CCC(=C(C)C)C(=O)CC(C)=CCC1
REMARK SMILES IDX 12 1 14 2 13 3 15 4 16 5 2 6 1 7 3 8 11 10 9 11 10 12 5 13
REMARK SMILES IDX 6 14 7 15 8 16 4 17
REMARK H PARENT
REMARK Flexibility Score: 60.00
ROOT
ATOM      1  C   UNL     1     125.379 176.739 122.342  1.00  0.00    -0.070 C 
ATOM      2  C   UNL     1     124.523 177.664 121.819  1.00  0.00    -0.027 C 
ATOM      3  C   UNL     1     125.449 176.660 123.850  1.00  0.00     0.039 C 
ENDROOT
BRANCH   2   4
ATOM      4  C   UNL     1     124.148 177.990 120.378  1.00  0.00     0.032 C 
BRANCH   4   5
ATOM      5  C   UNL     1     125.229 178.630 119.497  1.00  0.00     0.034 C 
BRANCH   5   6
ATOM      6  C   UNL     1     125.889 177.765 118.414  1.00  0.00    -0.077 C 
ATOM      7  C   UNL     1     125.034 177.482 117.197  1.00  0.00     0.039 C 
ATOM      8  C   UNL     1     127.168 177.285 118.356  1.00  0.00    -0.023 CG0
ATOM      9  G   UNL     1     128.321 177.412 119.333  1.00  0.00     0.000 G0
ENDBRANCH   5   6
ENDBRANCH   4   5
ENDBRANCH   2   4
BRANCH   1  10
ATOM     10  C   UNL     1     126.276 175.787 121.569  1.00  0.00     0.111 C 
BRANCH  10  11
ATOM     11  C   UNL     1     127.690 176.277 121.508  1.00  0.00     0.163 C 
ATOM     12  O   UNL     1     128.234 176.704 122.562  1.00  0.00    -0.294 OA
BRANCH  11  13
ATOM     13  C   UNL     1     128.460 176.224 120.239  1.00  0.00    -0.002 C 
ATOM     14  C   UNL     1     129.226 175.143 119.914  1.00  0.00    -0.069 C 
ATOM     15  C   UNL     1     129.925 175.038 118.578  1.00  0.00     0.039 C 
ATOM     16  C   UNL     1     129.422 174.003 120.890  1.00  0.00     0.039 C 
BRANCH  13  17
ATOM     17  C   UNL     1     128.328 177.427 119.330  1.00  0.00     0.066 CG0
ATOM     18  G   UNL     1     127.162 177.289 118.370  1.00  0.00     0.000 G0
ENDBRANCH  13  17
ENDBRANCH  11  13
ENDBRANCH  10  11
ENDBRANCH   1  10
TORSDOF 0
ENDMDL
MODEL 3
REMARK VINA RESULT:    -4.485      5.702      7.633
REMARK INTER + INTRA:          -6.373
REMARK INTER:                  -6.373
REMARK INTRA:                   0.000
REMARK UNBOUND:                -0.052
REMARK SMILES CC1=CCC(=C(C)C)C(=O)CC(C)=CCC1
REMARK SMILES IDX 12 1 14 2 13 3 15 4 16 5 2 6 1 7 3 8 11 10 9 11 10 12 5 13
REMARK SMILES IDX 6 14 7 15 8 16 4 17
REMARK H PARENT
REMARK Flexibility Score: 60.00
ROOT
ATOM      1  C   UNL     1     118.327 177.814 125.296  1.00  0.00    -0.070 C 
ATOM      2  C   UNL     1     117.853 177.375 126.498  1.00  0.00    -0.027 C 
ATOM      3  C   UNL     1     117.456 178.793 124.542  1.00  0.00     0.039 C 
ENDROOT
BRANCH   2   4
ATOM      4  C   UNL     1     118.461 176.449 127.546  1.00  0.00     0.032 C 
BRANCH   4   5
ATOM      5  C   UNL     1     119.601 177.010 128.404  1.00  0.00     0.034 C 
BRANCH   5   6
ATOM      6  C   UNL     1     121.006 176.417 128.226  1.00  0.00    -0.077 C 
ATOM      7  C   UNL     1     121.202 175.029 128.798  1.00  0.00     0.039 C 
ATOM      8  C   UNL     1     122.078 176.930 127.550  1.00  0.00    -0.023 CG0
ATOM      9  G   UNL     1     122.247 178.238 126.802  1.00  0.00     0.000 G0
ENDBRANCH   5   6
ENDBRANCH   4   5
ENDBRANCH   2   4
BRANCH   1  10
ATOM     10  C   UNL     1     119.634 177.415 124.631  1.00  0.00     0.111 C 
BRANCH  10  11
ATOM     11  C   UNL     1     120.693 178.459 124.812  1.00  0.00     0.163 C 
ATOM     12  O   UNL     1     120.411 179.664 124.573  1.00  0.00    -0.294 OA
BRANCH  11  13
ATOM     13  C   UNL     1     122.045 178.093 125.309  1.00  0.00    -0.002 C 
ATOM     14  C   UNL     1     123.027 177.674 124.460  1.00  0.00    -0.069 C 
ATOM     15  C   UNL     1     124.434 177.403 124.945  1.00  0.00     0.039 C 
ATOM     16  C   UNL     1     122.745 177.445 122.991  1.00  0.00     0.039 C 
BRANCH  13  17
ATOM     17  C   UNL     1     122.266 178.231 126.800  1.00  0.00     0.066 CG0
ATOM     18  G   UNL     1     122.075 176.915 127.528  1.00  0.00     0.000 G0
ENDBRANCH  13  17
ENDBRANCH  11  13
ENDBRANCH  10  11
ENDBRANCH   1  10
TORSDOF 0
ENDMDL
MODEL 4
REMARK VINA RESULT:    -4.452      1.573      3.746
REMARK INTER + INTRA:          -6.325
REMARK INTER:                  -6.552
REMARK INTRA:                   0.227
REMARK UNBOUND:                -0.052
REMARK SMILES CC1=CCC(=C(C)C)C(=O)CC(C)=CCC1
REMARK SMILES IDX 12 1 14 2 13 3 15 4 16 5 2 6 1 7 3 8 11 10 9 11 10 12 5 13
REMARK SMILES IDX 6 14 7 15 8 16 4 17
REMARK H PARENT
REMARK Flexibility Score: 60.00
ROOT
ATOM      1  C   UNL     1     123.479 177.318 122.883  1.00  0.00    -0.070 C 
ATOM      2  C   UNL     1     123.355 177.786 121.607  1.00  0.00    -0.027 C 
ATOM      3  C   UNL     1     122.523 177.884 123.908  1.00  0.00     0.039 C 
ENDROOT
BRANCH   2   4
ATOM      4  C   UNL     1     124.086 177.418 120.322  1.00  0.00     0.032 C 
BRANCH   4   5
ATOM      5  C   UNL     1     125.322 178.248 119.953  1.00  0.00     0.034 C 
BRANCH   5   6
ATOM      6  C   UNL     1     126.602 177.504 119.545  1.00  0.00    -0.077 C 
ATOM      7  C   UNL     1     127.485 178.229 118.552  1.00  0.00     0.039 C 
ATOM      8  C   UNL     1     127.097 176.320 120.016  1.00  0.00    -0.023 CG0
ATOM      9  G   UNL     1     126.544 175.352 121.044  1.00  0.00     0.000 G0
ENDBRANCH   5   6
ENDBRANCH   4   5
ENDBRANCH   2   4
BRANCH   1  10
ATOM     10  C   UNL     1     124.483 176.293 123.384  1.00  0.00     0.111 C 
BRANCH  10  11
ATOM     11  C   UNL     1     125.894 176.706 123.093  1.00  0.00     0.163 C 
ATOM     12  O   UNL     1     126.271 177.864 123.419  1.00  0.00    -0.294 OA
BRANCH  11  13
ATOM     13  C   UNL     1     126.852 175.755 122.471  1.00  0.00    -0.002 C 
ATOM     14  C   UNL     1     127.935 175.285 123.154  1.00  0.00    -0.069 C 
ATOM     15  C   UNL     1     128.852 174.237 122.564  1.00  0.00     0.039 C 
ATOM     16  C   UNL     1     128.276 175.806 124.533  1.00  0.00     0.039 C 
BRANCH  13  17
ATOM     17  C   UNL     1     126.542 175.333 121.050  1.00  0.00     0.066 CG0
ATOM     18  G   UNL     1     127.079 176.321 120.033  1.00  0.00     0.000 G0
ENDBRANCH  13  17
ENDBRANCH  11  13
ENDBRANCH  10  11
ENDBRANCH   1  10
TORSDOF 0
ENDMDL
MODEL 5
REMARK VINA RESULT:    -4.409      6.205      9.097
REMARK INTER + INTRA:          -6.266
REMARK INTER:                  -6.698
REMARK INTRA:                   0.432
REMARK UNBOUND:                -0.052
REMARK SMILES CC1=CCC(=C(C)C)C(=O)CC(C)=CCC1
REMARK SMILES IDX 12 1 14 2 13 3 15 4 16 5 2 6 1 7 3 8 11 10 9 11 10 12 5 13
REMARK SMILES IDX 6 14 7 15 8 16 4 17
REMARK H PARENT
REMARK Flexibility Score: 60.00
ROOT
ATOM      1  C   UNL     1     122.317 177.734 124.603  1.00  0.00    -0.070 C 
ATOM      2  C   UNL     1     121.237 178.164 123.888  1.00  0.00    -0.027 C 
ATOM      3  C   UNL     1     123.372 176.967 123.839  1.00  0.00     0.039 C 
ENDROOT
BRANCH   2   4
ATOM      4  C   UNL     1     120.026 178.997 124.292  1.00  0.00     0.032 C 
BRANCH   4   5
ATOM      5  C   UNL     1     118.643 178.355 124.128  1.00  0.00     0.034 C 
BRANCH   5   6
ATOM      6  C   UNL     1     117.985 177.719 125.361  1.00  0.00    -0.077 C 
ATOM      7  C   UNL     1     116.596 178.224 125.688  1.00  0.00     0.039 C 
ATOM      8  C   UNL     1     118.443 176.704 126.154  1.00  0.00    -0.023 CG0
ATOM      9  G   UNL     1     119.734 175.911 126.106  1.00  0.00     0.000 G0
ENDBRANCH   5   6
ENDBRANCH   4   5
ENDBRANCH   2   4
BRANCH   1  10
ATOM     10  C   UNL     1     122.567 177.939 126.088  1.00  0.00     0.111 C 
BRANCH  10  11
ATOM     11  C   UNL     1     121.321 177.740 126.896  1.00  0.00     0.163 C 
ATOM     12  O   UNL     1     120.725 178.751 127.357  1.00  0.00    -0.294 OA
BRANCH  11  13
ATOM     13  C   UNL     1     120.767 176.380 127.117  1.00  0.00    -0.002 C 
ATOM     14  C   UNL     1     121.151 175.618 128.181  1.00  0.00    -0.069 C 
ATOM     15  C   UNL     1     120.513 174.278 128.470  1.00  0.00     0.039 C 
ATOM     16  C   UNL     1     122.250 176.076 129.114  1.00  0.00     0.039 C 
BRANCH  13  17
ATOM     17  C   UNL     1     119.746 175.905 126.106  1.00  0.00     0.066 CG0
ATOM     18  G   UNL     1     118.456 176.698 126.185  1.00  0.00     0.000 G0
ENDBRANCH  13  17
ENDBRANCH  11  13
ENDBRANCH  10  11
ENDBRANCH   1  10
TORSDOF 0
ENDMDL
MODEL 6
REMARK VINA RESULT:    -4.333      6.140      8.803
REMARK INTER + INTRA:          -6.158
REMARK INTER:                  -6.354
REMARK INTRA:                   0.196
REMARK UNBOUND:                -0.052
REMARK SMILES CC1=CCC(=C(C)C)C(=O)CC(C)=CCC1
REMARK SMILES IDX 12 1 14 2 13 3 15 4 16 5 2 6 1 7 3 8 11 10 9 11 10 12 5 13
REMARK SMILES IDX 6 14 7 15 8 16 4 17
REMARK H PARENT
REMARK Flexibility Score: 60.00
ROOT
ATOM      1  C   UNL     1     117.660 178.118 125.890  1.00  0.00    -0.070 C 
ATOM      2  C   UNL     1     118.393 179.015 125.169  1.00  0.00    -0.027 C 
ATOM      3  C   UNL     1     116.222 177.925 125.468  1.00  0.00     0.039 C 
ENDROOT
BRANCH   2   4
ATOM      4  C   UNL     1     119.859 179.426 125.260  1.00  0.00     0.032 C 
BRANCH   4   5
ATOM      5  C   UNL     1     120.787 178.979 124.125  1.00  0.00     0.034 C 
BRANCH   5   6
ATOM      6  C   UNL     1     121.755 177.818 124.392  1.00  0.00    -0.077 C 
ATOM      7  C   UNL     1     122.591 177.384 123.206  1.00  0.00     0.039 C 
ATOM      8  C   UNL     1     122.028 177.177 125.569  1.00  0.00    -0.023 CG0
ATOM      9  G   UNL     1     121.456 177.370 126.959  1.00  0.00     0.000 G0
ENDBRANCH   5   6
ENDBRANCH   4   5
ENDBRANCH   2   4
BRANCH   1  10
ATOM     10  C   UNL     1     118.135 177.299 127.079  1.00  0.00     0.111 C 
BRANCH  10  11
ATOM     11  C   UNL     1     119.157 176.278 126.681  1.00  0.00     0.163 C 
ATOM     12  O   UNL     1     118.882 175.468 125.755  1.00  0.00    -0.294 OA
BRANCH  11  13
ATOM     13  C   UNL     1     120.492 176.244 127.332  1.00  0.00    -0.002 C 
ATOM     14  C   UNL     1     120.831 175.258 128.212  1.00  0.00    -0.069 C 
ATOM     15  C   UNL     1     122.223 175.159 128.795  1.00  0.00     0.039 C 
ATOM     16  C   UNL     1     119.819 174.226 128.657  1.00  0.00     0.039 C 
BRANCH  13  17
ATOM     17  C   UNL     1     121.449 177.352 126.947  1.00  0.00     0.066 CG0
ATOM     18  G   UNL     1     122.016 177.156 125.554  1.00  0.00     0.000 G0
ENDBRANCH  13  17
ENDBRANCH  11  13
ENDBRANCH  10  11
ENDBRANCH   1  10
TORSDOF 0
ENDMDL
MODEL 7
REMARK VINA RESULT:    -4.313      4.598      6.459
REMARK INTER + INTRA:          -6.131
REMARK INTER:                  -6.304
REMARK INTRA:                   0.173
REMARK UNBOUND:                -0.052
REMARK SMILES CC1=CCC(=C(C)C)C(=O)CC(C)=CCC1
REMARK SMILES IDX 12 1 14 2 13 3 15 4 16 5 2 6 1 7 3 8 11 10 9 11 10 12 5 13
REMARK SMILES IDX 6 14 7 15 8 16 4 17
REMARK H PARENT
REMARK Flexibility Score: 60.00
ROOT
ATOM      1  C   UNL     1     119.765 178.806 124.263  1.00  0.00    -0.070 C 
ATOM      2  C   UNL     1     119.568 179.193 125.556  1.00  0.00    -0.027 C 
ATOM      3  C   UNL     1     118.526 178.500 123.452  1.00  0.00     0.039 C 
ENDROOT
BRANCH   2   4
ATOM      4  C   UNL     1     120.549 179.628 126.639  1.00  0.00     0.032 C 
BRANCH   4   5
ATOM      5  C   UNL     1     120.758 178.677 127.823  1.00  0.00     0.034 C 
BRANCH   5   6
ATOM      6  C   UNL     1     121.234 177.247 127.532  1.00  0.00    -0.077 C 
ATOM      7  C   UNL     1     120.360 176.145 128.092  1.00  0.00     0.039 C 
ATOM      8  C   UNL     1     122.289 176.829 126.768  1.00  0.00    -0.023 CG0
ATOM      9  G   UNL     1     123.334 177.617 126.003  1.00  0.00     0.000 G0
ENDBRANCH   5   6
ENDBRANCH   4   5
ENDBRANCH   2   4
BRANCH   1  10
ATOM     10  C   UNL     1     121.099 178.640 123.553  1.00  0.00     0.111 C 
BRANCH  10  11
ATOM     11  C   UNL     1     121.798 177.381 123.965  1.00  0.00     0.163 C 
ATOM     12  O   UNL     1     121.203 176.278 123.825  1.00  0.00    -0.294 OA
BRANCH  11  13
ATOM     13  C   UNL     1     123.187 177.419 124.491  1.00  0.00    -0.002 C 
ATOM     14  C   UNL     1     124.266 177.304 123.664  1.00  0.00    -0.069 C 
ATOM     15  C   UNL     1     125.680 177.449 124.180  1.00  0.00     0.039 C 
ATOM     16  C   UNL     1     124.093 177.008 122.191  1.00  0.00     0.039 C 
BRANCH  13  17
ATOM     17  C   UNL     1     123.327 177.609 125.986  1.00  0.00     0.066 CG0
ATOM     18  G   UNL     1     122.283 176.829 126.760  1.00  0.00     0.000 G0
ENDBRANCH  13  17
ENDBRANCH  11  13
ENDBRANCH  10  11
ENDBRANCH   1  10
TORSDOF 0
ENDMDL
MODEL 8
REMARK VINA RESULT:    -4.199      1.805      3.356
REMARK INTER + INTRA:          -5.970
REMARK INTER:                  -6.294
REMARK INTRA:                   0.324
REMARK UNBOUND:                -0.052
REMARK SMILES CC1=CCC(=C(C)C)C(=O)CC(C)=CCC1
REMARK SMILES IDX 12 1 14 2 13 3 15 4 16 5 2 6 1 7 3 8 11 10 9 11 10 12 5 13
REMARK SMILES IDX 6 14 7 15 8 16 4 17
REMARK H PARENT
REMARK Flexibility Score: 60.00
ROOT
ATOM      1  C   UNL     1     124.876 177.548 119.633  1.00  0.00    -0.070 C 
ATOM      2  C   UNL     1     123.682 177.704 120.273  1.00  0.00    -0.027 C 
ATOM      3  C   UNL     1     124.816 177.242 118.154  1.00  0.00     0.039 C 
ENDROOT
BRANCH   2   4
ATOM      4  C   UNL     1     123.350 178.067 121.716  1.00  0.00     0.032 C 
BRANCH   4   5
ATOM      5  C   UNL     1     123.284 176.921 122.733  1.00  0.00     0.034 C 
BRANCH   5   6
ATOM      6  C   UNL     1     124.104 177.048 124.025  1.00  0.00    -0.077 C 
ATOM      7  C   UNL     1     123.411 177.761 125.166  1.00  0.00     0.039 C 
ATOM      8  C   UNL     1     125.337 176.534 124.316  1.00  0.00    -0.023 CG0
ATOM      9  G   UNL     1     126.298 175.720 123.472  1.00  0.00     0.000 G0
ENDBRANCH   5   6
ENDBRANCH   4   5
ENDBRANCH   2   4
BRANCH   1  10
ATOM     10  C   UNL     1     126.262 177.642 120.251  1.00  0.00     0.111 C 
BRANCH  10  11
ATOM     11  C   UNL     1     126.596 176.424 121.057  1.00  0.00     0.163 C 
ATOM     12  O   UNL     1     126.521 175.291 120.511  1.00  0.00    -0.294 OA
BRANCH  11  13
ATOM     13  C   UNL     1     127.052 176.546 122.467  1.00  0.00    -0.002 C 
ATOM     14  C   UNL     1     128.075 177.378 122.815  1.00  0.00    -0.069 C 
ATOM     15  C   UNL     1     128.472 177.586 124.260  1.00  0.00     0.039 C 
ATOM     16  C   UNL     1     128.871 178.120 121.765  1.00  0.00     0.039 C 
BRANCH  13  17
ATOM     17  C   UNL     1     126.304 175.709 123.482  1.00  0.00     0.066 CG0
ATOM     18  G   UNL     1     125.344 176.542 124.309  1.00  0.00     0.000 G0
ENDBRANCH  13  17
ENDBRANCH  11  13
ENDBRANCH  10  11
ENDBRANCH   1  10
TORSDOF 0
ENDMDL
MODEL 9
REMARK VINA RESULT:    -4.182      6.136      8.743
REMARK INTER + INTRA:          -5.945
REMARK INTER:                  -6.170
REMARK INTRA:                   0.225
REMARK UNBOUND:                -0.052
REMARK SMILES CC1=CCC(=C(C)C)C(=O)CC(C)=CCC1
REMARK SMILES IDX 12 1 14 2 13 3 15 4 16 5 2 6 1 7 3 8 11 10 9 11 10 12 5 13
REMARK SMILES IDX 6 14 7 15 8 16 4 17
REMARK H PARENT
REMARK Flexibility Score: 60.00
ROOT
ATOM      1  C   UNL     1     122.266 176.988 124.305  1.00  0.00    -0.070 C 
ATOM      2  C   UNL     1     122.413 177.931 125.280  1.00  0.00    -0.027 C 
ATOM      3  C   UNL     1     123.144 177.135 123.083  1.00  0.00     0.039 C 
ENDROOT
BRANCH   2   4
ATOM      4  C   UNL     1     121.757 178.078 126.648  1.00  0.00     0.032 C 
BRANCH   4   5
ATOM      5  C   UNL     1     120.380 178.751 126.700  1.00  0.00     0.034 C 
BRANCH   5   6
ATOM      6  C   UNL     1     119.161 177.952 126.218  1.00  0.00    -0.077 C 
ATOM      7  C   UNL     1     118.210 178.702 125.311  1.00  0.00     0.039 C 
ATOM      8  C   UNL     1     118.859 176.634 126.425  1.00  0.00    -0.023 CG0
ATOM      9  G   UNL     1     119.587 175.560 127.209  1.00  0.00     0.000 G0
ENDBRANCH   5   6
ENDBRANCH   4   5
ENDBRANCH   2   4
BRANCH   1  10
ATOM     10  C   UNL     1     121.306 175.809 124.313  1.00  0.00     0.111 C 
BRANCH  10  11
ATOM     11  C   UNL     1     121.441 174.989 125.560  1.00  0.00     0.163 C 
ATOM     12  O   UNL     1     122.594 174.725 125.996  1.00  0.00    -0.294 OA
BRANCH  11  13
ATOM     13  C   UNL     1     120.239 174.527 126.301  1.00  0.00    -0.002 C 
ATOM     14  C   UNL     1     119.768 173.253 126.173  1.00  0.00    -0.069 C 
ATOM     15  C   UNL     1     118.610 172.748 127.004  1.00  0.00     0.039 C 
ATOM     16  C   UNL     1     120.378 172.291 125.177  1.00  0.00     0.039 C 
BRANCH  13  17
ATOM     17  C   UNL     1     119.586 175.546 127.210  1.00  0.00     0.066 CG0
ATOM     18  G   UNL     1     118.867 176.629 126.429  1.00  0.00     0.000 G0
ENDBRANCH  13  17
ENDBRANCH  11  13
ENDBRANCH  10  11
ENDBRANCH   1  10
TORSDOF 0
ENDMDL
