MODEL 1
REMARK VINA RESULT:    -5.389      0.000      0.000
REMARK INTER + INTRA:          -5.800
REMARK INTER:                  -5.704
REMARK INTRA:                  -0.096
REMARK UNBOUND:                -0.096
REMARK SMILES C=C(C)[C@H]1CC=C(C)C(=O)C1
REMARK SMILES IDX 8 1 7 2 6 3 5 4 4 5 11 6 9 7 10 8 2 9 1 10 3 11
REMARK H PARENT
REMARK Flexibility Score: inf
ROOT
ATOM      1  C   UNL     1     123.783 178.589 116.499  1.00  0.00     0.048 C 
ATOM      2  C   UNL     1     123.725 178.003 117.882  1.00  0.00    -0.012 C 
ATOM      3  C   UNL     1     124.234 178.680 118.925  1.00  0.00    -0.019 C 
ATOM      4  C   UNL     1     124.272 178.099 120.314  1.00  0.00     0.036 C 
ATOM      5  C   UNL     1     123.094 177.133 120.545  1.00  0.00     0.025 C 
ATOM      6  C   UNL     1     123.073 176.043 119.458  1.00  0.00     0.089 C 
ATOM      7  C   UNL     1     123.125 176.660 118.086  1.00  0.00     0.158 C 
ATOM      8  O   UNL     1     122.691 176.005 117.102  1.00  0.00    -0.295 OA
ENDROOT
BRANCH   5   9
ATOM      9  C   UNL     1     123.136 176.526 121.940  1.00  0.00    -0.077 C 
ATOM     10  C   UNL     1     124.208 175.820 122.336  1.00  0.00     0.008 C 
ATOM     11  C   UNL     1     121.991 176.699 122.908  1.00  0.00     0.039 C 
ENDBRANCH   5   9
TORSDOF 1
ENDMDL
MODEL 2
REMARK VINA RESULT:    -5.327     13.750     14.993
REMARK INTER + INTRA:          -5.734
REMARK INTER:                  -5.638
REMARK INTRA:                  -0.096
REMARK UNBOUND:                -0.096
REMARK SMILES C=C(C)[C@H]1CC=C(C)C(=O)C1
REMARK SMILES IDX 8 1 7 2 6 3 5 4 4 5 11 6 9 7 10 8 2 9 1 10 3 11
REMARK H PARENT
REMARK Flexibility Score: inf
ROOT
ATOM      1  C   UNL     1     115.995 167.020 125.193  1.00  0.00     0.048 C 
ATOM      2  C   UNL     1     116.002 166.263 123.894  1.00  0.00    -0.012 C 
ATOM      3  C   UNL     1     117.162 165.830 123.371  1.00  0.00    -0.019 C 
ATOM      4  C   UNL     1     117.228 165.139 122.035  1.00  0.00     0.036 C 
ATOM      5  C   UNL     1     115.933 164.353 121.750  1.00  0.00     0.025 C 
ATOM      6  C   UNL     1     114.708 165.278 121.869  1.00  0.00     0.089 C 
ATOM      7  C   UNL     1     114.724 166.016 123.180  1.00  0.00     0.158 C 
ATOM      8  O   UNL     1     113.643 166.464 123.646  1.00  0.00    -0.295 OA
ENDROOT
BRANCH   5   9
ATOM      9  C   UNL     1     115.983 163.669 120.392  1.00  0.00    -0.077 C 
ATOM     10  C   UNL     1     115.801 164.383 119.270  1.00  0.00     0.008 C 
ATOM     11  C   UNL     1     116.238 162.186 120.268  1.00  0.00     0.039 C 
ENDBRANCH   5   9
TORSDOF 1
ENDMDL
MODEL 3
REMARK VINA RESULT:    -5.218      7.092      8.337
REMARK INTER + INTRA:          -5.619
REMARK INTER:                  -5.521
REMARK INTRA:                  -0.098
REMARK UNBOUND:                -0.096
REMARK SMILES C=C(C)[C@H]1CC=C(C)C(=O)C1
REMARK SMILES IDX 8 1 7 2 6 3 5 4 4 5 11 6 9 7 10 8 2 9 1 10 3 11
REMARK H PARENT
REMARK Flexibility Score: inf
ROOT
ATOM      1  C   UNL     1     116.212 177.865 124.577  1.00  0.00     0.048 C 
ATOM      2  C   UNL     1     117.601 177.838 125.154  1.00  0.00    -0.012 C 
ATOM      3  C   UNL     1     118.635 177.416 124.406  1.00  0.00    -0.019 C 
ATOM      4  C   UNL     1     120.028 177.294 124.965  1.00  0.00     0.036 C 
ATOM      5  C   UNL     1     120.275 178.333 126.075  1.00  0.00     0.025 C 
ATOM      6  C   UNL     1     119.197 178.217 127.168  1.00  0.00     0.089 C 
ATOM      7  C   UNL     1     117.820 178.255 126.561  1.00  0.00     0.158 C 
ATOM      8  O   UNL     1     116.844 178.604 127.277  1.00  0.00    -0.295 OA
ENDROOT
BRANCH   5   9
ATOM      9  C   UNL     1     121.675 178.203 126.659  1.00  0.00    -0.077 C 
ATOM     10  C   UNL     1     121.958 178.741 127.856  1.00  0.00     0.008 C 
ATOM     11  C   UNL     1     122.770 177.472 125.921  1.00  0.00     0.039 C 
ENDBRANCH   5   9
TORSDOF 1
ENDMDL
MODEL 4
REMARK VINA RESULT:    -5.202     13.658     14.897
REMARK INTER + INTRA:          -5.602
REMARK INTER:                  -5.506
REMARK INTRA:                  -0.096
REMARK UNBOUND:                -0.096
REMARK SMILES C=C(C)[C@H]1CC=C(C)C(=O)C1
REMARK SMILES IDX 8 1 7 2 6 3 5 4 4 5 11 6 9 7 10 8 2 9 1 10 3 11
REMARK H PARENT
REMARK Flexibility Score: inf
ROOT
ATOM      1  C   UNL     1     115.615 167.003 125.308  1.00  0.00     0.048 C 
ATOM      2  C   UNL     1     115.656 166.183 124.048  1.00  0.00    -0.012 C 
ATOM      3  C   UNL     1     114.516 165.717 123.508  1.00  0.00    -0.019 C 
ATOM      4  C   UNL     1     114.513 164.826 122.295  1.00  0.00     0.036 C 
ATOM      5  C   UNL     1     115.712 165.130 121.376  1.00  0.00     0.025 C 
ATOM      6  C   UNL     1     117.031 165.035 122.166  1.00  0.00     0.089 C 
ATOM      7  C   UNL     1     116.962 165.870 123.416  1.00  0.00     0.158 C 
ATOM      8  O   UNL     1     118.033 166.266 123.949  1.00  0.00    -0.295 OA
ENDROOT
BRANCH   5   9
ATOM      9  C   UNL     1     115.727 164.219 120.157  1.00  0.00    -0.077 C 
ATOM     10  C   UNL     1     116.056 162.925 120.288  1.00  0.00     0.008 C 
ATOM     11  C   UNL     1     115.375 164.738 118.784  1.00  0.00     0.039 C 
ENDBRANCH   5   9
TORSDOF 1
ENDMDL
MODEL 5
REMARK VINA RESULT:    -5.188      1.590      2.448
REMARK INTER + INTRA:          -5.587
REMARK INTER:                  -5.491
REMARK INTRA:                  -0.096
REMARK UNBOUND:                -0.096
REMARK SMILES C=C(C)[C@H]1CC=C(C)C(=O)C1
REMARK SMILES IDX 8 1 7 2 6 3 5 4 4 5 11 6 9 7 10 8 2 9 1 10 3 11
REMARK H PARENT
REMARK Flexibility Score: inf
ROOT
ATOM      1  C   UNL     1     122.516 176.545 117.005  1.00  0.00     0.048 C 
ATOM      2  C   UNL     1     123.009 176.907 118.379  1.00  0.00    -0.012 C 
ATOM      3  C   UNL     1     122.360 176.460 119.469  1.00  0.00    -0.019 C 
ATOM      4  C   UNL     1     122.769 176.862 120.861  1.00  0.00     0.036 C 
ATOM      5  C   UNL     1     124.284 177.128 120.943  1.00  0.00     0.025 C 
ATOM      6  C   UNL     1     124.702 178.171 119.890  1.00  0.00     0.089 C 
ATOM      7  C   UNL     1     124.201 177.779 118.526  1.00  0.00     0.158 C 
ATOM      8  O   UNL     1     124.780 178.236 117.505  1.00  0.00    -0.295 OA
ENDROOT
BRANCH   5   9
ATOM      9  C   UNL     1     124.701 177.554 122.343  1.00  0.00    -0.077 C 
ATOM     10  C   UNL     1     124.148 176.971 123.418  1.00  0.00     0.008 C 
ATOM     11  C   UNL     1     125.738 178.629 122.562  1.00  0.00     0.039 C 
ENDBRANCH   5   9
TORSDOF 1
ENDMDL
MODEL 6
REMARK VINA RESULT:    -5.134      6.505      7.958
REMARK INTER + INTRA:          -5.531
REMARK INTER:                  -5.438
REMARK INTRA:                  -0.093
REMARK UNBOUND:                -0.096
REMARK SMILES C=C(C)[C@H]1CC=C(C)C(=O)C1
REMARK SMILES IDX 8 1 7 2 6 3 5 4 4 5 11 6 9 7 10 8 2 9 1 10 3 11
REMARK H PARENT
REMARK Flexibility Score: inf
ROOT
ATOM      1  C   UNL     1     115.843 177.729 125.258  1.00  0.00     0.048 C 
ATOM      2  C   UNL     1     117.309 177.895 125.547  1.00  0.00    -0.012 C 
ATOM      3  C   UNL     1     117.738 178.015 126.815  1.00  0.00    -0.019 C 
ATOM      4  C   UNL     1     119.186 178.263 127.149  1.00  0.00     0.036 C 
ATOM      5  C   UNL     1     120.116 177.633 126.094  1.00  0.00     0.025 C 
ATOM      6  C   UNL     1     119.748 178.135 124.686  1.00  0.00     0.089 C 
ATOM      7  C   UNL     1     118.278 177.950 124.423  1.00  0.00     0.158 C 
ATOM      8  O   UNL     1     117.871 177.886 123.233  1.00  0.00    -0.295 OA
ENDROOT
BRANCH   5   9
ATOM      9  C   UNL     1     121.581 177.897 126.413  1.00  0.00    -0.077 C 
ATOM     10  C   UNL     1     122.542 177.175 125.816  1.00  0.00     0.008 C 
ATOM     11  C   UNL     1     121.991 178.967 127.396  1.00  0.00     0.039 C 
ENDBRANCH   5   9
TORSDOF 1
ENDMDL
MODEL 7
REMARK VINA RESULT:    -5.122      7.986      9.627
REMARK INTER + INTRA:          -5.517
REMARK INTER:                  -5.419
REMARK INTRA:                  -0.098
REMARK UNBOUND:                -0.096
REMARK SMILES C=C(C)[C@H]1CC=C(C)C(=O)C1
REMARK SMILES IDX 8 1 7 2 6 3 5 4 4 5 11 6 9 7 10 8 2 9 1 10 3 11
REMARK H PARENT
REMARK Flexibility Score: inf
ROOT
ATOM      1  C   UNL     1     121.168 178.250 127.228  1.00  0.00     0.048 C 
ATOM      2  C   UNL     1     119.734 178.261 126.778  1.00  0.00    -0.012 C 
ATOM      3  C   UNL     1     119.437 178.356 125.471  1.00  0.00    -0.019 C 
ATOM      4  C   UNL     1     118.017 178.453 124.979  1.00  0.00     0.036 C 
ATOM      5  C   UNL     1     117.049 177.709 125.920  1.00  0.00     0.025 C 
ATOM      6  C   UNL     1     117.203 178.224 127.363  1.00  0.00     0.089 C 
ATOM      7  C   UNL     1     118.647 178.194 127.787  1.00  0.00     0.158 C 
ATOM      8  O   UNL     1     118.925 178.154 129.015  1.00  0.00    -0.295 OA
ENDROOT
BRANCH   5   9
ATOM      9  C   UNL     1     115.609 177.820 125.441  1.00  0.00    -0.077 C 
ATOM     10  C   UNL     1     114.607 177.894 126.331  1.00  0.00     0.008 C 
ATOM     11  C   UNL     1     115.270 177.852 123.970  1.00  0.00     0.039 C 
ENDBRANCH   5   9
TORSDOF 1
ENDMDL
MODEL 8
REMARK VINA RESULT:    -5.118      7.357      9.205
REMARK INTER + INTRA:          -5.513
REMARK INTER:                  -5.415
REMARK INTRA:                  -0.098
REMARK UNBOUND:                -0.096
REMARK SMILES C=C(C)[C@H]1CC=C(C)C(=O)C1
REMARK SMILES IDX 8 1 7 2 6 3 5 4 4 5 11 6 9 7 10 8 2 9 1 10 3 11
REMARK H PARENT
REMARK Flexibility Score: inf
ROOT
ATOM      1  C   UNL     1     121.027 178.400 127.055  1.00  0.00     0.048 C 
ATOM      2  C   UNL     1     119.579 178.225 126.692  1.00  0.00    -0.012 C 
ATOM      3  C   UNL     1     118.632 178.279 127.645  1.00  0.00    -0.019 C 
ATOM      4  C   UNL     1     117.178 178.029 127.342  1.00  0.00     0.036 C 
ATOM      5  C   UNL     1     116.827 178.460 125.904  1.00  0.00     0.025 C 
ATOM      6  C   UNL     1     117.760 177.768 124.894  1.00  0.00     0.089 C 
ATOM      7  C   UNL     1     119.202 177.967 125.280  1.00  0.00     0.158 C 
ATOM      8  O   UNL     1     120.093 177.868 124.395  1.00  0.00    -0.295 OA
ENDROOT
BRANCH   5   9
ATOM      9  C   UNL     1     115.364 178.191 125.584  1.00  0.00    -0.077 C 
ATOM     10  C   UNL     1     114.486 177.970 126.575  1.00  0.00     0.008 C 
ATOM     11  C   UNL     1     114.862 178.167 124.160  1.00  0.00     0.039 C 
ENDBRANCH   5   9
TORSDOF 1
ENDMDL
MODEL 9
REMARK VINA RESULT:    -5.056      6.789      9.092
REMARK INTER + INTRA:          -5.448
REMARK INTER:                  -5.350
REMARK INTRA:                  -0.097
REMARK UNBOUND:                -0.096
REMARK SMILES C=C(C)[C@H]1CC=C(C)C(=O)C1
REMARK SMILES IDX 8 1 7 2 6 3 5 4 4 5 11 6 9 7 10 8 2 9 1 10 3 11
REMARK H PARENT
REMARK Flexibility Score: inf
ROOT
ATOM      1  C   UNL     1     114.511 178.243 126.447  1.00  0.00     0.048 C 
ATOM      2  C   UNL     1     115.999 178.189 126.237  1.00  0.00    -0.012 C 
ATOM      3  C   UNL     1     116.727 179.319 126.266  1.00  0.00    -0.019 C 
ATOM      4  C   UNL     1     118.206 179.324 125.981  1.00  0.00     0.036 C 
ATOM      5  C   UNL     1     118.859 177.994 126.407  1.00  0.00     0.025 C 
ATOM      6  C   UNL     1     118.142 176.807 125.740  1.00  0.00     0.089 C 
ATOM      7  C   UNL     1     116.657 176.885 125.973  1.00  0.00     0.158 C 
ATOM      8  O   UNL     1     115.968 175.833 125.899  1.00  0.00    -0.295 OA
ENDROOT
BRANCH   5   9
ATOM      9  C   UNL     1     120.351 177.984 126.103  1.00  0.00    -0.077 C 
ATOM     10  C   UNL     1     120.806 177.408 124.980  1.00  0.00     0.008 C 
ATOM     11  C   UNL     1     121.349 178.615 127.044  1.00  0.00     0.039 C 
ENDBRANCH   5   9
TORSDOF 1
ENDMDL
