MODEL 1
REMARK VINA RESULT:    -5.679      0.000      0.000
REMARK INTER + INTRA:          -6.746
REMARK INTER:                  -6.674
REMARK INTRA:                  -0.072
REMARK UNBOUND:                -0.072
REMARK SMILES O=c1c(O)c(-c2ccc(O)c(O)c2)oc2cc(O)ccc12
REMARK SMILES IDX 5 1 3 2 2 3 1 4 21 5 15 6 14 7 16 8 17 9 19 10 20 11 6 12
REMARK SMILES IDX 7 13 8 14 9 15 13 16 11 17 10 18 12 20 4 22 18 24
REMARK H PARENT 10 19 12 21 4 23 18 25
REMARK Flexibility Score: inf
ROOT
ATOM      1  C   UNL     1      -6.635  -4.925   1.153  1.00  0.00     0.180 A 
ATOM      2  C   UNL     1      -6.995  -6.044   1.931  1.00  0.00     0.208 A 
ATOM      3  C   UNL     1      -8.299  -6.554   1.821  1.00  0.00     0.235 A 
ATOM      4  O   UNL     1      -8.642  -7.560   2.499  1.00  0.00    -0.285 OA
ATOM      5  C   UNL     1      -9.213  -5.929   0.959  1.00  0.00     0.069 A 
ATOM      6  C   UNL     1      -8.781  -4.799   0.231  1.00  0.00     0.142 A 
ATOM      7  O   UNL     1      -7.536  -4.353   0.357  1.00  0.00    -0.452 OA
ATOM      8  C   UNL     1      -9.666  -4.141  -0.631  1.00  0.00     0.094 A 
ATOM      9  C   UNL     1     -10.982  -4.603  -0.778  1.00  0.00     0.119 A 
ATOM     10  C   UNL     1     -11.411  -5.723  -0.060  1.00  0.00     0.047 A 
ATOM     11  C   UNL     1     -10.535  -6.386   0.806  1.00  0.00     0.020 A 
ENDROOT
BRANCH   1  12
ATOM     12  C   UNL     1      -5.275  -4.341   1.199  1.00  0.00     0.025 A 
ATOM     13  C   UNL     1      -4.167  -5.149   0.903  1.00  0.00     0.016 A 
ATOM     14  C   UNL     1      -2.872  -4.626   0.960  1.00  0.00     0.051 A 
ATOM     15  C   UNL     1      -2.668  -3.290   1.330  1.00  0.00     0.157 A 
ATOM     16  C   UNL     1      -5.063  -3.005   1.589  1.00  0.00     0.062 A 
ATOM     17  C   UNL     1      -3.764  -2.480   1.648  1.00  0.00     0.158 A 
BRANCH  15  18
ATOM     18  O   UNL     1      -1.379  -2.763   1.386  1.00  0.00    -0.504 OA
ATOM     19  H   UNL     1      -1.136  -2.020   2.030  1.00  0.00     0.293 HD
ENDBRANCH  15  18
BRANCH  17  20
ATOM     20  O   UNL     1      -3.556  -1.155   2.028  1.00  0.00    -0.504 OA
ATOM     21  H   UNL     1      -3.115  -0.488   1.406  1.00  0.00     0.293 HD
ENDBRANCH  17  20
ENDBRANCH   1  12
BRANCH   2  22
ATOM     22  O   UNL     1      -6.078  -6.615   2.817  1.00  0.00    -0.502 OA
ATOM     23  H   UNL     1      -5.138  -6.254   2.931  1.00  0.00     0.293 HD
ENDBRANCH   2  22
BRANCH   9  24
ATOM     24  O   UNL     1     -11.869  -3.955  -1.635  1.00  0.00    -0.508 OA
ATOM     25  H   UNL     1     -12.863  -4.154  -1.616  1.00  0.00     0.293 HD
ENDBRANCH   9  24
TORSDOF 5
ENDMDL
MODEL 2
REMARK VINA RESULT:    -5.497      0.964      1.652
REMARK INTER + INTRA:          -6.533
REMARK INTER:                  -6.348
REMARK INTRA:                  -0.185
REMARK UNBOUND:                -0.072
REMARK SMILES O=c1c(O)c(-c2ccc(O)c(O)c2)oc2cc(O)ccc12
REMARK SMILES IDX 5 1 3 2 2 3 1 4 21 5 15 6 14 7 16 8 17 9 19 10 20 11 6 12
REMARK SMILES IDX 7 13 8 14 9 15 13 16 11 17 10 18 12 20 4 22 18 24
REMARK H PARENT 10 19 12 21 4 23 18 25
REMARK Flexibility Score: inf
ROOT
ATOM      1  C   UNL     1      -5.982  -4.811   1.283  1.00  0.00     0.180 A 
ATOM      2  C   UNL     1      -6.328  -5.889   2.124  1.00  0.00     0.208 A 
ATOM      3  C   UNL     1      -7.636  -6.397   2.069  1.00  0.00     0.235 A 
ATOM      4  O   UNL     1      -7.967  -7.367   2.803  1.00  0.00    -0.285 OA
ATOM      5  C   UNL     1      -8.568  -5.810   1.199  1.00  0.00     0.069 A 
ATOM      6  C   UNL     1      -8.149  -4.719   0.406  1.00  0.00     0.142 A 
ATOM      7  O   UNL     1      -6.899  -4.275   0.482  1.00  0.00    -0.452 OA
ATOM      8  C   UNL     1      -9.051  -4.100  -0.467  1.00  0.00     0.094 A 
ATOM      9  C   UNL     1     -10.371  -4.561  -0.560  1.00  0.00     0.119 A 
ATOM     10  C   UNL     1     -10.788  -5.643   0.223  1.00  0.00     0.047 A 
ATOM     11  C   UNL     1      -9.894  -6.267   1.099  1.00  0.00     0.020 A 
ENDROOT
BRANCH   1  12
ATOM     12  C   UNL     1      -4.619  -4.232   1.268  1.00  0.00     0.025 A 
ATOM     13  C   UNL     1      -4.435  -2.891   1.639  1.00  0.00     0.016 A 
ATOM     14  C   UNL     1      -3.160  -2.317   1.613  1.00  0.00     0.051 A 
ATOM     15  C   UNL     1      -2.055  -3.073   1.201  1.00  0.00     0.157 A 
ATOM     16  C   UNL     1      -3.509  -4.981   0.836  1.00  0.00     0.062 A 
ATOM     17  C   UNL     1      -2.230  -4.406   0.808  1.00  0.00     0.158 A 
BRANCH  15  18
ATOM     18  O   UNL     1      -0.783  -2.506   1.177  1.00  0.00    -0.504 OA
ATOM     19  H   UNL     1      -0.295  -2.333   0.305  1.00  0.00     0.293 HD
ENDBRANCH  15  18
BRANCH  17  20
ATOM     20  O   UNL     1      -1.130  -5.151   0.387  1.00  0.00    -0.504 OA
ATOM     21  H   UNL     1      -0.219  -5.041   0.817  1.00  0.00     0.293 HD
ENDBRANCH  17  20
ENDBRANCH   1  12
BRANCH   2  22
ATOM     22  O   UNL     1      -5.393  -6.420   3.015  1.00  0.00    -0.502 OA
ATOM     23  H   UNL     1      -5.660  -7.030   3.780  1.00  0.00     0.293 HD
ENDBRANCH   2  22
BRANCH   9  24
ATOM     24  O   UNL     1     -11.276  -3.952  -1.427  1.00  0.00    -0.508 OA
ATOM     25  H   UNL     1     -12.259  -3.871  -1.194  1.00  0.00     0.293 HD
ENDBRANCH   9  24
TORSDOF 5
ENDMDL
MODEL 3
REMARK VINA RESULT:    -5.281     11.218     13.881
REMARK INTER + INTRA:          -6.280
REMARK INTER:                  -5.996
REMARK INTRA:                  -0.284
REMARK UNBOUND:                -0.072
REMARK SMILES O=c1c(O)c(-c2ccc(O)c(O)c2)oc2cc(O)ccc12
REMARK SMILES IDX 5 1 3 2 2 3 1 4 21 5 15 6 14 7 16 8 17 9 19 10 20 11 6 12
REMARK SMILES IDX 7 13 8 14 9 15 13 16 11 17 10 18 12 20 4 22 18 24
REMARK H PARENT 10 19 12 21 4 23 18 25
REMARK Flexibility Score: inf
ROOT
ATOM      1  C   UNL     1       2.950  -0.009   7.308  1.00  0.00     0.180 A 
ATOM      2  C   UNL     1       3.688   0.092   8.506  1.00  0.00     0.208 A 
ATOM      3  C   UNL     1       4.858  -0.672   8.647  1.00  0.00     0.235 A 
ATOM      4  O   UNL     1       5.540  -0.591   9.704  1.00  0.00    -0.285 OA
ATOM      5  C   UNL     1       5.251  -1.529   7.608  1.00  0.00     0.069 A 
ATOM      6  C   UNL     1       4.445  -1.591   6.450  1.00  0.00     0.142 A 
ATOM      7  O   UNL     1       3.351  -0.845   6.353  1.00  0.00    -0.452 OA
ATOM      8  C   UNL     1       4.798  -2.441   5.396  1.00  0.00     0.094 A 
ATOM      9  C   UNL     1       5.952  -3.232   5.483  1.00  0.00     0.119 A 
ATOM     10  C   UNL     1       6.753  -3.170   6.628  1.00  0.00     0.047 A 
ATOM     11  C   UNL     1       6.408  -2.325   7.688  1.00  0.00     0.020 A 
ENDROOT
BRANCH   1  12
ATOM     12  C   UNL     1       1.718   0.778   7.076  1.00  0.00     0.025 A 
ATOM     13  C   UNL     1       0.503   0.335   7.622  1.00  0.00     0.016 A 
ATOM     14  C   UNL     1      -0.677   1.050   7.399  1.00  0.00     0.051 A 
ATOM     15  C   UNL     1      -0.660   2.209   6.614  1.00  0.00     0.157 A 
ATOM     16  C   UNL     1       1.725   1.932   6.271  1.00  0.00     0.062 A 
ATOM     17  C   UNL     1       0.541   2.649   6.045  1.00  0.00     0.158 A 
BRANCH  15  18
ATOM     18  O   UNL     1      -1.834   2.927   6.391  1.00  0.00    -0.504 OA
ATOM     19  H   UNL     1      -1.866   3.704   5.741  1.00  0.00     0.293 HD
ENDBRANCH  15  18
BRANCH  17  20
ATOM     20  O   UNL     1       0.551   3.795   5.252  1.00  0.00    -0.504 OA
ATOM     21  H   UNL     1       1.021   4.642   5.551  1.00  0.00     0.293 HD
ENDBRANCH  17  20
ENDBRANCH   1  12
BRANCH   2  22
ATOM     22  O   UNL     1       3.245   0.917   9.543  1.00  0.00    -0.502 OA
ATOM     23  H   UNL     1       2.337   0.801   9.977  1.00  0.00     0.293 HD
ENDBRANCH   2  22
BRANCH   9  24
ATOM     24  O   UNL     1       6.312  -4.080   4.438  1.00  0.00    -0.508 OA
ATOM     25  H   UNL     1       6.226  -3.793   3.470  1.00  0.00     0.293 HD
ENDBRANCH   9  24
TORSDOF 5
ENDMDL
MODEL 4
REMARK VINA RESULT:    -5.213     11.090     13.122
REMARK INTER + INTRA:          -6.200
REMARK INTER:                  -5.883
REMARK INTRA:                  -0.317
REMARK UNBOUND:                -0.072
REMARK SMILES O=c1c(O)c(-c2ccc(O)c(O)c2)oc2cc(O)ccc12
REMARK SMILES IDX 5 1 3 2 2 3 1 4 21 5 15 6 14 7 16 8 17 9 19 10 20 11 6 12
REMARK SMILES IDX 7 13 8 14 9 15 13 16 11 17 10 18 12 20 4 22 18 24
REMARK H PARENT 10 19 12 21 4 23 18 25
REMARK Flexibility Score: inf
ROOT
ATOM      1  C   UNL     1      -4.833   8.092   1.042  1.00  0.00     0.180 A 
ATOM      2  C   UNL     1      -5.821   8.955   0.525  1.00  0.00     0.208 A 
ATOM      3  C   UNL     1      -7.149   8.797   0.954  1.00  0.00     0.235 A 
ATOM      4  O   UNL     1      -8.049   9.562   0.515  1.00  0.00    -0.285 OA
ATOM      5  C   UNL     1      -7.462   7.777   1.866  1.00  0.00     0.069 A 
ATOM      6  C   UNL     1      -6.419   6.940   2.319  1.00  0.00     0.142 A 
ATOM      7  O   UNL     1      -5.174   7.129   1.895  1.00  0.00    -0.452 OA
ATOM      8  C   UNL     1      -6.692   5.906   3.221  1.00  0.00     0.094 A 
ATOM      9  C   UNL     1      -8.000   5.697   3.680  1.00  0.00     0.119 A 
ATOM     10  C   UNL     1      -9.035   6.526   3.235  1.00  0.00     0.047 A 
ATOM     11  C   UNL     1      -8.772   7.562   2.332  1.00  0.00     0.020 A 
ENDROOT
BRANCH   1  12
ATOM     12  C   UNL     1      -3.409   8.207   0.653  1.00  0.00     0.025 A 
ATOM     13  C   UNL     1      -2.565   9.069   1.371  1.00  0.00     0.016 A 
ATOM     14  C   UNL     1      -1.222   9.210   1.010  1.00  0.00     0.051 A 
ATOM     15  C   UNL     1      -0.709   8.503  -0.085  1.00  0.00     0.157 A 
ATOM     16  C   UNL     1      -2.893   7.515  -0.458  1.00  0.00     0.062 A 
ATOM     17  C   UNL     1      -1.546   7.658  -0.823  1.00  0.00     0.158 A 
BRANCH  15  18
ATOM     18  O   UNL     1       0.630   8.639  -0.447  1.00  0.00    -0.504 OA
ATOM     19  H   UNL     1       1.091   9.541  -0.447  1.00  0.00     0.293 HD
ENDBRANCH  15  18
BRANCH  17  20
ATOM     20  O   UNL     1      -1.036   6.966  -1.920  1.00  0.00    -0.504 OA
ATOM     21  H   UNL     1      -0.555   6.080  -1.811  1.00  0.00     0.293 HD
ENDBRANCH  17  20
ENDBRANCH   1  12
BRANCH   2  22
ATOM     22  O   UNL     1      -5.488   9.929  -0.419  1.00  0.00    -0.502 OA
ATOM     23  H   UNL     1      -5.136  10.842  -0.154  1.00  0.00     0.293 HD
ENDBRANCH   2  22
BRANCH   9  24
ATOM     24  O   UNL     1      -8.281   4.671   4.578  1.00  0.00    -0.508 OA
ATOM     25  H   UNL     1      -8.459   3.724   4.261  1.00  0.00     0.293 HD
ENDBRANCH   9  24
TORSDOF 5
ENDMDL
MODEL 5
REMARK VINA RESULT:    -5.030      5.591     10.421
REMARK INTER + INTRA:          -5.984
REMARK INTER:                  -5.665
REMARK INTRA:                  -0.319
REMARK UNBOUND:                -0.072
REMARK SMILES O=c1c(O)c(-c2ccc(O)c(O)c2)oc2cc(O)ccc12
REMARK SMILES IDX 5 1 3 2 2 3 1 4 21 5 15 6 14 7 16 8 17 9 19 10 20 11 6 12
REMARK SMILES IDX 7 13 8 14 9 15 13 16 11 17 10 18 12 20 4 22 18 24
REMARK H PARENT 10 19 12 21 4 23 18 25
REMARK Flexibility Score: inf
ROOT
ATOM      1  C   UNL     1       0.928  -4.595   1.122  1.00  0.00     0.180 A 
ATOM      2  C   UNL     1       1.096  -5.678   0.235  1.00  0.00     0.208 A 
ATOM      3  C   UNL     1       2.336  -6.336   0.197  1.00  0.00     0.235 A 
ATOM      4  O   UNL     1       2.508  -7.314  -0.580  1.00  0.00    -0.285 OA
ATOM      5  C   UNL     1       3.379  -5.889   1.023  1.00  0.00     0.069 A 
ATOM      6  C   UNL     1       3.138  -4.783   1.866  1.00  0.00     0.142 A 
ATOM      7  O   UNL     1       1.947  -4.194   1.878  1.00  0.00    -0.452 OA
ATOM      8  C   UNL     1       4.155  -4.301   2.697  1.00  0.00     0.094 A 
ATOM      9  C   UNL     1       5.416  -4.915   2.698  1.00  0.00     0.119 A 
ATOM     10  C   UNL     1       5.656  -6.012   1.865  1.00  0.00     0.047 A 
ATOM     11  C   UNL     1       4.646  -6.501   1.030  1.00  0.00     0.020 A 
ENDROOT
BRANCH   1  12
ATOM     12  C   UNL     1      -0.354  -3.863   1.234  1.00  0.00     0.025 A 
ATOM     13  C   UNL     1      -0.519  -2.651   0.545  1.00  0.00     0.016 A 
ATOM     14  C   UNL     1      -1.713  -1.932   0.652  1.00  0.00     0.051 A 
ATOM     15  C   UNL     1      -2.752  -2.408   1.462  1.00  0.00     0.157 A 
ATOM     16  C   UNL     1      -1.393  -4.326   2.062  1.00  0.00     0.062 A 
ATOM     17  C   UNL     1      -2.591  -3.604   2.172  1.00  0.00     0.158 A 
BRANCH  15  18
ATOM     18  O   UNL     1      -3.945  -1.695   1.570  1.00  0.00    -0.504 OA
ATOM     19  H   UNL     1      -4.131  -0.881   0.996  1.00  0.00     0.293 HD
ENDBRANCH  15  18
BRANCH  17  20
ATOM     20  O   UNL     1      -3.622  -4.068   2.987  1.00  0.00    -0.504 OA
ATOM     21  H   UNL     1      -4.208  -4.846   2.709  1.00  0.00     0.293 HD
ENDBRANCH  17  20
ENDBRANCH   1  12
BRANCH   2  22
ATOM     22  O   UNL     1       0.055  -6.070  -0.611  1.00  0.00    -0.502 OA
ATOM     23  H   UNL     1      -0.374  -5.433  -1.272  1.00  0.00     0.293 HD
ENDBRANCH   2  22
BRANCH   9  24
ATOM     24  O   UNL     1       6.434  -4.442   3.522  1.00  0.00    -0.508 OA
ATOM     25  H   UNL     1       6.832  -3.519   3.396  1.00  0.00     0.293 HD
ENDBRANCH   9  24
TORSDOF 5
ENDMDL
MODEL 6
REMARK VINA RESULT:    -5.004      1.902      7.292
REMARK INTER + INTRA:          -5.954
REMARK INTER:                  -5.847
REMARK INTRA:                  -0.106
REMARK UNBOUND:                -0.072
REMARK SMILES O=c1c(O)c(-c2ccc(O)c(O)c2)oc2cc(O)ccc12
REMARK SMILES IDX 5 1 3 2 2 3 1 4 21 5 15 6 14 7 16 8 17 9 19 10 20 11 6 12
REMARK SMILES IDX 7 13 8 14 9 15 13 16 11 17 10 18 12 20 4 22 18 24
REMARK H PARENT 10 19 12 21 4 23 18 25
REMARK Flexibility Score: inf
ROOT
ATOM      1  C   UNL     1      -5.001  -4.440   1.183  1.00  0.00     0.180 A 
ATOM      2  C   UNL     1      -4.634  -3.094   1.393  1.00  0.00     0.208 A 
ATOM      3  C   UNL     1      -3.271  -2.774   1.501  1.00  0.00     0.235 A 
ATOM      4  O   UNL     1      -2.917  -1.577   1.679  1.00  0.00    -0.285 OA
ATOM      5  C   UNL     1      -2.314  -3.797   1.419  1.00  0.00     0.069 A 
ATOM      6  C   UNL     1      -2.764  -5.122   1.231  1.00  0.00     0.142 A 
ATOM      7  O   UNL     1      -4.062  -5.381   1.125  1.00  0.00    -0.452 OA
ATOM      8  C   UNL     1      -1.841  -6.171   1.154  1.00  0.00     0.094 A 
ATOM      9  C   UNL     1      -0.468  -5.911   1.260  1.00  0.00     0.119 A 
ATOM     10  C   UNL     1      -0.019  -4.599   1.444  1.00  0.00     0.047 A 
ATOM     11  C   UNL     1      -0.934  -3.544   1.524  1.00  0.00     0.020 A 
ENDROOT
BRANCH   1  12
ATOM     12  C   UNL     1      -6.415  -4.854   1.040  1.00  0.00     0.025 A 
ATOM     13  C   UNL     1      -6.929  -5.856   1.878  1.00  0.00     0.016 A 
ATOM     14  C   UNL     1      -8.255  -6.279   1.747  1.00  0.00     0.051 A 
ATOM     15  C   UNL     1      -9.080  -5.716   0.766  1.00  0.00     0.157 A 
ATOM     16  C   UNL     1      -7.243  -4.306   0.043  1.00  0.00     0.062 A 
ATOM     17  C   UNL     1      -8.573  -4.731  -0.091  1.00  0.00     0.158 A 
BRANCH  15  18
ATOM     18  O   UNL     1     -10.404  -6.132   0.634  1.00  0.00    -0.504 OA
ATOM     19  H   UNL     1     -10.798  -6.846   1.235  1.00  0.00     0.293 HD
ENDBRANCH  15  18
BRANCH  17  20
ATOM     20  O   UNL     1      -9.394  -4.182  -1.074  1.00  0.00    -0.504 OA
ATOM     21  H   UNL     1      -9.755  -3.238  -0.997  1.00  0.00     0.293 HD
ENDBRANCH  17  20
ENDBRANCH   1  12
BRANCH   2  22
ATOM     22  O   UNL     1      -5.612  -2.104   1.521  1.00  0.00    -0.502 OA
ATOM     23  H   UNL     1      -5.379  -1.129   1.669  1.00  0.00     0.293 HD
ENDBRANCH   2  22
BRANCH   9  24
ATOM     24  O   UNL     1       0.458  -6.949   1.184  1.00  0.00    -0.508 OA
ATOM     25  H   UNL     1       1.399  -6.847   1.548  1.00  0.00     0.293 HD
ENDBRANCH   9  24
TORSDOF 5
ENDMDL
MODEL 7
REMARK VINA RESULT:    -4.996     13.912     15.162
REMARK INTER + INTRA:          -5.944
REMARK INTER:                  -5.656
REMARK INTRA:                  -0.288
REMARK UNBOUND:                -0.072
REMARK SMILES O=c1c(O)c(-c2ccc(O)c(O)c2)oc2cc(O)ccc12
REMARK SMILES IDX 5 1 3 2 2 3 1 4 21 5 15 6 14 7 16 8 17 9 19 10 20 11 6 12
REMARK SMILES IDX 7 13 8 14 9 15 13 16 11 17 10 18 12 20 4 22 18 24
REMARK H PARENT 10 19 12 21 4 23 18 25
REMARK Flexibility Score: inf
ROOT
ATOM      1  C   UNL     1       4.548   0.839  -5.147  1.00  0.00     0.180 A 
ATOM      2  C   UNL     1       4.211  -0.300  -5.908  1.00  0.00     0.208 A 
ATOM      3  C   UNL     1       4.722  -1.549  -5.520  1.00  0.00     0.235 A 
ATOM      4  O   UNL     1       4.427  -2.583  -6.178  1.00  0.00    -0.285 OA
ATOM      5  C   UNL     1       5.568  -1.631  -4.403  1.00  0.00     0.069 A 
ATOM      6  C   UNL     1       5.876  -0.441  -3.708  1.00  0.00     0.142 A 
ATOM      7  O   UNL     1       5.365   0.719  -4.103  1.00  0.00    -0.452 OA
ATOM      8  C   UNL     1       6.724  -0.479  -2.595  1.00  0.00     0.094 A 
ATOM      9  C   UNL     1       7.268  -1.698  -2.164  1.00  0.00     0.119 A 
ATOM     10  C   UNL     1       6.962  -2.878  -2.850  1.00  0.00     0.047 A 
ATOM     11  C   UNL     1       6.117  -2.850  -3.964  1.00  0.00     0.020 A 
ENDROOT
BRANCH   1  12
ATOM     12  C   UNL     1       4.035   2.186  -5.481  1.00  0.00     0.025 A 
ATOM     13  C   UNL     1       4.664   2.936  -6.487  1.00  0.00     0.016 A 
ATOM     14  C   UNL     1       4.210   4.219  -6.805  1.00  0.00     0.051 A 
ATOM     15  C   UNL     1       3.129   4.776  -6.110  1.00  0.00     0.157 A 
ATOM     16  C   UNL     1       2.962   2.759  -4.772  1.00  0.00     0.062 A 
ATOM     17  C   UNL     1       2.507   4.048  -5.090  1.00  0.00     0.158 A 
BRANCH  15  18
ATOM     18  O   UNL     1       2.671   6.054  -6.426  1.00  0.00    -0.504 OA
ATOM     19  H   UNL     1       3.251   6.874  -6.291  1.00  0.00     0.293 HD
ENDBRANCH  15  18
BRANCH  17  20
ATOM     20  O   UNL     1       1.440   4.610  -4.391  1.00  0.00    -0.504 OA
ATOM     21  H   UNL     1       1.563   5.427  -3.803  1.00  0.00     0.293 HD
ENDBRANCH  17  20
ENDBRANCH   1  12
BRANCH   2  22
ATOM     22  O   UNL     1       3.407  -0.180  -7.044  1.00  0.00    -0.502 OA
ATOM     23  H   UNL     1       2.417   0.027  -6.987  1.00  0.00     0.293 HD
ENDBRANCH   2  22
BRANCH   9  24
ATOM     24  O   UNL     1       8.112  -1.746  -1.057  1.00  0.00    -0.508 OA
ATOM     25  H   UNL     1       7.985  -1.123  -0.268  1.00  0.00     0.293 HD
ENDBRANCH   9  24
TORSDOF 5
ENDMDL
MODEL 8
REMARK VINA RESULT:    -4.978     13.914     15.237
REMARK INTER + INTRA:          -5.923
REMARK INTER:                  -5.639
REMARK INTRA:                  -0.284
REMARK UNBOUND:                -0.072
REMARK SMILES O=c1c(O)c(-c2ccc(O)c(O)c2)oc2cc(O)ccc12
REMARK SMILES IDX 5 1 3 2 2 3 1 4 21 5 15 6 14 7 16 8 17 9 19 10 20 11 6 12
REMARK SMILES IDX 7 13 8 14 9 15 13 16 11 17 10 18 12 20 4 22 18 24
REMARK H PARENT 10 19 12 21 4 23 18 25
REMARK Flexibility Score: inf
ROOT
ATOM      1  C   UNL     1       5.304   1.014  -4.892  1.00  0.00     0.180 A 
ATOM      2  C   UNL     1       5.888   1.387  -6.120  1.00  0.00     0.208 A 
ATOM      3  C   UNL     1       5.406   2.528  -6.780  1.00  0.00     0.235 A 
ATOM      4  O   UNL     1       5.919   2.888  -7.875  1.00  0.00    -0.285 OA
ATOM      5  C   UNL     1       4.345   3.255  -6.216  1.00  0.00     0.069 A 
ATOM      6  C   UNL     1       3.800   2.803  -4.995  1.00  0.00     0.142 A 
ATOM      7  O   UNL     1       4.291   1.723  -4.398  1.00  0.00    -0.452 OA
ATOM      8  C   UNL     1       2.735   3.494  -4.406  1.00  0.00     0.094 A 
ATOM      9  C   UNL     1       2.209   4.638  -5.022  1.00  0.00     0.119 A 
ATOM     10  C   UNL     1       2.750   5.089  -6.231  1.00  0.00     0.047 A 
ATOM     11  C   UNL     1       3.813   4.404  -6.829  1.00  0.00     0.020 A 
ENDROOT
BRANCH   1  12
ATOM     12  C   UNL     1       5.769  -0.164  -4.126  1.00  0.00     0.025 A 
ATOM     13  C   UNL     1       5.326  -1.444  -4.492  1.00  0.00     0.016 A 
ATOM     14  C   UNL     1       5.736  -2.570  -3.772  1.00  0.00     0.051 A 
ATOM     15  C   UNL     1       6.582  -2.428  -2.664  1.00  0.00     0.157 A 
ATOM     16  C   UNL     1       6.603  -0.025  -3.000  1.00  0.00     0.062 A 
ATOM     17  C   UNL     1       7.013  -1.154  -2.275  1.00  0.00     0.158 A 
BRANCH  15  18
ATOM     18  O   UNL     1       6.995  -3.547  -1.944  1.00  0.00    -0.504 OA
ATOM     19  H   UNL     1       6.565  -4.455  -2.080  1.00  0.00     0.293 HD
ENDBRANCH  15  18
BRANCH  17  20
ATOM     20  O   UNL     1       7.844  -1.015  -1.165  1.00  0.00    -0.504 OA
ATOM     21  H   UNL     1       8.802  -1.344  -1.176  1.00  0.00     0.293 HD
ENDBRANCH  17  20
ENDBRANCH   1  12
BRANCH   2  22
ATOM     22  O   UNL     1       6.909   0.616  -6.681  1.00  0.00    -0.502 OA
ATOM     23  H   UNL     1       7.291  -0.199  -6.216  1.00  0.00     0.293 HD
ENDBRANCH   2  22
BRANCH   9  24
ATOM     24  O   UNL     1       1.150   5.333  -4.443  1.00  0.00    -0.508 OA
ATOM     25  H   UNL     1       0.618   4.942  -3.674  1.00  0.00     0.293 HD
ENDBRANCH   9  24
TORSDOF 5
ENDMDL
MODEL 9
REMARK VINA RESULT:    -4.862     11.373     13.721
REMARK INTER + INTRA:          -5.786
REMARK INTER:                  -5.502
REMARK INTRA:                  -0.284
REMARK UNBOUND:                -0.072
REMARK SMILES O=c1c(O)c(-c2ccc(O)c(O)c2)oc2cc(O)ccc12
REMARK SMILES IDX 5 1 3 2 2 3 1 4 21 5 15 6 14 7 16 8 17 9 19 10 20 11 6 12
REMARK SMILES IDX 7 13 8 14 9 15 13 16 11 17 10 18 12 20 4 22 18 24
REMARK H PARENT 10 19 12 21 4 23 18 25
REMARK Flexibility Score: inf
ROOT
ATOM      1  C   UNL     1      -3.236   8.236   1.043  1.00  0.00     0.180 A 
ATOM      2  C   UNL     1      -2.721   8.838   2.210  1.00  0.00     0.208 A 
ATOM      3  C   UNL     1      -3.338   8.565   3.441  1.00  0.00     0.235 A 
ATOM      4  O   UNL     1      -2.891   9.082   4.500  1.00  0.00    -0.285 OA
ATOM      5  C   UNL     1      -4.459   7.721   3.478  1.00  0.00     0.069 A 
ATOM      6  C   UNL     1      -4.927   7.176   2.263  1.00  0.00     0.142 A 
ATOM      7  O   UNL     1      -4.308   7.453   1.120  1.00  0.00    -0.452 OA
ATOM      8  C   UNL     1      -6.048   6.338   2.256  1.00  0.00     0.094 A 
ATOM      9  C   UNL     1      -6.708   6.034   3.455  1.00  0.00     0.119 A 
ATOM     10  C   UNL     1      -6.245   6.571   4.661  1.00  0.00     0.047 A 
ATOM     11  C   UNL     1      -5.127   7.411   4.677  1.00  0.00     0.020 A 
ENDROOT
BRANCH   1  12
ATOM     12  C   UNL     1      -2.629   8.460  -0.288  1.00  0.00     0.025 A 
ATOM     13  C   UNL     1      -2.936   9.629  -1.000  1.00  0.00     0.016 A 
ATOM     14  C   UNL     1      -2.392   9.853  -2.268  1.00  0.00     0.051 A 
ATOM     15  C   UNL     1      -1.544   8.900  -2.848  1.00  0.00     0.157 A 
ATOM     16  C   UNL     1      -1.793   7.497  -0.885  1.00  0.00     0.062 A 
ATOM     17  C   UNL     1      -1.247   7.719  -2.158  1.00  0.00     0.158 A 
BRANCH  15  18
ATOM     18  O   UNL     1      -0.997   9.120  -4.111  1.00  0.00    -0.504 OA
ATOM     19  H   UNL     1       0.004   9.117  -4.263  1.00  0.00     0.293 HD
ENDBRANCH  15  18
BRANCH  17  20
ATOM     20  O   UNL     1      -0.414   6.768  -2.743  1.00  0.00    -0.504 OA
ATOM     21  H   UNL     1       0.025   6.038  -2.194  1.00  0.00     0.293 HD
ENDBRANCH  17  20
ENDBRANCH   1  12
BRANCH   2  22
ATOM     22  O   UNL     1      -1.634   9.713   2.136  1.00  0.00    -0.502 OA
ATOM     23  H   UNL     1      -0.994   9.848   2.909  1.00  0.00     0.293 HD
ENDBRANCH   2  22
BRANCH   9  24
ATOM     24  O   UNL     1      -7.824   5.200   3.458  1.00  0.00    -0.508 OA
ATOM     25  H   UNL     1      -7.776   4.253   3.817  1.00  0.00     0.293 HD
ENDBRANCH   9  24
TORSDOF 5
ENDMDL
