MODEL 1
REMARK VINA RESULT:    -4.905      0.000      0.000
REMARK INTER + INTRA:          -5.582
REMARK INTER:                  -5.335
REMARK INTRA:                  -0.247
REMARK UNBOUND:                -0.247
REMARK SMILES O=C([O-])c1ccccc1O
REMARK SMILES IDX 4 1 9 2 5 3 8 4 6 5 7 6 2 7 1 8 3 9 10 10
REMARK H PARENT 10 11
REMARK Flexibility Score: inf
ROOT
ATOM      1  C   UNL     1      21.178   0.283 -21.076  1.00  0.00     0.039 A 
ATOM      2  C   UNL     1      21.192   0.995 -19.850  1.00  0.00     0.124 A 
ATOM      3  C   UNL     1      20.638  -1.016 -21.103  1.00  0.00     0.014 A 
ATOM      4  C   UNL     1      20.731   0.373 -18.682  1.00  0.00     0.047 A 
ATOM      5  C   UNL     1      20.162  -1.614 -19.934  1.00  0.00     0.001 A 
ATOM      6  C   UNL     1      20.218  -0.924 -18.723  1.00  0.00     0.004 A 
ENDROOT
BRANCH   1   7
ATOM      7  C   UNL     1      21.743   0.840 -22.324  1.00  0.00     0.075 C 
ATOM      8  O   UNL     1      22.368   0.095 -23.125  1.00  0.00    -0.545 OA
ATOM      9  O   UNL     1      21.656   2.200 -22.599  1.00  0.00    -0.545 OA
ENDBRANCH   1   7
BRANCH   2  10
ATOM     10  O   UNL     1      21.620   2.320 -19.756  1.00  0.00    -0.507 OA
ATOM     11  H   UNL     1      21.975   2.848 -20.541  1.00  0.00     0.293 HD
ENDBRANCH   2  10
TORSDOF 2
ENDMDL
MODEL 2
REMARK VINA RESULT:    -4.763      1.798      3.457
REMARK INTER + INTRA:          -5.428
REMARK INTER:                  -5.201
REMARK INTRA:                  -0.227
REMARK UNBOUND:                -0.247
REMARK SMILES O=C([O-])c1ccccc1O
REMARK SMILES IDX 4 1 9 2 5 3 8 4 6 5 7 6 2 7 1 8 3 9 10 10
REMARK H PARENT 10 11
REMARK Flexibility Score: inf
ROOT
ATOM      1  C   UNL     1      20.755   0.143 -20.638  1.00  0.00     0.039 A 
ATOM      2  C   UNL     1      21.353   1.416 -20.815  1.00  0.00     0.124 A 
ATOM      3  C   UNL     1      20.761  -0.768 -21.710  1.00  0.00     0.014 A 
ATOM      4  C   UNL     1      21.880   1.766 -22.066  1.00  0.00     0.047 A 
ATOM      5  C   UNL     1      21.310  -0.412 -22.944  1.00  0.00     0.001 A 
ATOM      6  C   UNL     1      21.860   0.857 -23.125  1.00  0.00     0.004 A 
ENDROOT
BRANCH   1   7
ATOM      7  C   UNL     1      20.089  -0.253 -19.377  1.00  0.00     0.075 C 
ATOM      8  O   UNL     1      18.862  -0.537 -19.371  1.00  0.00    -0.545 OA
ATOM      9  O   UNL     1      20.786  -0.250 -18.174  1.00  0.00    -0.545 OA
ENDBRANCH   1   7
BRANCH   2  10
ATOM     10  O   UNL     1      21.476   2.340 -19.776  1.00  0.00    -0.507 OA
ATOM     11  H   UNL     1      21.955   3.225 -19.872  1.00  0.00     0.293 HD
ENDBRANCH   2  10
TORSDOF 2
ENDMDL
MODEL 3
REMARK VINA RESULT:    -4.517      0.939      2.204
REMARK INTER + INTRA:          -5.161
REMARK INTER:                  -4.952
REMARK INTRA:                  -0.208
REMARK UNBOUND:                -0.247
REMARK SMILES O=C([O-])c1ccccc1O
REMARK SMILES IDX 4 1 9 2 5 3 8 4 6 5 7 6 2 7 1 8 3 9 10 10
REMARK H PARENT 10 11
REMARK Flexibility Score: inf
ROOT
ATOM      1  C   UNL     1      21.179   0.649 -20.938  1.00  0.00     0.039 A 
ATOM      2  C   UNL     1      20.710  -0.638 -21.305  1.00  0.00     0.124 A 
ATOM      3  C   UNL     1      21.236   0.990 -19.574  1.00  0.00     0.014 A 
ATOM      4  C   UNL     1      20.255  -1.518 -20.314  1.00  0.00     0.047 A 
ATOM      5  C   UNL     1      20.799   0.094 -18.597  1.00  0.00     0.001 A 
ATOM      6  C   UNL     1      20.299  -1.155 -18.966  1.00  0.00     0.004 A 
ENDROOT
BRANCH   1   7
ATOM      7  C   UNL     1      21.576   1.663 -21.939  1.00  0.00     0.075 C 
ATOM      8  O   UNL     1      21.834   1.318 -23.123  1.00  0.00    -0.545 OA
ATOM      9  O   UNL     1      21.739   2.995 -21.576  1.00  0.00    -0.545 OA
ENDBRANCH   1   7
BRANCH   2  10
ATOM     10  O   UNL     1      20.712  -1.091 -22.625  1.00  0.00    -0.507 OA
ATOM     11  H   UNL     1      21.520  -1.505 -23.071  1.00  0.00     0.293 HD
ENDBRANCH   2  10
TORSDOF 2
ENDMDL
MODEL 4
REMARK VINA RESULT:    -4.492      2.398      3.502
REMARK INTER + INTRA:          -5.133
REMARK INTER:                  -4.892
REMARK INTRA:                  -0.241
REMARK UNBOUND:                -0.247
REMARK SMILES O=C([O-])c1ccccc1O
REMARK SMILES IDX 4 1 9 2 5 3 8 4 6 5 7 6 2 7 1 8 3 9 10 10
REMARK H PARENT 10 11
REMARK Flexibility Score: inf
ROOT
ATOM      1  C   UNL     1      20.335  -0.607 -20.381  1.00  0.00     0.039 A 
ATOM      2  C   UNL     1      20.920   0.632 -20.018  1.00  0.00     0.124 A 
ATOM      3  C   UNL     1      20.504  -1.080 -21.696  1.00  0.00     0.014 A 
ATOM      4  C   UNL     1      21.596   1.390 -20.983  1.00  0.00     0.047 A 
ATOM      5  C   UNL     1      21.200  -0.323 -22.641  1.00  0.00     0.001 A 
ATOM      6  C   UNL     1      21.737   0.915 -22.288  1.00  0.00     0.004 A 
ENDROOT
BRANCH   1   7
ATOM      7  C   UNL     1      19.521  -1.407 -19.440  1.00  0.00     0.075 C 
ATOM      8  O   UNL     1      19.689  -2.653 -19.358  1.00  0.00    -0.545 OA
ATOM      9  O   UNL     1      18.516  -0.811 -18.686  1.00  0.00    -0.545 OA
ENDBRANCH   1   7
BRANCH   2  10
ATOM     10  O   UNL     1      20.883   1.127 -18.713  1.00  0.00    -0.507 OA
ATOM     11  H   UNL     1      20.689   0.552 -17.904  1.00  0.00     0.293 HD
ENDBRANCH   2  10
TORSDOF 2
ENDMDL
MODEL 5
REMARK VINA RESULT:    -4.309     18.719     20.004
REMARK INTER + INTRA:          -4.933
REMARK INTER:                  -4.693
REMARK INTRA:                  -0.240
REMARK UNBOUND:                -0.247
REMARK SMILES O=C([O-])c1ccccc1O
REMARK SMILES IDX 4 1 9 2 5 3 8 4 6 5 7 6 2 7 1 8 3 9 10 10
REMARK H PARENT 10 11
REMARK Flexibility Score: inf
ROOT
ATOM      1  C   UNL     1       6.099   4.005  -8.741  1.00  0.00     0.039 A 
ATOM      2  C   UNL     1       5.817   3.246  -7.576  1.00  0.00     0.124 A 
ATOM      3  C   UNL     1       5.279   5.105  -9.052  1.00  0.00     0.014 A 
ATOM      4  C   UNL     1       4.696   3.563  -6.797  1.00  0.00     0.047 A 
ATOM      5  C   UNL     1       4.178   5.422  -8.253  1.00  0.00     0.001 A 
ATOM      6  C   UNL     1       3.881   4.646  -7.132  1.00  0.00     0.004 A 
ENDROOT
BRANCH   1   7
ATOM      7  C   UNL     1       7.204   3.662  -9.663  1.00  0.00     0.075 C 
ATOM      8  O   UNL     1       8.381   3.554  -9.228  1.00  0.00    -0.545 OA
ATOM      9  O   UNL     1       6.974   3.522 -11.027  1.00  0.00    -0.545 OA
ENDBRANCH   1   7
BRANCH   2  10
ATOM     10  O   UNL     1       6.635   2.202  -7.143  1.00  0.00    -0.507 OA
ATOM     11  H   UNL     1       6.543   1.250  -7.470  1.00  0.00     0.293 HD
ENDBRANCH   2  10
TORSDOF 2
ENDMDL
MODEL 6
REMARK VINA RESULT:    -4.248      2.820      4.420
REMARK INTER + INTRA:          -4.867
REMARK INTER:                  -4.618
REMARK INTRA:                  -0.249
REMARK UNBOUND:                -0.247
REMARK SMILES O=C([O-])c1ccccc1O
REMARK SMILES IDX 4 1 9 2 5 3 8 4 6 5 7 6 2 7 1 8 3 9 10 10
REMARK H PARENT 10 11
REMARK Flexibility Score: inf
ROOT
ATOM      1  C   UNL     1      19.676  -0.355 -18.391  1.00  0.00     0.039 A 
ATOM      2  C   UNL     1      20.969   0.193 -18.584  1.00  0.00     0.124 A 
ATOM      3  C   UNL     1      18.845  -0.552 -19.510  1.00  0.00     0.014 A 
ATOM      4  C   UNL     1      21.370   0.586 -19.868  1.00  0.00     0.047 A 
ATOM      5  C   UNL     1      19.268  -0.175 -20.786  1.00  0.00     0.001 A 
ATOM      6  C   UNL     1      20.525   0.402 -20.964  1.00  0.00     0.004 A 
ENDROOT
BRANCH   1   7
ATOM      7  C   UNL     1      19.151  -0.695 -17.050  1.00  0.00     0.075 C 
ATOM      8  O   UNL     1      19.296   0.108 -16.091  1.00  0.00    -0.545 OA
ATOM      9  O   UNL     1      18.553  -1.927 -16.812  1.00  0.00    -0.545 OA
ENDBRANCH   1   7
BRANCH   2  10
ATOM     10  O   UNL     1      21.890   0.331 -17.545  1.00  0.00    -0.507 OA
ATOM     11  H   UNL     1      22.681   0.960 -17.581  1.00  0.00     0.293 HD
ENDBRANCH   2  10
TORSDOF 2
ENDMDL
MODEL 7
REMARK VINA RESULT:    -4.157     18.126     19.798
REMARK INTER + INTRA:          -4.769
REMARK INTER:                  -4.519
REMARK INTRA:                  -0.250
REMARK UNBOUND:                -0.247
REMARK SMILES O=C([O-])c1ccccc1O
REMARK SMILES IDX 4 1 9 2 5 3 8 4 6 5 7 6 2 7 1 8 3 9 10 10
REMARK H PARENT 10 11
REMARK Flexibility Score: inf
ROOT
ATOM      1  C   UNL     1       8.562  -6.753  -7.130  1.00  0.00     0.039 A 
ATOM      2  C   UNL     1       9.696  -5.995  -7.515  1.00  0.00     0.124 A 
ATOM      3  C   UNL     1       7.906  -7.536  -8.098  1.00  0.00     0.014 A 
ATOM      4  C   UNL     1      10.103  -5.988  -8.855  1.00  0.00     0.047 A 
ATOM      5  C   UNL     1       8.337  -7.536  -9.427  1.00  0.00     0.001 A 
ATOM      6  C   UNL     1       9.428  -6.754  -9.807  1.00  0.00     0.004 A 
ENDROOT
BRANCH   1   7
ATOM      7  C   UNL     1       8.017  -6.724  -5.755  1.00  0.00     0.075 C 
ATOM      8  O   UNL     1       7.976  -5.642  -5.113  1.00  0.00    -0.545 OA
ATOM      9  O   UNL     1       7.608  -7.896  -5.127  1.00  0.00    -0.545 OA
ENDBRANCH   1   7
BRANCH   2  10
ATOM     10  O   UNL     1      10.461  -5.269  -6.600  1.00  0.00    -0.507 OA
ATOM     11  H   UNL     1      11.295  -4.758  -6.853  1.00  0.00     0.293 HD
ENDBRANCH   2  10
TORSDOF 2
ENDMDL
MODEL 8
REMARK VINA RESULT:    -4.134     16.675     18.158
REMARK INTER + INTRA:          -4.744
REMARK INTER:                  -4.499
REMARK INTRA:                  -0.245
REMARK UNBOUND:                -0.247
REMARK SMILES O=C([O-])c1ccccc1O
REMARK SMILES IDX 4 1 9 2 5 3 8 4 6 5 7 6 2 7 1 8 3 9 10 10
REMARK H PARENT 10 11
REMARK Flexibility Score: inf
ROOT
ATOM      1  C   UNL     1       9.806  -6.280  -8.712  1.00  0.00     0.039 A 
ATOM      2  C   UNL     1       9.643  -5.971  -7.338  1.00  0.00     0.124 A 
ATOM      3  C   UNL     1       8.771  -6.955  -9.386  1.00  0.00     0.014 A 
ATOM      4  C   UNL     1       8.490  -6.397  -6.664  1.00  0.00     0.047 A 
ATOM      5  C   UNL     1       7.618  -7.353  -8.705  1.00  0.00     0.001 A 
ATOM      6  C   UNL     1       7.483  -7.083  -7.344  1.00  0.00     0.004 A 
ENDROOT
BRANCH   1   7
ATOM      7  C   UNL     1      11.041  -5.953  -9.458  1.00  0.00     0.075 C 
ATOM      8  O   UNL     1      12.168  -6.243  -8.976  1.00  0.00    -0.545 OA
ATOM      9  O   UNL     1      10.982  -5.261 -10.663  1.00  0.00    -0.545 OA
ENDBRANCH   1   7
BRANCH   2  10
ATOM     10  O   UNL     1      10.576  -5.222  -6.620  1.00  0.00    -0.507 OA
ATOM     11  H   UNL     1      11.509  -5.549  -6.407  1.00  0.00     0.293 HD
ENDBRANCH   2  10
TORSDOF 2
ENDMDL
MODEL 9
REMARK VINA RESULT:    -4.095     18.557     19.600
REMARK INTER + INTRA:          -4.701
REMARK INTER:                  -4.452
REMARK INTRA:                  -0.249
REMARK UNBOUND:                -0.247
REMARK SMILES O=C([O-])c1ccccc1O
REMARK SMILES IDX 4 1 9 2 5 3 8 4 6 5 7 6 2 7 1 8 3 9 10 10
REMARK H PARENT 10 11
REMARK Flexibility Score: inf
ROOT
ATOM      1  C   UNL     1       5.997   4.740  -9.193  1.00  0.00     0.039 A 
ATOM      2  C   UNL     1       6.756   3.627  -8.751  1.00  0.00     0.124 A 
ATOM      3  C   UNL     1       4.826   5.086  -8.494  1.00  0.00     0.014 A 
ATOM      4  C   UNL     1       6.296   2.858  -7.674  1.00  0.00     0.047 A 
ATOM      5  C   UNL     1       4.392   4.322  -7.408  1.00  0.00     0.001 A 
ATOM      6  C   UNL     1       5.121   3.203  -7.005  1.00  0.00     0.004 A 
ENDROOT
BRANCH   1   7
ATOM      7  C   UNL     1       6.370   5.532 -10.386  1.00  0.00     0.075 C 
ATOM      8  O   UNL     1       6.727   4.951 -11.445  1.00  0.00    -0.545 OA
ATOM      9  O   UNL     1       6.400   6.921 -10.336  1.00  0.00    -0.545 OA
ENDBRANCH   1   7
BRANCH   2  10
ATOM     10  O   UNL     1       7.978   3.275  -9.326  1.00  0.00    -0.507 OA
ATOM     11  H   UNL     1       8.666   2.697  -8.862  1.00  0.00     0.293 HD
ENDBRANCH   2  10
TORSDOF 2
ENDMDL
