MODEL 1
REMARK VINA RESULT:    -5.459      0.000      0.000
REMARK INTER + INTRA:          -7.037
REMARK INTER:                  -6.736
REMARK INTRA:                  -0.301
REMARK UNBOUND:                -0.301
REMARK SMILES O=C1c2c(O)cc(O)cc2O[C@H](c2cc(O)c(O)c(O)c2)[C@@H]1O
REMARK SMILES IDX 12 1 22 2 2 3 1 4 3 5 4 6 6 7 7 8 9 9 10 10 11 11 13 12
REMARK SMILES IDX 14 13 15 14 21 15 17 16 19 17 16 18 18 20 20 22 23 24 5 26
REMARK SMILES IDX 8 28
REMARK H PARENT 16 19 18 21 20 23 23 25 5 27 8 29
REMARK Flexibility Score: inf
ROOT
ATOM      1  C   UNL     1     -58.628  24.990 -13.363  1.00  0.00     0.240 C 
ATOM      2  C   UNL     1     -58.638  25.972 -12.170  1.00  0.00     0.231 C 
ATOM      3  C   UNL     1     -59.263  25.313 -10.967  1.00  0.00     0.202 C 
ATOM      4  O   UNL     1     -59.911  26.017 -10.145  1.00  0.00    -0.291 OA
ATOM      5  C   UNL     1     -59.057  23.861 -10.739  1.00  0.00     0.105 A 
ATOM      6  C   UNL     1     -59.422  23.218  -9.535  1.00  0.00     0.133 A 
ATOM      7  C   UNL     1     -59.150  21.852  -9.366  1.00  0.00     0.093 A 
ATOM      8  C   UNL     1     -58.513  21.124 -10.379  1.00  0.00     0.123 A 
ATOM      9  C   UNL     1     -58.155  21.759 -11.571  1.00  0.00     0.093 A 
ATOM     10  C   UNL     1     -58.437  23.114 -11.760  1.00  0.00     0.138 A 
ATOM     11  O   UNL     1     -58.091  23.723 -12.972  1.00  0.00    -0.481 OA
ENDROOT
BRANCH   1  12
ATOM     12  C   UNL     1     -57.867  25.553 -14.542  1.00  0.00     0.003 A 
ATOM     13  C   UNL     1     -58.482  26.434 -15.448  1.00  0.00     0.058 A 
ATOM     14  C   UNL     1     -57.778  26.922 -16.558  1.00  0.00     0.161 A 
ATOM     15  C   UNL     1     -56.544  25.144 -14.778  1.00  0.00     0.058 A 
ATOM     16  C   UNL     1     -56.449  26.519 -16.776  1.00  0.00     0.200 A 
ATOM     17  C   UNL     1     -55.835  25.629 -15.885  1.00  0.00     0.161 A 
BRANCH  14  18
ATOM     18  O   UNL     1     -58.395  27.801 -17.445  1.00  0.00    -0.504 OA
ATOM     19  H   UNL     1     -59.330  27.631 -17.798  1.00  0.00     0.293 HD
ENDBRANCH  14  18
BRANCH  16  20
ATOM     20  O   UNL     1     -55.727  26.993 -17.871  1.00  0.00    -0.502 OA
ATOM     21  H   UNL     1     -54.799  27.389 -17.774  1.00  0.00     0.293 HD
ENDBRANCH  16  20
BRANCH  17  22
ATOM     22  O   UNL     1     -54.520  25.227 -16.109  1.00  0.00    -0.504 OA
ATOM     23  H   UNL     1     -53.749  25.614 -15.578  1.00  0.00     0.293 HD
ENDBRANCH  17  22
ENDBRANCH   1  12
BRANCH   2  24
ATOM     24  O   UNL     1     -57.344  26.424 -11.854  1.00  0.00    -0.381 OA
ATOM     25  H   UNL     1     -56.761  26.253 -12.641  1.00  0.00     0.211 HD
ENDBRANCH   2  24
BRANCH   6  26
ATOM     26  O   UNL     1     -60.041  23.930  -8.508  1.00  0.00    -0.507 OA
ATOM     27  H   UNL     1     -61.046  24.058  -8.480  1.00  0.00     0.293 HD
ENDBRANCH   6  26
BRANCH   8  28
ATOM     28  O   UNL     1     -58.233  19.769 -10.210  1.00  0.00    -0.508 OA
ATOM     29  H   UNL     1     -58.899  19.054 -10.477  1.00  0.00     0.293 HD
ENDBRANCH   8  28
TORSDOF 7
ENDMDL
MODEL 2
REMARK VINA RESULT:    -5.406      0.133      1.754
REMARK INTER + INTRA:          -6.972
REMARK INTER:                  -6.697
REMARK INTRA:                  -0.275
REMARK UNBOUND:                -0.301
REMARK SMILES O=C1c2c(O)cc(O)cc2O[C@H](c2cc(O)c(O)c(O)c2)[C@@H]1O
REMARK SMILES IDX 12 1 22 2 2 3 1 4 3 5 4 6 6 7 7 8 9 9 10 10 11 11 13 12
REMARK SMILES IDX 14 13 15 14 21 15 17 16 19 17 16 18 18 20 20 22 23 24 5 26
REMARK SMILES IDX 8 28
REMARK H PARENT 16 19 18 21 20 23 23 25 5 27 8 29
REMARK Flexibility Score: inf
ROOT
ATOM      1  C   UNL     1     -58.548  24.873 -13.369  1.00  0.00     0.240 C 
ATOM      2  C   UNL     1     -58.510  25.868 -12.187  1.00  0.00     0.231 C 
ATOM      3  C   UNL     1     -59.121  25.234 -10.963  1.00  0.00     0.202 C 
ATOM      4  O   UNL     1     -59.734  25.959 -10.133  1.00  0.00    -0.291 OA
ATOM      5  C   UNL     1     -58.938  23.781 -10.723  1.00  0.00     0.105 A 
ATOM      6  C   UNL     1     -59.287  23.158  -9.504  1.00  0.00     0.133 A 
ATOM      7  C   UNL     1     -59.038  21.789  -9.326  1.00  0.00     0.093 A 
ATOM      8  C   UNL     1     -58.440  21.038 -10.345  1.00  0.00     0.123 A 
ATOM      9  C   UNL     1     -58.098  21.652 -11.552  1.00  0.00     0.093 A 
ATOM     10  C   UNL     1     -58.357  23.010 -11.750  1.00  0.00     0.138 A 
ATOM     11  O   UNL     1     -58.027  23.600 -12.976  1.00  0.00    -0.481 OA
ENDROOT
BRANCH   1  12
ATOM     12  C   UNL     1     -57.804  25.408 -14.571  1.00  0.00     0.003 A 
ATOM     13  C   UNL     1     -56.467  25.048 -14.816  1.00  0.00     0.058 A 
ATOM     14  C   UNL     1     -55.776  25.577 -15.914  1.00  0.00     0.161 A 
ATOM     15  C   UNL     1     -58.431  26.327 -15.428  1.00  0.00     0.058 A 
ATOM     16  C   UNL     1     -56.418  26.484 -16.774  1.00  0.00     0.200 A 
ATOM     17  C   UNL     1     -57.745  26.859 -16.528  1.00  0.00     0.161 A 
BRANCH  14  18
ATOM     18  O   UNL     1     -54.453  25.208 -16.151  1.00  0.00    -0.504 OA
ATOM     19  H   UNL     1     -53.701  25.886 -16.135  1.00  0.00     0.293 HD
ENDBRANCH  14  18
BRANCH  16  20
ATOM     20  O   UNL     1     -55.752  27.023 -17.876  1.00  0.00    -0.502 OA
ATOM     21  H   UNL     1     -55.745  28.018 -18.067  1.00  0.00     0.293 HD
ENDBRANCH  16  20
BRANCH  17  22
ATOM     22  O   UNL     1     -58.376  27.764 -17.379  1.00  0.00    -0.504 OA
ATOM     23  H   UNL     1     -58.978  27.453 -18.132  1.00  0.00     0.293 HD
ENDBRANCH  17  22
ENDBRANCH   1  12
BRANCH   2  24
ATOM     24  O   UNL     1     -57.201  26.297 -11.906  1.00  0.00    -0.381 OA
ATOM     25  H   UNL     1     -56.936  26.948 -12.609  1.00  0.00     0.211 HD
ENDBRANCH   2  24
BRANCH   6  26
ATOM     26  O   UNL     1     -59.868  23.893  -8.470  1.00  0.00    -0.507 OA
ATOM     27  H   UNL     1     -60.838  23.768  -8.209  1.00  0.00     0.293 HD
ENDBRANCH   6  26
BRANCH   8  28
ATOM     28  O   UNL     1     -58.183  19.679 -10.168  1.00  0.00    -0.508 OA
ATOM     29  H   UNL     1     -58.664  18.974 -10.713  1.00  0.00     0.293 HD
ENDBRANCH   8  28
TORSDOF 7
ENDMDL
MODEL 3
REMARK VINA RESULT:    -5.362      2.194      2.951
REMARK INTER + INTRA:          -6.916
REMARK INTER:                  -6.549
REMARK INTRA:                  -0.367
REMARK UNBOUND:                -0.301
REMARK SMILES O=C1c2c(O)cc(O)cc2O[C@H](c2cc(O)c(O)c(O)c2)[C@@H]1O
REMARK SMILES IDX 12 1 22 2 2 3 1 4 3 5 4 6 6 7 7 8 9 9 10 10 11 11 13 12
REMARK SMILES IDX 14 13 15 14 21 15 17 16 19 17 16 18 18 20 20 22 23 24 5 26
REMARK SMILES IDX 8 28
REMARK H PARENT 16 19 18 21 20 23 23 25 5 27 8 29
REMARK Flexibility Score: inf
ROOT
ATOM      1  C   UNL     1     -60.127  26.490 -13.545  1.00  0.00     0.240 C 
ATOM      2  C   UNL     1     -60.701  27.831 -13.035  1.00  0.00     0.231 C 
ATOM      3  C   UNL     1     -61.650  27.582 -11.890  1.00  0.00     0.202 C 
ATOM      4  O   UNL     1     -62.637  28.350 -11.728  1.00  0.00    -0.291 OA
ATOM      5  C   UNL     1     -61.374  26.477 -10.938  1.00  0.00     0.105 A 
ATOM      6  C   UNL     1     -62.084  26.316  -9.728  1.00  0.00     0.133 A 
ATOM      7  C   UNL     1     -61.736  25.279  -8.850  1.00  0.00     0.093 A 
ATOM      8  C   UNL     1     -60.684  24.408  -9.160  1.00  0.00     0.123 A 
ATOM      9  C   UNL     1     -59.982  24.565 -10.358  1.00  0.00     0.093 A 
ATOM     10  C   UNL     1     -60.331  25.581 -11.251  1.00  0.00     0.138 A 
ATOM     11  O   UNL     1     -59.630  25.705 -12.457  1.00  0.00    -0.481 OA
ENDROOT
BRANCH   1  12
ATOM     12  C   UNL     1     -59.052  26.703 -14.586  1.00  0.00     0.003 A 
ATOM     13  C   UNL     1     -59.319  27.416 -15.767  1.00  0.00     0.058 A 
ATOM     14  C   UNL     1     -58.324  27.577 -16.742  1.00  0.00     0.161 A 
ATOM     15  C   UNL     1     -57.783  26.129 -14.405  1.00  0.00     0.058 A 
ATOM     16  C   UNL     1     -57.052  27.013 -16.545  1.00  0.00     0.200 A 
ATOM     17  C   UNL     1     -56.785  26.288 -15.376  1.00  0.00     0.161 A 
BRANCH  14  18
ATOM     18  O   UNL     1     -58.597  28.292 -17.907  1.00  0.00    -0.504 OA
ATOM     19  H   UNL     1     -58.012  29.064 -18.206  1.00  0.00     0.293 HD
ENDBRANCH  14  18
BRANCH  16  20
ATOM     20  O   UNL     1     -56.045  27.162 -17.499  1.00  0.00    -0.502 OA
ATOM     21  H   UNL     1     -55.217  27.720 -17.325  1.00  0.00     0.293 HD
ENDBRANCH  16  20
BRANCH  17  22
ATOM     22  O   UNL     1     -55.524  25.724 -15.187  1.00  0.00    -0.504 OA
ATOM     23  H   UNL     1     -54.747  26.269 -14.835  1.00  0.00     0.293 HD
ENDBRANCH  17  22
ENDBRANCH   1  12
BRANCH   2  24
ATOM     24  O   UNL     1     -59.684  28.716 -12.635  1.00  0.00    -0.381 OA
ATOM     25  H   UNL     1     -59.032  28.788 -13.382  1.00  0.00     0.211 HD
ENDBRANCH   2  24
BRANCH   6  26
ATOM     26  O   UNL     1     -63.124  27.184  -9.393  1.00  0.00    -0.507 OA
ATOM     27  H   UNL     1     -62.953  28.159  -9.176  1.00  0.00     0.293 HD
ENDBRANCH   6  26
BRANCH   8  28
ATOM     28  O   UNL     1     -60.329  23.383  -8.285  1.00  0.00    -0.508 OA
ATOM     29  H   UNL     1     -60.119  22.451  -8.620  1.00  0.00     0.293 HD
ENDBRANCH   8  28
TORSDOF 7
ENDMDL
MODEL 4
REMARK VINA RESULT:    -5.330      2.275      3.532
REMARK INTER + INTRA:          -6.877
REMARK INTER:                  -6.519
REMARK INTRA:                  -0.358
REMARK UNBOUND:                -0.301
REMARK SMILES O=C1c2c(O)cc(O)cc2O[C@H](c2cc(O)c(O)c(O)c2)[C@@H]1O
REMARK SMILES IDX 12 1 22 2 2 3 1 4 3 5 4 6 6 7 7 8 9 9 10 10 11 11 13 12
REMARK SMILES IDX 14 13 15 14 21 15 17 16 19 17 16 18 18 20 20 22 23 24 5 26
REMARK SMILES IDX 8 28
REMARK H PARENT 16 19 18 21 20 23 23 25 5 27 8 29
REMARK Flexibility Score: inf
ROOT
ATOM      1  C   UNL     1     -60.197  26.560 -13.549  1.00  0.00     0.240 C 
ATOM      2  C   UNL     1     -60.652  27.952 -13.055  1.00  0.00     0.231 C 
ATOM      3  C   UNL     1     -61.619  27.800 -11.909  1.00  0.00     0.202 C 
ATOM      4  O   UNL     1     -62.536  28.653 -11.758  1.00  0.00    -0.291 OA
ATOM      5  C   UNL     1     -61.441  26.686 -10.944  1.00  0.00     0.105 A 
ATOM      6  C   UNL     1     -62.164  26.602  -9.734  1.00  0.00     0.133 A 
ATOM      7  C   UNL     1     -61.908  25.549  -8.843  1.00  0.00     0.093 A 
ATOM      8  C   UNL     1     -60.936  24.586  -9.141  1.00  0.00     0.123 A 
ATOM      9  C   UNL     1     -60.223  24.667 -10.340  1.00  0.00     0.093 A 
ATOM     10  C   UNL     1     -60.481  25.700 -11.245  1.00  0.00     0.138 A 
ATOM     11  O   UNL     1     -59.771  25.747 -12.451  1.00  0.00    -0.481 OA
ENDROOT
BRANCH   1  12
ATOM     12  C   UNL     1     -59.106  26.666 -14.590  1.00  0.00     0.003 A 
ATOM     13  C   UNL     1     -57.842  26.092 -14.376  1.00  0.00     0.058 A 
ATOM     14  C   UNL     1     -56.826  26.227 -15.333  1.00  0.00     0.161 A 
ATOM     15  C   UNL     1     -59.333  27.402 -15.765  1.00  0.00     0.058 A 
ATOM     16  C   UNL     1     -57.068  26.951 -16.513  1.00  0.00     0.200 A 
ATOM     17  C   UNL     1     -58.322  27.539 -16.725  1.00  0.00     0.161 A 
BRANCH  14  18
ATOM     18  O   UNL     1     -55.578  25.647 -15.115  1.00  0.00    -0.504 OA
ATOM     19  H   UNL     1     -55.273  25.376 -14.187  1.00  0.00     0.293 HD
ENDBRANCH  14  18
BRANCH  16  20
ATOM     20  O   UNL     1     -56.075  27.097 -17.482  1.00  0.00    -0.502 OA
ATOM     21  H   UNL     1     -55.104  27.254 -17.238  1.00  0.00     0.293 HD
ENDBRANCH  16  20
BRANCH  17  22
ATOM     22  O   UNL     1     -58.555  28.263 -17.893  1.00  0.00    -0.504 OA
ATOM     23  H   UNL     1     -58.333  29.249 -17.960  1.00  0.00     0.293 HD
ENDBRANCH  17  22
ENDBRANCH   1  12
BRANCH   2  24
ATOM     24  O   UNL     1     -59.561  28.750 -12.664  1.00  0.00    -0.381 OA
ATOM     25  H   UNL     1     -58.766  28.453 -13.181  1.00  0.00     0.211 HD
ENDBRANCH   2  24
BRANCH   6  26
ATOM     26  O   UNL     1     -63.124  27.561  -9.410  1.00  0.00    -0.507 OA
ATOM     27  H   UNL     1     -63.564  27.586  -8.498  1.00  0.00     0.293 HD
ENDBRANCH   6  26
BRANCH   8  28
ATOM     28  O   UNL     1     -60.673  23.545  -8.254  1.00  0.00    -0.508 OA
ATOM     29  H   UNL     1     -61.099  22.633  -8.366  1.00  0.00     0.293 HD
ENDBRANCH   8  28
TORSDOF 7
ENDMDL
MODEL 5
REMARK VINA RESULT:    -5.250      1.914      3.711
REMARK INTER + INTRA:          -6.779
REMARK INTER:                  -6.569
REMARK INTRA:                  -0.210
REMARK UNBOUND:                -0.301
REMARK SMILES O=C1c2c(O)cc(O)cc2O[C@H](c2cc(O)c(O)c(O)c2)[C@@H]1O
REMARK SMILES IDX 12 1 22 2 2 3 1 4 3 5 4 6 6 7 7 8 9 9 10 10 11 11 13 12
REMARK SMILES IDX 14 13 15 14 21 15 17 16 19 17 16 18 18 20 20 22 23 24 5 26
REMARK SMILES IDX 8 28
REMARK H PARENT 16 19 18 21 20 23 23 25 5 27 8 29
REMARK Flexibility Score: inf
ROOT
ATOM      1  C   UNL     1     -56.463  24.233 -13.576  1.00  0.00     0.240 C 
ATOM      2  C   UNL     1     -55.680  23.055 -14.200  1.00  0.00     0.231 C 
ATOM      3  C   UNL     1     -55.356  22.035 -13.138  1.00  0.00     0.202 C 
ATOM      4  O   UNL     1     -54.290  21.366 -13.230  1.00  0.00    -0.291 OA
ATOM      5  C   UNL     1     -56.322  21.791 -12.038  1.00  0.00     0.105 A 
ATOM      6  C   UNL     1     -56.196  20.711 -11.137  1.00  0.00     0.133 A 
ATOM      7  C   UNL     1     -57.175  20.509 -10.152  1.00  0.00     0.093 A 
ATOM      8  C   UNL     1     -58.279  21.365 -10.062  1.00  0.00     0.123 A 
ATOM      9  C   UNL     1     -58.402  22.436 -10.951  1.00  0.00     0.093 A 
ATOM     10  C   UNL     1     -57.425  22.660 -11.924  1.00  0.00     0.138 A 
ATOM     11  O   UNL     1     -57.558  23.753 -12.789  1.00  0.00    -0.481 OA
ENDROOT
BRANCH   1  12
ATOM     12  C   UNL     1     -56.947  25.201 -14.631  1.00  0.00     0.003 A 
ATOM     13  C   UNL     1     -56.129  25.560 -15.716  1.00  0.00     0.058 A 
ATOM     14  C   UNL     1     -56.574  26.487 -16.669  1.00  0.00     0.161 A 
ATOM     15  C   UNL     1     -58.208  25.805 -14.498  1.00  0.00     0.058 A 
ATOM     16  C   UNL     1     -57.844  27.072 -16.536  1.00  0.00     0.200 A 
ATOM     17  C   UNL     1     -58.659  26.730 -15.448  1.00  0.00     0.161 A 
BRANCH  14  18
ATOM     18  O   UNL     1     -55.757  26.829 -17.745  1.00  0.00    -0.504 OA
ATOM     19  H   UNL     1     -54.750  26.720 -17.704  1.00  0.00     0.293 HD
ENDBRANCH  14  18
BRANCH  16  20
ATOM     20  O   UNL     1     -58.311  27.995 -17.473  1.00  0.00    -0.502 OA
ATOM     21  H   UNL     1     -58.827  27.711 -18.297  1.00  0.00     0.293 HD
ENDBRANCH  16  20
BRANCH  17  22
ATOM     22  O   UNL     1     -59.915  27.319 -15.316  1.00  0.00    -0.504 OA
ATOM     23  H   UNL     1     -60.698  26.815 -14.918  1.00  0.00     0.293 HD
ENDBRANCH  17  22
ENDBRANCH   1  12
BRANCH   2  24
ATOM     24  O   UNL     1     -56.394  22.450 -15.249  1.00  0.00    -0.381 OA
ATOM     25  H   UNL     1     -55.735  22.116 -15.913  1.00  0.00     0.211 HD
ENDBRANCH   2  24
BRANCH   6  26
ATOM     26  O   UNL     1     -55.113  19.836 -11.222  1.00  0.00    -0.507 OA
ATOM     27  H   UNL     1     -55.069  19.111 -11.929  1.00  0.00     0.293 HD
ENDBRANCH   6  26
BRANCH   8  28
ATOM     28  O   UNL     1     -59.258  21.162  -9.091  1.00  0.00    -0.508 OA
ATOM     29  H   UNL     1     -60.187  20.842  -9.336  1.00  0.00     0.293 HD
ENDBRANCH   8  28
TORSDOF 7
ENDMDL
MODEL 6
REMARK VINA RESULT:    -5.149      1.461      2.872
REMARK INTER + INTRA:          -6.654
REMARK INTER:                  -6.277
REMARK INTRA:                  -0.377
REMARK UNBOUND:                -0.301
REMARK SMILES O=C1c2c(O)cc(O)cc2O[C@H](c2cc(O)c(O)c(O)c2)[C@@H]1O
REMARK SMILES IDX 12 1 22 2 2 3 1 4 3 5 4 6 6 7 7 8 9 9 10 10 11 11 13 12
REMARK SMILES IDX 14 13 15 14 21 15 17 16 19 17 16 18 18 20 20 22 23 24 5 26
REMARK SMILES IDX 8 28
REMARK H PARENT 16 19 18 21 20 23 23 25 5 27 8 29
REMARK Flexibility Score: inf
ROOT
ATOM      1  C   UNL     1     -57.710  24.949 -12.561  1.00  0.00     0.240 C 
ATOM      2  C   UNL     1     -57.536  23.437 -12.293  1.00  0.00     0.231 C 
ATOM      3  C   UNL     1     -58.144  23.078 -10.961  1.00  0.00     0.202 C 
ATOM      4  O   UNL     1     -57.633  22.147 -10.281  1.00  0.00    -0.291 OA
ATOM      5  C   UNL     1     -59.367  23.782 -10.501  1.00  0.00     0.105 A 
ATOM      6  C   UNL     1     -60.115  23.359  -9.381  1.00  0.00     0.133 A 
ATOM      7  C   UNL     1     -61.291  24.041  -9.032  1.00  0.00     0.093 A 
ATOM      8  C   UNL     1     -61.731  25.132  -9.792  1.00  0.00     0.123 A 
ATOM      9  C   UNL     1     -60.989  25.553 -10.898  1.00  0.00     0.093 A 
ATOM     10  C   UNL     1     -59.807  24.895 -11.245  1.00  0.00     0.138 A 
ATOM     11  O   UNL     1     -59.067  25.349 -12.344  1.00  0.00    -0.481 OA
ENDROOT
BRANCH   1  12
ATOM     12  C   UNL     1     -57.258  25.325 -13.953  1.00  0.00     0.003 A 
ATOM     13  C   UNL     1     -58.181  25.748 -14.925  1.00  0.00     0.058 A 
ATOM     14  C   UNL     1     -57.755  26.060 -16.224  1.00  0.00     0.161 A 
ATOM     15  C   UNL     1     -55.905  25.193 -14.307  1.00  0.00     0.058 A 
ATOM     16  C   UNL     1     -56.396  25.940 -16.563  1.00  0.00     0.200 A 
ATOM     17  C   UNL     1     -55.474  25.505 -15.603  1.00  0.00     0.161 A 
BRANCH  14  18
ATOM     18  O   UNL     1     -58.677  26.485 -17.179  1.00  0.00    -0.504 OA
ATOM     19  H   UNL     1     -59.406  25.871 -17.524  1.00  0.00     0.293 HD
ENDBRANCH  14  18
BRANCH  16  20
ATOM     20  O   UNL     1     -55.947  26.248 -17.848  1.00  0.00    -0.502 OA
ATOM     21  H   UNL     1     -55.002  26.565 -18.027  1.00  0.00     0.293 HD
ENDBRANCH  16  20
BRANCH  17  22
ATOM     22  O   UNL     1     -54.128  25.381 -15.945  1.00  0.00    -0.504 OA
ATOM     23  H   UNL     1     -53.837  25.229 -16.903  1.00  0.00     0.293 HD
ENDBRANCH  17  22
ENDBRANCH   1  12
BRANCH   2  24
ATOM     24  O   UNL     1     -58.111  22.657 -13.313  1.00  0.00    -0.381 OA
ATOM     25  H   UNL     1     -58.667  23.256 -13.877  1.00  0.00     0.211 HD
ENDBRANCH   2  24
BRANCH   6  26
ATOM     26  O   UNL     1     -59.703  22.264  -8.622  1.00  0.00    -0.507 OA
ATOM     27  H   UNL     1     -59.978  21.318  -8.860  1.00  0.00     0.293 HD
ENDBRANCH   6  26
BRANCH   8  28
ATOM     28  O   UNL     1     -62.903  25.806  -9.454  1.00  0.00    -0.508 OA
ATOM     29  H   UNL     1     -63.679  25.328  -9.011  1.00  0.00     0.293 HD
ENDBRANCH   8  28
TORSDOF 7
ENDMDL
MODEL 7
REMARK VINA RESULT:    -5.128      1.463      3.358
REMARK INTER + INTRA:          -6.629
REMARK INTER:                  -6.235
REMARK INTRA:                  -0.393
REMARK UNBOUND:                -0.301
REMARK SMILES O=C1c2c(O)cc(O)cc2O[C@H](c2cc(O)c(O)c(O)c2)[C@@H]1O
REMARK SMILES IDX 12 1 22 2 2 3 1 4 3 5 4 6 6 7 7 8 9 9 10 10 11 11 13 12
REMARK SMILES IDX 14 13 15 14 21 15 17 16 19 17 16 18 18 20 20 22 23 24 5 26
REMARK SMILES IDX 8 28
REMARK H PARENT 16 19 18 21 20 23 23 25 5 27 8 29
REMARK Flexibility Score: inf
ROOT
ATOM      1  C   UNL     1     -57.709  24.942 -12.596  1.00  0.00     0.240 C 
ATOM      2  C   UNL     1     -57.549  23.441 -12.264  1.00  0.00     0.231 C 
ATOM      3  C   UNL     1     -58.174  23.142 -10.924  1.00  0.00     0.202 C 
ATOM      4  O   UNL     1     -57.677  22.236 -10.201  1.00  0.00    -0.291 OA
ATOM      5  C   UNL     1     -59.396  23.873 -10.507  1.00  0.00     0.105 A 
ATOM      6  C   UNL     1     -60.159  23.503  -9.378  1.00  0.00     0.133 A 
ATOM      7  C   UNL     1     -61.333  24.207  -9.071  1.00  0.00     0.093 A 
ATOM      8  C   UNL     1     -61.757  25.268  -9.880  1.00  0.00     0.123 A 
ATOM      9  C   UNL     1     -61.001  25.638 -10.995  1.00  0.00     0.093 A 
ATOM     10  C   UNL     1     -59.819  24.958 -11.301  1.00  0.00     0.138 A 
ATOM     11  O   UNL     1     -59.065  25.360 -12.410  1.00  0.00    -0.481 OA
ENDROOT
BRANCH   1  12
ATOM     12  C   UNL     1     -57.240  25.256 -13.997  1.00  0.00     0.003 A 
ATOM     13  C   UNL     1     -55.882  25.153 -14.347  1.00  0.00     0.058 A 
ATOM     14  C   UNL     1     -55.453  25.482 -15.641  1.00  0.00     0.161 A 
ATOM     15  C   UNL     1     -58.158  25.719 -14.954  1.00  0.00     0.058 A 
ATOM     16  C   UNL     1     -56.383  25.928 -16.595  1.00  0.00     0.200 A 
ATOM     17  C   UNL     1     -57.735  26.047 -16.248  1.00  0.00     0.161 A 
BRANCH  14  18
ATOM     18  O   UNL     1     -54.106  25.369 -15.979  1.00  0.00    -0.504 OA
ATOM     19  H   UNL     1     -53.388  25.885 -15.483  1.00  0.00     0.293 HD
ENDBRANCH  14  18
BRANCH  16  20
ATOM     20  O   UNL     1     -55.980  26.258 -17.889  1.00  0.00    -0.502 OA
ATOM     21  H   UNL     1     -55.662  25.558 -18.550  1.00  0.00     0.293 HD
ENDBRANCH  16  20
BRANCH  17  22
ATOM     22  O   UNL     1     -58.653  26.497 -17.196  1.00  0.00    -0.504 OA
ATOM     23  H   UNL     1     -58.797  26.006 -18.070  1.00  0.00     0.293 HD
ENDBRANCH  17  22
ENDBRANCH   1  12
BRANCH   2  24
ATOM     24  O   UNL     1     -58.119  22.623 -13.255  1.00  0.00    -0.381 OA
ATOM     25  H   UNL     1     -58.208  23.165 -14.083  1.00  0.00     0.211 HD
ENDBRANCH   2  24
BRANCH   6  26
ATOM     26  O   UNL     1     -59.763  22.437  -8.570  1.00  0.00    -0.507 OA
ATOM     27  H   UNL     1     -59.849  21.475  -8.878  1.00  0.00     0.293 HD
ENDBRANCH   6  26
BRANCH   8  28
ATOM     28  O   UNL     1     -62.928  25.964  -9.583  1.00  0.00    -0.508 OA
ATOM     29  H   UNL     1     -63.780  25.814 -10.109  1.00  0.00     0.293 HD
ENDBRANCH   8  28
TORSDOF 7
ENDMDL
MODEL 8
REMARK VINA RESULT:    -4.783      1.242      7.320
REMARK INTER + INTRA:          -6.203
REMARK INTER:                  -5.814
REMARK INTRA:                  -0.389
REMARK UNBOUND:                -0.301
REMARK SMILES O=C1c2c(O)cc(O)cc2O[C@H](c2cc(O)c(O)c(O)c2)[C@@H]1O
REMARK SMILES IDX 12 1 22 2 2 3 1 4 3 5 4 6 6 7 7 8 9 9 10 10 11 11 13 12
REMARK SMILES IDX 14 13 15 14 21 15 17 16 19 17 16 18 18 20 20 22 23 24 5 26
REMARK SMILES IDX 8 28
REMARK H PARENT 16 19 18 21 20 23 23 25 5 27 8 29
REMARK Flexibility Score: inf
ROOT
ATOM      1  C   UNL     1     -58.120  24.117 -12.889  1.00  0.00     0.240 C 
ATOM      2  C   UNL     1     -56.581  24.126 -12.745  1.00  0.00     0.231 C 
ATOM      3  C   UNL     1     -55.942  24.402 -14.082  1.00  0.00     0.202 C 
ATOM      4  O   UNL     1     -54.822  23.885 -14.348  1.00  0.00    -0.291 OA
ATOM      5  C   UNL     1     -56.608  25.322 -15.036  1.00  0.00     0.105 A 
ATOM      6  C   UNL     1     -55.975  25.799 -16.205  1.00  0.00     0.133 A 
ATOM      7  C   UNL     1     -56.645  26.709 -17.037  1.00  0.00     0.093 A 
ATOM      8  C   UNL     1     -57.933  27.154 -16.711  1.00  0.00     0.123 A 
ATOM      9  C   UNL     1     -58.560  26.680 -15.556  1.00  0.00     0.093 A 
ATOM     10  C   UNL     1     -57.913  25.759 -14.730  1.00  0.00     0.138 A 
ATOM     11  O   UNL     1     -58.570  25.280 -13.590  1.00  0.00    -0.481 OA
ENDROOT
BRANCH   1  12
ATOM     12  C   UNL     1     -58.805  24.003 -11.547  1.00  0.00     0.003 A 
ATOM     13  C   UNL     1     -58.637  22.863 -10.742  1.00  0.00     0.058 A 
ATOM     14  C   UNL     1     -59.306  22.752  -9.515  1.00  0.00     0.161 A 
ATOM     15  C   UNL     1     -59.675  25.019 -11.119  1.00  0.00     0.058 A 
ATOM     16  C   UNL     1     -60.162  23.782  -9.088  1.00  0.00     0.200 A 
ATOM     17  C   UNL     1     -60.345  24.914  -9.893  1.00  0.00     0.161 A 
BRANCH  14  18
ATOM     18  O   UNL     1     -59.126  21.621  -8.721  1.00  0.00    -0.504 OA
ATOM     19  H   UNL     1     -59.321  21.633  -7.726  1.00  0.00     0.293 HD
ENDBRANCH  14  18
BRANCH  16  20
ATOM     20  O   UNL     1     -60.836  23.696  -7.870  1.00  0.00    -0.502 OA
ATOM     21  H   UNL     1     -60.787  24.431  -7.174  1.00  0.00     0.293 HD
ENDBRANCH  16  20
BRANCH  17  22
ATOM     22  O   UNL     1     -61.201  25.930  -9.469  1.00  0.00    -0.504 OA
ATOM     23  H   UNL     1     -62.105  26.076  -9.902  1.00  0.00     0.293 HD
ENDBRANCH  17  22
ENDBRANCH   1  12
BRANCH   2  24
ATOM     24  O   UNL     1     -56.151  25.074 -11.799  1.00  0.00    -0.381 OA
ATOM     25  H   UNL     1     -55.189  25.259 -11.970  1.00  0.00     0.211 HD
ENDBRANCH   2  24
BRANCH   6  26
ATOM     26  O   UNL     1     -54.687  25.382 -16.538  1.00  0.00    -0.507 OA
ATOM     27  H   UNL     1     -54.074  25.952 -17.108  1.00  0.00     0.293 HD
ENDBRANCH   6  26
BRANCH   8  28
ATOM     28  O   UNL     1     -58.597  28.065 -17.530  1.00  0.00    -0.508 OA
ATOM     29  H   UNL     1     -59.608  28.088 -17.585  1.00  0.00     0.293 HD
ENDBRANCH   8  28
TORSDOF 7
ENDMDL
MODEL 9
REMARK VINA RESULT:    -4.744      3.198      6.768
REMARK INTER + INTRA:          -6.154
REMARK INTER:                  -5.761
REMARK INTRA:                  -0.393
REMARK UNBOUND:                -0.301
REMARK SMILES O=C1c2c(O)cc(O)cc2O[C@H](c2cc(O)c(O)c(O)c2)[C@@H]1O
REMARK SMILES IDX 12 1 22 2 2 3 1 4 3 5 4 6 6 7 7 8 9 9 10 10 11 11 13 12
REMARK SMILES IDX 14 13 15 14 21 15 17 16 19 17 16 18 18 20 20 22 23 24 5 26
REMARK SMILES IDX 8 28
REMARK H PARENT 16 19 18 21 20 23 23 25 5 27 8 29
REMARK Flexibility Score: inf
ROOT
ATOM      1  C   UNL     1     -55.700  23.895 -14.754  1.00  0.00     0.240 C 
ATOM      2  C   UNL     1     -54.965  24.928 -15.638  1.00  0.00     0.231 C 
ATOM      3  C   UNL     1     -55.967  25.749 -16.410  1.00  0.00     0.202 C 
ATOM      4  O   UNL     1     -55.661  26.176 -17.557  1.00  0.00    -0.291 OA
ATOM      5  C   UNL     1     -57.269  26.091 -15.786  1.00  0.00     0.105 A 
ATOM      6  C   UNL     1     -58.163  27.028 -16.350  1.00  0.00     0.133 A 
ATOM      7  C   UNL     1     -59.354  27.344 -15.679  1.00  0.00     0.093 A 
ATOM      8  C   UNL     1     -59.659  26.742 -14.452  1.00  0.00     0.123 A 
ATOM      9  C   UNL     1     -58.776  25.813 -13.895  1.00  0.00     0.093 A 
ATOM     10  C   UNL     1     -57.596  25.476 -14.561  1.00  0.00     0.138 A 
ATOM     11  O   UNL     1     -56.738  24.524 -13.996  1.00  0.00    -0.481 OA
ENDROOT
BRANCH   1  12
ATOM     12  C   UNL     1     -54.744  23.159 -13.844  1.00  0.00     0.003 A 
ATOM     13  C   UNL     1     -53.784  22.275 -14.365  1.00  0.00     0.058 A 
ATOM     14  C   UNL     1     -52.926  21.570 -13.509  1.00  0.00     0.161 A 
ATOM     15  C   UNL     1     -54.852  23.308 -12.452  1.00  0.00     0.058 A 
ATOM     16  C   UNL     1     -53.031  21.738 -12.118  1.00  0.00     0.200 A 
ATOM     17  C   UNL     1     -53.996  22.607 -11.592  1.00  0.00     0.161 A 
BRANCH  14  18
ATOM     18  O   UNL     1     -51.972  20.701 -14.036  1.00  0.00    -0.504 OA
ATOM     19  H   UNL     1     -51.433  20.940 -14.860  1.00  0.00     0.293 HD
ENDBRANCH  14  18
BRANCH  16  20
ATOM     20  O   UNL     1     -52.187  21.050 -11.246  1.00  0.00    -0.502 OA
ATOM     21  H   UNL     1     -51.706  20.201 -11.520  1.00  0.00     0.293 HD
ENDBRANCH  16  20
BRANCH  17  22
ATOM     22  O   UNL     1     -54.102  22.765 -10.211  1.00  0.00    -0.504 OA
ATOM     23  H   UNL     1     -53.292  22.700  -9.607  1.00  0.00     0.293 HD
ENDBRANCH  17  22
ENDBRANCH   1  12
BRANCH   2  24
ATOM     24  O   UNL     1     -54.135  25.771 -14.877  1.00  0.00    -0.381 OA
ATOM     25  H   UNL     1     -53.825  26.507 -15.468  1.00  0.00     0.211 HD
ENDBRANCH   2  24
BRANCH   6  26
ATOM     26  O   UNL     1     -57.869  27.651 -17.563  1.00  0.00    -0.507 OA
ATOM     27  H   UNL     1     -57.750  28.655 -17.630  1.00  0.00     0.293 HD
ENDBRANCH   6  26
BRANCH   8  28
ATOM     28  O   UNL     1     -60.837  27.061 -13.778  1.00  0.00    -0.508 OA
ATOM     29  H   UNL     1     -60.890  27.042 -12.767  1.00  0.00     0.293 HD
ENDBRANCH   8  28
TORSDOF 7
ENDMDL
