MODEL 1
REMARK VINA RESULT:    -3.571      0.000      0.000
REMARK INTER + INTRA:          -3.675
REMARK INTER:                  -3.675
REMARK INTRA:                   0.000
REMARK UNBOUND:                 0.000
REMARK SMILES Cc1cccc(O)c1C
REMARK SMILES IDX 1 1 2 2 8 3 6 4 5 5 4 6 3 7 9 8 7 9
REMARK H PARENT 7 10
REMARK Flexibility Score: inf
ROOT
ATOM      1  C   UNL     1      -5.383   6.915  -3.759  1.00  0.00     0.045 C 
ATOM      2  C   UNL     1      -6.757   7.471  -3.484  1.00  0.00    -0.045 A 
ATOM      3  C   UNL     1      -7.929   6.913  -4.069  1.00  0.00    -0.006 A 
ATOM      4  C   UNL     1      -9.189   7.487  -3.766  1.00  0.00     0.118 A 
ATOM      5  C   UNL     1      -9.270   8.585  -2.904  1.00  0.00     0.046 A 
ATOM      6  C   UNL     1      -8.120   9.125  -2.336  1.00  0.00     0.004 A 
ATOM      7  C   UNL     1      -6.874   8.575  -2.622  1.00  0.00     0.004 A 
ATOM      8  C   UNL     1      -7.864   5.726  -5.004  1.00  0.00     0.048 C 
ENDROOT
BRANCH   4   9
ATOM      9  O   UNL     1     -10.381   6.993  -4.303  1.00  0.00    -0.508 OA
ATOM     10  H   UNL     1     -10.458   6.620  -5.240  1.00  0.00     0.293 HD
ENDBRANCH   4   9
TORSDOF 1
ENDMDL
MODEL 2
REMARK VINA RESULT:    -3.525      2.401      3.843
REMARK INTER + INTRA:          -3.628
REMARK INTER:                  -3.628
REMARK INTRA:                   0.000
REMARK UNBOUND:                 0.000
REMARK SMILES Cc1cccc(O)c1C
REMARK SMILES IDX 1 1 2 2 8 3 6 4 5 5 4 6 3 7 9 8 7 9
REMARK H PARENT 7 10
REMARK Flexibility Score: inf
ROOT
ATOM      1  C   UNL     1      -7.378   8.237  -3.525  1.00  0.00     0.045 C 
ATOM      2  C   UNL     1      -6.229   7.262  -3.565  1.00  0.00    -0.045 A 
ATOM      3  C   UNL     1      -6.353   5.971  -4.153  1.00  0.00    -0.006 A 
ATOM      4  C   UNL     1      -5.230   5.106  -4.154  1.00  0.00     0.118 A 
ATOM      5  C   UNL     1      -4.023   5.522  -3.585  1.00  0.00     0.046 A 
ATOM      6  C   UNL     1      -3.909   6.786  -3.013  1.00  0.00     0.004 A 
ATOM      7  C   UNL     1      -5.001   7.650  -3.001  1.00  0.00     0.004 A 
ATOM      8  C   UNL     1      -7.649   5.501  -4.774  1.00  0.00     0.048 C 
ENDROOT
BRANCH   4   9
ATOM      9  O   UNL     1      -5.278   3.826  -4.713  1.00  0.00    -0.508 OA
ATOM     10  H   UNL     1      -5.622   3.636  -5.645  1.00  0.00     0.293 HD
ENDBRANCH   4   9
TORSDOF 1
ENDMDL
MODEL 3
REMARK VINA RESULT:    -3.501      0.957      2.585
REMARK INTER + INTRA:          -3.604
REMARK INTER:                  -3.604
REMARK INTRA:                   0.000
REMARK UNBOUND:                 0.000
REMARK SMILES Cc1cccc(O)c1C
REMARK SMILES IDX 1 1 2 2 8 3 6 4 5 5 4 6 3 7 9 8 7 9
REMARK H PARENT 7 10
REMARK Flexibility Score: inf
ROOT
ATOM      1  C   UNL     1      -5.147   7.257  -3.365  1.00  0.00     0.045 C 
ATOM      2  C   UNL     1      -6.585   7.001  -3.741  1.00  0.00    -0.045 A 
ATOM      3  C   UNL     1      -7.635   7.880  -3.353  1.00  0.00    -0.006 A 
ATOM      4  C   UNL     1      -8.964   7.577  -3.743  1.00  0.00     0.118 A 
ATOM      5  C   UNL     1      -9.230   6.430  -4.498  1.00  0.00     0.046 A 
ATOM      6  C   UNL     1      -8.197   5.576  -4.873  1.00  0.00     0.004 A 
ATOM      7  C   UNL     1      -6.885   5.856  -4.500  1.00  0.00     0.004 A 
ATOM      8  C   UNL     1      -7.371   9.125  -2.537  1.00  0.00     0.048 C 
ENDROOT
BRANCH   4   9
ATOM      9  O   UNL     1     -10.045   8.392  -3.398  1.00  0.00    -0.508 OA
ATOM     10  H   UNL     1      -9.946   9.278  -2.921  1.00  0.00     0.293 HD
ENDBRANCH   4   9
TORSDOF 1
ENDMDL
MODEL 4
REMARK VINA RESULT:    -3.463      2.482      3.701
REMARK INTER + INTRA:          -3.564
REMARK INTER:                  -3.564
REMARK INTRA:                   0.000
REMARK UNBOUND:                 0.000
REMARK SMILES Cc1cccc(O)c1C
REMARK SMILES IDX 1 1 2 2 8 3 6 4 5 5 4 6 3 7 9 8 7 9
REMARK H PARENT 7 10
REMARK Flexibility Score: inf
ROOT
ATOM      1  C   UNL     1      -4.826   3.651  -4.689  1.00  0.00     0.045 C 
ATOM      2  C   UNL     1      -4.797   5.038  -4.098  1.00  0.00    -0.045 A 
ATOM      3  C   UNL     1      -5.951   5.871  -4.070  1.00  0.00    -0.006 A 
ATOM      4  C   UNL     1      -5.850   7.165  -3.498  1.00  0.00     0.118 A 
ATOM      5  C   UNL     1      -4.632   7.606  -2.972  1.00  0.00     0.046 A 
ATOM      6  C   UNL     1      -3.509   6.785  -3.003  1.00  0.00     0.004 A 
ATOM      7  C   UNL     1      -3.588   5.512  -3.560  1.00  0.00     0.004 A 
ATOM      8  C   UNL     1      -7.277   5.414  -4.633  1.00  0.00     0.048 C 
ENDROOT
BRANCH   4   9
ATOM      9  O   UNL     1      -6.940   8.037  -3.436  1.00  0.00    -0.508 OA
ATOM     10  H   UNL     1      -7.458   8.222  -2.588  1.00  0.00     0.293 HD
ENDBRANCH   4   9
TORSDOF 1
ENDMDL
MODEL 5
REMARK VINA RESULT:    -3.419      1.200      1.353
REMARK INTER + INTRA:          -3.519
REMARK INTER:                  -3.519
REMARK INTRA:                   0.000
REMARK UNBOUND:                 0.000
REMARK SMILES Cc1cccc(O)c1C
REMARK SMILES IDX 1 1 2 2 8 3 6 4 5 5 4 6 3 7 9 8 7 9
REMARK H PARENT 7 10
REMARK Flexibility Score: inf
ROOT
ATOM      1  C   UNL     1      -4.536   7.117  -3.086  1.00  0.00     0.045 C 
ATOM      2  C   UNL     1      -6.007   7.304  -3.363  1.00  0.00    -0.045 A 
ATOM      3  C   UNL     1      -6.793   6.292  -3.983  1.00  0.00    -0.006 A 
ATOM      4  C   UNL     1      -8.171   6.536  -4.212  1.00  0.00     0.118 A 
ATOM      5  C   UNL     1      -8.740   7.755  -3.830  1.00  0.00     0.046 A 
ATOM      6  C   UNL     1      -7.964   8.739  -3.224  1.00  0.00     0.004 A 
ATOM      7  C   UNL     1      -6.610   8.518  -2.991  1.00  0.00     0.004 A 
ATOM      8  C   UNL     1      -6.199   4.967  -4.403  1.00  0.00     0.048 C 
ENDROOT
BRANCH   4   9
ATOM      9  O   UNL     1      -9.004   5.591  -4.815  1.00  0.00    -0.508 OA
ATOM     10  H   UNL     1      -9.960   5.426  -4.529  1.00  0.00     0.293 HD
ENDBRANCH   4   9
TORSDOF 1
ENDMDL
MODEL 6
REMARK VINA RESULT:    -3.408      1.686      2.861
REMARK INTER + INTRA:          -3.507
REMARK INTER:                  -3.507
REMARK INTRA:                   0.000
REMARK UNBOUND:                 0.000
REMARK SMILES Cc1cccc(O)c1C
REMARK SMILES IDX 1 1 2 2 8 3 6 4 5 5 4 6 3 7 9 8 7 9
REMARK H PARENT 7 10
REMARK Flexibility Score: inf
ROOT
ATOM      1  C   UNL     1     -10.670   8.163  -4.004  1.00  0.00     0.045 C 
ATOM      2  C   UNL     1      -9.203   8.078  -3.667  1.00  0.00    -0.045 A 
ATOM      3  C   UNL     1      -8.398   6.976  -4.072  1.00  0.00    -0.006 A 
ATOM      4  C   UNL     1      -7.024   6.963  -3.720  1.00  0.00     0.118 A 
ATOM      5  C   UNL     1      -6.478   8.020  -2.986  1.00  0.00     0.046 A 
ATOM      6  C   UNL     1      -7.272   9.094  -2.594  1.00  0.00     0.004 A 
ATOM      7  C   UNL     1      -8.623   9.125  -2.930  1.00  0.00     0.004 A 
ATOM      8  C   UNL     1      -8.967   5.822  -4.866  1.00  0.00     0.048 C 
ENDROOT
BRANCH   4   9
ATOM      9  O   UNL     1      -6.173   5.915  -4.082  1.00  0.00    -0.508 OA
ATOM     10  H   UNL     1      -5.651   5.364  -3.414  1.00  0.00     0.293 HD
ENDBRANCH   4   9
TORSDOF 1
ENDMDL
MODEL 7
REMARK VINA RESULT:    -3.381      1.844      2.965
REMARK INTER + INTRA:          -3.480
REMARK INTER:                  -3.480
REMARK INTRA:                   0.000
REMARK UNBOUND:                 0.000
REMARK SMILES Cc1cccc(O)c1C
REMARK SMILES IDX 1 1 2 2 8 3 6 4 5 5 4 6 3 7 9 8 7 9
REMARK H PARENT 7 10
REMARK Flexibility Score: inf
ROOT
ATOM      1  C   UNL     1      -5.495   4.652  -4.396  1.00  0.00     0.045 C 
ATOM      2  C   UNL     1      -6.531   5.718  -4.143  1.00  0.00    -0.045 A 
ATOM      3  C   UNL     1      -6.212   6.943  -3.494  1.00  0.00    -0.006 A 
ATOM      4  C   UNL     1      -7.238   7.901  -3.290  1.00  0.00     0.118 A 
ATOM      5  C   UNL     1      -8.540   7.636  -3.724  1.00  0.00     0.046 A 
ATOM      6  C   UNL     1      -8.844   6.435  -4.358  1.00  0.00     0.004 A 
ATOM      7  C   UNL     1      -7.851   5.482  -4.568  1.00  0.00     0.004 A 
ATOM      8  C   UNL     1      -4.811   7.251  -3.017  1.00  0.00     0.048 C 
ENDROOT
BRANCH   4   9
ATOM      9  O   UNL     1      -6.999   9.125  -2.661  1.00  0.00    -0.508 OA
ATOM     10  H   UNL     1      -7.690   9.610  -2.103  1.00  0.00     0.293 HD
ENDBRANCH   4   9
TORSDOF 1
ENDMDL
MODEL 8
REMARK VINA RESULT:    -3.373      2.024      3.393
REMARK INTER + INTRA:          -3.471
REMARK INTER:                  -3.471
REMARK INTRA:                   0.000
REMARK UNBOUND:                 0.000
REMARK SMILES Cc1cccc(O)c1C
REMARK SMILES IDX 1 1 2 2 8 3 6 4 5 5 4 6 3 7 9 8 7 9
REMARK H PARENT 7 10
REMARK Flexibility Score: inf
ROOT
ATOM      1  C   UNL     1      -7.037   9.125  -2.624  1.00  0.00     0.045 C 
ATOM      2  C   UNL     1      -7.228   7.806  -3.329  1.00  0.00    -0.045 A 
ATOM      3  C   UNL     1      -6.146   6.912  -3.564  1.00  0.00    -0.006 A 
ATOM      4  C   UNL     1      -6.399   5.687  -4.234  1.00  0.00     0.118 A 
ATOM      5  C   UNL     1      -7.695   5.372  -4.651  1.00  0.00     0.046 A 
ATOM      6  C   UNL     1      -8.748   6.251  -4.417  1.00  0.00     0.004 A 
ATOM      7  C   UNL     1      -8.519   7.458  -3.762  1.00  0.00     0.004 A 
ATOM      8  C   UNL     1      -4.737   7.233  -3.121  1.00  0.00     0.048 C 
ENDROOT
BRANCH   4   9
ATOM      9  O   UNL     1      -5.387   4.762  -4.499  1.00  0.00    -0.508 OA
ATOM     10  H   UNL     1      -4.547   4.678  -3.943  1.00  0.00     0.293 HD
ENDBRANCH   4   9
TORSDOF 1
ENDMDL
MODEL 9
REMARK VINA RESULT:    -3.353      2.327      3.812
REMARK INTER + INTRA:          -3.451
REMARK INTER:                  -3.451
REMARK INTRA:                   0.000
REMARK UNBOUND:                 0.000
REMARK SMILES Cc1cccc(O)c1C
REMARK SMILES IDX 1 1 2 2 8 3 6 4 5 5 4 6 3 7 9 8 7 9
REMARK H PARENT 7 10
REMARK Flexibility Score: inf
ROOT
ATOM      1  C   UNL     1      -8.834   9.124  -3.738  1.00  0.00     0.045 C 
ATOM      2  C   UNL     1      -7.734   8.166  -3.357  1.00  0.00    -0.045 A 
ATOM      3  C   UNL     1      -7.440   7.853  -2.000  1.00  0.00    -0.006 A 
ATOM      4  C   UNL     1      -6.391   6.942  -1.716  1.00  0.00     0.118 A 
ATOM      5  C   UNL     1      -5.661   6.365  -2.760  1.00  0.00     0.046 A 
ATOM      6  C   UNL     1      -5.955   6.677  -4.085  1.00  0.00     0.004 A 
ATOM      7  C   UNL     1      -6.981   7.569  -4.383  1.00  0.00     0.004 A 
ATOM      8  C   UNL     1      -8.216   8.464  -0.856  1.00  0.00     0.048 C 
ENDROOT
BRANCH   4   9
ATOM      9  O   UNL     1      -6.047   6.588  -0.409  1.00  0.00    -0.508 OA
ATOM     10  H   UNL     1      -6.723   6.315   0.291  1.00  0.00     0.293 HD
ENDBRANCH   4   9
TORSDOF 1
ENDMDL
