MODEL 1
REMARK VINA RESULT:     8.902      0.000      0.000
REMARK INTER + INTRA:           9.943
REMARK INTER:                   9.943
REMARK INTRA:                   0.000
REMARK UNBOUND:                 0.000
REMARK SMILES Oc1cc(O)c2c(c1)CCc1cc(O)c(O)cc1-2
REMARK SMILES IDX 10 1 9 2 7 3 6 4 18 5 17 6 15 7 13 8 12 9 11 10 4 11 3 12
REMARK SMILES IDX 2 13 8 14 14 15 5 17 1 19 16 21
REMARK H PARENT 14 16 5 18 1 20 16 22
REMARK Flexibility Score: inf
ROOT
ATOM      1  C   UNL     1       9.994  13.002   1.147  1.00  0.00     0.041 C 
ATOM      2  C   UNL     1      11.179  13.226   2.095  1.00  0.00     0.041 C 
ATOM      3  C   UNL     1      11.700  14.636   1.967  1.00  0.00    -0.032 A 
ATOM      4  C   UNL     1      10.803  15.706   1.732  1.00  0.00     0.027 A 
ATOM      5  C   UNL     1       9.339  15.392   1.648  1.00  0.00    -0.007 A 
ATOM      6  C   UNL     1       8.341  16.341   1.943  1.00  0.00     0.059 A 
ATOM      7  C   UNL     1       6.983  16.008   1.848  1.00  0.00     0.158 A 
ATOM      8  C   UNL     1       6.606  14.707   1.481  1.00  0.00     0.157 A 
ATOM      9  C   UNL     1       7.587  13.742   1.244  1.00  0.00     0.054 A 
ATOM     10  C   UNL     1       8.946  14.065   1.358  1.00  0.00    -0.036 A 
ATOM     11  C   UNL     1      11.331  17.002   1.515  1.00  0.00     0.127 A 
ATOM     12  C   UNL     1      12.707  17.231   1.663  1.00  0.00     0.093 A 
ATOM     13  C   UNL     1      13.574  16.182   1.973  1.00  0.00     0.119 A 
ATOM     14  C   UNL     1      13.071  14.886   2.118  1.00  0.00     0.050 A 
ENDROOT
BRANCH   8  15
ATOM     15  O   UNL     1       5.263  14.352   1.361  1.00  0.00    -0.504 OA
ATOM     16  H   UNL     1       4.888  13.512   1.784  1.00  0.00     0.293 HD
ENDBRANCH   8  15
BRANCH  11  17
ATOM     17  O   UNL     1      10.512  18.057   1.113  1.00  0.00    -0.507 OA
ATOM     18  H   UNL     1      10.760  18.661   0.339  1.00  0.00     0.293 HD
ENDBRANCH  11  17
BRANCH  13  19
ATOM     19  O   UNL     1      14.935  16.438   2.123  1.00  0.00    -0.508 OA
ATOM     20  H   UNL     1      15.553  15.770   2.570  1.00  0.00     0.293 HD
ENDBRANCH  13  19
BRANCH   7  21
ATOM     21  O   UNL     1       6.007  16.964   2.125  1.00  0.00    -0.504 OA
ATOM     22  H   UNL     1       5.026  16.795   1.931  1.00  0.00     0.293 HD
ENDBRANCH   7  21
TORSDOF 4
ENDMDL
MODEL 2
REMARK VINA RESULT:     9.223      1.468      6.074
REMARK INTER + INTRA:          10.301
REMARK INTER:                  10.301
REMARK INTRA:                   0.000
REMARK UNBOUND:                 0.000
REMARK SMILES Oc1cc(O)c2c(c1)CCc1cc(O)c(O)cc1-2
REMARK SMILES IDX 10 1 9 2 7 3 6 4 18 5 17 6 15 7 13 8 12 9 11 10 4 11 3 12
REMARK SMILES IDX 2 13 8 14 14 15 5 17 1 19 16 21
REMARK H PARENT 14 16 5 18 1 20 16 22
REMARK Flexibility Score: inf
ROOT
ATOM      1  C   UNL     1       9.257  18.105   1.343  1.00  0.00     0.041 C 
ATOM      2  C   UNL     1       8.041  17.584   2.118  1.00  0.00     0.041 C 
ATOM      3  C   UNL     1       7.735  16.159   1.726  1.00  0.00    -0.032 A 
ATOM      4  C   UNL     1       8.790  15.262   1.428  1.00  0.00     0.027 A 
ATOM      5  C   UNL     1      10.197  15.767   1.545  1.00  0.00    -0.007 A 
ATOM      6  C   UNL     1      11.290  14.914   1.797  1.00  0.00     0.059 A 
ATOM      7  C   UNL     1      12.591  15.426   1.895  1.00  0.00     0.158 A 
ATOM      8  C   UNL     1      12.811  16.806   1.768  1.00  0.00     0.157 A 
ATOM      9  C   UNL     1      11.729  17.666   1.577  1.00  0.00     0.054 A 
ATOM     10  C   UNL     1      10.423  17.162   1.500  1.00  0.00    -0.036 A 
ATOM     11  C   UNL     1       8.468  13.963   0.965  1.00  0.00     0.127 A 
ATOM     12  C   UNL     1       7.130  13.543   0.933  1.00  0.00     0.093 A 
ATOM     13  C   UNL     1       6.102  14.411   1.305  1.00  0.00     0.119 A 
ATOM     14  C   UNL     1       6.405  15.718   1.694  1.00  0.00     0.050 A 
ENDROOT
BRANCH   8  15
ATOM     15  O   UNL     1      14.097  17.341   1.843  1.00  0.00    -0.504 OA
ATOM     16  H   UNL     1      14.381  18.140   1.288  1.00  0.00     0.293 HD
ENDBRANCH   8  15
BRANCH  11  17
ATOM     17  O   UNL     1       9.457  13.099   0.496  1.00  0.00    -0.507 OA
ATOM     18  H   UNL     1      10.376  13.059   0.920  1.00  0.00     0.293 HD
ENDBRANCH  11  17
BRANCH  13  19
ATOM     19  O   UNL     1       4.783  13.966   1.273  1.00  0.00    -0.508 OA
ATOM     20  H   UNL     1       4.535  13.023   1.551  1.00  0.00     0.293 HD
ENDBRANCH  13  19
BRANCH   7  21
ATOM     21  O   UNL     1      13.665  14.567   2.125  1.00  0.00    -0.504 OA
ATOM     22  H   UNL     1      14.059  14.444   3.050  1.00  0.00     0.293 HD
ENDBRANCH   7  21
TORSDOF 4
ENDMDL
