MODEL 1
REMARK VINA RESULT:    -2.665      0.000      0.000
REMARK INTER + INTRA:          -6.858
REMARK INTER:                  -4.846
REMARK INTRA:                  -2.012
REMARK UNBOUND:                -2.012
REMARK SMILES CCCCCCCCCCCCCCCC(=O)[O-]
REMARK SMILES IDX 9 1 10 2 11 3 12 4 13 5 14 6 15 7 16 8 17 9 18 10 8 11 7 12
REMARK SMILES IDX 6 13 5 14 4 15 3 16 2 17 1 18
REMARK H PARENT
REMARK Flexibility Score: inf
ROOT
ATOM      1  C   UNL     1       3.087  21.859   6.554  1.00  0.00     0.000 C 
ENDROOT
BRANCH   1   2
ATOM      2  C   UNL     1       1.915  22.853   6.537  1.00  0.00     0.000 C 
BRANCH   2   3
ATOM      3  C   UNL     1       0.600  22.225   7.025  1.00  0.00     0.000 C 
BRANCH   3   4
ATOM      4  C   UNL     1      -0.547  22.392   6.015  1.00  0.00     0.000 C 
BRANCH   4   5
ATOM      5  C   UNL     1      -0.295  21.549   4.756  1.00  0.00     0.000 C 
BRANCH   5   6
ATOM      6  C   UNL     1      -1.085  22.053   3.533  1.00  0.00     0.006 C 
BRANCH   6   7
ATOM      7  C   UNL     1      -0.233  22.789   2.486  1.00  0.00     0.053 C 
BRANCH   7   8
ATOM      8  C   UNL     1      -0.179  24.264   2.741  1.00  0.00     0.041 C 
ATOM      9  O   UNL     1       0.797  24.943   2.326  1.00  0.00    -0.550 OA
ATOM     10  O   UNL     1      -1.189  24.882   3.466  1.00  0.00    -0.550 OA
ENDBRANCH   7   8
ENDBRANCH   6   7
ENDBRANCH   5   6
ENDBRANCH   4   5
ENDBRANCH   3   4
ENDBRANCH   2   3
ENDBRANCH   1   2
BRANCH   1  11
ATOM     11  C   UNL     1       3.814  21.844   5.203  1.00  0.00     0.000 C 
BRANCH  11  12
ATOM     12  C   UNL     1       3.106  22.755   4.189  1.00  0.00    -0.000 C 
BRANCH  12  13
ATOM     13  C   UNL     1       4.077  23.708   3.473  1.00  0.00    -0.000 C 
BRANCH  13  14
ATOM     14  C   UNL     1       4.711  24.733   4.426  1.00  0.00    -0.000 C 
BRANCH  14  15
ATOM     15  C   UNL     1       6.241  24.817   4.280  1.00  0.00    -0.000 C 
BRANCH  15  16
ATOM     16  C   UNL     1       6.989  24.872   5.628  1.00  0.00    -0.000 C 
BRANCH  16  17
ATOM     17  C   UNL     1       6.063  24.587   6.819  1.00  0.00    -0.003 C 
ATOM     18  C   UNL     1       6.477  23.310   7.546  1.00  0.00     0.004 C 
ENDBRANCH  16  17
ENDBRANCH  15  16
ENDBRANCH  14  15
ENDBRANCH  13  14
ENDBRANCH  12  13
ENDBRANCH  11  12
ENDBRANCH   1  11
TORSDOF 14
ENDMDL
MODEL 2
REMARK VINA RESULT:    -2.621      1.115      2.545
REMARK INTER + INTRA:          -6.777
REMARK INTER:                  -4.801
REMARK INTRA:                  -1.976
REMARK UNBOUND:                -2.012
REMARK SMILES CCCCCCCCCCCCCCCC(=O)[O-]
REMARK SMILES IDX 9 1 10 2 11 3 12 4 13 5 14 6 15 7 16 8 17 9 18 10 8 11 7 12
REMARK SMILES IDX 6 13 5 14 4 15 3 16 2 17 1 18
REMARK H PARENT
REMARK Flexibility Score: inf
ROOT
ATOM      1  C   UNL     1       3.318  21.755   6.150  1.00  0.00     0.000 C 
ENDROOT
BRANCH   1   2
ATOM      2  C   UNL     1       2.765  23.097   6.656  1.00  0.00     0.000 C 
BRANCH   2   3
ATOM      3  C   UNL     1       1.245  23.066   6.878  1.00  0.00     0.000 C 
BRANCH   3   4
ATOM      4  C   UNL     1       0.625  21.702   6.536  1.00  0.00     0.000 C 
BRANCH   4   5
ATOM      5  C   UNL     1      -0.769  21.875   5.912  1.00  0.00     0.000 C 
BRANCH   5   6
ATOM      6  C   UNL     1      -0.725  21.992   4.377  1.00  0.00     0.006 C 
BRANCH   6   7
ATOM      7  C   UNL     1      -0.579  23.431   3.855  1.00  0.00     0.053 C 
BRANCH   7   8
ATOM      8  C   UNL     1       0.689  23.624   3.082  1.00  0.00     0.041 C 
ATOM      9  O   UNL     1       1.613  22.772   3.159  1.00  0.00    -0.550 OA
ATOM     10  O   UNL     1       0.864  24.763   2.306  1.00  0.00    -0.550 OA
ENDBRANCH   7   8
ENDBRANCH   6   7
ENDBRANCH   5   6
ENDBRANCH   4   5
ENDBRANCH   3   4
ENDBRANCH   2   3
ENDBRANCH   1   2
BRANCH   1  11
ATOM     11  C   UNL     1       4.751  21.530   6.649  1.00  0.00     0.000 C 
BRANCH  11  12
ATOM     12  C   UNL     1       5.135  22.575   7.708  1.00  0.00    -0.000 C 
BRANCH  12  13
ATOM     13  C   UNL     1       6.401  23.360   7.330  1.00  0.00    -0.000 C 
BRANCH  13  14
ATOM     14  C   UNL     1       6.085  24.705   6.655  1.00  0.00    -0.000 C 
BRANCH  14  15
ATOM     15  C   UNL     1       6.746  24.850   5.274  1.00  0.00    -0.000 C 
BRANCH  15  16
ATOM     16  C   UNL     1       6.010  24.087   4.153  1.00  0.00    -0.000 C 
BRANCH  16  17
ATOM     17  C   UNL     1       4.566  24.575   3.969  1.00  0.00    -0.003 C 
ATOM     18  C   UNL     1       4.411  25.363   2.672  1.00  0.00     0.004 C 
ENDBRANCH  16  17
ENDBRANCH  15  16
ENDBRANCH  14  15
ENDBRANCH  13  14
ENDBRANCH  12  13
ENDBRANCH  11  12
ENDBRANCH   1  11
TORSDOF 14
ENDMDL
MODEL 3
REMARK VINA RESULT:    -2.577      1.420      4.313
REMARK INTER + INTRA:          -6.697
REMARK INTER:                  -4.750
REMARK INTRA:                  -1.947
REMARK UNBOUND:                -2.012
REMARK SMILES CCCCCCCCCCCCCCCC(=O)[O-]
REMARK SMILES IDX 9 1 10 2 11 3 12 4 13 5 14 6 15 7 16 8 17 9 18 10 8 11 7 12
REMARK SMILES IDX 6 13 5 14 4 15 3 16 2 17 1 18
REMARK H PARENT
REMARK Flexibility Score: inf
ROOT
ATOM      1  C   UNL     1       5.474  24.649   4.772  1.00  0.00     0.000 C 
ENDROOT
BRANCH   1   2
ATOM      2  C   UNL     1       5.969  24.835   3.328  1.00  0.00     0.000 C 
BRANCH   2   3
ATOM      3  C   UNL     1       4.818  25.036   2.329  1.00  0.00     0.000 C 
BRANCH   3   4
ATOM      4  C   UNL     1       3.441  24.752   2.948  1.00  0.00     0.000 C 
BRANCH   4   5
ATOM      5  C   UNL     1       2.849  23.447   2.394  1.00  0.00     0.000 C 
BRANCH   5   6
ATOM      6  C   UNL     1       1.311  23.474   2.319  1.00  0.00     0.006 C 
BRANCH   6   7
ATOM      7  C   UNL     1       0.610  22.564   3.341  1.00  0.00     0.053 C 
BRANCH   7   8
ATOM      8  C   UNL     1      -0.359  23.319   4.196  1.00  0.00     0.041 C 
ATOM      9  O   UNL     1      -0.809  24.432   3.814  1.00  0.00    -0.550 OA
ATOM     10  O   UNL     1      -0.738  22.812   5.433  1.00  0.00    -0.550 OA
ENDBRANCH   7   8
ENDBRANCH   6   7
ENDBRANCH   5   6
ENDBRANCH   4   5
ENDBRANCH   3   4
ENDBRANCH   2   3
ENDBRANCH   1   2
BRANCH   1  11
ATOM     11  C   UNL     1       6.633  24.779   5.769  1.00  0.00     0.000 C 
BRANCH  11  12
ATOM     12  C   UNL     1       6.187  24.380   7.184  1.00  0.00    -0.000 C 
BRANCH  12  13
ATOM     13  C   UNL     1       7.108  23.324   7.817  1.00  0.00    -0.000 C 
BRANCH  13  14
ATOM     14  C   UNL     1       6.458  21.933   7.880  1.00  0.00    -0.000 C 
BRANCH  14  15
ATOM     15  C   UNL     1       4.934  21.976   7.671  1.00  0.00    -0.000 C 
BRANCH  15  16
ATOM     16  C   UNL     1       4.457  21.183   6.436  1.00  0.00    -0.000 C 
BRANCH  16  17
ATOM     17  C   UNL     1       3.225  21.819   5.776  1.00  0.00    -0.003 C 
ATOM     18  C   UNL     1       2.758  23.048   6.550  1.00  0.00     0.004 C 
ENDBRANCH  16  17
ENDBRANCH  15  16
ENDBRANCH  14  15
ENDBRANCH  13  14
ENDBRANCH  12  13
ENDBRANCH  11  12
ENDBRANCH   1  11
TORSDOF 14
ENDMDL
MODEL 4
REMARK VINA RESULT:    -2.553      2.858      6.699
REMARK INTER + INTRA:          -6.655
REMARK INTER:                  -4.353
REMARK INTRA:                  -2.302
REMARK UNBOUND:                -2.012
REMARK SMILES CCCCCCCCCCCCCCCC(=O)[O-]
REMARK SMILES IDX 9 1 10 2 11 3 12 4 13 5 14 6 15 7 16 8 17 9 18 10 8 11 7 12
REMARK SMILES IDX 6 13 5 14 4 15 3 16 2 17 1 18
REMARK H PARENT
REMARK Flexibility Score: inf
ROOT
ATOM      1  C   UNL     1       3.757  22.278   4.156  1.00  0.00     0.000 C 
ENDROOT
BRANCH   1   2
ATOM      2  C   UNL     1       3.392  23.668   3.611  1.00  0.00     0.000 C 
BRANCH   2   3
ATOM      3  C   UNL     1       4.575  24.648   3.648  1.00  0.00     0.000 C 
BRANCH   3   4
ATOM      4  C   UNL     1       5.830  24.038   4.291  1.00  0.00     0.000 C 
BRANCH   4   5
ATOM      5  C   UNL     1       6.351  24.928   5.430  1.00  0.00     0.000 C 
BRANCH   5   6
ATOM      6  C   UNL     1       6.729  24.127   6.689  1.00  0.00     0.006 C 
BRANCH   6   7
ATOM      7  C   UNL     1       5.532  23.517   7.437  1.00  0.00     0.053 C 
BRANCH   7   8
ATOM      8  C   UNL     1       5.602  22.022   7.488  1.00  0.00     0.041 C 
ATOM      9  O   UNL     1       6.436  21.402   6.776  1.00  0.00    -0.550 OA
ATOM     10  O   UNL     1       4.722  21.311   8.294  1.00  0.00    -0.550 OA
ENDBRANCH   7   8
ENDBRANCH   6   7
ENDBRANCH   5   6
ENDBRANCH   4   5
ENDBRANCH   3   4
ENDBRANCH   2   3
ENDBRANCH   1   2
BRANCH   1  11
ATOM     11  C   UNL     1       2.689  21.775   5.136  1.00  0.00     0.000 C 
BRANCH  11  12
ATOM     12  C   UNL     1       2.247  22.896   6.089  1.00  0.00    -0.000 C 
BRANCH  12  13
ATOM     13  C   UNL     1       0.957  22.551   6.849  1.00  0.00    -0.000 C 
BRANCH  13  14
ATOM     14  C   UNL     1       0.162  21.417   6.180  1.00  0.00    -0.000 C 
BRANCH  14  15
ATOM     15  C   UNL     1      -0.956  21.935   5.258  1.00  0.00    -0.000 C 
BRANCH  15  16
ATOM     16  C   UNL     1      -0.767  21.542   3.778  1.00  0.00    -0.000 C 
BRANCH  16  17
ATOM     17  C   UNL     1      -0.394  22.744   2.899  1.00  0.00    -0.003 C 
ATOM     18  C   UNL     1      -0.592  24.058   3.648  1.00  0.00     0.004 C 
ENDBRANCH  16  17
ENDBRANCH  15  16
ENDBRANCH  14  15
ENDBRANCH  13  14
ENDBRANCH  12  13
ENDBRANCH  11  12
ENDBRANCH   1  11
TORSDOF 14
ENDMDL
MODEL 5
REMARK VINA RESULT:    -2.511      2.073      4.094
REMARK INTER + INTRA:          -6.578
REMARK INTER:                  -4.229
REMARK INTRA:                  -2.349
REMARK UNBOUND:                -2.012
REMARK SMILES CCCCCCCCCCCCCCCC(=O)[O-]
REMARK SMILES IDX 9 1 10 2 11 3 12 4 13 5 14 6 15 7 16 8 17 9 18 10 8 11 7 12
REMARK SMILES IDX 6 13 5 14 4 15 3 16 2 17 1 18
REMARK H PARENT
REMARK Flexibility Score: inf
ROOT
ATOM      1  C   UNL     1       4.698  24.774   4.235  1.00  0.00     0.000 C 
ENDROOT
BRANCH   1   2
ATOM      2  C   UNL     1       3.815  24.480   3.012  1.00  0.00     0.000 C 
BRANCH   2   3
ATOM      3  C   UNL     1       4.254  23.217   2.254  1.00  0.00     0.000 C 
BRANCH   3   4
ATOM      4  C   UNL     1       3.197  22.102   2.298  1.00  0.00     0.000 C 
BRANCH   4   5
ATOM      5  C   UNL     1       1.807  22.676   2.612  1.00  0.00     0.000 C 
BRANCH   5   6
ATOM      6  C   UNL     1       1.134  21.987   3.814  1.00  0.00     0.006 C 
BRANCH   6   7
ATOM      7  C   UNL     1       0.320  22.931   4.713  1.00  0.00     0.053 C 
BRANCH   7   8
ATOM      8  C   UNL     1      -0.092  22.274   5.993  1.00  0.00     0.041 C 
ATOM      9  O   UNL     1       0.600  22.424   7.034  1.00  0.00    -0.550 OA
ATOM     10  O   UNL     1      -1.221  21.465   6.028  1.00  0.00    -0.550 OA
ENDBRANCH   7   8
ENDBRANCH   6   7
ENDBRANCH   5   6
ENDBRANCH   4   5
ENDBRANCH   3   4
ENDBRANCH   2   3
ENDBRANCH   1   2
BRANCH   1  11
ATOM     11  C   UNL     1       6.186  24.715   3.864  1.00  0.00     0.000 C 
BRANCH  11  12
ATOM     12  C   UNL     1       7.066  24.716   5.123  1.00  0.00    -0.000 C 
BRANCH  12  13
ATOM     13  C   UNL     1       6.242  24.750   6.419  1.00  0.00    -0.000 C 
BRANCH  13  14
ATOM     14  C   UNL     1       6.758  23.759   7.476  1.00  0.00    -0.000 C 
BRANCH  14  15
ATOM     15  C   UNL     1       5.842  22.533   7.641  1.00  0.00    -0.000 C 
BRANCH  15  16
ATOM     16  C   UNL     1       4.411  22.755   7.110  1.00  0.00    -0.000 C 
BRANCH  16  17
ATOM     17  C   UNL     1       3.987  21.671   6.109  1.00  0.00    -0.003 C 
ATOM     18  C   UNL     1       5.184  21.155   5.315  1.00  0.00     0.004 C 
ENDBRANCH  16  17
ENDBRANCH  15  16
ENDBRANCH  14  15
ENDBRANCH  13  14
ENDBRANCH  12  13
ENDBRANCH  11  12
ENDBRANCH   1  11
TORSDOF 14
ENDMDL
MODEL 6
REMARK VINA RESULT:    -2.473      2.121      6.345
REMARK INTER + INTRA:          -6.508
REMARK INTER:                  -4.580
REMARK INTRA:                  -1.929
REMARK UNBOUND:                -2.012
REMARK SMILES CCCCCCCCCCCCCCCC(=O)[O-]
REMARK SMILES IDX 9 1 10 2 11 3 12 4 13 5 14 6 15 7 16 8 17 9 18 10 8 11 7 12
REMARK SMILES IDX 6 13 5 14 4 15 3 16 2 17 1 18
REMARK H PARENT
REMARK Flexibility Score: inf
ROOT
ATOM      1  C   UNL     1       2.843  23.008   6.125  1.00  0.00     0.000 C 
ENDROOT
BRANCH   1   2
ATOM      2  C   UNL     1       3.270  21.535   6.021  1.00  0.00     0.000 C 
BRANCH   2   3
ATOM      3  C   UNL     1       4.701  21.296   6.527  1.00  0.00     0.000 C 
BRANCH   3   4
ATOM      4  C   UNL     1       5.016  22.085   7.807  1.00  0.00     0.000 C 
BRANCH   4   5
ATOM      5  C   UNL     1       6.286  22.930   7.632  1.00  0.00     0.000 C 
BRANCH   5   6
ATOM      6  C   UNL     1       5.986  24.371   7.179  1.00  0.00     0.006 C 
BRANCH   6   7
ATOM      7  C   UNL     1       6.737  24.807   5.909  1.00  0.00     0.053 C 
BRANCH   7   8
ATOM      8  C   UNL     1       6.081  24.295   4.664  1.00  0.00     0.041 C 
ATOM      9  O   UNL     1       5.110  24.918   4.158  1.00  0.00    -0.550 OA
ATOM     10  O   UNL     1       6.518  23.112   4.082  1.00  0.00    -0.550 OA
ENDBRANCH   7   8
ENDBRANCH   6   7
ENDBRANCH   5   6
ENDBRANCH   4   5
ENDBRANCH   3   4
ENDBRANCH   2   3
ENDBRANCH   1   2
BRANCH   1  11
ATOM     11  C   UNL     1       1.532  23.144   6.910  1.00  0.00     0.000 C 
BRANCH  11  12
ATOM     12  C   UNL     1       0.707  21.850   6.832  1.00  0.00    -0.000 C 
BRANCH  12  13
ATOM     13  C   UNL     1      -0.727  22.093   6.337  1.00  0.00    -0.000 C 
BRANCH  13  14
ATOM     14  C   UNL     1      -1.076  21.252   5.098  1.00  0.00    -0.000 C 
BRANCH  14  15
ATOM     15  C   UNL     1       0.107  21.102   4.126  1.00  0.00    -0.000 C 
BRANCH  15  16
ATOM     16  C   UNL     1       0.361  22.355   3.262  1.00  0.00    -0.000 C 
BRANCH  16  17
ATOM     17  C   UNL     1      -0.944  23.049   2.846  1.00  0.00    -0.003 C 
ATOM     18  C   UNL     1      -0.929  24.527   3.227  1.00  0.00     0.004 C 
ENDBRANCH  16  17
ENDBRANCH  15  16
ENDBRANCH  14  15
ENDBRANCH  13  14
ENDBRANCH  12  13
ENDBRANCH  11  12
ENDBRANCH   1  11
TORSDOF 14
ENDMDL
MODEL 7
REMARK VINA RESULT:    -2.432      1.115      2.564
REMARK INTER + INTRA:          -6.434
REMARK INTER:                  -4.457
REMARK INTRA:                  -1.977
REMARK UNBOUND:                -2.012
REMARK SMILES CCCCCCCCCCCCCCCC(=O)[O-]
REMARK SMILES IDX 9 1 10 2 11 3 12 4 13 5 14 6 15 7 16 8 17 9 18 10 8 11 7 12
REMARK SMILES IDX 6 13 5 14 4 15 3 16 2 17 1 18
REMARK H PARENT
REMARK Flexibility Score: inf
ROOT
ATOM      1  C   UNL     1       3.747  24.016   4.116  1.00  0.00     0.000 C 
ENDROOT
BRANCH   1   2
ATOM      2  C   UNL     1       3.207  22.666   4.615  1.00  0.00     0.000 C 
BRANCH   2   3
ATOM      3  C   UNL     1       2.566  22.763   6.008  1.00  0.00     0.000 C 
BRANCH   3   4
ATOM      4  C   UNL     1       1.220  22.026   6.093  1.00  0.00     0.000 C 
BRANCH   4   5
ATOM      5  C   UNL     1       0.077  22.910   5.572  1.00  0.00     0.000 C 
BRANCH   5   6
ATOM      6  C   UNL     1      -0.695  22.263   4.407  1.00  0.00     0.006 C 
BRANCH   6   7
ATOM      7  C   UNL     1      -0.204  22.681   3.011  1.00  0.00     0.053 C 
BRANCH   7   8
ATOM      8  C   UNL     1      -0.325  24.157   2.790  1.00  0.00     0.041 C 
ATOM      9  O   UNL     1      -1.430  24.735   2.964  1.00  0.00    -0.550 OA
ATOM     10  O   UNL     1       0.775  24.888   2.359  1.00  0.00    -0.550 OA
ENDBRANCH   7   8
ENDBRANCH   6   7
ENDBRANCH   5   6
ENDBRANCH   4   5
ENDBRANCH   3   4
ENDBRANCH   2   3
ENDBRANCH   1   2
BRANCH   1  11
ATOM     11  C   UNL     1       5.123  23.847   3.459  1.00  0.00     0.000 C 
BRANCH  11  12
ATOM     12  C   UNL     1       6.079  24.970   3.889  1.00  0.00    -0.000 C 
BRANCH  12  13
ATOM     13  C   UNL     1       6.989  24.556   5.056  1.00  0.00    -0.000 C 
BRANCH  13  14
ATOM     14  C   UNL     1       6.350  24.822   6.429  1.00  0.00    -0.000 C 
BRANCH  14  15
ATOM     15  C   UNL     1       6.010  23.529   7.190  1.00  0.00    -0.000 C 
BRANCH  15  16
ATOM     16  C   UNL     1       6.493  22.248   6.479  1.00  0.00    -0.000 C 
BRANCH  16  17
ATOM     17  C   UNL     1       6.058  20.973   7.216  1.00  0.00    -0.003 C 
ATOM     18  C   UNL     1       5.009  21.282   8.279  1.00  0.00     0.004 C 
ENDBRANCH  16  17
ENDBRANCH  15  16
ENDBRANCH  14  15
ENDBRANCH  13  14
ENDBRANCH  12  13
ENDBRANCH  11  12
ENDBRANCH   1  11
TORSDOF 14
ENDMDL
MODEL 8
REMARK VINA RESULT:    -2.395      1.512      3.317
REMARK INTER + INTRA:          -6.367
REMARK INTER:                  -4.629
REMARK INTRA:                  -1.738
REMARK UNBOUND:                -2.012
REMARK SMILES CCCCCCCCCCCCCCCC(=O)[O-]
REMARK SMILES IDX 9 1 10 2 11 3 12 4 13 5 14 6 15 7 16 8 17 9 18 10 8 11 7 12
REMARK SMILES IDX 6 13 5 14 4 15 3 16 2 17 1 18
REMARK H PARENT
REMARK Flexibility Score: inf
ROOT
ATOM      1  C   UNL     1       3.474  23.268   6.750  1.00  0.00     0.000 C 
ENDROOT
BRANCH   1   2
ATOM      2  C   UNL     1       2.576  22.189   6.126  1.00  0.00     0.000 C 
BRANCH   2   3
ATOM      3  C   UNL     1       3.362  21.189   5.264  1.00  0.00     0.000 C 
BRANCH   3   4
ATOM      4  C   UNL     1       3.158  21.416   3.758  1.00  0.00     0.000 C 
BRANCH   4   5
ATOM      5  C   UNL     1       2.293  22.660   3.503  1.00  0.00     0.000 C 
BRANCH   5   6
ATOM      6  C   UNL     1       1.034  22.352   2.672  1.00  0.00     0.006 C 
BRANCH   6   7
ATOM      7  C   UNL     1      -0.146  21.799   3.488  1.00  0.00     0.053 C 
BRANCH   7   8
ATOM      8  C   UNL     1      -0.658  22.794   4.483  1.00  0.00     0.041 C 
ATOM      9  O   UNL     1      -0.751  24.010   4.172  1.00  0.00    -0.550 OA
ATOM     10  O   UNL     1      -0.997  22.383   5.766  1.00  0.00    -0.550 OA
ENDBRANCH   7   8
ENDBRANCH   6   7
ENDBRANCH   5   6
ENDBRANCH   4   5
ENDBRANCH   3   4
ENDBRANCH   2   3
ENDBRANCH   1   2
BRANCH   1  11
ATOM     11  C   UNL     1       4.853  22.696   7.106  1.00  0.00     0.000 C 
BRANCH  11  12
ATOM     12  C   UNL     1       5.827  23.816   7.501  1.00  0.00    -0.000 C 
BRANCH  12  13
ATOM     13  C   UNL     1       7.074  23.856   6.604  1.00  0.00    -0.000 C 
BRANCH  13  14
ATOM     14  C   UNL     1       7.028  25.000   5.577  1.00  0.00    -0.000 C 
BRANCH  14  15
ATOM     15  C   UNL     1       6.522  24.543   4.197  1.00  0.00    -0.000 C 
BRANCH  15  16
ATOM     16  C   UNL     1       5.050  24.917   3.924  1.00  0.00    -0.000 C 
BRANCH  16  17
ATOM     17  C   UNL     1       4.783  25.179   2.436  1.00  0.00    -0.003 C 
ATOM     18  C   UNL     1       3.584  26.104   2.246  1.00  0.00     0.004 C 
ENDBRANCH  16  17
ENDBRANCH  15  16
ENDBRANCH  14  15
ENDBRANCH  13  14
ENDBRANCH  12  13
ENDBRANCH  11  12
ENDBRANCH   1  11
TORSDOF 14
ENDMDL
MODEL 9
REMARK VINA RESULT:    -0.731      2.823      6.452
REMARK INTER + INTRA:          -3.342
REMARK INTER:                  -1.301
REMARK INTRA:                  -2.041
REMARK UNBOUND:                -2.012
REMARK SMILES CCCCCCCCCCCCCCCC(=O)[O-]
REMARK SMILES IDX 9 1 10 2 11 3 12 4 13 5 14 6 15 7 16 8 17 9 18 10 8 11 7 12
REMARK SMILES IDX 6 13 5 14 4 15 3 16 2 17 1 18
REMARK H PARENT
REMARK Flexibility Score: inf
ROOT
ATOM      1  C   UNL     1      -0.108  24.634   2.649  1.00  0.00     0.000 C 
ENDROOT
BRANCH   1   2
ATOM      2  C   UNL     1       1.299  24.353   2.097  1.00  0.00     0.000 C 
BRANCH   2   3
ATOM      3  C   UNL     1       2.115  25.636   1.875  1.00  0.00     0.000 C 
BRANCH   3   4
ATOM      4  C   UNL     1       3.519  25.560   2.494  1.00  0.00     0.000 C 
BRANCH   4   5
ATOM      5  C   UNL     1       3.702  24.252   3.280  1.00  0.00     0.000 C 
BRANCH   5   6
ATOM      6  C   UNL     1       5.088  24.143   3.942  1.00  0.00     0.006 C 
BRANCH   6   7
ATOM      7  C   UNL     1       5.061  23.620   5.387  1.00  0.00     0.053 C 
BRANCH   7   8
ATOM      8  C   UNL     1       5.986  24.387   6.281  1.00  0.00     0.041 C 
ATOM      9  O   UNL     1       5.843  24.339   7.531  1.00  0.00    -0.550 OA
ATOM     10  O   UNL     1       6.983  25.182   5.732  1.00  0.00    -0.550 OA
ENDBRANCH   7   8
ENDBRANCH   6   7
ENDBRANCH   5   6
ENDBRANCH   4   5
ENDBRANCH   3   4
ENDBRANCH   2   3
ENDBRANCH   1   2
BRANCH   1  11
ATOM     11  C   UNL     1      -1.100  23.556   2.195  1.00  0.00     0.000 C 
BRANCH  11  12
ATOM     12  C   UNL     1      -0.389  22.211   1.976  1.00  0.00    -0.000 C 
BRANCH  12  13
ATOM     13  C   UNL     1      -1.159  21.030   2.588  1.00  0.00    -0.000 C 
BRANCH  13  14
ATOM     14  C   UNL     1      -1.849  21.395   3.912  1.00  0.00    -0.000 C 
BRANCH  14  15
ATOM     15  C   UNL     1      -0.959  21.135   5.140  1.00  0.00    -0.000 C 
BRANCH  15  16
ATOM     16  C   UNL     1      -0.471  22.423   5.834  1.00  0.00    -0.000 C 
BRANCH  16  17
ATOM     17  C   UNL     1       0.989  22.753   5.490  1.00  0.00    -0.003 C 
ATOM     18  C   UNL     1       1.758  21.498   5.089  1.00  0.00     0.004 C 
ENDBRANCH  16  17
ENDBRANCH  15  16
ENDBRANCH  14  15
ENDBRANCH  13  14
ENDBRANCH  12  13
ENDBRANCH  11  12
ENDBRANCH   1  11
TORSDOF 14
ENDMDL
