MODEL 1
REMARK VINA RESULT:    -5.981      0.000      0.000
REMARK INTER + INTRA:          -6.753
REMARK INTER:                  -6.505
REMARK INTRA:                  -0.248
REMARK UNBOUND:                -0.248
REMARK SMILES CC1=C2C[C@H](C(C)(C)O)CC[C@@]2(C)CCC1
REMARK SMILES IDX 6 1 7 2 8 3 5 4 1 5 2 6 3 7 16 8 4 9 12 10 15 11 11 12 14 13
REMARK SMILES IDX 13 14 10 15 9 16
REMARK H PARENT 9 17
REMARK Flexibility Score: inf
ROOT
ATOM      1  C   UNL     1     114.217 123.571 129.423  1.00  0.00     0.062 C 
ATOM      2  C   UNL     1     114.115 123.216 130.926  1.00  0.00     0.042 C 
ATOM      3  C   UNL     1     114.454 122.274 128.615  1.00  0.00     0.042 C 
ENDROOT
BRANCH   1   4
ATOM      4  C   UNL     1     115.354 124.617 129.130  1.00  0.00     0.024 C 
ATOM      5  C   UNL     1     116.299 127.535 132.046  1.00  0.00     0.039 C 
ATOM      6  C   UNL     1     117.234 127.274 130.886  1.00  0.00    -0.074 C 
ATOM      7  C   UNL     1     117.117 126.156 130.101  1.00  0.00    -0.065 C 
ATOM      8  C   UNL     1     118.212 128.388 130.561  1.00  0.00     0.031 C 
ATOM      9  C   UNL     1     116.099 125.061 130.410  1.00  0.00     0.038 C 
ATOM     10  C   UNL     1     118.122 125.848 128.978  1.00  0.00    -0.011 C 
ATOM     11  C   UNL     1     119.390 127.935 129.708  1.00  0.00     0.005 C 
ATOM     12  C   UNL     1     117.368 125.289 127.737  1.00  0.00     0.011 C 
ATOM     13  C   UNL     1     118.887 127.121 128.522  1.00  0.00     0.011 C 
ATOM     14  C   UNL     1     119.145 124.798 129.485  1.00  0.00     0.016 C 
ATOM     15  C   UNL     1     116.379 124.161 128.065  1.00  0.00     0.008 C 
ENDBRANCH   1   4
BRANCH   1  16
ATOM     16  O   UNL     1     112.997 124.136 128.998  1.00  0.00    -0.390 OA
ATOM     17  H   UNL     1     113.145 124.600 128.131  1.00  0.00     0.211 HD
ENDBRANCH   1  16
TORSDOF 2
ENDMDL
MODEL 2
REMARK VINA RESULT:    -5.960      1.949      5.527
REMARK INTER + INTRA:          -6.731
REMARK INTER:                  -6.507
REMARK INTRA:                  -0.224
REMARK UNBOUND:                -0.248
REMARK SMILES CC1=C2C[C@H](C(C)(C)O)CC[C@@]2(C)CCC1
REMARK SMILES IDX 6 1 7 2 8 3 5 4 1 5 2 6 3 7 16 8 4 9 12 10 15 11 11 12 14 13
REMARK SMILES IDX 13 14 10 15 9 16
REMARK H PARENT 9 17
REMARK Flexibility Score: inf
ROOT
ATOM      1  C   UNL     1     115.996 126.557 129.553  1.00  0.00     0.062 C 
ATOM      2  C   UNL     1     117.136 126.679 128.514  1.00  0.00     0.042 C 
ATOM      3  C   UNL     1     116.358 127.403 130.797  1.00  0.00     0.042 C 
ENDROOT
BRANCH   1   4
ATOM      4  C   UNL     1     115.716 125.066 129.965  1.00  0.00     0.024 C 
ATOM      5  C   UNL     1     113.500 122.571 127.361  1.00  0.00     0.039 C 
ATOM      6  C   UNL     1     114.293 121.980 128.504  1.00  0.00    -0.074 C 
ATOM      7  C   UNL     1     115.244 122.705 129.175  1.00  0.00    -0.065 C 
ATOM      8  C   UNL     1     113.876 120.592 128.951  1.00  0.00     0.031 C 
ATOM      9  C   UNL     1     115.627 124.120 128.745  1.00  0.00     0.038 C 
ATOM     10  C   UNL     1     116.112 122.075 130.278  1.00  0.00    -0.011 C 
ATOM     11  C   UNL     1     114.936 119.871 129.774  1.00  0.00     0.005 C 
ATOM     12  C   UNL     1     116.291 123.087 131.447  1.00  0.00     0.011 C 
ATOM     13  C   UNL     1     115.457 120.795 130.867  1.00  0.00     0.011 C 
ATOM     14  C   UNL     1     117.498 121.708 129.688  1.00  0.00     0.016 C 
ATOM     15  C   UNL     1     116.715 124.492 130.996  1.00  0.00     0.008 C 
ENDBRANCH   1   4
BRANCH   1  16
ATOM     16  O   UNL     1     114.808 127.079 129.000  1.00  0.00    -0.390 OA
ATOM     17  H   UNL     1     114.849 126.983 128.011  1.00  0.00     0.211 HD
ENDBRANCH   1  16
TORSDOF 2
ENDMDL
MODEL 3
REMARK VINA RESULT:    -5.859      4.141      6.440
REMARK INTER + INTRA:          -6.621
REMARK INTER:                  -6.396
REMARK INTRA:                  -0.225
REMARK UNBOUND:                -0.248
REMARK SMILES CC1=C2C[C@H](C(C)(C)O)CC[C@@]2(C)CCC1
REMARK SMILES IDX 6 1 7 2 8 3 5 4 1 5 2 6 3 7 16 8 4 9 12 10 15 11 11 12 14 13
REMARK SMILES IDX 13 14 10 15 9 16
REMARK H PARENT 9 17
REMARK Flexibility Score: inf
ROOT
ATOM      1  C   UNL     1     117.365 120.049 134.450  1.00  0.00     0.062 C 
ATOM      2  C   UNL     1     117.891 120.902 135.630  1.00  0.00     0.042 C 
ATOM      3  C   UNL     1     118.557 119.653 133.546  1.00  0.00     0.042 C 
ENDROOT
BRANCH   1   4
ATOM      4  C   UNL     1     116.265 120.797 133.613  1.00  0.00     0.024 C 
ATOM      5  C   UNL     1     117.434 123.682 130.746  1.00  0.00     0.039 C 
ATOM      6  C   UNL     1     116.027 123.128 130.752  1.00  0.00    -0.074 C 
ATOM      7  C   UNL     1     115.697 121.998 131.456  1.00  0.00    -0.065 C 
ATOM      8  C   UNL     1     114.980 123.973 130.050  1.00  0.00     0.031 C 
ATOM      9  C   UNL     1     116.752 121.178 132.196  1.00  0.00     0.038 C 
ATOM     10  C   UNL     1     114.288 121.386 131.389  1.00  0.00    -0.011 C 
ATOM     11  C   UNL     1     113.711 123.205 129.701  1.00  0.00     0.005 C 
ATOM     12  C   UNL     1     113.860 120.897 132.803  1.00  0.00     0.011 C 
ATOM     13  C   UNL     1     113.231 122.421 130.915  1.00  0.00     0.011 C 
ATOM     14  C   UNL     1     114.299 120.188 130.404  1.00  0.00     0.016 C 
ATOM     15  C   UNL     1     114.919 120.041 133.514  1.00  0.00     0.008 C 
ENDBRANCH   1   4
BRANCH   1  16
ATOM     16  O   UNL     1     116.788 118.866 134.957  1.00  0.00    -0.390 OA
ATOM     17  H   UNL     1     116.936 118.134 134.301  1.00  0.00     0.211 HD
ENDBRANCH   1  16
TORSDOF 2
ENDMDL
MODEL 4
REMARK VINA RESULT:    -5.825      3.511      5.824
REMARK INTER + INTRA:          -6.583
REMARK INTER:                  -6.332
REMARK INTRA:                  -0.252
REMARK UNBOUND:                -0.248
REMARK SMILES CC1=C2C[C@H](C(C)(C)O)CC[C@@]2(C)CCC1
REMARK SMILES IDX 6 1 7 2 8 3 5 4 1 5 2 6 3 7 16 8 4 9 12 10 15 11 11 12 14 13
REMARK SMILES IDX 13 14 10 15 9 16
REMARK H PARENT 9 17
REMARK Flexibility Score: inf
ROOT
ATOM      1  C   UNL     1     115.231 123.530 129.258  1.00  0.00     0.062 C 
ATOM      2  C   UNL     1     114.180 122.582 128.633  1.00  0.00     0.042 C 
ATOM      3  C   UNL     1     116.357 123.781 128.228  1.00  0.00     0.042 C 
ENDROOT
BRANCH   1   4
ATOM      4  C   UNL     1     115.827 122.964 130.599  1.00  0.00     0.024 C 
ATOM      5  C   UNL     1     113.589 120.167 132.853  1.00  0.00     0.039 C 
ATOM      6  C   UNL     1     115.060 120.381 133.133  1.00  0.00    -0.074 C 
ATOM      7  C   UNL     1     115.875 121.043 132.250  1.00  0.00    -0.065 C 
ATOM      8  C   UNL     1     115.543 119.947 134.503  1.00  0.00     0.031 C 
ATOM      9  C   UNL     1     115.367 121.516 130.889  1.00  0.00     0.038 C 
ATOM     10  C   UNL     1     117.387 121.183 132.494  1.00  0.00    -0.011 C 
ATOM     11  C   UNL     1     117.054 119.772 134.590  1.00  0.00     0.005 C 
ATOM     12  C   UNL     1     117.855 122.609 132.083  1.00  0.00     0.011 C 
ATOM     13  C   UNL     1     117.749 120.988 133.992  1.00  0.00     0.011 C 
ATOM     14  C   UNL     1     118.139 120.122 131.650  1.00  0.00     0.016 C 
ATOM     15  C   UNL     1     117.368 123.049 130.696  1.00  0.00     0.008 C 
ENDBRANCH   1   4
BRANCH   1  16
ATOM     16  O   UNL     1     114.620 124.767 129.550  1.00  0.00    -0.390 OA
ATOM     17  H   UNL     1     115.019 125.130 130.386  1.00  0.00     0.211 HD
ENDBRANCH   1  16
TORSDOF 2
ENDMDL
MODEL 5
REMARK VINA RESULT:    -5.824      2.156      5.829
REMARK INTER + INTRA:          -6.583
REMARK INTER:                  -6.361
REMARK INTRA:                  -0.221
REMARK UNBOUND:                -0.248
REMARK SMILES CC1=C2C[C@H](C(C)(C)O)CC[C@@]2(C)CCC1
REMARK SMILES IDX 6 1 7 2 8 3 5 4 1 5 2 6 3 7 16 8 4 9 12 10 15 11 11 12 14 13
REMARK SMILES IDX 13 14 10 15 9 16
REMARK H PARENT 9 17
REMARK Flexibility Score: inf
ROOT
ATOM      1  C   UNL     1     115.999 125.771 129.180  1.00  0.00     0.062 C 
ATOM      2  C   UNL     1     117.143 126.243 128.251  1.00  0.00     0.042 C 
ATOM      3  C   UNL     1     116.462 125.893 130.651  1.00  0.00     0.042 C 
ENDROOT
BRANCH   1   4
ATOM      4  C   UNL     1     115.541 124.299 128.868  1.00  0.00     0.024 C 
ATOM      5  C   UNL     1     118.230 121.099 129.535  1.00  0.00     0.039 C 
ATOM      6  C   UNL     1     116.757 120.835 129.319  1.00  0.00    -0.074 C 
ATOM      7  C   UNL     1     115.824 121.837 129.396  1.00  0.00    -0.065 C 
ATOM      8  C   UNL     1     116.394 119.431 128.876  1.00  0.00     0.031 C 
ATOM      9  C   UNL     1     116.205 123.260 129.801  1.00  0.00     0.038 C 
ATOM     10  C   UNL     1     114.318 121.552 129.265  1.00  0.00    -0.011 C 
ATOM     11  C   UNL     1     114.926 119.084 129.089  1.00  0.00     0.005 C 
ATOM     12  C   UNL     1     113.643 122.673 128.423  1.00  0.00     0.011 C 
ATOM     13  C   UNL     1     114.047 120.203 128.545  1.00  0.00     0.011 C 
ATOM     14  C   UNL     1     113.683 121.507 130.679  1.00  0.00     0.016 C 
ATOM     15  C   UNL     1     114.008 124.096 128.872  1.00  0.00     0.008 C 
ENDBRANCH   1   4
BRANCH   1  16
ATOM     16  O   UNL     1     114.882 126.613 129.001  1.00  0.00    -0.390 OA
ATOM     17  H   UNL     1     115.187 127.559 129.034  1.00  0.00     0.211 HD
ENDBRANCH   1  16
TORSDOF 2
ENDMDL
MODEL 6
REMARK VINA RESULT:    -5.738      2.172      5.414
REMARK INTER + INTRA:          -6.489
REMARK INTER:                  -6.261
REMARK INTRA:                  -0.228
REMARK UNBOUND:                -0.248
REMARK SMILES CC1=C2C[C@H](C(C)(C)O)CC[C@@]2(C)CCC1
REMARK SMILES IDX 6 1 7 2 8 3 5 4 1 5 2 6 3 7 16 8 4 9 12 10 15 11 11 12 14 13
REMARK SMILES IDX 13 14 10 15 9 16
REMARK H PARENT 9 17
REMARK Flexibility Score: inf
ROOT
ATOM      1  C   UNL     1     117.388 126.304 131.003  1.00  0.00     0.062 C 
ATOM      2  C   UNL     1     116.331 127.001 131.894  1.00  0.00     0.042 C 
ATOM      3  C   UNL     1     117.819 127.277 129.880  1.00  0.00     0.042 C 
ENDROOT
BRANCH   1   4
ATOM      4  C   UNL     1     116.860 124.956 130.389  1.00  0.00     0.024 C 
ATOM      5  C   UNL     1     115.513 121.882 132.969  1.00  0.00     0.039 C 
ATOM      6  C   UNL     1     115.197 121.841 131.491  1.00  0.00    -0.074 C 
ATOM      7  C   UNL     1     115.353 122.941 130.687  1.00  0.00    -0.065 C 
ATOM      8  C   UNL     1     114.837 120.478 130.930  1.00  0.00     0.031 C 
ATOM      9  C   UNL     1     115.759 124.299 131.255  1.00  0.00     0.038 C 
ATOM     10  C   UNL     1     114.947 122.922 129.203  1.00  0.00    -0.011 C 
ATOM     11  C   UNL     1     114.120 120.542 129.587  1.00  0.00     0.005 C 
ATOM     12  C   UNL     1     116.005 123.691 128.360  1.00  0.00     0.011 C 
ATOM     13  C   UNL     1     114.871 121.474 128.645  1.00  0.00     0.011 C 
ATOM     14  C   UNL     1     113.561 123.599 129.046  1.00  0.00     0.016 C 
ATOM     15  C   UNL     1     116.370 125.071 128.927  1.00  0.00     0.008 C 
ENDBRANCH   1   4
BRANCH   1  16
ATOM     16  O   UNL     1     118.524 126.003 131.782  1.00  0.00    -0.390 OA
ATOM     17  H   UNL     1     119.108 125.384 131.268  1.00  0.00     0.211 HD
ENDBRANCH   1  16
TORSDOF 2
ENDMDL
MODEL 7
REMARK VINA RESULT:    -5.693      4.469      6.226
REMARK INTER + INTRA:          -6.440
REMARK INTER:                  -6.186
REMARK INTRA:                  -0.254
REMARK UNBOUND:                -0.248
REMARK SMILES CC1=C2C[C@H](C(C)(C)O)CC[C@@]2(C)CCC1
REMARK SMILES IDX 6 1 7 2 8 3 5 4 1 5 2 6 3 7 16 8 4 9 12 10 15 11 11 12 14 13
REMARK SMILES IDX 13 14 10 15 9 16
REMARK H PARENT 9 17
REMARK Flexibility Score: inf
ROOT
ATOM      1  C   UNL     1     116.473 117.721 128.252  1.00  0.00     0.062 C 
ATOM      2  C   UNL     1     117.968 117.701 128.651  1.00  0.00     0.042 C 
ATOM      3  C   UNL     1     116.365 117.865 126.716  1.00  0.00     0.042 C 
ENDROOT
BRANCH   1   4
ATOM      4  C   UNL     1     115.676 118.871 128.970  1.00  0.00     0.024 C 
ATOM      5  C   UNL     1     117.303 120.681 132.433  1.00  0.00     0.039 C 
ATOM      6  C   UNL     1     116.151 121.326 131.696  1.00  0.00    -0.074 C 
ATOM      7  C   UNL     1     115.797 120.940 130.428  1.00  0.00    -0.065 C 
ATOM      8  C   UNL     1     115.329 122.322 132.493  1.00  0.00     0.031 C 
ATOM      9  C   UNL     1     116.606 119.904 129.649  1.00  0.00     0.038 C 
ATOM     10  C   UNL     1     114.684 121.657 129.646  1.00  0.00    -0.011 C 
ATOM     11  C   UNL     1     114.486 123.248 131.626  1.00  0.00     0.005 C 
ATOM     12  C   UNL     1     113.830 120.612 128.870  1.00  0.00     0.011 C 
ATOM     13  C   UNL     1     113.724 122.433 130.589  1.00  0.00     0.011 C 
ATOM     14  C   UNL     1     115.326 122.653 128.645  1.00  0.00     0.016 C 
ATOM     15  C   UNL     1     114.661 119.604 128.062  1.00  0.00     0.008 C 
ENDBRANCH   1   4
BRANCH   1  16
ATOM     16  O   UNL     1     115.879 116.496 128.620  1.00  0.00    -0.390 OA
ATOM     17  H   UNL     1     116.598 115.822 128.753  1.00  0.00     0.211 HD
ENDBRANCH   1  16
TORSDOF 2
ENDMDL
MODEL 8
REMARK VINA RESULT:    -5.632      1.897      3.330
REMARK INTER + INTRA:          -6.374
REMARK INTER:                  -6.130
REMARK INTRA:                  -0.244
REMARK UNBOUND:                -0.248
REMARK SMILES CC1=C2C[C@H](C(C)(C)O)CC[C@@]2(C)CCC1
REMARK SMILES IDX 6 1 7 2 8 3 5 4 1 5 2 6 3 7 16 8 4 9 12 10 15 11 11 12 14 13
REMARK SMILES IDX 13 14 10 15 9 16
REMARK H PARENT 9 17
REMARK Flexibility Score: inf
ROOT
ATOM      1  C   UNL     1     115.169 122.314 131.427  1.00  0.00     0.062 C 
ATOM      2  C   UNL     1     115.708 120.971 130.879  1.00  0.00     0.042 C 
ATOM      3  C   UNL     1     113.726 122.526 130.910  1.00  0.00     0.042 C 
ENDROOT
BRANCH   1   4
ATOM      4  C   UNL     1     116.080 123.532 131.032  1.00  0.00     0.024 C 
ATOM      5  C   UNL     1     118.461 123.301 127.540  1.00  0.00     0.039 C 
ATOM      6  C   UNL     1     118.222 124.629 128.223  1.00  0.00    -0.074 C 
ATOM      7  C   UNL     1     117.236 124.792 129.162  1.00  0.00    -0.065 C 
ATOM      8  C   UNL     1     119.225 125.724 127.911  1.00  0.00     0.031 C 
ATOM      9  C   UNL     1     116.257 123.669 129.501  1.00  0.00     0.038 C 
ATOM     10  C   UNL     1     116.936 126.164 129.790  1.00  0.00    -0.011 C 
ATOM     11  C   UNL     1     118.726 127.123 128.250  1.00  0.00     0.005 C 
ATOM     12  C   UNL     1     116.641 125.993 131.308  1.00  0.00     0.011 C 
ATOM     13  C   UNL     1     118.141 127.135 129.657  1.00  0.00     0.011 C 
ATOM     14  C   UNL     1     115.703 126.788 129.085  1.00  0.00     0.016 C 
ATOM     15  C   UNL     1     115.625 124.886 131.625  1.00  0.00     0.008 C 
ENDBRANCH   1   4
BRANCH   1  16
ATOM     16  O   UNL     1     115.124 122.253 132.836  1.00  0.00    -0.390 OA
ATOM     17  H   UNL     1     114.366 122.813 133.154  1.00  0.00     0.211 HD
ENDBRANCH   1  16
TORSDOF 2
ENDMDL
MODEL 9
REMARK VINA RESULT:    -5.604      2.838      4.755
REMARK INTER + INTRA:          -6.343
REMARK INTER:                  -6.114
REMARK INTRA:                  -0.229
REMARK UNBOUND:                -0.248
REMARK SMILES CC1=C2C[C@H](C(C)(C)O)CC[C@@]2(C)CCC1
REMARK SMILES IDX 6 1 7 2 8 3 5 4 1 5 2 6 3 7 16 8 4 9 12 10 15 11 11 12 14 13
REMARK SMILES IDX 13 14 10 15 9 16
REMARK H PARENT 9 17
REMARK Flexibility Score: inf
ROOT
ATOM      1  C   UNL     1     114.639 120.605 133.603  1.00  0.00     0.062 C 
ATOM      2  C   UNL     1     114.127 121.131 134.965  1.00  0.00     0.042 C 
ATOM      3  C   UNL     1     116.019 119.937 133.808  1.00  0.00     0.042 C 
ENDROOT
BRANCH   1   4
ATOM      4  C   UNL     1     114.732 121.740 132.519  1.00  0.00     0.024 C 
ATOM      5  C   UNL     1     118.531 123.218 131.376  1.00  0.00     0.039 C 
ATOM      6  C   UNL     1     117.305 123.520 130.544  1.00  0.00    -0.074 C 
ATOM      7  C   UNL     1     116.131 122.829 130.708  1.00  0.00    -0.065 C 
ATOM      8  C   UNL     1     117.409 124.720 129.623  1.00  0.00     0.031 C 
ATOM      9  C   UNL     1     116.023 121.648 131.671  1.00  0.00     0.038 C 
ATOM     10  C   UNL     1     114.914 123.076 129.801  1.00  0.00    -0.011 C 
ATOM     11  C   UNL     1     116.362 124.733 128.516  1.00  0.00     0.005 C 
ATOM     12  C   UNL     1     113.611 123.045 130.651  1.00  0.00     0.011 C 
ATOM     13  C   UNL     1     114.984 124.464 129.107  1.00  0.00     0.011 C 
ATOM     14  C   UNL     1     114.855 121.970 128.715  1.00  0.00     0.016 C 
ATOM     15  C   UNL     1     113.503 121.830 131.584  1.00  0.00     0.008 C 
ENDBRANCH   1   4
BRANCH   1  16
ATOM     16  O   UNL     1     113.746 119.626 133.121  1.00  0.00    -0.390 OA
ATOM     17  H   UNL     1     112.910 119.665 133.658  1.00  0.00     0.211 HD
ENDBRANCH   1  16
TORSDOF 2
ENDMDL
