MODEL 1
REMARK VINA RESULT:    -5.486      0.000      0.000
REMARK INTER + INTRA:         -10.495
REMARK INTER:                  -9.334
REMARK INTRA:                  -1.160
REMARK UNBOUND:                -1.160
REMARK SMILES CCCCCCCCCCCCCC(=O)[O-]
REMARK SMILES IDX 8 1 9 2 10 3 11 4 12 5 13 6 14 7 15 8 16 9 7 10 6 11 5 12
REMARK SMILES IDX 4 13 3 14 2 15 1 16
REMARK H PARENT
REMARK Flexibility Score: inf
ROOT
ATOM      1  C   UNL     1       8.587 -45.946  36.957  1.00  0.00     0.000 C 
ENDROOT
BRANCH   1   2
ATOM      2  C   UNL     1       8.338 -47.035  35.897  1.00  0.00     0.000 C 
BRANCH   2   3
ATOM      3  C   UNL     1       9.288 -46.928  34.691  1.00  0.00     0.000 C 
BRANCH   3   4
ATOM      4  C   UNL     1      10.184 -45.676  34.742  1.00  0.00     0.000 C 
BRANCH   4   5
ATOM      5  C   UNL     1      10.101 -44.755  33.507  1.00  0.00     0.006 C 
BRANCH   5   6
ATOM      6  C   UNL     1       8.797 -43.951  33.394  1.00  0.00     0.053 C 
BRANCH   6   7
ATOM      7  C   UNL     1       7.891 -44.496  32.333  1.00  0.00     0.041 C 
ATOM      8  O   UNL     1       6.750 -44.930  32.637  1.00  0.00    -0.550 OA
ATOM      9  O   UNL     1       8.322 -44.556  31.013  1.00  0.00    -0.550 OA
ENDBRANCH   6   7
ENDBRANCH   5   6
ENDBRANCH   4   5
ENDBRANCH   3   4
ENDBRANCH   2   3
ENDBRANCH   1   2
BRANCH   1  10
ATOM     10  C   UNL     1       8.527 -46.421  38.421  1.00  0.00     0.000 C 
BRANCH  10  11
ATOM     11  C   UNL     1       9.780 -47.202  38.851  1.00  0.00    -0.000 C 
BRANCH  11  12
ATOM     12  C   UNL     1      10.987 -46.290  39.137  1.00  0.00    -0.000 C 
BRANCH  12  13
ATOM     13  C   UNL     1      12.323 -46.747  38.515  1.00  0.00    -0.000 C 
BRANCH  13  14
ATOM     14  C   UNL     1      12.773 -45.954  37.275  1.00  0.00    -0.000 C 
BRANCH  14  15
ATOM     15  C   UNL     1      14.209 -46.285  36.846  1.00  0.00    -0.003 C 
ATOM     16  C   UNL     1      14.985 -46.942  37.983  1.00  0.00     0.004 C 
ENDBRANCH  14  15
ENDBRANCH  13  14
ENDBRANCH  12  13
ENDBRANCH  11  12
ENDBRANCH  10  11
ENDBRANCH   1  10
TORSDOF 12
ENDMDL
MODEL 2
REMARK VINA RESULT:    -5.469      1.402      2.482
REMARK INTER + INTRA:         -10.466
REMARK INTER:                  -9.396
REMARK INTRA:                  -1.070
REMARK UNBOUND:                -1.160
REMARK SMILES CCCCCCCCCCCCCC(=O)[O-]
REMARK SMILES IDX 8 1 9 2 10 3 11 4 12 5 13 6 14 7 15 8 16 9 7 10 6 11 5 12
REMARK SMILES IDX 4 13 3 14 2 15 1 16
REMARK H PARENT
REMARK Flexibility Score: inf
ROOT
ATOM      1  C   UNL     1       9.031 -46.243  38.541  1.00  0.00     0.000 C 
ENDROOT
BRANCH   1   2
ATOM      2  C   UNL     1       9.046 -47.718  38.097  1.00  0.00     0.000 C 
BRANCH   2   3
ATOM      3  C   UNL     1       7.990 -48.033  37.023  1.00  0.00     0.000 C 
BRANCH   3   4
ATOM      4  C   UNL     1       8.609 -48.352  35.649  1.00  0.00     0.000 C 
BRANCH   4   5
ATOM      5  C   UNL     1       8.589 -47.193  34.631  1.00  0.00     0.006 C 
BRANCH   5   6
ATOM      6  C   UNL     1       9.734 -46.182  34.791  1.00  0.00     0.053 C 
BRANCH   6   7
ATOM      7  C   UNL     1       9.632 -45.056  33.807  1.00  0.00     0.041 C 
ATOM      8  O   UNL     1       8.576 -44.374  33.734  1.00  0.00    -0.550 OA
ATOM      9  O   UNL     1      10.688 -44.784  32.947  1.00  0.00    -0.550 OA
ENDBRANCH   6   7
ENDBRANCH   5   6
ENDBRANCH   4   5
ENDBRANCH   3   4
ENDBRANCH   2   3
ENDBRANCH   1   2
BRANCH   1  10
ATOM     10  C   UNL     1      10.408 -45.555  38.600  1.00  0.00     0.000 C 
BRANCH  10  11
ATOM     11  C   UNL     1      11.562 -46.482  38.181  1.00  0.00    -0.000 C 
BRANCH  11  12
ATOM     12  C   UNL     1      12.373 -45.931  36.994  1.00  0.00    -0.000 C 
BRANCH  12  13
ATOM     13  C   UNL     1      13.901 -45.887  37.200  1.00  0.00    -0.000 C 
BRANCH  13  14
ATOM     14  C   UNL     1      14.484 -47.052  38.019  1.00  0.00    -0.000 C 
BRANCH  14  15
ATOM     15  C   UNL     1      15.261 -48.056  37.155  1.00  0.00    -0.003 C 
ATOM     16  C   UNL     1      16.001 -47.350  36.024  1.00  0.00     0.004 C 
ENDBRANCH  14  15
ENDBRANCH  13  14
ENDBRANCH  12  13
ENDBRANCH  11  12
ENDBRANCH  10  11
ENDBRANCH   1  10
TORSDOF 12
ENDMDL
MODEL 3
REMARK VINA RESULT:    -5.402      3.815      6.158
REMARK INTER + INTRA:         -10.351
REMARK INTER:                  -8.945
REMARK INTRA:                  -1.406
REMARK UNBOUND:                -1.160
REMARK SMILES CCCCCCCCCCCCCC(=O)[O-]
REMARK SMILES IDX 8 1 9 2 10 3 11 4 12 5 13 6 14 7 15 8 16 9 7 10 6 11 5 12
REMARK SMILES IDX 4 13 3 14 2 15 1 16
REMARK H PARENT
REMARK Flexibility Score: inf
ROOT
ATOM      1  C   UNL     1       6.990 -48.365  38.617  1.00  0.00     0.000 C 
ENDROOT
BRANCH   1   2
ATOM      2  C   UNL     1       7.932 -47.151  38.522  1.00  0.00     0.000 C 
BRANCH   2   3
ATOM      3  C   UNL     1       9.420 -47.538  38.576  1.00  0.00     0.000 C 
BRANCH   3   4
ATOM      4  C   UNL     1      10.345 -46.333  38.831  1.00  0.00     0.000 C 
BRANCH   4   5
ATOM      5  C   UNL     1      11.705 -46.378  38.104  1.00  0.00     0.006 C 
BRANCH   5   6
ATOM      6  C   UNL     1      12.840 -47.027  38.910  1.00  0.00     0.053 C 
BRANCH   6   7
ATOM      7  C   UNL     1      14.147 -46.978  38.178  1.00  0.00     0.041 C 
ATOM      8  O   UNL     1      14.168 -46.959  36.920  1.00  0.00    -0.550 OA
ATOM      9  O   UNL     1      15.342 -46.989  38.887  1.00  0.00    -0.550 OA
ENDBRANCH   6   7
ENDBRANCH   5   6
ENDBRANCH   4   5
ENDBRANCH   3   4
ENDBRANCH   2   3
ENDBRANCH   1   2
BRANCH   1  10
ATOM     10  C   UNL     1       6.569 -48.985  37.270  1.00  0.00     0.000 C 
BRANCH  10  11
ATOM     11  C   UNL     1       7.631 -49.934  36.687  1.00  0.00    -0.000 C 
BRANCH  11  12
ATOM     12  C   UNL     1       8.163 -49.470  35.319  1.00  0.00    -0.000 C 
BRANCH  12  13
ATOM     13  C   UNL     1       7.313 -48.396  34.609  1.00  0.00    -0.000 C 
BRANCH  13  14
ATOM     14  C   UNL     1       8.017 -47.044  34.391  1.00  0.00    -0.000 C 
BRANCH  14  15
ATOM     15  C   UNL     1       9.421 -46.997  35.010  1.00  0.00    -0.003 C 
ATOM     16  C   UNL     1      10.089 -45.649  34.757  1.00  0.00     0.004 C 
ENDBRANCH  14  15
ENDBRANCH  13  14
ENDBRANCH  12  13
ENDBRANCH  11  12
ENDBRANCH  10  11
ENDBRANCH   1  10
TORSDOF 12
ENDMDL
MODEL 4
REMARK VINA RESULT:    -5.352      1.175      2.132
REMARK INTER + INTRA:         -10.267
REMARK INTER:                  -9.026
REMARK INTRA:                  -1.241
REMARK UNBOUND:                -1.160
REMARK SMILES CCCCCCCCCCCCCC(=O)[O-]
REMARK SMILES IDX 8 1 9 2 10 3 11 4 12 5 13 6 14 7 15 8 16 9 7 10 6 11 5 12
REMARK SMILES IDX 4 13 3 14 2 15 1 16
REMARK H PARENT
REMARK Flexibility Score: inf
ROOT
ATOM      1  C   UNL     1       7.818 -47.953  35.580  1.00  0.00     0.000 C 
ENDROOT
BRANCH   1   2
ATOM      2  C   UNL     1       9.163 -47.346  35.139  1.00  0.00     0.000 C 
BRANCH   2   3
ATOM      3  C   UNL     1       9.100 -45.820  34.951  1.00  0.00     0.000 C 
BRANCH   3   4
ATOM      4  C   UNL     1      10.290 -45.266  34.146  1.00  0.00     0.000 C 
BRANCH   4   5
ATOM      5  C   UNL     1       9.954 -44.108  33.182  1.00  0.00     0.006 C 
BRANCH   5   6
ATOM      6  C   UNL     1       8.476 -43.688  33.178  1.00  0.00     0.053 C 
BRANCH   6   7
ATOM      7  C   UNL     1       7.684 -44.431  32.146  1.00  0.00     0.041 C 
ATOM      8  O   UNL     1       6.541 -44.879  32.427  1.00  0.00    -0.550 OA
ATOM      9  O   UNL     1       8.222 -44.658  30.885  1.00  0.00    -0.550 OA
ENDBRANCH   6   7
ENDBRANCH   5   6
ENDBRANCH   4   5
ENDBRANCH   3   4
ENDBRANCH   2   3
ENDBRANCH   1   2
BRANCH   1  10
ATOM     10  C   UNL     1       7.907 -49.039  36.670  1.00  0.00     0.000 C 
BRANCH  10  11
ATOM     11  C   UNL     1       7.343 -48.577  38.025  1.00  0.00    -0.000 C 
BRANCH  11  12
ATOM     12  C   UNL     1       7.975 -47.264  38.521  1.00  0.00    -0.000 C 
BRANCH  12  13
ATOM     13  C   UNL     1       9.466 -47.352  38.905  1.00  0.00    -0.000 C 
BRANCH  13  14
ATOM     14  C   UNL     1      10.323 -46.146  38.480  1.00  0.00    -0.000 C 
BRANCH  14  15
ATOM     15  C   UNL     1      11.812 -46.494  38.339  1.00  0.00    -0.003 C 
ATOM     16  C   UNL     1      12.411 -45.853  37.091  1.00  0.00     0.004 C 
ENDBRANCH  14  15
ENDBRANCH  13  14
ENDBRANCH  12  13
ENDBRANCH  11  12
ENDBRANCH  10  11
ENDBRANCH   1  10
TORSDOF 12
ENDMDL
MODEL 5
REMARK VINA RESULT:    -5.333      3.566      6.562
REMARK INTER + INTRA:         -10.234
REMARK INTER:                  -9.207
REMARK INTRA:                  -1.027
REMARK UNBOUND:                -1.160
REMARK SMILES CCCCCCCCCCCCCC(=O)[O-]
REMARK SMILES IDX 8 1 9 2 10 3 11 4 12 5 13 6 14 7 15 8 16 9 7 10 6 11 5 12
REMARK SMILES IDX 4 13 3 14 2 15 1 16
REMARK H PARENT
REMARK Flexibility Score: inf
ROOT
ATOM      1  C   UNL     1       8.320 -46.805  36.877  1.00  0.00     0.000 C 
ENDROOT
BRANCH   1   2
ATOM      2  C   UNL     1       8.744 -47.861  37.915  1.00  0.00     0.000 C 
BRANCH   2   3
ATOM      3  C   UNL     1       9.839 -47.358  38.871  1.00  0.00     0.000 C 
BRANCH   3   4
ATOM      4  C   UNL     1      10.462 -46.023  38.421  1.00  0.00     0.000 C 
BRANCH   4   5
ATOM      5  C   UNL     1      11.857 -46.131  37.769  1.00  0.00     0.006 C 
BRANCH   5   6
ATOM      6  C   UNL     1      12.899 -46.886  38.609  1.00  0.00     0.053 C 
BRANCH   6   7
ATOM      7  C   UNL     1      14.296 -46.631  38.132  1.00  0.00     0.041 C 
ATOM      8  O   UNL     1      14.495 -46.120  36.999  1.00  0.00    -0.550 OA
ATOM      9  O   UNL     1      15.379 -46.990  38.924  1.00  0.00    -0.550 OA
ENDBRANCH   6   7
ENDBRANCH   5   6
ENDBRANCH   4   5
ENDBRANCH   3   4
ENDBRANCH   2   3
ENDBRANCH   1   2
BRANCH   1  10
ATOM     10  C   UNL     1       8.039 -47.343  35.461  1.00  0.00     0.000 C 
BRANCH  10  11
ATOM     11  C   UNL     1       9.142 -46.980  34.451  1.00  0.00    -0.000 C 
BRANCH  11  12
ATOM     12  C   UNL     1       9.851 -45.656  34.788  1.00  0.00    -0.000 C 
BRANCH  12  13
ATOM     13  C   UNL     1      10.104 -44.717  33.591  1.00  0.00    -0.000 C 
BRANCH  13  14
ATOM     14  C   UNL     1       8.898 -43.861  33.166  1.00  0.00    -0.000 C 
BRANCH  14  15
ATOM     15  C   UNL     1       8.002 -44.564  32.136  1.00  0.00    -0.003 C 
ATOM     16  C   UNL     1       6.635 -43.892  32.046  1.00  0.00     0.004 C 
ENDBRANCH  14  15
ENDBRANCH  13  14
ENDBRANCH  12  13
ENDBRANCH  11  12
ENDBRANCH  10  11
ENDBRANCH   1  10
TORSDOF 12
ENDMDL
MODEL 6
REMARK VINA RESULT:    -5.314      2.349      3.357
REMARK INTER + INTRA:         -10.203
REMARK INTER:                  -8.965
REMARK INTRA:                  -1.238
REMARK UNBOUND:                -1.160
REMARK SMILES CCCCCCCCCCCCCC(=O)[O-]
REMARK SMILES IDX 8 1 9 2 10 3 11 4 12 5 13 6 14 7 15 8 16 9 7 10 6 11 5 12
REMARK SMILES IDX 4 13 3 14 2 15 1 16
REMARK H PARENT
REMARK Flexibility Score: inf
ROOT
ATOM      1  C   UNL     1       6.507 -48.929  37.421  1.00  0.00     0.000 C 
ENDROOT
BRANCH   1   2
ATOM      2  C   UNL     1       7.607 -49.644  36.614  1.00  0.00     0.000 C 
BRANCH   2   3
ATOM      3  C   UNL     1       7.350 -49.621  35.097  1.00  0.00     0.000 C 
BRANCH   3   4
ATOM      4  C   UNL     1       8.303 -48.675  34.342  1.00  0.00     0.000 C 
BRANCH   4   5
ATOM      5  C   UNL     1       9.123 -47.716  35.230  1.00  0.00     0.006 C 
BRANCH   5   6
ATOM      6  C   UNL     1       9.030 -46.235  34.831  1.00  0.00     0.053 C 
BRANCH   6   7
ATOM      7  C   UNL     1      10.379 -45.635  34.578  1.00  0.00     0.041 C 
ATOM      8  O   UNL     1      10.586 -44.959  33.537  1.00  0.00    -0.550 OA
ATOM      9  O   UNL     1      11.417 -45.853  35.476  1.00  0.00    -0.550 OA
ENDBRANCH   6   7
ENDBRANCH   5   6
ENDBRANCH   4   5
ENDBRANCH   3   4
ENDBRANCH   2   3
ENDBRANCH   1   2
BRANCH   1  10
ATOM     10  C   UNL     1       6.895 -48.521  38.855  1.00  0.00     0.000 C 
BRANCH  10  11
ATOM     11  C   UNL     1       6.997 -46.997  39.039  1.00  0.00    -0.000 C 
BRANCH  11  12
ATOM     12  C   UNL     1       8.365 -46.432  38.617  1.00  0.00    -0.000 C 
BRANCH  12  13
ATOM     13  C   UNL     1       9.571 -47.358  38.876  1.00  0.00    -0.000 C 
BRANCH  13  14
ATOM     14  C   UNL     1      10.950 -46.680  38.774  1.00  0.00    -0.000 C 
BRANCH  14  15
ATOM     15  C   UNL     1      11.942 -47.188  39.830  1.00  0.00    -0.003 C 
ATOM     16  C   UNL     1      13.314 -47.448  39.214  1.00  0.00     0.004 C 
ENDBRANCH  14  15
ENDBRANCH  13  14
ENDBRANCH  12  13
ENDBRANCH  11  12
ENDBRANCH  10  11
ENDBRANCH   1  10
TORSDOF 12
ENDMDL
MODEL 7
REMARK VINA RESULT:    -5.227      3.495      6.206
REMARK INTER + INTRA:         -10.054
REMARK INTER:                  -9.130
REMARK INTRA:                  -0.923
REMARK UNBOUND:                -1.160
REMARK SMILES CCCCCCCCCCCCCC(=O)[O-]
REMARK SMILES IDX 8 1 9 2 10 3 11 4 12 5 13 6 14 7 15 8 16 9 7 10 6 11 5 12
REMARK SMILES IDX 4 13 3 14 2 15 1 16
REMARK H PARENT
REMARK Flexibility Score: inf
ROOT
ATOM      1  C   UNL     1       9.193 -46.591  38.439  1.00  0.00     0.000 C 
ENDROOT
BRANCH   1   2
ATOM      2  C   UNL     1      10.466 -45.731  38.553  1.00  0.00     0.000 C 
BRANCH   2   3
ATOM      3  C   UNL     1      11.704 -46.407  37.938  1.00  0.00     0.000 C 
BRANCH   3   4
ATOM      4  C   UNL     1      12.675 -46.959  38.998  1.00  0.00     0.000 C 
BRANCH   4   5
ATOM      5  C   UNL     1      14.109 -47.235  38.499  1.00  0.00     0.006 C 
BRANCH   5   6
ATOM      6  C   UNL     1      14.476 -46.533  37.183  1.00  0.00     0.053 C 
BRANCH   6   7
ATOM      7  C   UNL     1      15.479 -47.314  36.390  1.00  0.00     0.041 C 
ATOM      8  O   UNL     1      16.529 -47.738  36.939  1.00  0.00    -0.550 OA
ATOM      9  O   UNL     1      15.269 -47.544  35.036  1.00  0.00    -0.550 OA
ENDBRANCH   6   7
ENDBRANCH   5   6
ENDBRANCH   4   5
ENDBRANCH   3   4
ENDBRANCH   2   3
ENDBRANCH   1   2
BRANCH   1  10
ATOM     10  C   UNL     1       8.285 -46.275  37.235  1.00  0.00     0.000 C 
BRANCH  10  11
ATOM     11  C   UNL     1       8.072 -47.486  36.310  1.00  0.00    -0.000 C 
BRANCH  11  12
ATOM     12  C   UNL     1       9.143 -47.595  35.209  1.00  0.00    -0.000 C 
BRANCH  12  13
ATOM     13  C   UNL     1       9.148 -46.449  34.176  1.00  0.00    -0.000 C 
BRANCH  13  14
ATOM     14  C   UNL     1      10.254 -45.397  34.373  1.00  0.00    -0.000 C 
BRANCH  14  15
ATOM     15  C   UNL     1      10.281 -44.346  33.253  1.00  0.00    -0.003 C 
ATOM     16  C   UNL     1       8.894 -43.754  33.022  1.00  0.00     0.004 C 
ENDBRANCH  14  15
ENDBRANCH  13  14
ENDBRANCH  12  13
ENDBRANCH  11  12
ENDBRANCH  10  11
ENDBRANCH   1  10
TORSDOF 12
ENDMDL
MODEL 8
REMARK VINA RESULT:    -5.188      3.885      6.711
REMARK INTER + INTRA:          -9.989
REMARK INTER:                  -8.871
REMARK INTRA:                  -1.117
REMARK UNBOUND:                -1.160
REMARK SMILES CCCCCCCCCCCCCC(=O)[O-]
REMARK SMILES IDX 8 1 9 2 10 3 11 4 12 5 13 6 14 7 15 8 16 9 7 10 6 11 5 12
REMARK SMILES IDX 4 13 3 14 2 15 1 16
REMARK H PARENT
REMARK Flexibility Score: inf
ROOT
ATOM      1  C   UNL     1       8.740 -45.821  36.587  1.00  0.00     0.000 C 
ENDROOT
BRANCH   1   2
ATOM      2  C   UNL     1       8.888 -46.259  38.056  1.00  0.00     0.000 C 
BRANCH   2   3
ATOM      3  C   UNL     1      10.274 -45.941  38.641  1.00  0.00     0.000 C 
BRANCH   3   4
ATOM      4  C   UNL     1      10.901 -47.136  39.383  1.00  0.00     0.000 C 
BRANCH   4   5
ATOM      5  C   UNL     1      12.437 -47.244  39.283  1.00  0.00     0.006 C 
BRANCH   5   6
ATOM      6  C   UNL     1      13.049 -46.552  38.055  1.00  0.00     0.053 C 
BRANCH   6   7
ATOM      7  C   UNL     1      14.465 -46.979  37.817  1.00  0.00     0.041 C 
ATOM      8  O   UNL     1      14.817 -47.403  36.685  1.00  0.00    -0.550 OA
ATOM      9  O   UNL     1      15.388 -46.940  38.855  1.00  0.00    -0.550 OA
ENDBRANCH   6   7
ENDBRANCH   5   6
ENDBRANCH   4   5
ENDBRANCH   3   4
ENDBRANCH   2   3
ENDBRANCH   1   2
BRANCH   1  10
ATOM     10  C   UNL     1       9.553 -46.640  35.566  1.00  0.00     0.000 C 
BRANCH  10  11
ATOM     11  C   UNL     1       9.216 -46.288  34.107  1.00  0.00    -0.000 C 
BRANCH  11  12
ATOM     12  C   UNL     1       8.519 -47.439  33.358  1.00  0.00    -0.000 C 
BRANCH  12  13
ATOM     13  C   UNL     1       8.424 -48.769  34.133  1.00  0.00    -0.000 C 
BRANCH  13  14
ATOM     14  C   UNL     1       6.993 -49.260  34.417  1.00  0.00    -0.000 C 
BRANCH  14  15
ATOM     15  C   UNL     1       6.917 -50.206  35.624  1.00  0.00    -0.003 C 
ATOM     16  C   UNL     1       7.630 -49.611  36.834  1.00  0.00     0.004 C 
ENDBRANCH  14  15
ENDBRANCH  13  14
ENDBRANCH  12  13
ENDBRANCH  11  12
ENDBRANCH  10  11
ENDBRANCH   1  10
TORSDOF 12
ENDMDL
MODEL 9
REMARK VINA RESULT:    -5.140      1.199      1.665
REMARK INTER + INTRA:          -9.906
REMARK INTER:                  -9.122
REMARK INTRA:                  -0.784
REMARK UNBOUND:                -1.160
REMARK SMILES CCCCCCCCCCCCCC(=O)[O-]
REMARK SMILES IDX 8 1 9 2 10 3 11 4 12 5 13 6 14 7 15 8 16 9 7 10 6 11 5 12
REMARK SMILES IDX 4 13 3 14 2 15 1 16
REMARK H PARENT
REMARK Flexibility Score: inf
ROOT
ATOM      1  C   UNL     1       9.145 -46.389  35.927  1.00  0.00     0.000 C 
ENDROOT
BRANCH   1   2
ATOM      2  C   UNL     1      10.294 -45.774  35.107  1.00  0.00     0.000 C 
BRANCH   2   3
ATOM      3  C   UNL     1       9.934 -45.575  33.624  1.00  0.00     0.000 C 
BRANCH   3   4
ATOM      4  C   UNL     1       9.773 -44.093  33.239  1.00  0.00     0.000 C 
BRANCH   4   5
ATOM      5  C   UNL     1       8.348 -43.670  32.823  1.00  0.00     0.006 C 
BRANCH   5   6
ATOM      6  C   UNL     1       7.795 -44.407  31.594  1.00  0.00     0.053 C 
BRANCH   6   7
ATOM      7  C   UNL     1       6.405 -44.919  31.825  1.00  0.00     0.041 C 
ATOM      8  O   UNL     1       6.166 -45.688  32.792  1.00  0.00    -0.550 OA
ATOM      9  O   UNL     1       5.382 -44.574  30.951  1.00  0.00    -0.550 OA
ENDBRANCH   6   7
ENDBRANCH   5   6
ENDBRANCH   4   5
ENDBRANCH   3   4
ENDBRANCH   2   3
ENDBRANCH   1   2
BRANCH   1  10
ATOM     10  C   UNL     1       9.544 -46.962  37.300  1.00  0.00     0.000 C 
BRANCH  10  11
ATOM     11  C   UNL     1      10.402 -45.992  38.130  1.00  0.00    -0.000 C 
BRANCH  11  12
ATOM     12  C   UNL     1      11.328 -46.713  39.127  1.00  0.00    -0.000 C 
BRANCH  12  13
ATOM     13  C   UNL     1      12.784 -46.908  38.655  1.00  0.00    -0.000 C 
BRANCH  13  14
ATOM     14  C   UNL     1      13.153 -46.176  37.353  1.00  0.00    -0.000 C 
BRANCH  14  15
ATOM     15  C   UNL     1      14.643 -46.296  37.004  1.00  0.00    -0.003 C 
ATOM     16  C   UNL     1      15.165 -47.700  37.297  1.00  0.00     0.004 C 
ENDBRANCH  14  15
ENDBRANCH  13  14
ENDBRANCH  12  13
ENDBRANCH  11  12
ENDBRANCH  10  11
ENDBRANCH   1  10
TORSDOF 12
ENDMDL
