MODEL 1
REMARK VINA RESULT:    -6.168      0.000      0.000
REMARK INTER + INTRA:          -9.141
REMARK INTER:                  -8.331
REMARK INTRA:                  -0.809
REMARK UNBOUND:                -0.809
REMARK SMILES CC(=O)CCC=C(C)CCC=C(C)C
REMARK SMILES IDX 7 1 6 2 8 3 9 4 10 5 11 6 13 7 12 8 14 9 5 10 4 11 2 12 3 13
REMARK SMILES IDX 1 14
REMARK H PARENT
REMARK Flexibility Score: inf
ROOT
ATOM      1  C   UNL     1     -11.352 -16.504  29.610  1.00  0.00    -0.077 C 
ATOM      2  C   UNL     1     -12.112 -16.632  30.722  1.00  0.00    -0.028 C 
ATOM      3  C   UNL     1     -10.202 -17.438  29.316  1.00  0.00     0.039 C 
ENDROOT
BRANCH   1   4
ATOM      4  C   UNL     1     -11.621 -15.359  28.657  1.00  0.00     0.034 C 
BRANCH   4   5
ATOM      5  C   UNL     1     -13.036 -15.428  28.067  1.00  0.00     0.032 C 
BRANCH   5   6
ATOM      6  C   UNL     1     -13.701 -14.071  28.070  1.00  0.00    -0.028 C 
ATOM      7  C   UNL     1     -15.034 -12.200  28.942  1.00  0.00     0.039 C 
ATOM      8  C   UNL     1     -14.367 -13.539  29.119  1.00  0.00    -0.080 C 
ATOM      9  C   UNL     1     -14.464 -14.246  30.451  1.00  0.00     0.039 C 
ENDBRANCH   5   6
ENDBRANCH   4   5
ENDBRANCH   1   4
BRANCH   2  10
ATOM     10  C   UNL     1     -11.946 -17.721  31.753  1.00  0.00     0.035 C 
BRANCH  10  11
ATOM     11  C   UNL     1     -13.077 -18.757  31.690  1.00  0.00     0.079 C 
BRANCH  11  12
ATOM     12  C   UNL     1     -12.747 -19.890  30.753  1.00  0.00     0.130 C 
ATOM     13  O   UNL     1     -12.133 -20.862  31.166  1.00  0.00    -0.300 OA
ATOM     14  C   UNL     1     -13.197 -19.848  29.324  1.00  0.00     0.087 C 
ENDBRANCH  11  12
ENDBRANCH  10  11
ENDBRANCH   2  10
TORSDOF 6
ENDMDL
MODEL 2
REMARK VINA RESULT:    -6.108      1.257      2.093
REMARK INTER + INTRA:          -9.059
REMARK INTER:                  -8.273
REMARK INTRA:                  -0.786
REMARK UNBOUND:                -0.809
REMARK SMILES CC(=O)CCC=C(C)CCC=C(C)C
REMARK SMILES IDX 7 1 6 2 8 3 9 4 10 5 11 6 13 7 12 8 14 9 5 10 4 11 2 12 3 13
REMARK SMILES IDX 1 14
REMARK H PARENT
REMARK Flexibility Score: inf
ROOT
ATOM      1  C   UNL     1     -12.626 -17.563  27.712  1.00  0.00    -0.077 C 
ATOM      2  C   UNL     1     -13.469 -18.489  28.226  1.00  0.00    -0.028 C 
ATOM      3  C   UNL     1     -11.146 -17.826  27.562  1.00  0.00     0.039 C 
ENDROOT
BRANCH   1   4
ATOM      4  C   UNL     1     -13.166 -16.203  27.327  1.00  0.00     0.034 C 
BRANCH   4   5
ATOM      5  C   UNL     1     -12.689 -15.107  28.288  1.00  0.00     0.032 C 
BRANCH   5   6
ATOM      6  C   UNL     1     -13.652 -13.942  28.317  1.00  0.00    -0.028 C 
ATOM      7  C   UNL     1     -15.396 -12.461  29.214  1.00  0.00     0.039 C 
ATOM      8  C   UNL     1     -14.439 -13.615  29.366  1.00  0.00    -0.080 C 
ATOM      9  C   UNL     1     -14.389 -14.371  30.673  1.00  0.00     0.039 C 
ENDBRANCH   5   6
ENDBRANCH   4   5
ENDBRANCH   1   4
BRANCH   2  10
ATOM     10  C   UNL     1     -13.059 -19.877  28.655  1.00  0.00     0.035 C 
BRANCH  10  11
ATOM     11  C   UNL     1     -13.166 -20.069  30.174  1.00  0.00     0.079 C 
BRANCH  11  12
ATOM     12  C   UNL     1     -12.349 -19.050  30.926  1.00  0.00     0.130 C 
ATOM     13  O   UNL     1     -11.130 -19.119  30.916  1.00  0.00    -0.300 OA
ATOM     14  C   UNL     1     -13.024 -17.931  31.660  1.00  0.00     0.087 C 
ENDBRANCH  11  12
ENDBRANCH  10  11
ENDBRANCH   2  10
TORSDOF 6
ENDMDL
MODEL 3
REMARK VINA RESULT:    -6.071      1.887      4.919
REMARK INTER + INTRA:          -9.010
REMARK INTER:                  -8.472
REMARK INTRA:                  -0.538
REMARK UNBOUND:                -0.809
REMARK SMILES CC(=O)CCC=C(C)CCC=C(C)C
REMARK SMILES IDX 7 1 6 2 8 3 9 4 10 5 11 6 13 7 12 8 14 9 5 10 4 11 2 12 3 13
REMARK SMILES IDX 1 14
REMARK H PARENT
REMARK Flexibility Score: inf
ROOT
ATOM      1  C   UNL     1     -13.938 -14.657  30.253  1.00  0.00    -0.077 C 
ATOM      2  C   UNL     1     -12.923 -15.322  29.655  1.00  0.00    -0.028 C 
ATOM      3  C   UNL     1     -14.701 -13.560  29.547  1.00  0.00     0.039 C 
ENDROOT
BRANCH   1   4
ATOM      4  C   UNL     1     -14.287 -14.976  31.691  1.00  0.00     0.034 C 
BRANCH   4   5
ATOM      5  C   UNL     1     -13.218 -15.852  32.357  1.00  0.00     0.032 C 
BRANCH   5   6
ATOM      6  C   UNL     1     -13.446 -17.317  32.066  1.00  0.00    -0.028 C 
ATOM      7  C   UNL     1     -12.890 -19.603  31.357  1.00  0.00     0.039 C 
ATOM      8  C   UNL     1     -12.488 -18.186  31.672  1.00  0.00    -0.080 C 
ATOM      9  C   UNL     1     -11.040 -17.777  31.537  1.00  0.00     0.039 C 
ENDBRANCH   5   6
ENDBRANCH   4   5
ENDBRANCH   1   4
BRANCH   2  10
ATOM     10  C   UNL     1     -12.470 -15.096  28.233  1.00  0.00     0.035 C 
BRANCH  10  11
ATOM     11  C   UNL     1     -12.975 -16.192  27.284  1.00  0.00     0.079 C 
BRANCH  11  12
ATOM     12  C   UNL     1     -11.979 -17.313  27.141  1.00  0.00     0.130 C 
ATOM     13  O   UNL     1     -11.997 -18.247  27.928  1.00  0.00    -0.300 OA
ATOM     14  C   UNL     1     -10.987 -17.307  26.018  1.00  0.00     0.087 C 
ENDBRANCH  11  12
ENDBRANCH  10  11
ENDBRANCH   2  10
TORSDOF 6
ENDMDL
MODEL 4
REMARK VINA RESULT:    -6.028      1.633      2.853
REMARK INTER + INTRA:          -8.951
REMARK INTER:                  -8.144
REMARK INTRA:                  -0.807
REMARK UNBOUND:                -0.809
REMARK SMILES CC(=O)CCC=C(C)CCC=C(C)C
REMARK SMILES IDX 7 1 6 2 8 3 9 4 10 5 11 6 13 7 12 8 14 9 5 10 4 11 2 12 3 13
REMARK SMILES IDX 1 14
REMARK H PARENT
REMARK Flexibility Score: inf
ROOT
ATOM      1  C   UNL     1     -12.960 -16.968  32.001  1.00  0.00    -0.077 C 
ATOM      2  C   UNL     1     -13.255 -18.236  31.634  1.00  0.00    -0.028 C 
ATOM      3  C   UNL     1     -11.535 -16.485  32.137  1.00  0.00     0.039 C 
ENDROOT
BRANCH   1   4
ATOM      4  C   UNL     1     -14.086 -16.015  32.342  1.00  0.00     0.034 C 
BRANCH   4   5
ATOM      5  C   UNL     1     -14.079 -14.777  31.436  1.00  0.00     0.032 C 
BRANCH   5   6
ATOM      6  C   UNL     1     -13.673 -15.129  30.024  1.00  0.00    -0.028 C 
ATOM      7  C   UNL     1     -13.546 -14.917  27.579  1.00  0.00     0.039 C 
ATOM      8  C   UNL     1     -13.967 -14.394  28.928  1.00  0.00    -0.080 C 
ATOM      9  C   UNL     1     -14.705 -13.079  29.018  1.00  0.00     0.039 C 
ENDBRANCH   5   6
ENDBRANCH   4   5
ENDBRANCH   1   4
BRANCH   2  10
ATOM     10  C   UNL     1     -12.230 -19.284  31.276  1.00  0.00     0.035 C 
BRANCH  10  11
ATOM     11  C   UNL     1     -12.453 -19.855  29.868  1.00  0.00     0.079 C 
BRANCH  11  12
ATOM     12  C   UNL     1     -12.569 -18.765  28.834  1.00  0.00     0.130 C 
ATOM     13  O   UNL     1     -13.615 -18.616  28.222  1.00  0.00    -0.300 OA
ATOM     14  C   UNL     1     -11.419 -17.840  28.575  1.00  0.00     0.087 C 
ENDBRANCH  11  12
ENDBRANCH  10  11
ENDBRANCH   2  10
TORSDOF 6
ENDMDL
MODEL 5
REMARK VINA RESULT:    -6.019      2.213      4.816
REMARK INTER + INTRA:          -8.939
REMARK INTER:                  -7.818
REMARK INTRA:                  -1.121
REMARK UNBOUND:                -0.809
REMARK SMILES CC(=O)CCC=C(C)CCC=C(C)C
REMARK SMILES IDX 7 1 6 2 8 3 9 4 10 5 11 6 13 7 12 8 14 9 5 10 4 11 2 12 3 13
REMARK SMILES IDX 1 14
REMARK H PARENT
REMARK Flexibility Score: inf
ROOT
ATOM      1  C   UNL     1     -12.397 -18.868  29.144  1.00  0.00    -0.077 C 
ATOM      2  C   UNL     1     -11.408 -17.956  28.997  1.00  0.00    -0.028 C 
ATOM      3  C   UNL     1     -13.631 -18.856  28.273  1.00  0.00     0.039 C 
ENDROOT
BRANCH   1   4
ATOM      4  C   UNL     1     -12.296 -19.898  30.248  1.00  0.00     0.034 C 
BRANCH   4   5
ATOM      5  C   UNL     1     -12.235 -19.245  31.635  1.00  0.00     0.032 C 
BRANCH   5   6
ATOM      6  C   UNL     1     -13.256 -18.139  31.769  1.00  0.00    -0.028 C 
ATOM      7  C   UNL     1     -14.118 -15.895  32.280  1.00  0.00     0.039 C 
ATOM      8  C   UNL     1     -12.976 -16.866  32.126  1.00  0.00    -0.080 C 
ATOM      9  C   UNL     1     -11.562 -16.395  32.377  1.00  0.00     0.039 C 
ENDBRANCH   5   6
ENDBRANCH   4   5
ENDBRANCH   1   4
BRANCH   2  10
ATOM     10  C   UNL     1     -11.389 -16.874  27.945  1.00  0.00     0.035 C 
BRANCH  10  11
ATOM     11  C   UNL     1     -11.820 -15.512  28.505  1.00  0.00     0.079 C 
BRANCH  11  12
ATOM     12  C   UNL     1     -13.155 -15.078  27.957  1.00  0.00     0.130 C 
ATOM     13  O   UNL     1     -13.620 -15.633  26.974  1.00  0.00    -0.300 OA
ATOM     14  C   UNL     1     -13.934 -13.989  28.632  1.00  0.00     0.087 C 
ENDBRANCH  11  12
ENDBRANCH  10  11
ENDBRANCH   2  10
TORSDOF 6
ENDMDL
MODEL 6
REMARK VINA RESULT:    -5.956      1.845      4.590
REMARK INTER + INTRA:          -8.854
REMARK INTER:                  -8.416
REMARK INTRA:                  -0.438
REMARK UNBOUND:                -0.809
REMARK SMILES CC(=O)CCC=C(C)CCC=C(C)C
REMARK SMILES IDX 7 1 6 2 8 3 9 4 10 5 11 6 13 7 12 8 14 9 5 10 4 11 2 12 3 13
REMARK SMILES IDX 1 14
REMARK H PARENT
REMARK Flexibility Score: inf
ROOT
ATOM      1  C   UNL     1     -13.168 -14.987  28.892  1.00  0.00    -0.077 C 
ATOM      2  C   UNL     1     -13.399 -15.202  30.207  1.00  0.00    -0.028 C 
ATOM      3  C   UNL     1     -14.022 -14.047  28.073  1.00  0.00     0.039 C 
ENDROOT
BRANCH   1   4
ATOM      4  C   UNL     1     -12.058 -15.749  28.201  1.00  0.00     0.034 C 
BRANCH   4   5
ATOM      5  C   UNL     1     -11.720 -17.054  28.934  1.00  0.00     0.032 C 
BRANCH   5   6
ATOM      6  C   UNL     1     -12.500 -18.220  28.371  1.00  0.00    -0.028 C 
ATOM      7  C   UNL     1     -13.705 -20.361  28.382  1.00  0.00     0.039 C 
ATOM      8  C   UNL     1     -13.007 -19.237  29.102  1.00  0.00    -0.080 C 
ATOM      9  C   UNL     1     -12.889 -19.280  30.608  1.00  0.00     0.039 C 
ENDBRANCH   5   6
ENDBRANCH   4   5
ENDBRANCH   1   4
BRANCH   2  10
ATOM     10  C   UNL     1     -14.476 -14.514  31.012  1.00  0.00     0.035 C 
BRANCH  10  11
ATOM     11  C   UNL     1     -14.359 -14.815  32.512  1.00  0.00     0.079 C 
BRANCH  11  12
ATOM     12  C   UNL     1     -13.667 -16.129  32.768  1.00  0.00     0.130 C 
ATOM     13  O   UNL     1     -14.327 -17.132  32.987  1.00  0.00    -0.300 OA
ATOM     14  C   UNL     1     -12.171 -16.219  32.723  1.00  0.00     0.087 C 
ENDBRANCH  11  12
ENDBRANCH  10  11
ENDBRANCH   2  10
TORSDOF 6
ENDMDL
MODEL 7
REMARK VINA RESULT:    -5.946      1.459      3.361
REMARK INTER + INTRA:          -8.841
REMARK INTER:                  -8.401
REMARK INTRA:                  -0.440
REMARK UNBOUND:                -0.809
REMARK SMILES CC(=O)CCC=C(C)CCC=C(C)C
REMARK SMILES IDX 7 1 6 2 8 3 9 4 10 5 11 6 13 7 12 8 14 9 5 10 4 11 2 12 3 13
REMARK SMILES IDX 1 14
REMARK H PARENT
REMARK Flexibility Score: inf
ROOT
ATOM      1  C   UNL     1     -13.093 -14.957  28.105  1.00  0.00    -0.077 C 
ATOM      2  C   UNL     1     -11.882 -15.190  28.661  1.00  0.00    -0.028 C 
ATOM      3  C   UNL     1     -13.621 -15.789  26.960  1.00  0.00     0.039 C 
ENDROOT
BRANCH   1   4
ATOM      4  C   UNL     1     -13.925 -13.794  28.602  1.00  0.00     0.034 C 
BRANCH   4   5
ATOM      5  C   UNL     1     -14.312 -13.960  30.078  1.00  0.00     0.032 C 
BRANCH   5   6
ATOM      6  C   UNL     1     -13.908 -15.318  30.604  1.00  0.00    -0.028 C 
ATOM      7  C   UNL     1     -13.393 -17.040  32.280  1.00  0.00     0.039 C 
ATOM      8  C   UNL     1     -13.884 -15.664  31.911  1.00  0.00    -0.080 C 
ATOM      9  C   UNL     1     -14.327 -14.717  33.001  1.00  0.00     0.039 C 
ENDBRANCH   5   6
ENDBRANCH   4   5
ENDBRANCH   1   4
BRANCH   2  10
ATOM     10  C   UNL     1     -10.953 -16.309  28.254  1.00  0.00     0.035 C 
BRANCH  10  11
ATOM     11  C   UNL     1     -10.407 -17.077  29.466  1.00  0.00     0.079 C 
BRANCH  11  12
ATOM     12  C   UNL     1     -11.092 -18.408  29.640  1.00  0.00     0.130 C 
ATOM     13  O   UNL     1     -10.600 -19.255  30.370  1.00  0.00    -0.300 OA
ATOM     14  C   UNL     1     -12.392 -18.688  28.949  1.00  0.00     0.087 C 
ENDBRANCH  11  12
ENDBRANCH  10  11
ENDBRANCH   2  10
TORSDOF 6
ENDMDL
MODEL 8
REMARK VINA RESULT:    -5.926      2.558      5.436
REMARK INTER + INTRA:          -8.814
REMARK INTER:                  -7.896
REMARK INTRA:                  -0.917
REMARK UNBOUND:                -0.809
REMARK SMILES CC(=O)CCC=C(C)CCC=C(C)C
REMARK SMILES IDX 7 1 6 2 8 3 9 4 10 5 11 6 13 7 12 8 14 9 5 10 4 11 2 12 3 13
REMARK SMILES IDX 1 14
REMARK H PARENT
REMARK Flexibility Score: inf
ROOT
ATOM      1  C   UNL     1     -11.155 -16.485  28.191  1.00  0.00    -0.077 C 
ATOM      2  C   UNL     1     -11.999 -15.546  28.677  1.00  0.00    -0.028 C 
ATOM      3  C   UNL     1     -11.462 -17.263  26.932  1.00  0.00     0.039 C 
ENDROOT
BRANCH   1   4
ATOM      4  C   UNL     1      -9.890 -16.810  28.955  1.00  0.00     0.034 C 
BRANCH   4   5
ATOM      5  C   UNL     1     -10.184 -17.182  30.414  1.00  0.00     0.032 C 
BRANCH   5   6
ATOM      6  C   UNL     1     -10.737 -18.584  30.525  1.00  0.00    -0.028 C 
ATOM      7  C   UNL     1     -12.337 -20.352  31.118  1.00  0.00     0.039 C 
ATOM      8  C   UNL     1     -11.958 -18.898  31.011  1.00  0.00    -0.080 C 
ATOM      9  C   UNL     1     -12.943 -17.840  31.451  1.00  0.00     0.039 C 
ENDBRANCH   5   6
ENDBRANCH   4   5
ENDBRANCH   1   4
BRANCH   2  10
ATOM     10  C   UNL     1     -13.293 -15.133  28.018  1.00  0.00     0.035 C 
BRANCH  10  11
ATOM     11  C   UNL     1     -13.739 -13.729  28.447  1.00  0.00     0.079 C 
BRANCH  11  12
ATOM     12  C   UNL     1     -14.763 -13.779  29.551  1.00  0.00     0.130 C 
ATOM     13  O   UNL     1     -15.884 -13.334  29.362  1.00  0.00    -0.300 OA
ATOM     14  C   UNL     1     -14.423 -14.402  30.871  1.00  0.00     0.087 C 
ENDBRANCH  11  12
ENDBRANCH  10  11
ENDBRANCH   2  10
TORSDOF 6
ENDMDL
MODEL 9
REMARK VINA RESULT:    -5.899      1.410      3.097
REMARK INTER + INTRA:          -8.777
REMARK INTER:                  -7.816
REMARK INTRA:                  -0.962
REMARK UNBOUND:                -0.809
REMARK SMILES CC(=O)CCC=C(C)CCC=C(C)C
REMARK SMILES IDX 7 1 6 2 8 3 9 4 10 5 11 6 13 7 12 8 14 9 5 10 4 11 2 12 3 13
REMARK SMILES IDX 1 14
REMARK H PARENT
REMARK Flexibility Score: inf
ROOT
ATOM      1  C   UNL     1     -14.015 -15.124  31.216  1.00  0.00    -0.077 C 
ATOM      2  C   UNL     1     -13.114 -16.105  30.981  1.00  0.00    -0.028 C 
ATOM      3  C   UNL     1     -14.716 -14.984  32.547  1.00  0.00     0.039 C 
ENDROOT
BRANCH   1   4
ATOM      4  C   UNL     1     -14.377 -14.168  30.099  1.00  0.00     0.034 C 
BRANCH   4   5
ATOM      5  C   UNL     1     -13.300 -14.133  29.007  1.00  0.00     0.032 C 
BRANCH   5   6
ATOM      6  C   UNL     1     -13.679 -15.003  27.831  1.00  0.00    -0.028 C 
ATOM      7  C   UNL     1     -13.384 -16.687  26.066  1.00  0.00     0.039 C 
ATOM      8  C   UNL     1     -12.884 -15.948  27.280  1.00  0.00    -0.080 C 
ATOM      9  C   UNL     1     -11.520 -16.276  27.840  1.00  0.00     0.039 C 
ENDBRANCH   5   6
ENDBRANCH   4   5
ENDBRANCH   1   4
BRANCH   2  10
ATOM     10  C   UNL     1     -12.670 -17.124  32.003  1.00  0.00     0.035 C 
BRANCH  10  11
ATOM     11  C   UNL     1     -13.037 -18.556  31.590  1.00  0.00     0.079 C 
BRANCH  11  12
ATOM     12  C   UNL     1     -12.340 -18.969  30.320  1.00  0.00     0.130 C 
ATOM     13  O   UNL     1     -11.119 -18.989  30.274  1.00  0.00    -0.300 OA
ATOM     14  C   UNL     1     -13.135 -19.388  29.120  1.00  0.00     0.087 C 
ENDBRANCH  11  12
ENDBRANCH  10  11
ENDBRANCH   2  10
TORSDOF 6
ENDMDL
