MODEL 1
REMARK VINA RESULT:    -3.120      0.000      0.000
REMARK INTER + INTRA:          -4.848
REMARK INTER:                  -4.306
REMARK INTRA:                  -0.542
REMARK UNBOUND:                -0.542
REMARK SMILES OC[C@H](O)C(O)[C@@H](O)CO
REMARK SMILES IDX 5 1 7 2 9 3 10 4 8 6 3 8 2 9 1 10 4 12 6 14
REMARK H PARENT 10 5 8 7 1 11 4 13 6 15
REMARK Flexibility Score: inf
ROOT
ATOM      1  C   UNL     1       8.763   7.192  40.532  1.00  0.00     0.176 C 
ENDROOT
BRANCH   1   2
ATOM      2  C   UNL     1       9.258   6.953  39.076  1.00  0.00     0.171 C 
BRANCH   2   3
ATOM      3  C   UNL     1       8.868   8.060  38.074  1.00  0.00     0.190 C 
BRANCH   3   4
ATOM      4  O   UNL     1       9.781   9.122  38.118  1.00  0.00    -0.394 OA
ATOM      5  H   UNL     1      10.508   8.836  38.730  1.00  0.00     0.210 HD
ENDBRANCH   3   4
ENDBRANCH   2   3
BRANCH   2   6
ATOM      6  O   UNL     1       8.828   5.696  38.614  1.00  0.00    -0.388 OA
ATOM      7  H   UNL     1       8.530   5.166  39.397  1.00  0.00     0.211 HD
ENDBRANCH   2   6
ENDBRANCH   1   2
BRANCH   1   8
ATOM      8  C   UNL     1       9.548   6.404  41.618  1.00  0.00     0.171 C 
BRANCH   8   9
ATOM      9  C   UNL     1      11.036   6.789  41.664  1.00  0.00     0.190 C 
BRANCH   9  10
ATOM     10  O   UNL     1      11.841   5.654  41.484  1.00  0.00    -0.394 OA
ATOM     11  H   UNL     1      12.782   5.945  41.608  1.00  0.00     0.210 HD
ENDBRANCH   9  10
ENDBRANCH   8   9
BRANCH   8  12
ATOM     12  O   UNL     1       9.455   5.027  41.343  1.00  0.00    -0.388 OA
ATOM     13  H   UNL     1       9.076   4.935  40.430  1.00  0.00     0.211 HD
ENDBRANCH   8  12
ENDBRANCH   1   8
BRANCH   1  14
ATOM     14  O   UNL     1       8.817   8.567  40.824  1.00  0.00    -0.388 OA
ATOM     15  H   UNL     1       8.678   9.056  39.971  1.00  0.00     0.211 HD
ENDBRANCH   1  14
TORSDOF 9
ENDMDL
MODEL 2
REMARK VINA RESULT:    -3.090      2.876      4.477
REMARK INTER + INTRA:          -4.806
REMARK INTER:                  -3.827
REMARK INTRA:                  -0.979
REMARK UNBOUND:                -0.542
REMARK SMILES OC[C@H](O)C(O)[C@@H](O)CO
REMARK SMILES IDX 5 1 7 2 9 3 10 4 8 6 3 8 2 9 1 10 4 12 6 14
REMARK H PARENT 10 5 8 7 1 11 4 13 6 15
REMARK Flexibility Score: inf
ROOT
ATOM      1  C   UNL     1       6.734   5.684  38.558  1.00  0.00     0.176 C 
ENDROOT
BRANCH   1   2
ATOM      2  C   UNL     1       6.619   4.345  39.343  1.00  0.00     0.171 C 
BRANCH   2   3
ATOM      3  C   UNL     1       6.866   3.079  38.497  1.00  0.00     0.190 C 
BRANCH   3   4
ATOM      4  O   UNL     1       8.191   3.024  38.048  1.00  0.00    -0.394 OA
ATOM      5  H   UNL     1       8.678   3.737  38.537  1.00  0.00     0.210 HD
ENDBRANCH   3   4
ENDBRANCH   2   3
BRANCH   2   6
ATOM      6  O   UNL     1       5.376   4.268  39.997  1.00  0.00    -0.388 OA
ATOM      7  H   UNL     1       4.828   5.042  39.708  1.00  0.00     0.211 HD
ENDBRANCH   2   6
ENDBRANCH   1   2
BRANCH   1   8
ATOM      8  C   UNL     1       8.078   6.437  38.758  1.00  0.00     0.171 C 
BRANCH   8   9
ATOM      9  C   UNL     1       8.864   6.596  37.445  1.00  0.00     0.190 C 
BRANCH   9  10
ATOM     10  O   UNL     1       9.284   5.344  36.972  1.00  0.00    -0.394 OA
ATOM     11  H   UNL     1       9.028   4.675  37.661  1.00  0.00     0.210 HD
ENDBRANCH   9  10
ENDBRANCH   8   9
BRANCH   8  12
ATOM     12  O   UNL     1       8.875   5.720  39.668  1.00  0.00    -0.388 OA
ATOM     13  H   UNL     1       8.696   6.090  40.572  1.00  0.00     0.211 HD
ENDBRANCH   8  12
ENDBRANCH   1   8
BRANCH   1  14
ATOM     14  O   UNL     1       6.536   5.438  37.186  1.00  0.00    -0.388 OA
ATOM     15  H   UNL     1       5.604   5.114  37.075  1.00  0.00     0.211 HD
ENDBRANCH   1  14
TORSDOF 9
ENDMDL
MODEL 3
REMARK VINA RESULT:    -3.061      1.501      2.385
REMARK INTER + INTRA:          -4.766
REMARK INTER:                  -4.055
REMARK INTRA:                  -0.712
REMARK UNBOUND:                -0.542
REMARK SMILES OC[C@H](O)C(O)[C@@H](O)CO
REMARK SMILES IDX 5 1 7 2 9 3 10 4 8 6 3 8 2 9 1 10 4 12 6 14
REMARK H PARENT 10 5 8 7 1 11 4 13 6 15
REMARK Flexibility Score: inf
ROOT
ATOM      1  C   UNL     1       9.064   7.003  40.174  1.00  0.00     0.176 C 
ENDROOT
BRANCH   1   2
ATOM      2  C   UNL     1       7.572   6.709  39.846  1.00  0.00     0.171 C 
BRANCH   2   3
ATOM      3  C   UNL     1       7.350   5.707  38.694  1.00  0.00     0.190 C 
BRANCH   3   4
ATOM      4  O   UNL     1       7.760   4.419  39.062  1.00  0.00    -0.394 OA
ATOM      5  H   UNL     1       7.569   3.836  38.283  1.00  0.00     0.210 HD
ENDBRANCH   3   4
ENDBRANCH   2   3
BRANCH   2   6
ATOM      6  O   UNL     1       6.881   7.909  39.596  1.00  0.00    -0.388 OA
ATOM      7  H   UNL     1       7.143   8.565  40.292  1.00  0.00     0.211 HD
ENDBRANCH   2   6
ENDBRANCH   1   2
BRANCH   1   8
ATOM      8  C   UNL     1       9.565   6.387  41.511  1.00  0.00     0.171 C 
BRANCH   8   9
ATOM      9  C   UNL     1      11.035   6.732  41.802  1.00  0.00     0.190 C 
BRANCH   9  10
ATOM     10  O   UNL     1      11.871   5.672  41.420  1.00  0.00    -0.394 OA
ATOM     11  H   UNL     1      12.802   5.950  41.627  1.00  0.00     0.210 HD
ENDBRANCH   9  10
ENDBRANCH   8   9
BRANCH   8  12
ATOM     12  O   UNL     1       9.443   4.987  41.445  1.00  0.00    -0.388 OA
ATOM     13  H   UNL     1       8.534   4.787  41.097  1.00  0.00     0.211 HD
ENDBRANCH   8  12
ENDBRANCH   1   8
BRANCH   1  14
ATOM     14  O   UNL     1       9.873   6.545  39.118  1.00  0.00    -0.388 OA
ATOM     15  H   UNL     1      10.767   6.340  39.498  1.00  0.00     0.211 HD
ENDBRANCH   1  14
TORSDOF 9
ENDMDL
MODEL 4
REMARK VINA RESULT:    -3.037      2.088      2.755
REMARK INTER + INTRA:          -4.734
REMARK INTER:                  -4.041
REMARK INTRA:                  -0.693
REMARK UNBOUND:                -0.542
REMARK SMILES OC[C@H](O)C(O)[C@@H](O)CO
REMARK SMILES IDX 5 1 7 2 9 3 10 4 8 6 3 8 2 9 1 10 4 12 6 14
REMARK H PARENT 10 5 8 7 1 11 4 13 6 15
REMARK Flexibility Score: inf
ROOT
ATOM      1  C   UNL     1       8.177   6.244  38.726  1.00  0.00     0.176 C 
ENDROOT
BRANCH   1   2
ATOM      2  C   UNL     1       8.017   5.415  37.419  1.00  0.00     0.171 C 
BRANCH   2   3
ATOM      3  C   UNL     1       8.599   6.083  36.156  1.00  0.00     0.190 C 
BRANCH   3   4
ATOM      4  O   UNL     1       9.964   5.798  36.020  1.00  0.00    -0.394 OA
ATOM      5  H   UNL     1      10.431   6.674  36.022  1.00  0.00     0.210 HD
ENDBRANCH   3   4
ENDBRANCH   2   3
BRANCH   2   6
ATOM      6  O   UNL     1       6.666   5.074  37.218  1.00  0.00    -0.388 OA
ATOM      7  H   UNL     1       6.107   5.801  37.596  1.00  0.00     0.211 HD
ENDBRANCH   2   6
ENDBRANCH   1   2
BRANCH   1   8
ATOM      8  C   UNL     1       7.616   5.555  40.001  1.00  0.00     0.171 C 
BRANCH   8   9
ATOM      9  C   UNL     1       8.365   5.978  41.275  1.00  0.00     0.190 C 
BRANCH   9  10
ATOM     10  O   UNL     1       9.543   5.230  41.422  1.00  0.00    -0.394 OA
ATOM     11  H   UNL     1       9.416   4.389  40.909  1.00  0.00     0.210 HD
ENDBRANCH   9  10
ENDBRANCH   8   9
BRANCH   8  12
ATOM     12  O   UNL     1       7.736   4.161  39.859  1.00  0.00    -0.388 OA
ATOM     13  H   UNL     1       8.530   3.878  40.384  1.00  0.00     0.211 HD
ENDBRANCH   8  12
ENDBRANCH   1   8
BRANCH   1  14
ATOM     14  O   UNL     1       9.536   6.551  38.921  1.00  0.00    -0.388 OA
ATOM     15  H   UNL     1      10.019   6.292  38.093  1.00  0.00     0.211 HD
ENDBRANCH   1  14
TORSDOF 9
ENDMDL
MODEL 5
REMARK VINA RESULT:    -3.014      9.588     10.143
REMARK INTER + INTRA:          -4.702
REMARK INTER:                  -4.084
REMARK INTRA:                  -0.617
REMARK UNBOUND:                -0.542
REMARK SMILES OC[C@H](O)C(O)[C@@H](O)CO
REMARK SMILES IDX 5 1 7 2 9 3 10 4 8 6 3 8 2 9 1 10 4 12 6 14
REMARK H PARENT 10 5 8 7 1 11 4 13 6 15
REMARK Flexibility Score: inf
ROOT
ATOM      1  C   UNL     1       5.691  -2.139  43.217  1.00  0.00     0.176 C 
ENDROOT
BRANCH   1   2
ATOM      2  C   UNL     1       4.504  -1.475  42.462  1.00  0.00     0.171 C 
BRANCH   2   3
ATOM      3  C   UNL     1       3.347  -1.004  43.368  1.00  0.00     0.190 C 
BRANCH   3   4
ATOM      4  O   UNL     1       3.816  -0.167  44.389  1.00  0.00    -0.394 OA
ATOM      5  H   UNL     1       3.033   0.359  44.696  1.00  0.00     0.210 HD
ENDBRANCH   3   4
ENDBRANCH   2   3
BRANCH   2   6
ATOM      6  O   UNL     1       4.024  -2.333  41.455  1.00  0.00    -0.388 OA
ATOM      7  H   UNL     1       3.061  -2.495  41.623  1.00  0.00     0.211 HD
ENDBRANCH   2   6
ENDBRANCH   1   2
BRANCH   1   8
ATOM      8  C   UNL     1       6.766  -2.779  42.295  1.00  0.00     0.171 C 
BRANCH   8   9
ATOM      9  C   UNL     1       8.186  -2.655  42.872  1.00  0.00     0.190 C 
BRANCH   9  10
ATOM     10  O   UNL     1       8.670  -1.349  42.701  1.00  0.00    -0.394 OA
ATOM     11  H   UNL     1       8.112  -0.757  43.272  1.00  0.00     0.210 HD
ENDBRANCH   9  10
ENDBRANCH   8   9
BRANCH   8  12
ATOM     12  O   UNL     1       6.738  -2.137  41.044  1.00  0.00    -0.388 OA
ATOM     13  H   UNL     1       5.810  -2.206  40.698  1.00  0.00     0.211 HD
ENDBRANCH   8  12
ENDBRANCH   1   8
BRANCH   1  14
ATOM     14  O   UNL     1       6.303  -1.188  44.055  1.00  0.00    -0.388 OA
ATOM     15  H   UNL     1       5.907  -1.293  44.959  1.00  0.00     0.211 HD
ENDBRANCH   1  14
TORSDOF 9
ENDMDL
MODEL 6
REMARK VINA RESULT:    -2.957      9.768     11.383
REMARK INTER + INTRA:          -4.623
REMARK INTER:                  -3.753
REMARK INTRA:                  -0.870
REMARK UNBOUND:                -0.542
REMARK SMILES OC[C@H](O)C(O)[C@@H](O)CO
REMARK SMILES IDX 5 1 7 2 9 3 10 4 8 6 3 8 2 9 1 10 4 12 6 14
REMARK H PARENT 10 5 8 7 1 11 4 13 6 15
REMARK Flexibility Score: inf
ROOT
ATOM      1  C   UNL     1       6.351  -2.651  41.533  1.00  0.00     0.176 C 
ENDROOT
BRANCH   1   2
ATOM      2  C   UNL     1       6.795  -2.268  42.974  1.00  0.00     0.171 C 
BRANCH   2   3
ATOM      3  C   UNL     1       5.766  -1.433  43.765  1.00  0.00     0.190 C 
BRANCH   3   4
ATOM      4  O   UNL     1       4.631  -2.194  44.072  1.00  0.00    -0.394 OA
ATOM      5  H   UNL     1       4.558  -2.195  45.062  1.00  0.00     0.210 HD
ENDBRANCH   3   4
ENDBRANCH   2   3
BRANCH   2   6
ATOM      6  O   UNL     1       8.041  -1.616  42.945  1.00  0.00    -0.388 OA
ATOM      7  H   UNL     1       8.485  -1.762  43.820  1.00  0.00     0.211 HD
ENDBRANCH   2   6
ENDBRANCH   1   2
BRANCH   1   8
ATOM      8  C   UNL     1       6.239  -4.180  41.276  1.00  0.00     0.171 C 
BRANCH   8   9
ATOM      9  C   UNL     1       4.782  -4.671  41.279  1.00  0.00     0.190 C 
BRANCH   9  10
ATOM     10  O   UNL     1       4.279  -4.700  42.589  1.00  0.00    -0.394 OA
ATOM     11  H   UNL     1       4.408  -5.625  42.927  1.00  0.00     0.210 HD
ENDBRANCH   9  10
ENDBRANCH   8   9
BRANCH   8  12
ATOM     12  O   UNL     1       6.941  -4.867  42.282  1.00  0.00    -0.388 OA
ATOM     13  H   UNL     1       7.868  -5.004  41.954  1.00  0.00     0.211 HD
ENDBRANCH   8  12
ENDBRANCH   1   8
BRANCH   1  14
ATOM     14  O   UNL     1       5.117  -2.038  41.246  1.00  0.00    -0.388 OA
ATOM     15  H   UNL     1       4.403  -2.689  41.476  1.00  0.00     0.211 HD
ENDBRANCH   1  14
TORSDOF 9
ENDMDL
MODEL 7
REMARK VINA RESULT:    -2.898      1.931      3.738
REMARK INTER + INTRA:          -4.542
REMARK INTER:                  -3.575
REMARK INTRA:                  -0.967
REMARK UNBOUND:                -0.542
REMARK SMILES OC[C@H](O)C(O)[C@@H](O)CO
REMARK SMILES IDX 5 1 7 2 9 3 10 4 8 6 3 8 2 9 1 10 4 12 6 14
REMARK H PARENT 10 5 8 7 1 11 4 13 6 15
REMARK Flexibility Score: inf
ROOT
ATOM      1  C   UNL     1       9.452   7.648  42.147  1.00  0.00     0.176 C 
ENDROOT
BRANCH   1   2
ATOM      2  C   UNL     1       8.668   6.860  43.234  1.00  0.00     0.171 C 
BRANCH   2   3
ATOM      3  C   UNL     1       7.178   6.622  42.909  1.00  0.00     0.190 C 
BRANCH   3   4
ATOM      4  O   UNL     1       7.034   5.839  41.757  1.00  0.00    -0.394 OA
ATOM      5  H   UNL     1       7.930   5.458  41.568  1.00  0.00     0.210 HD
ENDBRANCH   3   4
ENDBRANCH   2   3
BRANCH   2   6
ATOM      6  O   UNL     1       8.805   7.486  44.487  1.00  0.00    -0.388 OA
ATOM      7  H   UNL     1       9.616   7.120  44.925  1.00  0.00     0.211 HD
ENDBRANCH   2   6
ENDBRANCH   1   2
BRANCH   1   8
ATOM      8  C   UNL     1      10.257   6.759  41.158  1.00  0.00     0.171 C 
BRANCH   8   9
ATOM      9  C   UNL     1       9.826   6.967  39.697  1.00  0.00     0.190 C 
BRANCH   9  10
ATOM     10  O   UNL     1       8.781   6.090  39.366  1.00  0.00    -0.394 OA
ATOM     11  H   UNL     1       9.044   5.191  39.695  1.00  0.00     0.210 HD
ENDBRANCH   9  10
ENDBRANCH   8   9
BRANCH   8  12
ATOM     12  O   UNL     1      10.058   5.407  41.491  1.00  0.00    -0.388 OA
ATOM     13  H   UNL     1      10.893   4.921  41.261  1.00  0.00     0.211 HD
ENDBRANCH   8  12
ENDBRANCH   1   8
BRANCH   1  14
ATOM     14  O   UNL     1       8.559   8.460  41.423  1.00  0.00    -0.388 OA
ATOM     15  H   UNL     1       8.726   8.295  40.458  1.00  0.00     0.211 HD
ENDBRANCH   1  14
TORSDOF 9
ENDMDL
MODEL 8
REMARK VINA RESULT:    -2.896     10.133     11.505
REMARK INTER + INTRA:          -4.539
REMARK INTER:                  -3.517
REMARK INTRA:                  -1.022
REMARK UNBOUND:                -0.542
REMARK SMILES OC[C@H](O)C(O)[C@@H](O)CO
REMARK SMILES IDX 5 1 7 2 9 3 10 4 8 6 3 8 2 9 1 10 4 12 6 14
REMARK H PARENT 10 5 8 7 1 11 4 13 6 15
REMARK Flexibility Score: inf
ROOT
ATOM      1  C   UNL     1       9.090  -0.555  32.252  1.00  0.00     0.176 C 
ENDROOT
BRANCH   1   2
ATOM      2  C   UNL     1       9.503  -0.921  33.707  1.00  0.00     0.171 C 
BRANCH   2   3
ATOM      3  C   UNL     1      10.343  -2.208  33.834  1.00  0.00     0.190 C 
BRANCH   3   4
ATOM      4  O   UNL     1      11.565  -2.080  33.160  1.00  0.00    -0.394 OA
ATOM      5  H   UNL     1      11.380  -2.295  32.210  1.00  0.00     0.210 HD
ENDBRANCH   3   4
ENDBRANCH   2   3
BRANCH   2   6
ATOM      6  O   UNL     1       8.367  -0.989  34.534  1.00  0.00    -0.388 OA
ATOM      7  H   UNL     1       8.237  -0.100  34.952  1.00  0.00     0.211 HD
ENDBRANCH   2   6
ENDBRANCH   1   2
BRANCH   1   8
ATOM      8  C   UNL     1       9.964   0.548  31.590  1.00  0.00     0.171 C 
BRANCH   8   9
ATOM      9  C   UNL     1      10.587   0.087  30.263  1.00  0.00     0.190 C 
BRANCH   9  10
ATOM     10  O   UNL     1      11.679  -0.761  30.504  1.00  0.00    -0.394 OA
ATOM     11  H   UNL     1      11.623  -1.040  31.455  1.00  0.00     0.210 HD
ENDBRANCH   9  10
ENDBRANCH   8   9
BRANCH   8  12
ATOM     12  O   UNL     1      11.003   0.898  32.470  1.00  0.00    -0.388 OA
ATOM     13  H   UNL     1      11.556   0.085  32.612  1.00  0.00     0.211 HD
ENDBRANCH   8  12
ENDBRANCH   1   8
BRANCH   1  14
ATOM     14  O   UNL     1       9.118  -1.713  31.453  1.00  0.00    -0.388 OA
ATOM     15  H   UNL     1       8.856  -1.445  30.534  1.00  0.00     0.211 HD
ENDBRANCH   1  14
TORSDOF 9
ENDMDL
MODEL 9
REMARK VINA RESULT:    -2.861     15.509     16.767
REMARK INTER + INTRA:          -4.491
REMARK INTER:                  -3.735
REMARK INTRA:                  -0.756
REMARK UNBOUND:                -0.542
REMARK SMILES OC[C@H](O)C(O)[C@@H](O)CO
REMARK SMILES IDX 5 1 7 2 9 3 10 4 8 6 3 8 2 9 1 10 4 12 6 14
REMARK H PARENT 10 5 8 7 1 11 4 13 6 15
REMARK Flexibility Score: inf
ROOT
ATOM      1  C   UNL     1       6.596  -9.489  38.272  1.00  0.00     0.176 C 
ENDROOT
BRANCH   1   2
ATOM      2  C   UNL     1       6.607  -9.142  39.789  1.00  0.00     0.171 C 
BRANCH   2   3
ATOM      3  C   UNL     1       6.852  -7.652  40.107  1.00  0.00     0.190 C 
BRANCH   3   4
ATOM      4  O   UNL     1       5.784  -6.861  39.663  1.00  0.00    -0.394 OA
ATOM      5  H   UNL     1       5.165  -7.474  39.189  1.00  0.00     0.210 HD
ENDBRANCH   3   4
ENDBRANCH   2   3
BRANCH   2   6
ATOM      6  O   UNL     1       7.536  -9.950  40.469  1.00  0.00    -0.388 OA
ATOM      7  H   UNL     1       7.054 -10.434  41.188  1.00  0.00     0.211 HD
ENDBRANCH   2   6
ENDBRANCH   1   2
BRANCH   1   8
ATOM      8  C   UNL     1       5.204  -9.895  37.712  1.00  0.00     0.171 C 
BRANCH   8   9
ATOM      9  C   UNL     1       5.226 -10.123  36.192  1.00  0.00     0.190 C 
BRANCH   9  10
ATOM     10  O   UNL     1       4.952  -8.925  35.513  1.00  0.00    -0.394 OA
ATOM     11  H   UNL     1       5.748  -8.722  34.955  1.00  0.00     0.210 HD
ENDBRANCH   9  10
ENDBRANCH   8   9
BRANCH   8  12
ATOM     12  O   UNL     1       4.281  -8.871  37.994  1.00  0.00    -0.388 OA
ATOM     13  H   UNL     1       4.071  -8.923  38.963  1.00  0.00     0.211 HD
ENDBRANCH   8  12
ENDBRANCH   1   8
BRANCH   1  14
ATOM     14  O   UNL     1       7.094  -8.396  37.539  1.00  0.00    -0.388 OA
ATOM     15  H   UNL     1       7.706  -8.758  36.847  1.00  0.00     0.211 HD
ENDBRANCH   1  14
TORSDOF 9
ENDMDL
