MODEL 1
REMARK VINA RESULT:    -4.785      0.000      0.000
REMARK INTER + INTRA:          -7.078
REMARK INTER:                  -7.302
REMARK INTRA:                   0.224
REMARK UNBOUND:                 0.224
REMARK SMILES CC1=CCC[C@@H](C)C(=O)C[C@H](C(C)C)C(=O)C1
REMARK SMILES IDX 8 1 9 2 6 3 7 4 5 5 4 6 3 7 2 8 1 9 10 11 11 12 15 13 16 14
REMARK SMILES IDX 17 15 12 17 13 18 14 19
REMARK H PARENT
REMARK Flexibility Score: 70.00
ROOT
ATOM      1  C   UNL     1     -16.635 -40.070  -7.951  1.00  0.00     0.136 C 
ATOM      2  O   UNL     1     -16.340 -40.542  -9.039  1.00  0.00    -0.299 OA
ENDROOT
BRANCH   1   3
ATOM      3  C   UNL     1     -15.666 -40.241  -6.757  1.00  0.00     0.053 C 
ATOM      4  C   UNL     1     -16.296 -41.072  -5.636  1.00  0.00     0.016 C 
BRANCH   3   5
ATOM      5  C   UNL     1     -15.114 -38.883  -6.197  1.00  0.00     0.015 C 
BRANCH   5   6
ATOM      6  C   UNL     1     -15.771 -38.659  -4.855  1.00  0.00     0.028 C 
BRANCH   6   7
ATOM      7  C   UNL     1     -16.313 -37.382  -4.346  1.00  0.00    -0.028 C 
ATOM      8  C   UNL     1     -17.667 -37.283  -4.232  1.00  0.00    -0.070 CG0
ATOM      9  C   UNL     1     -18.248 -35.940  -3.876  1.00  0.00     0.039 C 
ATOM     10  G   UNL     1     -18.607 -38.514  -4.313  1.00  0.00     0.000 G0
ENDBRANCH   6   7
ENDBRANCH   5   6
ENDBRANCH   3   5
ENDBRANCH   1   3
BRANCH   1  11
ATOM     11  C   UNL     1     -17.994 -39.375  -7.796  1.00  0.00     0.087 C 
BRANCH  11  12
ATOM     12  C   UNL     1     -18.877 -39.912  -6.592  1.00  0.00     0.066 C 
BRANCH  12  13
ATOM     13  C   UNL     1     -19.328 -38.776  -5.643  1.00  0.00     0.140 C 
ATOM     14  O   UNL     1     -20.289 -38.087  -5.951  1.00  0.00    -0.299 OA
BRANCH  13  15
ATOM     15  C   UNL     1     -18.636 -38.511  -4.299  1.00  0.00     0.106 CG0
ATOM     16  G   UNL     1     -17.683 -37.289  -4.238  1.00  0.00     0.000 G0
ENDBRANCH  13  15
ENDBRANCH  12  13
BRANCH  12  17
ATOM     17  C   UNL     1     -20.106 -40.730  -7.107  1.00  0.00    -0.006 C 
ATOM     18  C   UNL     1     -20.097 -40.851  -8.643  1.00  0.00     0.008 C 
ATOM     19  C   UNL     1     -20.158 -42.151  -6.511  1.00  0.00     0.008 C 
ENDBRANCH  12  17
ENDBRANCH  11  12
ENDBRANCH   1  11
TORSDOF 1
ENDMDL
MODEL 2
REMARK VINA RESULT:    -4.684      2.204      3.949
REMARK INTER + INTRA:          -6.924
REMARK INTER:                  -6.972
REMARK INTRA:                   0.049
REMARK UNBOUND:                 0.224
REMARK SMILES CC1=CCC[C@@H](C)C(=O)C[C@H](C(C)C)C(=O)C1
REMARK SMILES IDX 8 1 9 2 6 3 7 4 5 5 4 6 3 7 2 8 1 9 10 11 11 12 15 13 16 14
REMARK SMILES IDX 17 15 12 17 13 18 14 19
REMARK H PARENT
REMARK Flexibility Score: 70.00
ROOT
ATOM      1  C   UNL     1     -21.217 -39.759  -6.399  1.00  0.00     0.136 C 
ATOM      2  O   UNL     1     -22.423 -39.919  -6.279  1.00  0.00    -0.299 OA
ENDROOT
BRANCH   1   3
ATOM      3  C   UNL     1     -20.281 -40.991  -6.412  1.00  0.00     0.053 C 
ATOM      4  C   UNL     1     -20.222 -41.666  -5.037  1.00  0.00     0.016 C 
BRANCH   3   5
ATOM      5  C   UNL     1     -18.837 -40.678  -6.938  1.00  0.00     0.015 C 
BRANCH   5   6
ATOM      6  C   UNL     1     -17.908 -40.749  -5.748  1.00  0.00     0.028 C 
BRANCH   6   7
ATOM      7  C   UNL     1     -16.852 -39.777  -5.401  1.00  0.00    -0.028 C 
ATOM      8  C   UNL     1     -17.230 -38.675  -4.694  1.00  0.00    -0.070 CG0
ATOM      9  C   UNL     1     -16.206 -37.592  -4.475  1.00  0.00     0.039 C 
ATOM     10  G   UNL     1     -18.610 -38.560  -3.997  1.00  0.00     0.000 G0
ENDBRANCH   6   7
ENDBRANCH   5   6
ENDBRANCH   3   5
ENDBRANCH   1   3
BRANCH   1  11
ATOM     11  C   UNL     1     -20.669 -38.327  -6.471  1.00  0.00     0.087 C 
BRANCH  11  12
ATOM     12  C   UNL     1     -20.818 -37.496  -5.129  1.00  0.00     0.066 C 
BRANCH  12  13
ATOM     13  C   UNL     1     -19.468 -37.328  -4.389  1.00  0.00     0.140 C 
ATOM     14  O   UNL     1     -19.087 -36.207  -4.090  1.00  0.00    -0.299 OA
BRANCH  13  15
ATOM     15  C   UNL     1     -18.609 -38.531  -3.976  1.00  0.00     0.106 CG0
ATOM     16  G   UNL     1     -17.241 -38.685  -4.690  1.00  0.00     0.000 G0
ENDBRANCH  13  15
ENDBRANCH  12  13
BRANCH  12  17
ATOM     17  C   UNL     1     -21.487 -36.107  -5.389  1.00  0.00    -0.006 C 
ATOM     18  C   UNL     1     -22.263 -36.098  -6.721  1.00  0.00     0.008 C 
ATOM     19  C   UNL     1     -22.457 -35.700  -4.263  1.00  0.00     0.008 C 
ENDBRANCH  12  17
ENDBRANCH  11  12
ENDBRANCH   1  11
TORSDOF 1
ENDMDL
MODEL 3
REMARK VINA RESULT:    -4.673      2.350      4.516
REMARK INTER + INTRA:          -6.908
REMARK INTER:                  -6.853
REMARK INTRA:                  -0.054
REMARK UNBOUND:                 0.224
REMARK SMILES CC1=CCC[C@@H](C)C(=O)C[C@H](C(C)C)C(=O)C1
REMARK SMILES IDX 8 1 9 2 6 3 7 4 5 5 4 6 3 7 2 8 1 9 10 11 11 12 15 13 16 14
REMARK SMILES IDX 17 15 12 17 13 18 14 19
REMARK H PARENT
REMARK Flexibility Score: 70.00
ROOT
ATOM      1  C   UNL     1     -18.763 -36.976  -4.209  1.00  0.00     0.136 C 
ATOM      2  O   UNL     1     -18.876 -35.776  -4.409  1.00  0.00    -0.299 OA
ENDROOT
BRANCH   1   3
ATOM      3  C   UNL     1     -17.355 -37.589  -4.024  1.00  0.00     0.053 C 
ATOM      4  C   UNL     1     -16.346 -36.544  -3.536  1.00  0.00     0.016 C 
BRANCH   3   5
ATOM      5  C   UNL     1     -16.817 -38.324  -5.302  1.00  0.00     0.015 C 
BRANCH   5   6
ATOM      6  C   UNL     1     -17.221 -39.775  -5.181  1.00  0.00     0.028 C 
BRANCH   6   7
ATOM      7  C   UNL     1     -17.573 -40.683  -6.292  1.00  0.00    -0.028 C 
ATOM      8  C   UNL     1     -18.831 -41.207  -6.291  1.00  0.00    -0.070 CG0
ATOM      9  C   UNL     1     -19.156 -42.261  -7.316  1.00  0.00     0.039 C 
ATOM     10  G   UNL     1     -19.964 -40.665  -5.381  1.00  0.00     0.000 G0
ENDBRANCH   6   7
ENDBRANCH   5   6
ENDBRANCH   3   5
ENDBRANCH   1   3
BRANCH   1  11
ATOM     11  C   UNL     1     -20.029 -37.844  -4.210  1.00  0.00     0.087 C 
BRANCH  11  12
ATOM     12  C   UNL     1     -20.668 -38.077  -5.643  1.00  0.00     0.066 C 
BRANCH  12  13
ATOM     13  C   UNL     1     -20.877 -39.579  -5.955  1.00  0.00     0.140 C 
ATOM     14  O   UNL     1     -21.772 -39.911  -6.718  1.00  0.00    -0.299 OA
BRANCH  13  15
ATOM     15  C   UNL     1     -19.967 -40.669  -5.373  1.00  0.00     0.106 CG0
ATOM     16  G   UNL     1     -18.833 -41.191  -6.294  1.00  0.00     0.000 G0
ENDBRANCH  13  15
ENDBRANCH  12  13
BRANCH  12  17
ATOM     17  C   UNL     1     -22.003 -37.282  -5.808  1.00  0.00    -0.006 C 
ATOM     18  C   UNL     1     -22.506 -36.740  -4.455  1.00  0.00     0.008 C 
ATOM     19  C   UNL     1     -21.866 -36.094  -6.781  1.00  0.00     0.008 C 
ENDBRANCH  12  17
ENDBRANCH  11  12
ENDBRANCH   1  11
TORSDOF 1
ENDMDL
MODEL 4
REMARK VINA RESULT:    -4.485      2.207      4.435
REMARK INTER + INTRA:          -6.620
REMARK INTER:                  -6.732
REMARK INTRA:                   0.113
REMARK UNBOUND:                 0.224
REMARK SMILES CC1=CCC[C@@H](C)C(=O)C[C@H](C(C)C)C(=O)C1
REMARK SMILES IDX 8 1 9 2 6 3 7 4 5 5 4 6 3 7 2 8 1 9 10 11 11 12 15 13 16 14
REMARK SMILES IDX 17 15 12 17 13 18 14 19
REMARK H PARENT
REMARK Flexibility Score: 70.00
ROOT
ATOM      1  C   UNL     1     -17.295 -38.291  -4.493  1.00  0.00     0.136 C 
ATOM      2  O   UNL     1     -16.988 -37.125  -4.293  1.00  0.00    -0.299 OA
ENDROOT
BRANCH   1   3
ATOM      3  C   UNL     1     -16.200 -39.315  -4.872  1.00  0.00     0.053 C 
ATOM      4  C   UNL     1     -15.287 -38.777  -5.978  1.00  0.00     0.016 C 
BRANCH   3   5
ATOM      5  C   UNL     1     -16.765 -40.726  -5.258  1.00  0.00     0.015 C 
BRANCH   5   6
ATOM      6  C   UNL     1     -16.854 -40.769  -6.766  1.00  0.00     0.028 C 
BRANCH   6   7
ATOM      7  C   UNL     1     -17.818 -41.553  -7.566  1.00  0.00    -0.028 C 
ATOM      8  C   UNL     1     -18.995 -40.948  -7.889  1.00  0.00    -0.070 CG0
ATOM      9  C   UNL     1     -20.056 -41.782  -8.556  1.00  0.00     0.039 C 
ATOM     10  G   UNL     1     -19.225 -39.423  -7.727  1.00  0.00     0.000 G0
ENDBRANCH   6   7
ENDBRANCH   5   6
ENDBRANCH   3   5
ENDBRANCH   1   3
BRANCH   1  11
ATOM     11  C   UNL     1     -18.777 -38.683  -4.419  1.00  0.00     0.087 C 
BRANCH  11  12
ATOM     12  C   UNL     1     -19.700 -37.984  -5.503  1.00  0.00     0.066 C 
BRANCH  12  13
ATOM     13  C   UNL     1     -20.160 -38.968  -6.606  1.00  0.00     0.140 C 
ATOM     14  O   UNL     1     -21.312 -39.374  -6.601  1.00  0.00    -0.299 OA
BRANCH  13  15
ATOM     15  C   UNL     1     -19.227 -39.419  -7.738  1.00  0.00     0.106 CG0
ATOM     16  G   UNL     1     -19.002 -40.947  -7.885  1.00  0.00     0.000 G0
ENDBRANCH  13  15
ENDBRANCH  12  13
BRANCH  12  17
ATOM     17  C   UNL     1     -20.927 -37.279  -4.838  1.00  0.00    -0.006 C 
ATOM     18  C   UNL     1     -20.589 -36.781  -3.419  1.00  0.00     0.008 C 
ATOM     19  C   UNL     1     -21.434 -36.078  -5.662  1.00  0.00     0.008 C 
ENDBRANCH  12  17
ENDBRANCH  11  12
ENDBRANCH   1  11
TORSDOF 1
ENDMDL
MODEL 5
REMARK VINA RESULT:    -4.478      1.637      4.233
REMARK INTER + INTRA:          -6.610
REMARK INTER:                  -7.172
REMARK INTRA:                   0.562
REMARK UNBOUND:                 0.224
REMARK SMILES CC1=CCC[C@@H](C)C(=O)C[C@H](C(C)C)C(=O)C1
REMARK SMILES IDX 8 1 9 2 6 3 7 4 5 5 4 6 3 7 2 8 1 9 10 11 11 12 15 13 16 14
REMARK SMILES IDX 17 15 12 17 13 18 14 19
REMARK H PARENT
REMARK Flexibility Score: 70.00
ROOT
ATOM      1  C   UNL     1     -16.528 -40.385  -5.889  1.00  0.00     0.136 C 
ATOM      2  O   UNL     1     -17.149 -41.428  -5.747  1.00  0.00    -0.299 OA
ENDROOT
BRANCH   1   3
ATOM      3  C   UNL     1     -15.614 -40.204  -7.123  1.00  0.00     0.053 C 
ATOM      4  C   UNL     1     -14.644 -39.032  -6.938  1.00  0.00     0.016 C 
BRANCH   3   5
ATOM      5  C   UNL     1     -16.402 -40.063  -8.473  1.00  0.00     0.015 C 
BRANCH   5   6
ATOM      6  C   UNL     1     -17.789 -39.574  -8.125  1.00  0.00     0.028 C 
BRANCH   6   7
ATOM      7  C   UNL     1     -19.047 -40.335  -8.265  1.00  0.00    -0.028 C 
ATOM      8  C   UNL     1     -20.038 -40.068  -7.369  1.00  0.00    -0.070 CG0
ATOM      9  C   UNL     1     -21.261 -40.946  -7.388  1.00  0.00     0.039 C 
ATOM     10  G   UNL     1     -20.015 -38.826  -6.440  1.00  0.00     0.000 G0
ENDBRANCH   6   7
ENDBRANCH   5   6
ENDBRANCH   3   5
ENDBRANCH   1   3
BRANCH   1  11
ATOM     11  C   UNL     1     -16.631 -39.314  -4.795  1.00  0.00     0.087 C 
BRANCH  11  12
ATOM     12  C   UNL     1     -17.796 -38.259  -5.012  1.00  0.00     0.066 C 
BRANCH  12  13
ATOM     13  C   UNL     1     -19.182 -38.934  -5.144  1.00  0.00     0.140 C 
ATOM     14  O   UNL     1     -19.642 -39.546  -4.192  1.00  0.00    -0.299 OA
BRANCH  13  15
ATOM     15  C   UNL     1     -20.026 -38.823  -6.422  1.00  0.00     0.106 CG0
ATOM     16  G   UNL     1     -20.039 -40.063  -7.355  1.00  0.00     0.000 G0
ENDBRANCH  13  15
ENDBRANCH  12  13
BRANCH  12  17
ATOM     17  C   UNL     1     -17.807 -37.181  -3.880  1.00  0.00    -0.006 C 
ATOM     18  C   UNL     1     -16.387 -36.658  -3.588  1.00  0.00     0.008 C 
ATOM     19  C   UNL     1     -18.703 -35.975  -4.223  1.00  0.00     0.008 C 
ENDBRANCH  12  17
ENDBRANCH  11  12
ENDBRANCH   1  11
TORSDOF 1
ENDMDL
MODEL 6
REMARK VINA RESULT:    -4.423      1.642      2.123
REMARK INTER + INTRA:          -6.525
REMARK INTER:                  -6.676
REMARK INTRA:                   0.151
REMARK UNBOUND:                 0.224
REMARK SMILES CC1=CCC[C@@H](C)C(=O)C[C@H](C(C)C)C(=O)C1
REMARK SMILES IDX 8 1 9 2 6 3 7 4 5 5 4 6 3 7 2 8 1 9 10 11 11 12 15 13 16 14
REMARK SMILES IDX 17 15 12 17 13 18 14 19
REMARK H PARENT
REMARK Flexibility Score: 70.00
ROOT
ATOM      1  C   UNL     1     -17.132 -39.451  -5.816  1.00  0.00     0.136 C 
ATOM      2  O   UNL     1     -17.123 -40.422  -5.073  1.00  0.00    -0.299 OA
ENDROOT
BRANCH   1   3
ATOM      3  C   UNL     1     -16.105 -38.315  -5.600  1.00  0.00     0.053 C 
ATOM      4  C   UNL     1     -14.674 -38.794  -5.865  1.00  0.00     0.016 C 
BRANCH   3   5
ATOM      5  C   UNL     1     -16.209 -37.633  -4.191  1.00  0.00     0.015 C 
BRANCH   5   6
ATOM      6  C   UNL     1     -17.677 -37.575  -3.836  1.00  0.00     0.028 C 
BRANCH   6   7
ATOM      7  C   UNL     1     -18.614 -36.478  -4.154  1.00  0.00    -0.028 C 
ATOM      8  C   UNL     1     -19.831 -36.827  -4.658  1.00  0.00    -0.070 CG0
ATOM      9  C   UNL     1     -20.735 -35.725  -5.145  1.00  0.00     0.039 C 
ATOM     10  G   UNL     1     -20.369 -38.281  -4.618  1.00  0.00     0.000 G0
ENDBRANCH   6   7
ENDBRANCH   5   6
ENDBRANCH   3   5
ENDBRANCH   1   3
BRANCH   1  11
ATOM     11  C   UNL     1     -18.212 -39.369  -6.903  1.00  0.00     0.087 C 
BRANCH  11  12
ATOM     12  C   UNL     1     -19.599 -40.028  -6.508  1.00  0.00     0.066 C 
BRANCH  12  13
ATOM     13  C   UNL     1     -20.605 -38.992  -5.950  1.00  0.00     0.140 C 
ATOM     14  O   UNL     1     -21.630 -38.761  -6.572  1.00  0.00    -0.299 OA
BRANCH  13  15
ATOM     15  C   UNL     1     -20.380 -38.275  -4.611  1.00  0.00     0.106 CG0
ATOM     16  G   UNL     1     -19.837 -36.824  -4.684  1.00  0.00     0.000 G0
ENDBRANCH  13  15
ENDBRANCH  12  13
BRANCH  12  17
ATOM     17  C   UNL     1     -20.219 -40.816  -7.708  1.00  0.00    -0.006 C 
ATOM     18  C   UNL     1     -19.291 -40.787  -8.938  1.00  0.00     0.008 C 
ATOM     19  C   UNL     1     -20.510 -42.289  -7.358  1.00  0.00     0.008 C 
ENDBRANCH  12  17
ENDBRANCH  11  12
ENDBRANCH   1  11
TORSDOF 1
ENDMDL
MODEL 7
REMARK VINA RESULT:    -4.323      2.254      5.462
REMARK INTER + INTRA:          -6.374
REMARK INTER:                  -6.777
REMARK INTRA:                   0.404
REMARK UNBOUND:                 0.224
REMARK SMILES CC1=CCC[C@@H](C)C(=O)C[C@H](C(C)C)C(=O)C1
REMARK SMILES IDX 8 1 9 2 6 3 7 4 5 5 4 6 3 7 2 8 1 9 10 11 11 12 15 13 16 14
REMARK SMILES IDX 17 15 12 17 13 18 14 19
REMARK H PARENT
REMARK Flexibility Score: 70.00
ROOT
ATOM      1  C   UNL     1     -19.565 -38.629  -5.631  1.00  0.00     0.136 C 
ATOM      2  O   UNL     1     -19.460 -38.536  -4.416  1.00  0.00    -0.299 OA
ENDROOT
BRANCH   1   3
ATOM      3  C   UNL     1     -20.946 -38.415  -6.295  1.00  0.00     0.053 C 
ATOM      4  C   UNL     1     -21.454 -36.985  -6.088  1.00  0.00     0.016 C 
BRANCH   3   5
ATOM      5  C   UNL     1     -22.028 -39.459  -5.846  1.00  0.00     0.015 C 
BRANCH   5   6
ATOM      6  C   UNL     1     -21.451 -40.832  -6.104  1.00  0.00     0.028 C 
BRANCH   6   7
ATOM      7  C   UNL     1     -21.062 -41.386  -7.417  1.00  0.00    -0.028 C 
ATOM      8  C   UNL     1     -19.800 -41.886  -7.530  1.00  0.00    -0.070 CG0
ATOM      9  C   UNL     1     -19.326 -42.301  -8.898  1.00  0.00     0.039 C 
ATOM     10  G   UNL     1     -18.898 -42.172  -6.301  1.00  0.00     0.000 G0
ENDBRANCH   6   7
ENDBRANCH   5   6
ENDBRANCH   3   5
ENDBRANCH   1   3
BRANCH   1  11
ATOM     11  C   UNL     1     -18.326 -39.019  -6.447  1.00  0.00     0.087 C 
BRANCH  11  12
ATOM     12  C   UNL     1     -17.351 -40.039  -5.723  1.00  0.00     0.066 C 
BRANCH  12  13
ATOM     13  C   UNL     1     -17.529 -41.487  -6.238  1.00  0.00     0.140 C 
ATOM     14  O   UNL     1     -16.545 -42.123  -6.584  1.00  0.00    -0.299 OA
BRANCH  13  15
ATOM     15  C   UNL     1     -18.901 -42.175  -6.286  1.00  0.00     0.106 CG0
ATOM     16  G   UNL     1     -19.786 -41.872  -7.523  1.00  0.00     0.000 G0
ENDBRANCH  13  15
ENDBRANCH  12  13
BRANCH  12  17
ATOM     17  C   UNL     1     -15.860 -39.584  -5.841  1.00  0.00    -0.006 C 
ATOM     18  C   UNL     1     -15.439 -39.415  -7.313  1.00  0.00     0.008 C 
ATOM     19  C   UNL     1     -15.589 -38.256  -5.106  1.00  0.00     0.008 C 
ENDBRANCH  12  17
ENDBRANCH  11  12
ENDBRANCH   1  11
TORSDOF 1
ENDMDL
MODEL 8
REMARK VINA RESULT:    -4.275      2.347      4.464
REMARK INTER + INTRA:          -6.300
REMARK INTER:                  -7.252
REMARK INTRA:                   0.952
REMARK UNBOUND:                 0.224
REMARK SMILES CC1=CCC[C@@H](C)C(=O)C[C@H](C(C)C)C(=O)C1
REMARK SMILES IDX 8 1 9 2 6 3 7 4 5 5 4 6 3 7 2 8 1 9 10 11 11 12 15 13 16 14
REMARK SMILES IDX 17 15 12 17 13 18 14 19
REMARK H PARENT
REMARK Flexibility Score: 70.00
ROOT
ATOM      1  C   UNL     1     -18.590 -37.865  -3.516  1.00  0.00     0.136 C 
ATOM      2  O   UNL     1     -18.866 -39.000  -3.153  1.00  0.00    -0.299 OA
ENDROOT
BRANCH   1   3
ATOM      3  C   UNL     1     -17.107 -37.436  -3.618  1.00  0.00     0.053 C 
ATOM      4  C   UNL     1     -16.973 -35.929  -3.857  1.00  0.00     0.016 C 
BRANCH   3   5
ATOM      5  C   UNL     1     -16.292 -38.242  -4.689  1.00  0.00     0.015 C 
BRANCH   5   6
ATOM      6  C   UNL     1     -17.275 -38.696  -5.743  1.00  0.00     0.028 C 
BRANCH   6   7
ATOM      7  C   UNL     1     -17.722 -40.083  -5.986  1.00  0.00    -0.028 C 
ATOM      8  C   UNL     1     -19.019 -40.261  -6.363  1.00  0.00    -0.070 CG0
ATOM      9  C   UNL     1     -19.539 -41.671  -6.453  1.00  0.00     0.039 C 
ATOM     10  G   UNL     1     -19.923 -39.091  -6.833  1.00  0.00     0.000 G0
ENDBRANCH   6   7
ENDBRANCH   5   6
ENDBRANCH   3   5
ENDBRANCH   1   3
BRANCH   1  11
ATOM     11  C   UNL     1     -19.737 -36.886  -3.800  1.00  0.00     0.087 C 
BRANCH  11  12
ATOM     12  C   UNL     1     -20.267 -36.904  -5.294  1.00  0.00     0.066 C 
BRANCH  12  13
ATOM     13  C   UNL     1     -20.687 -38.322  -5.751  1.00  0.00     0.140 C 
ATOM     14  O   UNL     1     -21.676 -38.841  -5.255  1.00  0.00    -0.299 OA
BRANCH  13  15
ATOM     15  C   UNL     1     -19.927 -39.086  -6.844  1.00  0.00     0.106 CG0
ATOM     16  G   UNL     1     -19.035 -40.265  -6.375  1.00  0.00     0.000 G0
ENDBRANCH  13  15
ENDBRANCH  12  13
BRANCH  12  17
ATOM     17  C   UNL     1     -21.435 -35.885  -5.497  1.00  0.00    -0.006 C 
ATOM     18  C   UNL     1     -22.181 -36.140  -6.821  1.00  0.00     0.008 C 
ATOM     19  C   UNL     1     -22.463 -35.930  -4.349  1.00  0.00     0.008 C 
ENDBRANCH  12  17
ENDBRANCH  11  12
ENDBRANCH   1  11
TORSDOF 1
ENDMDL
MODEL 9
REMARK VINA RESULT:    -4.159      2.202      5.579
REMARK INTER + INTRA:          -6.123
REMARK INTER:                  -6.042
REMARK INTRA:                  -0.081
REMARK UNBOUND:                 0.224
REMARK SMILES CC1=CCC[C@@H](C)C(=O)C[C@H](C(C)C)C(=O)C1
REMARK SMILES IDX 8 1 9 2 6 3 7 4 5 5 4 6 3 7 2 8 1 9 10 11 11 12 15 13 16 14
REMARK SMILES IDX 17 15 12 17 13 18 14 19
REMARK H PARENT
REMARK Flexibility Score: 70.00
ROOT
ATOM      1  C   UNL     1     -19.587 -38.429  -5.417  1.00  0.00     0.136 C 
ATOM      2  O   UNL     1     -19.603 -38.181  -4.220  1.00  0.00    -0.299 OA
ENDROOT
BRANCH   1   3
ATOM      3  C   UNL     1     -20.889 -38.879  -6.121  1.00  0.00     0.053 C 
ATOM      4  C   UNL     1     -22.108 -38.122  -5.585  1.00  0.00     0.016 C 
BRANCH   3   5
ATOM      5  C   UNL     1     -21.130 -40.428  -6.064  1.00  0.00     0.015 C 
BRANCH   5   6
ATOM      6  C   UNL     1     -21.191 -40.918  -7.493  1.00  0.00     0.028 C 
BRANCH   6   7
ATOM      7  C   UNL     1     -20.398 -42.019  -8.077  1.00  0.00    -0.028 C 
ATOM      8  C   UNL     1     -19.335 -41.674  -8.856  1.00  0.00    -0.070 CG0
ATOM      9  C   UNL     1     -18.616 -42.771  -9.596  1.00  0.00     0.039 C 
ATOM     10  G   UNL     1     -18.759 -40.234  -8.897  1.00  0.00     0.000 G0
ENDBRANCH   6   7
ENDBRANCH   5   6
ENDBRANCH   3   5
ENDBRANCH   1   3
BRANCH   1  11
ATOM     11  C   UNL     1     -18.251 -38.343  -6.166  1.00  0.00     0.087 C 
BRANCH  11  12
ATOM     12  C   UNL     1     -17.596 -39.745  -6.513  1.00  0.00     0.066 C 
BRANCH  12  13
ATOM     13  C   UNL     1     -17.500 -39.988  -8.038  1.00  0.00     0.140 C 
ATOM     14  O   UNL     1     -16.401 -40.012  -8.571  1.00  0.00    -0.299 OA
BRANCH  13  15
ATOM     15  C   UNL     1     -18.742 -40.247  -8.903  1.00  0.00     0.106 CG0
ATOM     16  G   UNL     1     -19.330 -41.681  -8.862  1.00  0.00     0.000 G0
ENDBRANCH  13  15
ENDBRANCH  12  13
BRANCH  12  17
ATOM     17  C   UNL     1     -16.196 -39.904  -5.834  1.00  0.00    -0.006 C 
ATOM     18  C   UNL     1     -15.949 -38.798  -4.789  1.00  0.00     0.008 C 
ATOM     19  C   UNL     1     -16.030 -41.270  -5.139  1.00  0.00     0.008 C 
ENDBRANCH  12  17
ENDBRANCH  11  12
ENDBRANCH   1  11
TORSDOF 1
ENDMDL
