MODEL 1
REMARK VINA RESULT:     6.403      0.000      0.000
REMARK INTER + INTRA:          12.980
REMARK INTER:                   9.397
REMARK INTRA:                   3.583
REMARK UNBOUND:                 3.583
REMARK SMILES Cc1cc2c(C(C)C)c(O)c(O)c(C=O)c2c(O)c1-c1c(C)cc2c(C(C)C)c(O)c(O)c(C=O)c2c1O
REMARK SMILES IDX 1 1 2 2 3 3 4 4 16 5 13 6 11 7 9 8 5 9 17 10 19 11 20 12
REMARK SMILES IDX 37 13 21 14 36 15 23 16 22 17 24 18 33 19 25 20 31 21 29 22
REMARK SMILES IDX 38 23 34 25 35 26 26 27 27 28 28 29 32 30 30 32 18 34 6 36
REMARK SMILES IDX 7 37 8 38 14 39 15 40 10 41 12 43
REMARK H PARENT 38 24 32 31 30 33 18 35 10 42 12 44
REMARK Flexibility Score: inf
ROOT
ATOM      1  C   UNL     1      13.028  24.986  37.125  1.00  0.00     0.045 C 
ATOM      2  C   UNL     1      13.994  24.475  36.083  1.00  0.00    -0.039 A 
ATOM      3  C   UNL     1      14.165  23.099  35.923  1.00  0.00     0.013 A 
ATOM      4  C   UNL     1      15.064  22.566  34.974  1.00  0.00    -0.006 A 
ATOM      5  C   UNL     1      15.711  23.458  34.067  1.00  0.00     0.039 A 
ATOM      6  C   UNL     1      16.448  22.913  32.973  1.00  0.00     0.072 A 
ATOM      7  C   UNL     1      16.519  21.513  32.804  1.00  0.00     0.169 A 
ATOM      8  C   UNL     1      15.962  20.652  33.756  1.00  0.00     0.162 A 
ATOM      9  C   UNL     1      15.310  21.162  34.898  1.00  0.00     0.008 A 
ATOM     10  C   UNL     1      15.610  24.863  34.297  1.00  0.00     0.132 A 
ATOM     11  C   UNL     1      14.744  25.362  35.295  1.00  0.00     0.031 A 
ENDROOT
BRANCH  11  12
ATOM     12  C   UNL     1      14.615  26.826  35.510  1.00  0.00     0.031 A 
ATOM     13  C   UNL     1      13.373  27.467  35.308  1.00  0.00     0.132 A 
ATOM     14  C   UNL     1      15.730  27.571  35.931  1.00  0.00    -0.039 A 
ATOM     15  C   UNL     1      13.237  28.869  35.538  1.00  0.00     0.039 A 
ATOM     16  C   UNL     1      15.616  28.953  36.084  1.00  0.00     0.013 A 
ATOM     17  C   UNL     1      17.044  26.897  36.244  1.00  0.00     0.045 C 
ATOM     18  C   UNL     1      14.409  29.635  35.817  1.00  0.00    -0.006 A 
ATOM     19  C   UNL     1      11.976  29.534  35.490  1.00  0.00     0.072 A 
ATOM     20  C   UNL     1      14.344  31.060  35.850  1.00  0.00     0.008 A 
ATOM     21  C   UNL     1      11.907  30.926  35.707  1.00  0.00     0.169 A 
ATOM     22  C   UNL     1      13.075  31.678  35.874  1.00  0.00     0.162 A 
BRANCH  13  23
ATOM     23  O   UNL     1      12.283  26.714  34.857  1.00  0.00    -0.507 OA
ATOM     24  H   UNL     1      11.764  26.067  35.437  1.00  0.00     0.293 HD
ENDBRANCH  13  23
BRANCH  19  25
ATOM     25  C   UNL     1      10.709  28.794  35.307  1.00  0.00     0.264 C 
ATOM     26  O   UNL     1      10.010  28.968  34.274  1.00  0.00    -0.298 OA
ENDBRANCH  19  25
BRANCH  20  27
ATOM     27  C   UNL     1      15.615  31.928  35.869  1.00  0.00     0.017 C 
ATOM     28  C   UNL     1      16.415  31.755  34.575  1.00  0.00     0.012 C 
ATOM     29  C   UNL     1      16.501  31.703  37.109  1.00  0.00     0.012 C 
ENDBRANCH  20  27
BRANCH  21  30
ATOM     30  O   UNL     1      10.680  31.595  35.786  1.00  0.00    -0.504 OA
ATOM     31  H   UNL     1      10.124  31.663  36.628  1.00  0.00     0.293 HD
ENDBRANCH  21  30
BRANCH  22  32
ATOM     32  O   UNL     1      12.975  33.054  36.095  1.00  0.00    -0.504 OA
ATOM     33  H   UNL     1      12.386  33.660  35.539  1.00  0.00     0.293 HD
ENDBRANCH  22  32
ENDBRANCH  11  12
BRANCH  10  34
ATOM     34  O   UNL     1      16.386  25.761  33.555  1.00  0.00    -0.507 OA
ATOM     35  H   UNL     1      16.852  26.567  33.951  1.00  0.00     0.293 HD
ENDBRANCH  10  34
BRANCH   9  36
ATOM     36  C   UNL     1      14.871  20.204  36.020  1.00  0.00     0.017 C 
ATOM     37  C   UNL     1      14.420  18.857  35.445  1.00  0.00     0.012 C 
ATOM     38  C   UNL     1      15.931  20.017  37.122  1.00  0.00     0.012 C 
ENDBRANCH   9  36
BRANCH   6  39
ATOM     39  C   UNL     1      17.068  23.772  31.943  1.00  0.00     0.264 C 
ATOM     40  O   UNL     1      17.122  25.021  32.098  1.00  0.00    -0.298 OA
ENDBRANCH   6  39
BRANCH   8  41
ATOM     41  O   UNL     1      16.035  19.272  33.554  1.00  0.00    -0.504 OA
ATOM     42  H   UNL     1      15.257  18.645  33.721  1.00  0.00     0.293 HD
ENDBRANCH   8  41
BRANCH   7  43
ATOM     43  O   UNL     1      17.124  20.942  31.678  1.00  0.00    -0.504 OA
ATOM     44  H   UNL     1      16.624  20.669  30.843  1.00  0.00     0.293 HD
ENDBRANCH   7  43
TORSDOF 11
ENDMDL
MODEL 2
REMARK VINA RESULT:     9.377      1.844      8.705
REMARK INTER + INTRA:          17.346
REMARK INTER:                  13.485
REMARK INTRA:                   3.861
REMARK UNBOUND:                 3.583
REMARK SMILES Cc1cc2c(C(C)C)c(O)c(O)c(C=O)c2c(O)c1-c1c(C)cc2c(C(C)C)c(O)c(O)c(C=O)c2c1O
REMARK SMILES IDX 1 1 2 2 3 3 4 4 16 5 13 6 11 7 9 8 5 9 17 10 19 11 20 12
REMARK SMILES IDX 37 13 21 14 36 15 23 16 22 17 24 18 33 19 25 20 31 21 29 22
REMARK SMILES IDX 38 23 34 25 35 26 26 27 27 28 28 29 32 30 30 32 18 34 6 36
REMARK SMILES IDX 7 37 8 38 14 39 15 40 10 41 12 43
REMARK H PARENT 38 24 32 31 30 33 18 35 10 42 12 44
REMARK Flexibility Score: inf
ROOT
ATOM      1  C   UNL     1      13.023  25.806  36.641  1.00  0.00     0.045 C 
ATOM      2  C   UNL     1      13.695  27.001  36.009  1.00  0.00    -0.039 A 
ATOM      3  C   UNL     1      13.168  28.276  36.221  1.00  0.00     0.013 A 
ATOM      4  C   UNL     1      13.748  29.426  35.644  1.00  0.00    -0.006 A 
ATOM      5  C   UNL     1      14.980  29.292  34.938  1.00  0.00     0.039 A 
ATOM      6  C   UNL     1      15.679  30.472  34.541  1.00  0.00     0.072 A 
ATOM      7  C   UNL     1      15.147  31.741  34.856  1.00  0.00     0.169 A 
ATOM      8  C   UNL     1      13.890  31.856  35.462  1.00  0.00     0.162 A 
ATOM      9  C   UNL     1      13.133  30.708  35.779  1.00  0.00     0.008 A 
ATOM     10  C   UNL     1      15.461  27.981  34.641  1.00  0.00     0.132 A 
ATOM     11  C   UNL     1      14.823  26.847  35.188  1.00  0.00     0.031 A 
ENDROOT
BRANCH  11  12
ATOM     12  C   UNL     1      15.346  25.485  34.904  1.00  0.00     0.031 A 
ATOM     13  C   UNL     1      15.042  24.850  33.680  1.00  0.00     0.132 A 
ATOM     14  C   UNL     1      16.157  24.837  35.851  1.00  0.00    -0.039 A 
ATOM     15  C   UNL     1      15.563  23.552  33.391  1.00  0.00     0.039 A 
ATOM     16  C   UNL     1      16.604  23.539  35.600  1.00  0.00     0.013 A 
ATOM     17  C   UNL     1      16.573  25.531  37.125  1.00  0.00     0.045 C 
ATOM     18  C   UNL     1      16.257  22.847  34.420  1.00  0.00    -0.006 A 
ATOM     19  C   UNL     1      15.407  22.930  32.116  1.00  0.00     0.072 A 
ATOM     20  C   UNL     1      16.611  21.476  34.237  1.00  0.00     0.008 A 
ATOM     21  C   UNL     1      15.927  21.638  31.896  1.00  0.00     0.169 A 
ATOM     22  C   UNL     1      16.511  20.919  32.945  1.00  0.00     0.162 A 
BRANCH  13  23
ATOM     23  O   UNL     1      14.206  25.497  32.764  1.00  0.00    -0.507 OA
ATOM     24  H   UNL     1      13.978  25.129  31.849  1.00  0.00     0.293 HD
ENDBRANCH  13  23
BRANCH  19  25
ATOM     25  C   UNL     1      14.790  23.637  30.974  1.00  0.00     0.264 C 
ATOM     26  O   UNL     1      14.164  24.716  31.150  1.00  0.00    -0.298 OA
ENDBRANCH  19  25
BRANCH  20  27
ATOM     27  C   UNL     1      17.103  20.605  35.407  1.00  0.00     0.017 C 
ATOM     28  C   UNL     1      16.558  19.178  35.293  1.00  0.00     0.012 C 
ATOM     29  C   UNL     1      16.810  21.207  36.794  1.00  0.00     0.012 C 
ENDBRANCH  20  27
BRANCH  21  30
ATOM     30  O   UNL     1      15.899  21.044  30.629  1.00  0.00    -0.504 OA
ATOM     31  H   UNL     1      15.891  21.561  29.761  1.00  0.00     0.293 HD
ENDBRANCH  21  30
BRANCH  22  32
ATOM     32  O   UNL     1      17.023  19.644  32.695  1.00  0.00    -0.504 OA
ATOM     33  H   UNL     1      17.809  19.256  33.200  1.00  0.00     0.293 HD
ENDBRANCH  22  32
ENDBRANCH  11  12
BRANCH  10  34
ATOM     34  O   UNL     1      16.554  27.804  33.785  1.00  0.00    -0.507 OA
ATOM     35  H   UNL     1      17.362  28.412  33.766  1.00  0.00     0.293 HD
ENDBRANCH  10  34
BRANCH   9  36
ATOM     36  C   UNL     1      11.683  30.861  36.271  1.00  0.00     0.017 C 
ATOM     37  C   UNL     1      11.512  32.148  37.084  1.00  0.00     0.012 C 
ATOM     38  C   UNL     1      10.636  30.765  35.145  1.00  0.00     0.012 C 
ENDBRANCH   9  36
BRANCH   6  39
ATOM     39  C   UNL     1      17.002  30.413  33.887  1.00  0.00     0.264 C 
ATOM     40  O   UNL     1      17.125  29.931  32.730  1.00  0.00    -0.298 OA
ENDBRANCH   6  39
BRANCH   8  41
ATOM     41  O   UNL     1      13.397  33.124  35.775  1.00  0.00    -0.504 OA
ATOM     42  H   UNL     1      13.976  33.955  35.792  1.00  0.00     0.293 HD
ENDBRANCH   8  41
BRANCH   7  43
ATOM     43  O   UNL     1      15.859  32.918  34.597  1.00  0.00    -0.504 OA
ATOM     44  H   UNL     1      15.525  33.663  34.000  1.00  0.00     0.293 HD
ENDBRANCH   7  43
TORSDOF 11
ENDMDL
