MODEL 1
REMARK VINA RESULT:    -7.098      0.000      0.000
REMARK INTER + INTRA:          -9.147
REMARK INTER:                  -8.758
REMARK INTRA:                  -0.389
REMARK UNBOUND:                -0.389
REMARK SMILES COc1cc(-c2oc3cc(O)cc(O)c3c(=O)c2O)ccc1O
REMARK SMILES IDX 6 1 18 2 16 3 17 4 15 5 13 6 12 7 10 8 9 9 8 10 7 11 5 12
REMARK SMILES IDX 3 13 22 14 4 15 21 16 20 17 2 18 1 19 23 20 19 22 14 24
REMARK SMILES IDX 11 26
REMARK H PARENT 23 21 19 23 14 25 11 27
REMARK Flexibility Score: inf
ROOT
ATOM      1  C   UNL     1     -36.698 -13.219 -10.601  1.00  0.00     0.180 A 
ATOM      2  C   UNL     1     -37.572 -12.930 -11.668  1.00  0.00     0.208 A 
ATOM      3  C   UNL     1     -37.374 -13.573 -12.900  1.00  0.00     0.238 A 
ATOM      4  O   UNL     1     -38.142 -13.313 -13.865  1.00  0.00    -0.285 OA
ATOM      5  C   UNL     1     -36.324 -14.505 -13.040  1.00  0.00     0.111 A 
ATOM      6  C   UNL     1     -36.060 -15.198 -14.245  1.00  0.00     0.134 A 
ATOM      7  C   UNL     1     -35.001 -16.118 -14.302  1.00  0.00     0.093 A 
ATOM      8  C   UNL     1     -34.206 -16.357 -13.179  1.00  0.00     0.123 A 
ATOM      9  C   UNL     1     -34.462 -15.675 -11.985  1.00  0.00     0.094 A 
ATOM     10  C   UNL     1     -35.511 -14.754 -11.909  1.00  0.00     0.146 A 
ATOM     11  O   UNL     1     -35.729 -14.115 -10.766  1.00  0.00    -0.452 OA
ENDROOT
BRANCH   1  12
ATOM     12  C   UNL     1     -36.831 -12.569  -9.278  1.00  0.00     0.025 A 
ATOM     13  C   UNL     1     -36.215 -10.824  -7.679  1.00  0.00     0.161 A 
ATOM     14  C   UNL     1     -37.072 -11.400  -6.732  1.00  0.00     0.157 A 
ATOM     15  C   UNL     1     -36.091 -11.418  -8.951  1.00  0.00     0.062 A 
ATOM     16  C   UNL     1     -37.792 -12.559  -7.047  1.00  0.00     0.051 A 
ATOM     17  C   UNL     1     -37.666 -13.144  -8.309  1.00  0.00     0.016 A 
BRANCH  13  18
ATOM     18  O   UNL     1     -35.502  -9.669  -7.321  1.00  0.00    -0.493 OA
ATOM     19  C   UNL     1     -34.733  -8.882  -8.225  1.00  0.00     0.278 C 
ENDBRANCH  13  18
BRANCH  14  20
ATOM     20  O   UNL     1     -37.200 -10.814  -5.473  1.00  0.00    -0.504 OA
ATOM     21  H   UNL     1     -37.993 -11.014  -4.873  1.00  0.00     0.293 HD
ENDBRANCH  14  20
ENDBRANCH   1  12
BRANCH   2  22
ATOM     22  O   UNL     1     -38.633 -12.040 -11.489  1.00  0.00    -0.502 OA
ATOM     23  H   UNL     1     -39.041 -11.520 -12.256  1.00  0.00     0.293 HD
ENDBRANCH   2  22
BRANCH   6  24
ATOM     24  O   UNL     1     -36.837 -14.981 -15.384  1.00  0.00    -0.507 OA
ATOM     25  H   UNL     1     -36.983 -15.707 -16.076  1.00  0.00     0.293 HD
ENDBRANCH   6  24
BRANCH   8  26
ATOM     26  O   UNL     1     -33.162 -17.276 -13.261  1.00  0.00    -0.508 OA
ATOM     27  H   UNL     1     -32.326 -17.181 -12.696  1.00  0.00     0.293 HD
ENDBRANCH   8  26
TORSDOF 6
ENDMDL
MODEL 2
REMARK VINA RESULT:    -6.742      1.601      2.952
REMARK INTER + INTRA:          -8.708
REMARK INTER:                  -8.319
REMARK INTRA:                  -0.389
REMARK UNBOUND:                -0.389
REMARK SMILES COc1cc(-c2oc3cc(O)cc(O)c3c(=O)c2O)ccc1O
REMARK SMILES IDX 6 1 18 2 16 3 17 4 15 5 13 6 12 7 10 8 9 9 8 10 7 11 5 12
REMARK SMILES IDX 3 13 22 14 4 15 21 16 20 17 2 18 1 19 23 20 19 22 14 24
REMARK SMILES IDX 11 26
REMARK H PARENT 23 21 19 23 14 25 11 27
REMARK Flexibility Score: inf
ROOT
ATOM      1  C   UNL     1     -36.080 -14.529 -10.647  1.00  0.00     0.180 A 
ATOM      2  C   UNL     1     -34.735 -14.927 -10.777  1.00  0.00     0.208 A 
ATOM      3  C   UNL     1     -34.338 -15.604 -11.940  1.00  0.00     0.238 A 
ATOM      4  O   UNL     1     -33.139 -15.976 -12.062  1.00  0.00    -0.285 OA
ATOM      5  C   UNL     1     -35.281 -15.854 -12.958  1.00  0.00     0.111 A 
ATOM      6  C   UNL     1     -34.962 -16.528 -14.162  1.00  0.00     0.134 A 
ATOM      7  C   UNL     1     -35.956 -16.730 -15.131  1.00  0.00     0.093 A 
ATOM      8  C   UNL     1     -37.259 -16.273 -14.921  1.00  0.00     0.123 A 
ATOM      9  C   UNL     1     -37.581 -15.608 -13.734  1.00  0.00     0.094 A 
ATOM     10  C   UNL     1     -36.605 -15.397 -12.755  1.00  0.00     0.146 A 
ATOM     11  O   UNL     1     -36.938 -14.768 -11.634  1.00  0.00    -0.452 OA
ENDROOT
BRANCH   1  12
ATOM     12  C   UNL     1     -36.578 -13.826  -9.443  1.00  0.00     0.025 A 
ATOM     13  C   UNL     1     -36.910 -11.782  -8.141  1.00  0.00     0.161 A 
ATOM     14  C   UNL     1     -37.489 -12.540  -7.114  1.00  0.00     0.157 A 
ATOM     15  C   UNL     1     -36.448 -12.432  -9.303  1.00  0.00     0.062 A 
ATOM     16  C   UNL     1     -37.599 -13.929  -7.242  1.00  0.00     0.051 A 
ATOM     17  C   UNL     1     -37.139 -14.569  -8.395  1.00  0.00     0.016 A 
BRANCH  13  18
ATOM     18  O   UNL     1     -36.807 -10.392  -7.971  1.00  0.00    -0.493 OA
ATOM     19  C   UNL     1     -35.583  -9.693  -7.769  1.00  0.00     0.278 C 
ENDBRANCH  13  18
BRANCH  14  20
ATOM     20  O   UNL     1     -37.951 -11.901  -5.964  1.00  0.00    -0.504 OA
ATOM     21  H   UNL     1     -37.417 -11.164  -5.516  1.00  0.00     0.293 HD
ENDBRANCH  14  20
ENDBRANCH   1  12
BRANCH   2  22
ATOM     22  O   UNL     1     -33.809 -14.623  -9.776  1.00  0.00    -0.502 OA
ATOM     23  H   UNL     1     -34.009 -14.757  -8.793  1.00  0.00     0.293 HD
ENDBRANCH   2  22
BRANCH   6  24
ATOM     24  O   UNL     1     -33.669 -16.996 -14.402  1.00  0.00    -0.507 OA
ATOM     25  H   UNL     1     -32.860 -16.582 -13.953  1.00  0.00     0.293 HD
ENDBRANCH   6  24
BRANCH   8  26
ATOM     26  O   UNL     1     -38.227 -16.485 -15.900  1.00  0.00    -0.508 OA
ATOM     27  H   UNL     1     -38.390 -17.405 -16.294  1.00  0.00     0.293 HD
ENDBRANCH   8  26
TORSDOF 6
ENDMDL
MODEL 3
REMARK VINA RESULT:    -6.700      1.819      3.621
REMARK INTER + INTRA:          -8.656
REMARK INTER:                  -8.333
REMARK INTRA:                  -0.323
REMARK UNBOUND:                -0.389
REMARK SMILES COc1cc(-c2oc3cc(O)cc(O)c3c(=O)c2O)ccc1O
REMARK SMILES IDX 6 1 18 2 16 3 17 4 15 5 13 6 12 7 10 8 9 9 8 10 7 11 5 12
REMARK SMILES IDX 3 13 22 14 4 15 21 16 20 17 2 18 1 19 23 20 19 22 14 24
REMARK SMILES IDX 11 26
REMARK H PARENT 23 21 19 23 14 25 11 27
REMARK Flexibility Score: inf
ROOT
ATOM      1  C   UNL     1     -35.990 -14.236 -10.785  1.00  0.00     0.180 A 
ATOM      2  C   UNL     1     -34.616 -14.414 -11.041  1.00  0.00     0.208 A 
ATOM      3  C   UNL     1     -34.223 -15.013 -12.248  1.00  0.00     0.238 A 
ATOM      4  O   UNL     1     -32.996 -15.187 -12.482  1.00  0.00    -0.285 OA
ATOM      5  C   UNL     1     -35.203 -15.403 -13.184  1.00  0.00     0.111 A 
ATOM      6  C   UNL     1     -34.891 -16.010 -14.424  1.00  0.00     0.134 A 
ATOM      7  C   UNL     1     -35.923 -16.362 -15.307  1.00  0.00     0.093 A 
ATOM      8  C   UNL     1     -37.257 -16.120 -14.974  1.00  0.00     0.123 A 
ATOM      9  C   UNL     1     -37.573 -15.522 -13.750  1.00  0.00     0.094 A 
ATOM     10  C   UNL     1     -36.558 -15.165 -12.856  1.00  0.00     0.146 A 
ATOM     11  O   UNL     1     -36.885 -14.604 -11.698  1.00  0.00    -0.452 OA
ENDROOT
BRANCH   1  12
ATOM     12  C   UNL     1     -36.483 -13.630  -9.528  1.00  0.00     0.025 A 
ATOM     13  C   UNL     1     -37.579 -13.813  -7.349  1.00  0.00     0.161 A 
ATOM     14  C   UNL     1     -37.458 -12.427  -7.180  1.00  0.00     0.157 A 
ATOM     15  C   UNL     1     -37.097 -14.410  -8.531  1.00  0.00     0.062 A 
ATOM     16  C   UNL     1     -36.868 -11.646  -8.181  1.00  0.00     0.051 A 
ATOM     17  C   UNL     1     -36.392 -12.242  -9.350  1.00  0.00     0.016 A 
BRANCH  13  18
ATOM     18  O   UNL     1     -38.187 -14.560  -6.328  1.00  0.00    -0.493 OA
ATOM     19  C   UNL     1     -39.006 -15.704  -6.544  1.00  0.00     0.278 C 
ENDBRANCH  13  18
BRANCH  14  20
ATOM     20  O   UNL     1     -37.930 -11.832  -6.011  1.00  0.00    -0.504 OA
ATOM     21  H   UNL     1     -37.398 -11.118  -5.527  1.00  0.00     0.293 HD
ENDBRANCH  14  20
ENDBRANCH   1  12
BRANCH   2  22
ATOM     22  O   UNL     1     -33.664 -13.973 -10.119  1.00  0.00    -0.502 OA
ATOM     23  H   UNL     1     -33.812 -13.161  -9.531  1.00  0.00     0.293 HD
ENDBRANCH   2  22
BRANCH   6  24
ATOM     24  O   UNL     1     -33.567 -16.264 -14.786  1.00  0.00    -0.507 OA
ATOM     25  H   UNL     1     -33.204 -17.208 -14.850  1.00  0.00     0.293 HD
ENDBRANCH   6  24
BRANCH   8  26
ATOM     26  O   UNL     1     -38.264 -16.477 -15.868  1.00  0.00    -0.508 OA
ATOM     27  H   UNL     1     -38.070 -17.045 -16.686  1.00  0.00     0.293 HD
ENDBRANCH   8  26
TORSDOF 6
ENDMDL
MODEL 4
REMARK VINA RESULT:    -6.682      1.481      2.510
REMARK INTER + INTRA:          -8.634
REMARK INTER:                  -8.306
REMARK INTRA:                  -0.328
REMARK UNBOUND:                -0.389
REMARK SMILES COc1cc(-c2oc3cc(O)cc(O)c3c(=O)c2O)ccc1O
REMARK SMILES IDX 6 1 18 2 16 3 17 4 15 5 13 6 12 7 10 8 9 9 8 10 7 11 5 12
REMARK SMILES IDX 3 13 22 14 4 15 21 16 20 17 2 18 1 19 23 20 19 22 14 24
REMARK SMILES IDX 11 26
REMARK H PARENT 23 21 19 23 14 25 11 27
REMARK Flexibility Score: inf
ROOT
ATOM      1  C   UNL     1     -36.306 -13.500 -11.015  1.00  0.00     0.180 A 
ATOM      2  C   UNL     1     -37.083 -13.196 -12.150  1.00  0.00     0.208 A 
ATOM      3  C   UNL     1     -36.621 -13.594 -13.414  1.00  0.00     0.238 A 
ATOM      4  O   UNL     1     -37.302 -13.316 -14.438  1.00  0.00    -0.285 OA
ATOM      5  C   UNL     1     -35.407 -14.304 -13.521  1.00  0.00     0.111 A 
ATOM      6  C   UNL     1     -34.874 -14.745 -14.757  1.00  0.00     0.134 A 
ATOM      7  C   UNL     1     -33.664 -15.454 -14.779  1.00  0.00     0.093 A 
ATOM      8  C   UNL     1     -32.979 -15.732 -13.595  1.00  0.00     0.123 A 
ATOM      9  C   UNL     1     -33.500 -15.300 -12.371  1.00  0.00     0.094 A 
ATOM     10  C   UNL     1     -34.704 -14.589 -12.327  1.00  0.00     0.146 A 
ATOM     11  O   UNL     1     -35.174 -14.185 -11.153  1.00  0.00    -0.452 OA
ENDROOT
BRANCH   1  12
ATOM     12  C   UNL     1     -36.717 -13.098  -9.650  1.00  0.00     0.025 A 
ATOM     13  C   UNL     1     -37.703 -13.615  -7.472  1.00  0.00     0.161 A 
ATOM     14  C   UNL     1     -37.535 -12.278  -7.088  1.00  0.00     0.157 A 
ATOM     15  C   UNL     1     -37.299 -14.019  -8.760  1.00  0.00     0.062 A 
ATOM     16  C   UNL     1     -36.977 -11.355  -7.980  1.00  0.00     0.051 A 
ATOM     17  C   UNL     1     -36.578 -11.760  -9.255  1.00  0.00     0.016 A 
BRANCH  13  18
ATOM     18  O   UNL     1     -38.277 -14.508  -6.554  1.00  0.00    -0.493 OA
ATOM     19  C   UNL     1     -38.947 -15.713  -6.911  1.00  0.00     0.278 C 
ENDBRANCH  13  18
BRANCH  14  20
ATOM     20  O   UNL     1     -37.930 -11.873  -5.814  1.00  0.00    -0.504 OA
ATOM     21  H   UNL     1     -38.908 -11.808  -5.557  1.00  0.00     0.293 HD
ENDBRANCH  14  20
ENDBRANCH   1  12
BRANCH   2  22
ATOM     22  O   UNL     1     -38.305 -12.535 -12.012  1.00  0.00    -0.502 OA
ATOM     23  H   UNL     1     -39.072 -12.669 -12.660  1.00  0.00     0.293 HD
ENDBRANCH   2  22
BRANCH   6  24
ATOM     24  O   UNL     1     -35.535 -14.483 -15.958  1.00  0.00    -0.507 OA
ATOM     25  H   UNL     1     -36.546 -14.436 -16.011  1.00  0.00     0.293 HD
ENDBRANCH   6  24
BRANCH   8  26
ATOM     26  O   UNL     1     -31.781 -16.440 -13.644  1.00  0.00    -0.508 OA
ATOM     27  H   UNL     1     -30.885 -15.966 -13.653  1.00  0.00     0.293 HD
ENDBRANCH   8  26
TORSDOF 6
ENDMDL
MODEL 5
REMARK VINA RESULT:    -6.566      3.656      6.298
REMARK INTER + INTRA:          -8.491
REMARK INTER:                  -8.863
REMARK INTRA:                   0.372
REMARK UNBOUND:                -0.389
REMARK SMILES COc1cc(-c2oc3cc(O)cc(O)c3c(=O)c2O)ccc1O
REMARK SMILES IDX 6 1 18 2 16 3 17 4 15 5 13 6 12 7 10 8 9 9 8 10 7 11 5 12
REMARK SMILES IDX 3 13 22 14 4 15 21 16 20 17 2 18 1 19 23 20 19 22 14 24
REMARK SMILES IDX 11 26
REMARK H PARENT 23 21 19 23 14 25 11 27
REMARK Flexibility Score: inf
ROOT
ATOM      1  C   UNL     1     -36.843 -12.972  -7.856  1.00  0.00     0.180 A 
ATOM      2  C   UNL     1     -37.097 -11.888  -6.993  1.00  0.00     0.208 A 
ATOM      3  C   UNL     1     -36.440 -10.669  -7.226  1.00  0.00     0.238 A 
ATOM      4  O   UNL     1     -36.650  -9.695  -6.453  1.00  0.00    -0.285 OA
ATOM      5  C   UNL     1     -35.561 -10.548  -8.322  1.00  0.00     0.111 A 
ATOM      6  C   UNL     1     -34.863  -9.355  -8.627  1.00  0.00     0.134 A 
ATOM      7  C   UNL     1     -34.012  -9.312  -9.742  1.00  0.00     0.093 A 
ATOM      8  C   UNL     1     -33.847 -10.435 -10.555  1.00  0.00     0.123 A 
ATOM      9  C   UNL     1     -34.533 -11.617 -10.259  1.00  0.00     0.094 A 
ATOM     10  C   UNL     1     -35.384 -11.681  -9.152  1.00  0.00     0.146 A 
ATOM     11  O   UNL     1     -36.020 -12.816  -8.889  1.00  0.00    -0.452 OA
ENDROOT
BRANCH   1  12
ATOM     12  C   UNL     1     -37.483 -14.294  -7.666  1.00  0.00     0.025 A 
ATOM     13  C   UNL     1     -37.589 -16.701  -8.087  1.00  0.00     0.161 A 
ATOM     14  C   UNL     1     -38.764 -16.774  -7.326  1.00  0.00     0.157 A 
ATOM     15  C   UNL     1     -36.956 -15.454  -8.262  1.00  0.00     0.062 A 
ATOM     16  C   UNL     1     -39.303 -15.617  -6.752  1.00  0.00     0.051 A 
ATOM     17  C   UNL     1     -38.672 -14.384  -6.927  1.00  0.00     0.016 A 
BRANCH  13  18
ATOM     18  O   UNL     1     -37.087 -17.881  -8.657  1.00  0.00    -0.493 OA
ATOM     19  C   UNL     1     -35.862 -17.971  -9.378  1.00  0.00     0.278 C 
ENDBRANCH  13  18
BRANCH  14  20
ATOM     20  O   UNL     1     -39.393 -18.005  -7.148  1.00  0.00    -0.504 OA
ATOM     21  H   UNL     1     -39.348 -18.731  -7.854  1.00  0.00     0.293 HD
ENDBRANCH  14  20
ENDBRANCH   1  12
BRANCH   2  22
ATOM     22  O   UNL     1     -38.009 -12.019  -5.945  1.00  0.00    -0.502 OA
ATOM     23  H   UNL     1     -38.785 -11.381  -5.817  1.00  0.00     0.293 HD
ENDBRANCH   2  22
BRANCH   6  24
ATOM     24  O   UNL     1     -35.007  -8.216  -7.834  1.00  0.00    -0.507 OA
ATOM     25  H   UNL     1     -35.729  -8.147  -7.126  1.00  0.00     0.293 HD
ENDBRANCH   6  24
BRANCH   8  26
ATOM     26  O   UNL     1     -32.997 -10.365 -11.657  1.00  0.00    -0.508 OA
ATOM     27  H   UNL     1     -32.023 -10.637 -11.594  1.00  0.00     0.293 HD
ENDBRANCH   8  26
TORSDOF 6
ENDMDL
MODEL 6
REMARK VINA RESULT:    -6.471      1.740      7.169
REMARK INTER + INTRA:          -8.373
REMARK INTER:                  -7.980
REMARK INTRA:                  -0.394
REMARK UNBOUND:                -0.389
REMARK SMILES COc1cc(-c2oc3cc(O)cc(O)c3c(=O)c2O)ccc1O
REMARK SMILES IDX 6 1 18 2 16 3 17 4 15 5 13 6 12 7 10 8 9 9 8 10 7 11 5 12
REMARK SMILES IDX 3 13 22 14 4 15 21 16 20 17 2 18 1 19 23 20 19 22 14 24
REMARK SMILES IDX 11 26
REMARK H PARENT 23 21 19 23 14 25 11 27
REMARK Flexibility Score: inf
ROOT
ATOM      1  C   UNL     1     -36.116 -12.231  -9.648  1.00  0.00     0.180 A 
ATOM      2  C   UNL     1     -36.939 -12.203  -8.505  1.00  0.00     0.208 A 
ATOM      3  C   UNL     1     -36.781 -11.158  -7.581  1.00  0.00     0.238 A 
ATOM      4  O   UNL     1     -37.504 -11.129  -6.549  1.00  0.00    -0.285 OA
ATOM      5  C   UNL     1     -35.822 -10.152  -7.822  1.00  0.00     0.111 A 
ATOM      6  C   UNL     1     -35.603  -9.065  -6.944  1.00  0.00     0.134 A 
ATOM      7  C   UNL     1     -34.635  -8.099  -7.260  1.00  0.00     0.093 A 
ATOM      8  C   UNL     1     -33.885  -8.199  -8.433  1.00  0.00     0.123 A 
ATOM      9  C   UNL     1     -34.097  -9.272  -9.305  1.00  0.00     0.094 A 
ATOM     10  C   UNL     1     -35.055 -10.246  -9.008  1.00  0.00     0.146 A 
ATOM     11  O   UNL     1     -35.233 -11.257  -9.850  1.00  0.00    -0.452 OA
ENDROOT
BRANCH   1  12
ATOM     12  C   UNL     1     -36.210 -13.309 -10.658  1.00  0.00     0.025 A 
ATOM     13  C   UNL     1     -37.112 -14.215 -12.744  1.00  0.00     0.161 A 
ATOM     14  C   UNL     1     -36.405 -15.405 -12.523  1.00  0.00     0.157 A 
ATOM     15  C   UNL     1     -37.018 -13.171 -11.802  1.00  0.00     0.062 A 
ATOM     16  C   UNL     1     -35.619 -15.553 -11.374  1.00  0.00     0.051 A 
ATOM     17  C   UNL     1     -35.529 -14.515 -10.444  1.00  0.00     0.016 A 
BRANCH  13  18
ATOM     18  O   UNL     1     -37.898 -14.109 -13.902  1.00  0.00    -0.493 OA
ATOM     19  C   UNL     1     -37.523 -13.382 -15.068  1.00  0.00     0.278 C 
ENDBRANCH  13  18
BRANCH  14  20
ATOM     20  O   UNL     1     -36.492 -16.440 -13.453  1.00  0.00    -0.504 OA
ATOM     21  H   UNL     1     -36.332 -16.280 -14.441  1.00  0.00     0.293 HD
ENDBRANCH  14  20
ENDBRANCH   1  12
BRANCH   2  22
ATOM     22  O   UNL     1     -37.915 -13.183  -8.314  1.00  0.00    -0.502 OA
ATOM     23  H   UNL     1     -38.906 -12.973  -8.325  1.00  0.00     0.293 HD
ENDBRANCH   2  22
BRANCH   6  24
ATOM     24  O   UNL     1     -36.336  -8.936  -5.763  1.00  0.00    -0.507 OA
ATOM     25  H   UNL     1     -36.583  -9.740  -5.198  1.00  0.00     0.293 HD
ENDBRANCH   6  24
BRANCH   8  26
ATOM     26  O   UNL     1     -32.932  -7.226  -8.724  1.00  0.00    -0.508 OA
ATOM     27  H   UNL     1     -32.949  -6.712  -9.597  1.00  0.00     0.293 HD
ENDBRANCH   8  26
TORSDOF 6
ENDMDL
MODEL 7
REMARK VINA RESULT:    -6.345      9.905     13.194
REMARK INTER + INTRA:          -8.217
REMARK INTER:                  -7.861
REMARK INTRA:                  -0.356
REMARK UNBOUND:                -0.389
REMARK SMILES COc1cc(-c2oc3cc(O)cc(O)c3c(=O)c2O)ccc1O
REMARK SMILES IDX 6 1 18 2 16 3 17 4 15 5 13 6 12 7 10 8 9 9 8 10 7 11 5 12
REMARK SMILES IDX 3 13 22 14 4 15 21 16 20 17 2 18 1 19 23 20 19 22 14 24
REMARK SMILES IDX 11 26
REMARK H PARENT 23 21 19 23 14 25 11 27
REMARK Flexibility Score: inf
ROOT
ATOM      1  C   UNL     1     -28.515 -13.881  -3.233  1.00  0.00     0.180 A 
ATOM      2  C   UNL     1     -29.585 -12.992  -3.010  1.00  0.00     0.208 A 
ATOM      3  C   UNL     1     -29.446 -11.998  -2.028  1.00  0.00     0.238 A 
ATOM      4  O   UNL     1     -30.402 -11.204  -1.812  1.00  0.00    -0.285 OA
ATOM      5  C   UNL     1     -28.241 -11.895  -1.304  1.00  0.00     0.111 A 
ATOM      6  C   UNL     1     -28.020 -10.921  -0.301  1.00  0.00     0.134 A 
ATOM      7  C   UNL     1     -26.788 -10.878   0.369  1.00  0.00     0.093 A 
ATOM      8  C   UNL     1     -25.776 -11.789   0.057  1.00  0.00     0.123 A 
ATOM      9  C   UNL     1     -25.988 -12.754  -0.932  1.00  0.00     0.094 A 
ATOM     10  C   UNL     1     -27.209 -12.814  -1.611  1.00  0.00     0.146 A 
ATOM     11  O   UNL     1     -27.387 -13.744  -2.541  1.00  0.00    -0.452 OA
ENDROOT
BRANCH   1  12
ATOM     12  C   UNL     1     -28.591 -14.966  -4.237  1.00  0.00     0.025 A 
ATOM     13  C   UNL     1     -28.898 -17.320  -4.826  1.00  0.00     0.161 A 
ATOM     14  C   UNL     1     -28.671 -17.005  -6.173  1.00  0.00     0.157 A 
ATOM     15  C   UNL     1     -28.849 -16.296  -3.859  1.00  0.00     0.062 A 
ATOM     16  C   UNL     1     -28.392 -15.685  -6.548  1.00  0.00     0.051 A 
ATOM     17  C   UNL     1     -28.344 -14.674  -5.587  1.00  0.00     0.016 A 
BRANCH  13  18
ATOM     18  O   UNL     1     -29.163 -18.656  -4.487  1.00  0.00    -0.493 OA
ATOM     19  C   UNL     1     -29.179 -19.163  -3.157  1.00  0.00     0.278 C 
ENDBRANCH  13  18
BRANCH  14  20
ATOM     20  O   UNL     1     -28.721 -18.013  -7.134  1.00  0.00    -0.504 OA
ATOM     21  H   UNL     1     -29.212 -18.884  -6.964  1.00  0.00     0.293 HD
ENDBRANCH  14  20
ENDBRANCH   1  12
BRANCH   2  22
ATOM     22  O   UNL     1     -30.749 -13.083  -3.775  1.00  0.00    -0.502 OA
ATOM     23  H   UNL     1     -31.657 -13.263  -3.364  1.00  0.00     0.293 HD
ENDBRANCH   2  22
BRANCH   6  24
ATOM     24  O   UNL     1     -29.011  -9.997   0.033  1.00  0.00    -0.507 OA
ATOM     25  H   UNL     1     -29.416  -9.375  -0.658  1.00  0.00     0.293 HD
ENDBRANCH   6  24
BRANCH   8  26
ATOM     26  O   UNL     1     -24.562 -11.724   0.736  1.00  0.00    -0.508 OA
ATOM     27  H   UNL     1     -24.323 -10.932   1.322  1.00  0.00     0.293 HD
ENDBRANCH   8  26
TORSDOF 6
ENDMDL
MODEL 8
REMARK VINA RESULT:    -6.320      1.956      7.145
REMARK INTER + INTRA:          -8.187
REMARK INTER:                  -7.841
REMARK INTRA:                  -0.346
REMARK UNBOUND:                -0.389
REMARK SMILES COc1cc(-c2oc3cc(O)cc(O)c3c(=O)c2O)ccc1O
REMARK SMILES IDX 6 1 18 2 16 3 17 4 15 5 13 6 12 7 10 8 9 9 8 10 7 11 5 12
REMARK SMILES IDX 3 13 22 14 4 15 21 16 20 17 2 18 1 19 23 20 19 22 14 24
REMARK SMILES IDX 11 26
REMARK H PARENT 23 21 19 23 14 25 11 27
REMARK Flexibility Score: inf
ROOT
ATOM      1  C   UNL     1     -36.142 -12.357  -9.640  1.00  0.00     0.180 A 
ATOM      2  C   UNL     1     -36.971 -12.247  -8.507  1.00  0.00     0.208 A 
ATOM      3  C   UNL     1     -36.800 -11.152  -7.646  1.00  0.00     0.238 A 
ATOM      4  O   UNL     1     -37.529 -11.049  -6.622  1.00  0.00    -0.285 OA
ATOM      5  C   UNL     1     -35.822 -10.179  -7.940  1.00  0.00     0.111 A 
ATOM      6  C   UNL     1     -35.589  -9.044  -7.126  1.00  0.00     0.134 A 
ATOM      7  C   UNL     1     -34.603  -8.116  -7.492  1.00  0.00     0.093 A 
ATOM      8  C   UNL     1     -33.848  -8.299  -8.653  1.00  0.00     0.123 A 
ATOM      9  C   UNL     1     -34.074  -9.418  -9.461  1.00  0.00     0.094 A 
ATOM     10  C   UNL     1     -35.051 -10.356  -9.113  1.00  0.00     0.146 A 
ATOM     11  O   UNL     1     -35.241 -11.412  -9.893  1.00  0.00    -0.452 OA
ENDROOT
BRANCH   1  12
ATOM     12  C   UNL     1     -36.249 -13.492 -10.585  1.00  0.00     0.025 A 
ATOM     13  C   UNL     1     -35.853 -15.833 -11.172  1.00  0.00     0.161 A 
ATOM     14  C   UNL     1     -36.422 -15.605 -12.433  1.00  0.00     0.157 A 
ATOM     15  C   UNL     1     -35.762 -14.769 -10.253  1.00  0.00     0.062 A 
ATOM     16  C   UNL     1     -36.886 -14.329 -12.774  1.00  0.00     0.051 A 
ATOM     17  C   UNL     1     -36.793 -13.278 -11.859  1.00  0.00     0.016 A 
BRANCH  13  18
ATOM     18  O   UNL     1     -35.388 -17.123 -10.872  1.00  0.00    -0.493 OA
ATOM     19  C   UNL     1     -35.746 -17.858  -9.706  1.00  0.00     0.278 C 
ENDBRANCH  13  18
BRANCH  14  20
ATOM     20  O   UNL     1     -36.518 -16.655 -13.345  1.00  0.00    -0.504 OA
ATOM     21  H   UNL     1     -35.790 -17.356 -13.424  1.00  0.00     0.293 HD
ENDBRANCH  14  20
ENDBRANCH   1  12
BRANCH   2  22
ATOM     22  O   UNL     1     -37.965 -13.197  -8.264  1.00  0.00    -0.502 OA
ATOM     23  H   UNL     1     -38.285 -13.843  -8.976  1.00  0.00     0.293 HD
ENDBRANCH   2  22
BRANCH   6  24
ATOM     24  O   UNL     1     -36.327  -8.832  -5.960  1.00  0.00    -0.507 OA
ATOM     25  H   UNL     1     -37.055  -8.129  -5.910  1.00  0.00     0.293 HD
ENDBRANCH   6  24
BRANCH   8  26
ATOM     26  O   UNL     1     -32.876  -7.361  -8.995  1.00  0.00    -0.508 OA
ATOM     27  H   UNL     1     -33.089  -6.572  -9.595  1.00  0.00     0.293 HD
ENDBRANCH   8  26
TORSDOF 6
ENDMDL
MODEL 9
REMARK VINA RESULT:    -6.319      2.747      7.344
REMARK INTER + INTRA:          -8.186
REMARK INTER:                  -7.809
REMARK INTRA:                  -0.378
REMARK UNBOUND:                -0.389
REMARK SMILES COc1cc(-c2oc3cc(O)cc(O)c3c(=O)c2O)ccc1O
REMARK SMILES IDX 6 1 18 2 16 3 17 4 15 5 13 6 12 7 10 8 9 9 8 10 7 11 5 12
REMARK SMILES IDX 3 13 22 14 4 15 21 16 20 17 2 18 1 19 23 20 19 22 14 24
REMARK SMILES IDX 11 26
REMARK H PARENT 23 21 19 23 14 25 11 27
REMARK Flexibility Score: inf
ROOT
ATOM      1  C   UNL     1     -36.200 -15.639 -10.336  1.00  0.00     0.180 A 
ATOM      2  C   UNL     1     -36.130 -14.315  -9.859  1.00  0.00     0.208 A 
ATOM      3  C   UNL     1     -36.779 -13.992  -8.657  1.00  0.00     0.238 A 
ATOM      4  O   UNL     1     -36.733 -12.808  -8.227  1.00  0.00    -0.285 OA
ATOM      5  C   UNL     1     -37.466 -14.996  -7.944  1.00  0.00     0.111 A 
ATOM      6  C   UNL     1     -38.142 -14.754  -6.724  1.00  0.00     0.134 A 
ATOM      7  C   UNL     1     -38.796 -15.809  -6.069  1.00  0.00     0.093 A 
ATOM      8  C   UNL     1     -38.787 -17.096  -6.609  1.00  0.00     0.123 A 
ATOM      9  C   UNL     1     -38.121 -17.342  -7.814  1.00  0.00     0.094 A 
ATOM     10  C   UNL     1     -37.464 -16.304  -8.482  1.00  0.00     0.146 A 
ATOM     11  O   UNL     1     -36.845 -16.563  -9.628  1.00  0.00    -0.452 OA
ENDROOT
BRANCH   1  12
ATOM     12  C   UNL     1     -35.558 -16.053 -11.603  1.00  0.00     0.025 A 
ATOM     13  C   UNL     1     -35.552 -16.226 -14.043  1.00  0.00     0.161 A 
ATOM     14  C   UNL     1     -34.329 -16.909 -13.984  1.00  0.00     0.157 A 
ATOM     15  C   UNL     1     -36.168 -15.807 -12.847  1.00  0.00     0.062 A 
ATOM     16  C   UNL     1     -33.732 -17.175 -12.746  1.00  0.00     0.051 A 
ATOM     17  C   UNL     1     -34.346 -16.758 -11.564  1.00  0.00     0.016 A 
BRANCH  13  18
ATOM     18  O   UNL     1     -36.124 -15.988 -15.303  1.00  0.00    -0.493 OA
ATOM     19  C   UNL     1     -37.525 -15.930 -15.554  1.00  0.00     0.278 C 
ENDBRANCH  13  18
BRANCH  14  20
ATOM     20  O   UNL     1     -33.714 -17.323 -15.164  1.00  0.00    -0.504 OA
ATOM     21  H   UNL     1     -33.351 -16.656 -15.836  1.00  0.00     0.293 HD
ENDBRANCH  14  20
ENDBRANCH   1  12
BRANCH   2  22
ATOM     22  O   UNL     1     -35.401 -13.351 -10.559  1.00  0.00    -0.502 OA
ATOM     23  H   UNL     1     -34.803 -12.680 -10.094  1.00  0.00     0.293 HD
ENDBRANCH   2  22
BRANCH   6  24
ATOM     24  O   UNL     1     -38.170 -13.478  -6.159  1.00  0.00    -0.507 OA
ATOM     25  H   UNL     1     -38.943 -13.167  -5.582  1.00  0.00     0.293 HD
ENDBRANCH   6  24
BRANCH   8  26
ATOM     26  O   UNL     1     -39.442 -18.127  -5.938  1.00  0.00    -0.508 OA
ATOM     27  H   UNL     1     -39.866 -17.982  -5.029  1.00  0.00     0.293 HD
ENDBRANCH   8  26
TORSDOF 6
ENDMDL
