MODEL 1
REMARK VINA RESULT:    -5.609      0.000      0.000
REMARK INTER + INTRA:          -5.773
REMARK INTER:                  -5.773
REMARK INTRA:                   0.000
REMARK UNBOUND:                 0.000
REMARK SMILES Nc1ncnc2nc[nH]c12
REMARK SMILES IDX 8 1 7 2 6 3 5 4 4 5 3 6 2 7 10 8 9 9 1 11
REMARK H PARENT 9 10 1 12 1 13
REMARK Flexibility Score: inf
ROOT
ATOM      1  C   UNL     1      13.936  10.250 -41.622  1.00  0.00     0.199 A 
ATOM      2  N   UNL     1      13.890  11.177 -42.617  1.00  0.00    -0.217 NA
ATOM      3  C   UNL     1      12.703  11.768 -42.402  1.00  0.00     0.182 A 
ATOM      4  N   UNL     1      12.160  12.777 -43.125  1.00  0.00    -0.215 NA
ATOM      5  C   UNL     1      10.932  13.250 -42.751  1.00  0.00     0.226 A 
ATOM      6  N   UNL     1      10.278  12.713 -41.672  1.00  0.00    -0.217 NA
ATOM      7  C   UNL     1      10.824  11.695 -40.942  1.00  0.00     0.152 A 
ATOM      8  C   UNL     1      12.073  11.223 -41.335  1.00  0.00     0.127 A 
ATOM      9  N   UNL     1      12.840  10.253 -40.821  1.00  0.00    -0.340 N 
ATOM     10  H   UNL     1      12.651   9.639 -39.999  1.00  0.00     0.168 HD
ENDROOT
BRANCH   7  11
ATOM     11  N   UNL     1      10.124  11.149 -39.823  1.00  0.00    -0.382 N 
ATOM     12  H   UNL     1       9.534  10.297 -39.943  1.00  0.00     0.158 HD
ATOM     13  H   UNL     1      10.186  11.585 -38.877  1.00  0.00     0.158 HD
ENDBRANCH   7  11
TORSDOF 1
ENDMDL
MODEL 2
REMARK VINA RESULT:    -5.440      1.796      3.051
REMARK INTER + INTRA:          -5.599
REMARK INTER:                  -5.599
REMARK INTRA:                   0.000
REMARK UNBOUND:                 0.000
REMARK SMILES Nc1ncnc2nc[nH]c12
REMARK SMILES IDX 8 1 7 2 6 3 5 4 4 5 3 6 2 7 10 8 9 9 1 11
REMARK H PARENT 9 10 1 12 1 13
REMARK Flexibility Score: inf
ROOT
ATOM      1  C   UNL     1      11.249  13.530 -42.633  1.00  0.00     0.199 A 
ATOM      2  N   UNL     1      12.378  12.817 -42.896  1.00  0.00    -0.217 NA
ATOM      3  C   UNL     1      11.951  11.550 -42.773  1.00  0.00     0.182 A 
ATOM      4  N   UNL     1      12.692  10.428 -42.935  1.00  0.00    -0.215 NA
ATOM      5  C   UNL     1      12.076   9.218 -42.768  1.00  0.00     0.226 A 
ATOM      6  N   UNL     1      10.745   9.153 -42.445  1.00  0.00    -0.217 NA
ATOM      7  C   UNL     1       9.996  10.284 -42.282  1.00  0.00     0.152 A 
ATOM      8  C   UNL     1      10.636  11.507 -42.455  1.00  0.00     0.127 A 
ATOM      9  N   UNL     1      10.166  12.758 -42.360  1.00  0.00    -0.340 N 
ATOM     10  H   UNL     1       9.200  13.076 -42.131  1.00  0.00     0.168 HD
ENDROOT
BRANCH   7  11
ATOM     11  N   UNL     1       8.611  10.192 -41.945  1.00  0.00    -0.382 N 
ATOM     12  H   UNL     1       7.971  10.993 -42.145  1.00  0.00     0.158 HD
ATOM     13  H   UNL     1       8.214   9.337 -41.499  1.00  0.00     0.158 HD
ENDBRANCH   7  11
TORSDOF 1
ENDMDL
MODEL 3
REMARK VINA RESULT:    -5.292      1.833      2.069
REMARK INTER + INTRA:          -5.446
REMARK INTER:                  -5.446
REMARK INTRA:                   0.000
REMARK UNBOUND:                 0.000
REMARK SMILES Nc1ncnc2nc[nH]c12
REMARK SMILES IDX 8 1 7 2 6 3 5 4 4 5 3 6 2 7 10 8 9 9 1 11
REMARK H PARENT 9 10 1 12 1 13
REMARK Flexibility Score: inf
ROOT
ATOM      1  C   UNL     1      11.987   8.949 -42.670  1.00  0.00     0.199 A 
ATOM      2  N   UNL     1      12.986   9.845 -42.441  1.00  0.00    -0.217 NA
ATOM      3  C   UNL     1      12.333  11.017 -42.481  1.00  0.00     0.182 A 
ATOM      4  N   UNL     1      12.871  12.249 -42.312  1.00  0.00    -0.215 NA
ATOM      5  C   UNL     1      12.041  13.333 -42.388  1.00  0.00     0.226 A 
ATOM      6  N   UNL     1      10.701  13.168 -42.630  1.00  0.00    -0.217 NA
ATOM      7  C   UNL     1      10.156  11.926 -42.801  1.00  0.00     0.152 A 
ATOM      8  C   UNL     1      11.014  10.833 -42.721  1.00  0.00     0.127 A 
ATOM      9  N   UNL     1      10.769   9.522 -42.845  1.00  0.00    -0.340 N 
ATOM     10  H   UNL     1       9.861   9.043 -43.031  1.00  0.00     0.168 HD
ENDROOT
BRANCH   7  11
ATOM     11  N   UNL     1       8.758  11.778 -43.053  1.00  0.00    -0.382 N 
ATOM     12  H   UNL     1       8.189  12.605 -43.340  1.00  0.00     0.158 HD
ATOM     13  H   UNL     1       8.282  10.855 -42.956  1.00  0.00     0.158 HD
ENDBRANCH   7  11
TORSDOF 1
ENDMDL
MODEL 4
REMARK VINA RESULT:    -5.107      1.631      3.282
REMARK INTER + INTRA:          -5.256
REMARK INTER:                  -5.256
REMARK INTRA:                   0.000
REMARK UNBOUND:                 0.000
REMARK SMILES Nc1ncnc2nc[nH]c12
REMARK SMILES IDX 8 1 7 2 6 3 5 4 4 5 3 6 2 7 10 8 9 9 1 11
REMARK H PARENT 9 10 1 12 1 13
REMARK Flexibility Score: inf
ROOT
ATOM      1  C   UNL     1      11.639  13.554 -42.370  1.00  0.00     0.199 A 
ATOM      2  N   UNL     1      10.535  12.868 -42.772  1.00  0.00    -0.217 NA
ATOM      3  C   UNL     1      10.897  11.592 -42.558  1.00  0.00     0.182 A 
ATOM      4  N   UNL     1      10.149  10.488 -42.796  1.00  0.00    -0.215 NA
ATOM      5  C   UNL     1      10.692   9.266 -42.511  1.00  0.00     0.226 A 
ATOM      6  N   UNL     1      11.961   9.171 -42.000  1.00  0.00    -0.217 NA
ATOM      7  C   UNL     1      12.718  10.283 -41.759  1.00  0.00     0.152 A 
ATOM      8  C   UNL     1      12.151  11.519 -42.054  1.00  0.00     0.127 A 
ATOM      9  N   UNL     1      12.645  12.758 -41.925  1.00  0.00    -0.340 N 
ATOM     10  H   UNL     1      13.580  13.053 -41.568  1.00  0.00     0.168 HD
ENDROOT
BRANCH   7  11
ATOM     11  N   UNL     1      14.037  10.160 -41.227  1.00  0.00    -0.382 N 
ATOM     12  H   UNL     1      14.498   9.224 -41.185  1.00  0.00     0.158 HD
ATOM     13  H   UNL     1      14.561  10.990 -40.873  1.00  0.00     0.158 HD
ENDBRANCH   7  11
TORSDOF 1
ENDMDL
MODEL 5
REMARK VINA RESULT:    -4.999      1.772      2.394
REMARK INTER + INTRA:          -5.145
REMARK INTER:                  -5.145
REMARK INTRA:                   0.000
REMARK UNBOUND:                 0.000
REMARK SMILES Nc1ncnc2nc[nH]c12
REMARK SMILES IDX 8 1 7 2 6 3 5 4 4 5 3 6 2 7 10 8 9 9 1 11
REMARK H PARENT 9 10 1 12 1 13
REMARK Flexibility Score: inf
ROOT
ATOM      1  C   UNL     1      13.308  11.649 -39.896  1.00  0.00     0.199 A 
ATOM      2  N   UNL     1      12.371  12.586 -40.206  1.00  0.00    -0.217 NA
ATOM      3  C   UNL     1      11.678  11.983 -41.186  1.00  0.00     0.182 A 
ATOM      4  N   UNL     1      10.617  12.492 -41.857  1.00  0.00    -0.215 NA
ATOM      5  C   UNL     1      10.039  11.724 -42.830  1.00  0.00     0.226 A 
ATOM      6  N   UNL     1      10.527  10.473 -43.110  1.00  0.00    -0.217 NA
ATOM      7  C   UNL     1      11.597   9.958 -42.435  1.00  0.00     0.152 A 
ATOM      8  C   UNL     1      12.175  10.752 -41.449  1.00  0.00     0.127 A 
ATOM      9  N   UNL     1      13.215  10.516 -40.638  1.00  0.00    -0.340 N 
ATOM     10  H   UNL     1      13.818   9.667 -40.582  1.00  0.00     0.168 HD
ENDROOT
BRANCH   7  11
ATOM     11  N   UNL     1      12.089   8.653 -42.745  1.00  0.00    -0.382 N 
ATOM     12  H   UNL     1      12.955   8.299 -42.282  1.00  0.00     0.158 HD
ATOM     13  H   UNL     1      11.601   8.036 -43.429  1.00  0.00     0.158 HD
ENDBRANCH   7  11
TORSDOF 1
ENDMDL
MODEL 6
REMARK VINA RESULT:    -4.958      1.553      2.633
REMARK INTER + INTRA:          -5.103
REMARK INTER:                  -5.103
REMARK INTRA:                   0.000
REMARK UNBOUND:                 0.000
REMARK SMILES Nc1ncnc2nc[nH]c12
REMARK SMILES IDX 8 1 7 2 6 3 5 4 4 5 3 6 2 7 10 8 9 9 1 11
REMARK H PARENT 9 10 1 12 1 13
REMARK Flexibility Score: inf
ROOT
ATOM      1  C   UNL     1      13.908  12.074 -43.098  1.00  0.00     0.199 A 
ATOM      2  N   UNL     1      13.867  10.759 -42.750  1.00  0.00    -0.217 NA
ATOM      3  C   UNL     1      12.554  10.555 -42.556  1.00  0.00     0.182 A 
ATOM      4  N   UNL     1      11.961   9.395 -42.188  1.00  0.00    -0.215 NA
ATOM      5  C   UNL     1      10.601   9.382 -42.040  1.00  0.00     0.226 A 
ATOM      6  N   UNL     1       9.867  10.520 -42.260  1.00  0.00    -0.217 NA
ATOM      7  C   UNL     1      10.463  11.691 -42.631  1.00  0.00     0.152 A 
ATOM      8  C   UNL     1      11.847  11.688 -42.778  1.00  0.00     0.127 A 
ATOM      9  N   UNL     1      12.689  12.670 -43.125  1.00  0.00    -0.340 N 
ATOM     10  H   UNL     1      12.471  13.663 -43.362  1.00  0.00     0.168 HD
ENDROOT
BRANCH   7  11
ATOM     11  N   UNL     1       9.678  12.864 -42.854  1.00  0.00    -0.382 N 
ATOM     12  H   UNL     1      10.052  13.637 -43.448  1.00  0.00     0.158 HD
ATOM     13  H   UNL     1       8.729  12.972 -42.435  1.00  0.00     0.158 HD
ENDBRANCH   7  11
TORSDOF 1
ENDMDL
MODEL 7
REMARK VINA RESULT:    -4.868      1.770      3.072
REMARK INTER + INTRA:          -5.011
REMARK INTER:                  -5.011
REMARK INTRA:                   0.000
REMARK UNBOUND:                 0.000
REMARK SMILES Nc1ncnc2nc[nH]c12
REMARK SMILES IDX 8 1 7 2 6 3 5 4 4 5 3 6 2 7 10 8 9 9 1 11
REMARK H PARENT 9 10 1 12 1 13
REMARK Flexibility Score: inf
ROOT
ATOM      1  C   UNL     1       9.120  10.015 -42.375  1.00  0.00     0.199 A 
ATOM      2  N   UNL     1       9.103  11.324 -42.743  1.00  0.00    -0.217 NA
ATOM      3  C   UNL     1      10.392  11.675 -42.614  1.00  0.00     0.182 A 
ATOM      4  N   UNL     1      10.927  12.895 -42.859  1.00  0.00    -0.215 NA
ATOM      5  C   UNL     1      12.272  13.061 -42.669  1.00  0.00     0.226 A 
ATOM      6  N   UNL     1      13.049  12.014 -42.242  1.00  0.00    -0.217 NA
ATOM      7  C   UNL     1      12.511  10.783 -41.995  1.00  0.00     0.152 A 
ATOM      8  C   UNL     1      11.142  10.630 -42.192  1.00  0.00     0.127 A 
ATOM      9  N   UNL     1      10.352   9.560 -42.033  1.00  0.00    -0.340 N 
ATOM     10  H   UNL     1      10.612   8.599 -41.720  1.00  0.00     0.168 HD
ENDROOT
BRANCH   7  11
ATOM     11  N   UNL     1      13.339   9.707 -41.550  1.00  0.00    -0.382 N 
ATOM     12  H   UNL     1      12.905   8.827 -41.195  1.00  0.00     0.158 HD
ATOM     13  H   UNL     1      14.380   9.778 -41.569  1.00  0.00     0.158 HD
ENDBRANCH   7  11
TORSDOF 1
ENDMDL
MODEL 8
REMARK VINA RESULT:    -4.474      1.859      3.236
REMARK INTER + INTRA:          -4.605
REMARK INTER:                  -4.605
REMARK INTRA:                   0.000
REMARK UNBOUND:                 0.000
REMARK SMILES Nc1ncnc2nc[nH]c12
REMARK SMILES IDX 8 1 7 2 6 3 5 4 4 5 3 6 2 7 10 8 9 9 1 11
REMARK H PARENT 9 10 1 12 1 13
REMARK Flexibility Score: inf
ROOT
ATOM      1  C   UNL     1       9.198  10.247 -41.695  1.00  0.00     0.199 A 
ATOM      2  N   UNL     1       9.918   9.585 -42.641  1.00  0.00    -0.217 NA
ATOM      3  C   UNL     1      11.169  10.005 -42.393  1.00  0.00     0.182 A 
ATOM      4  N   UNL     1      12.291   9.643 -43.061  1.00  0.00    -0.215 NA
ATOM      5  C   UNL     1      13.483  10.180 -42.660  1.00  0.00     0.226 A 
ATOM      6  N   UNL     1      13.532  11.059 -41.609  1.00  0.00    -0.217 NA
ATOM      7  C   UNL     1      12.402  11.426 -40.934  1.00  0.00     0.152 A 
ATOM      8  C   UNL     1      11.196  10.871 -41.354  1.00  0.00     0.127 A 
ATOM      9  N   UNL     1       9.951  11.042 -40.892  1.00  0.00    -0.340 N 
ATOM     10  H   UNL     1       9.624  11.640 -40.103  1.00  0.00     0.168 HD
ENDROOT
BRANCH   7  11
ATOM     11  N   UNL     1      12.476  12.344 -39.842  1.00  0.00    -0.382 N 
ATOM     12  H   UNL     1      13.306  12.969 -39.742  1.00  0.00     0.158 HD
ATOM     13  H   UNL     1      11.715  12.409 -39.133  1.00  0.00     0.158 HD
ENDBRANCH   7  11
TORSDOF 1
ENDMDL
