MODEL 1
REMARK VINA RESULT:     5.109      0.000      0.000
REMARK INTER + INTRA:           6.185
REMARK INTER:                   5.706
REMARK INTRA:                   0.479
REMARK UNBOUND:                 0.479
REMARK SMILES CC1(C)CC[C@@]2(C(=O)[O-])[C@H](O)C[C@@]3(C)C(=CC[C@@H]4[C@]5(C)CC[C@@H](O)C(C)(C)[C@H]5CC[C@@]43C)[C@@H]2C1
REMARK SMILES IDX 6 1 5 2 33 3 10 4 4 5 34 6 15 7 12 8 2 9 16 10 13 11 1 12
REMARK SMILES IDX 3 13 17 14 31 15 14 16 18 17 30 18 32 19 19 20 29 21 21 22
REMARK SMILES IDX 20 23 28 24 22 25 25 26 23 27 26 28 27 29 7 30 8 31 9 32
REMARK SMILES IDX 11 33 24 35
REMARK H PARENT 11 34 24 36
REMARK Flexibility Score: inf
ROOT
ATOM      1  C   UNL     1      99.212 112.761 112.357  1.00  0.00     0.042 C 
ATOM      2  C   UNL     1      98.714 112.692 110.881  1.00  0.00     0.017 C 
ATOM      3  C   UNL     1      98.099 113.474 113.192  1.00  0.00     0.030 C 
ATOM      4  C   UNL     1     100.509 113.628 112.406  1.00  0.00     0.127 C 
ATOM      5  C   UNL     1      97.366 111.959 110.740  1.00  0.00     0.007 C 
ATOM      6  C   UNL     1      96.747 112.716 113.092  1.00  0.00     0.015 C 
ATOM      7  C   UNL     1      98.603 113.803 114.611  1.00  0.00    -0.063 C 
ATOM      8  C   UNL     1     100.936 114.036 113.847  1.00  0.00     0.044 C 
ATOM      9  C   UNL     1      96.244 112.559 111.628  1.00  0.00    -0.035 C 
ATOM     10  C   UNL     1      98.161 113.087 115.655  1.00  0.00    -0.027 C 
ATOM     11  C   UNL     1      99.824 114.732 114.722  1.00  0.00    -0.003 C 
ATOM     12  C   UNL     1      95.755 113.912 111.054  1.00  0.00     0.011 C 
ATOM     13  C   UNL     1      95.041 111.592 111.624  1.00  0.00     0.011 C 
ATOM     14  C   UNL     1      98.765 113.081 117.008  1.00  0.00     0.032 C 
ATOM     15  C   UNL     1     100.336 114.987 116.252  1.00  0.00    -0.020 C 
ATOM     16  C   UNL     1      99.450 116.106 114.069  1.00  0.00     0.017 C 
ATOM     17  C   UNL     1     100.198 113.673 117.135  1.00  0.00     0.006 C 
ATOM     18  C   UNL     1      99.518 116.108 116.978  1.00  0.00     0.008 C 
ATOM     19  C   UNL     1     101.822 115.479 116.164  1.00  0.00     0.012 C 
ATOM     20  C   UNL     1     100.603 113.844 118.686  1.00  0.00    -0.025 C 
ATOM     21  C   UNL     1      99.899 116.337 118.460  1.00  0.00     0.005 C 
ATOM     22  C   UNL     1     100.231 112.563 119.511  1.00  0.00     0.010 C 
ATOM     23  C   UNL     1     102.156 114.009 118.792  1.00  0.00     0.012 C 
ATOM     24  C   UNL     1      99.797 115.050 119.312  1.00  0.00     0.003 C 
ATOM     25  C   UNL     1     100.432 112.712 121.030  1.00  0.00     0.033 C 
ATOM     26  C   UNL     1      99.966 115.257 120.877  1.00  0.00    -0.006 C 
ATOM     27  C   UNL     1      99.648 113.906 121.599  1.00  0.00     0.120 C 
ATOM     28  C   UNL     1      98.926 116.297 121.379  1.00  0.00     0.014 C 
ATOM     29  C   UNL     1     101.365 115.784 121.293  1.00  0.00     0.014 C 
ENDROOT
BRANCH   1  30
ATOM     30  C   UNL     1      99.523 111.348 112.864  1.00  0.00     0.051 C 
ATOM     31  O   UNL     1     100.167 110.538 112.142  1.00  0.00    -0.549 OA
ATOM     32  O   UNL     1      99.197 110.957 114.155  1.00  0.00    -0.549 OA
ENDBRANCH   1  30
BRANCH   4  33
ATOM     33  O   UNL     1     101.573 112.998 111.731  1.00  0.00    -0.392 OA
ATOM     34  H   UNL     1     102.422 113.430 112.008  1.00  0.00     0.210 HD
ENDBRANCH   4  33
BRANCH  27  35
ATOM     35  O   UNL     1      99.903 114.014 122.978  1.00  0.00    -0.393 OA
ATOM     36  H   UNL     1      99.303 114.724 123.330  1.00  0.00     0.210 HD
ENDBRANCH  27  35
TORSDOF 3
ENDMDL
MODEL 2
REMARK VINA RESULT:     5.240      1.759      2.771
REMARK INTER + INTRA:           6.332
REMARK INTER:                   5.727
REMARK INTRA:                   0.604
REMARK UNBOUND:                 0.479
REMARK SMILES CC1(C)CC[C@@]2(C(=O)[O-])[C@H](O)C[C@@]3(C)C(=CC[C@@H]4[C@]5(C)CC[C@@H](O)C(C)(C)[C@H]5CC[C@@]43C)[C@@H]2C1
REMARK SMILES IDX 6 1 5 2 33 3 10 4 4 5 34 6 15 7 12 8 2 9 16 10 13 11 1 12
REMARK SMILES IDX 3 13 17 14 31 15 14 16 18 17 30 18 32 19 19 20 29 21 21 22
REMARK SMILES IDX 20 23 28 24 22 25 25 26 23 27 26 28 27 29 7 30 8 31 9 32
REMARK SMILES IDX 11 33 24 35
REMARK H PARENT 11 34 24 36
REMARK Flexibility Score: inf
ROOT
ATOM      1  C   UNL     1     100.419 112.850 114.996  1.00  0.00     0.042 C 
ATOM      2  C   UNL     1     100.193 112.598 113.474  1.00  0.00     0.017 C 
ATOM      3  C   UNL     1      99.241 113.744 115.501  1.00  0.00     0.030 C 
ATOM      4  C   UNL     1     101.757 113.632 115.179  1.00  0.00     0.127 C 
ATOM      5  C   UNL     1      98.833 111.937 113.174  1.00  0.00     0.007 C 
ATOM      6  C   UNL     1      97.867 113.066 115.244  1.00  0.00     0.015 C 
ATOM      7  C   UNL     1      99.505 114.244 116.935  1.00  0.00    -0.063 C 
ATOM      8  C   UNL     1     101.950 114.217 116.609  1.00  0.00     0.044 C 
ATOM      9  C   UNL     1      97.626 112.729 113.744  1.00  0.00    -0.035 C 
ATOM     10  C   UNL     1      98.820 113.717 117.960  1.00  0.00    -0.027 C 
ATOM     11  C   UNL     1     100.764 115.102 117.156  1.00  0.00    -0.003 C 
ATOM     12  C   UNL     1      97.371 114.012 112.914  1.00  0.00     0.011 C 
ATOM     13  C   UNL     1      96.363 111.849 113.636  1.00  0.00     0.011 C 
ATOM     14  C   UNL     1      99.165 113.869 119.392  1.00  0.00     0.032 C 
ATOM     15  C   UNL     1     101.010 115.543 118.709  1.00  0.00    -0.020 C 
ATOM     16  C   UNL     1     100.638 116.386 116.269  1.00  0.00     0.017 C 
ATOM     17  C   UNL     1     100.599 114.383 119.713  1.00  0.00     0.006 C 
ATOM     18  C   UNL     1     100.177 116.808 119.111  1.00  0.00     0.008 C 
ATOM     19  C   UNL     1     102.525 115.924 118.844  1.00  0.00     0.012 C 
ATOM     20  C   UNL     1     100.729 114.753 121.277  1.00  0.00    -0.025 C 
ATOM     21  C   UNL     1     100.301 117.225 120.595  1.00  0.00     0.005 C 
ATOM     22  C   UNL     1     100.101 113.631 122.176  1.00  0.00     0.010 C 
ATOM     23  C   UNL     1     102.246 114.834 121.657  1.00  0.00     0.012 C 
ATOM     24  C   UNL     1      99.933 116.084 121.573  1.00  0.00     0.003 C 
ATOM     25  C   UNL     1     100.036 113.986 123.673  1.00  0.00     0.033 C 
ATOM     26  C   UNL     1      99.833 116.506 123.100  1.00  0.00    -0.006 C 
ATOM     27  C   UNL     1      99.270 115.297 123.918  1.00  0.00     0.120 C 
ATOM     28  C   UNL     1      98.815 117.671 123.253  1.00  0.00     0.014 C 
ATOM     29  C   UNL     1     101.175 117.000 123.705  1.00  0.00     0.014 C 
ENDROOT
BRANCH   1  30
ATOM     30  C   UNL     1     100.506 111.508 115.734  1.00  0.00     0.051 C 
ATOM     31  O   UNL     1     100.955 111.456 116.912  1.00  0.00    -0.549 OA
ATOM     32  O   UNL     1     100.004 110.342 115.173  1.00  0.00    -0.549 OA
ENDBRANCH   1  30
BRANCH   4  33
ATOM     33  O   UNL     1     102.866 112.845 114.809  1.00  0.00    -0.392 OA
ATOM     34  H   UNL     1     103.633 113.447 114.629  1.00  0.00     0.210 HD
ENDBRANCH   4  33
BRANCH  27  35
ATOM     35  O   UNL     1      99.280 115.588 125.294  1.00  0.00    -0.393 OA
ATOM     36  H   UNL     1     100.158 116.008 125.496  1.00  0.00     0.210 HD
ENDBRANCH  27  35
TORSDOF 3
ENDMDL
MODEL 3
REMARK VINA RESULT:     6.726      2.356      9.179
REMARK INTER + INTRA:           7.991
REMARK INTER:                   7.450
REMARK INTRA:                   0.541
REMARK UNBOUND:                 0.479
REMARK SMILES CC1(C)CC[C@@]2(C(=O)[O-])[C@H](O)C[C@@]3(C)C(=CC[C@@H]4[C@]5(C)CC[C@@H](O)C(C)(C)[C@H]5CC[C@@]43C)[C@@H]2C1
REMARK SMILES IDX 6 1 5 2 33 3 10 4 4 5 34 6 15 7 12 8 2 9 16 10 13 11 1 12
REMARK SMILES IDX 3 13 17 14 31 15 14 16 18 17 30 18 32 19 19 20 29 21 21 22
REMARK SMILES IDX 20 23 28 24 22 25 25 26 23 27 26 28 27 29 7 30 8 31 9 32
REMARK SMILES IDX 11 33 24 35
REMARK H PARENT 11 34 24 36
REMARK Flexibility Score: inf
ROOT
ATOM      1  C   UNL     1     100.853 116.715 123.193  1.00  0.00     0.042 C 
ATOM      2  C   UNL     1     100.645 117.320 124.614  1.00  0.00     0.017 C 
ATOM      3  C   UNL     1      99.451 116.647 122.505  1.00  0.00     0.030 C 
ATOM      4  C   UNL     1     101.409 115.265 123.344  1.00  0.00     0.127 C 
ATOM      5  C   UNL     1      99.981 118.710 124.579  1.00  0.00     0.007 C 
ATOM      6  C   UNL     1      98.793 118.052 122.424  1.00  0.00     0.015 C 
ATOM      7  C   UNL     1      99.522 115.842 121.191  1.00  0.00    -0.063 C 
ATOM      8  C   UNL     1     101.370 114.438 122.025  1.00  0.00     0.044 C 
ATOM      9  C   UNL     1      98.629 118.727 123.816  1.00  0.00    -0.035 C 
ATOM     10  C   UNL     1      99.459 116.483 120.015  1.00  0.00    -0.027 C 
ATOM     11  C   UNL     1      99.974 114.375 121.294  1.00  0.00    -0.003 C 
ATOM     12  C   UNL     1      97.520 118.038 124.648  1.00  0.00     0.011 C 
ATOM     13  C   UNL     1      98.203 120.195 123.601  1.00  0.00     0.011 C 
ATOM     14  C   UNL     1      99.811 115.898 118.700  1.00  0.00     0.032 C 
ATOM     15  C   UNL     1     100.083 113.605 119.858  1.00  0.00    -0.020 C 
ATOM     16  C   UNL     1      98.955 113.616 122.210  1.00  0.00     0.017 C 
ATOM     17  C   UNL     1     100.626 114.573 118.721  1.00  0.00     0.006 C 
ATOM     18  C   UNL     1      98.699 113.059 119.365  1.00  0.00     0.008 C 
ATOM     19  C   UNL     1     101.021 112.367 120.069  1.00  0.00     0.012 C 
ATOM     20  C   UNL     1     100.693 113.927 117.246  1.00  0.00    -0.025 C 
ATOM     21  C   UNL     1      98.720 112.395 117.969  1.00  0.00     0.005 C 
ATOM     22  C   UNL     1     101.033 115.015 116.168  1.00  0.00     0.010 C 
ATOM     23  C   UNL     1     101.852 112.876 117.201  1.00  0.00     0.012 C 
ATOM     24  C   UNL     1      99.282 113.326 116.868  1.00  0.00     0.003 C 
ATOM     25  C   UNL     1     100.949 114.512 114.716  1.00  0.00     0.033 C 
ATOM     26  C   UNL     1      99.134 112.786 115.383  1.00  0.00    -0.006 C 
ATOM     27  C   UNL     1      99.569 113.917 114.393  1.00  0.00     0.120 C 
ATOM     28  C   UNL     1      97.640 112.474 115.088  1.00  0.00     0.014 C 
ATOM     29  C   UNL     1      99.928 111.482 115.106  1.00  0.00     0.014 C 
ENDROOT
BRANCH   1  30
ATOM     30  C   UNL     1     101.859 117.569 122.410  1.00  0.00     0.051 C 
ATOM     31  O   UNL     1     102.276 118.660 122.887  1.00  0.00    -0.549 OA
ATOM     32  O   UNL     1     102.410 117.122 121.217  1.00  0.00    -0.549 OA
ENDBRANCH   1  30
BRANCH   4  33
ATOM     33  O   UNL     1     102.707 115.268 123.892  1.00  0.00    -0.392 OA
ATOM     34  H   UNL     1     102.675 115.718 124.776  1.00  0.00     0.210 HD
ENDBRANCH   4  33
BRANCH  27  35
ATOM     35  O   UNL     1      99.568 113.439 113.070  1.00  0.00    -0.393 OA
ATOM     36  H   UNL     1     100.507 113.206 112.845  1.00  0.00     0.210 HD
ENDBRANCH  27  35
TORSDOF 3
ENDMDL
