MODEL 1
REMARK VINA RESULT:    -3.227      0.000      0.000
REMARK INTER + INTRA:          -3.614
REMARK INTER:                  -3.605
REMARK INTRA:                  -0.009
REMARK UNBOUND:                -0.009
REMARK SMILES CCCC(=O)[O-]
REMARK SMILES IDX 3 1 4 2 5 3 6 4 2 5 1 6
REMARK H PARENT
REMARK Flexibility Score: inf
ROOT
ATOM      1  C   UNL     1      19.832  54.103  14.033  1.00  0.00     0.052 C 
ENDROOT
BRANCH   1   2
ATOM      2  C   UNL     1      20.793  54.340  15.158  1.00  0.00     0.041 C 
ATOM      3  O   UNL     1      21.118  55.515  15.477  1.00  0.00    -0.550 OA
ATOM      4  O   UNL     1      21.303  53.266  15.876  1.00  0.00    -0.550 OA
ENDBRANCH   1   2
BRANCH   1   5
ATOM      5  C   UNL     1      18.621  55.040  14.114  1.00  0.00     0.003 C 
ATOM      6  C   UNL     1      17.743  54.966  12.865  1.00  0.00     0.004 C 
ENDBRANCH   1   5
TORSDOF 2
ENDMDL
MODEL 2
REMARK VINA RESULT:    -3.136     12.565     13.037
REMARK INTER + INTRA:          -3.511
REMARK INTER:                  -3.472
REMARK INTRA:                  -0.039
REMARK UNBOUND:                -0.009
REMARK SMILES CCCC(=O)[O-]
REMARK SMILES IDX 3 1 4 2 5 3 6 4 2 5 1 6
REMARK H PARENT
REMARK Flexibility Score: inf
ROOT
ATOM      1  C   UNL     1      23.928  64.064   7.974  1.00  0.00     0.052 C 
ENDROOT
BRANCH   1   2
ATOM      2  C   UNL     1      22.916  63.654   6.948  1.00  0.00     0.041 C 
ATOM      3  O   UNL     1      22.412  64.512   6.175  1.00  0.00    -0.550 OA
ATOM      4  O   UNL     1      22.553  62.319   6.823  1.00  0.00    -0.550 OA
ENDBRANCH   1   2
BRANCH   1   5
ATOM      5  C   UNL     1      25.362  63.859   7.468  1.00  0.00     0.003 C 
ATOM      6  C   UNL     1      25.877  65.061   6.678  1.00  0.00     0.004 C 
ENDBRANCH   1   5
TORSDOF 2
ENDMDL
MODEL 3
REMARK VINA RESULT:    -3.118     12.600     13.139
REMARK INTER + INTRA:          -3.492
REMARK INTER:                  -3.449
REMARK INTRA:                  -0.043
REMARK UNBOUND:                -0.009
REMARK SMILES CCCC(=O)[O-]
REMARK SMILES IDX 3 1 4 2 5 3 6 4 2 5 1 6
REMARK H PARENT
REMARK Flexibility Score: inf
ROOT
ATOM      1  C   UNL     1      23.971  64.006   7.940  1.00  0.00     0.052 C 
ENDROOT
BRANCH   1   2
ATOM      2  C   UNL     1      22.928  63.630   6.932  1.00  0.00     0.041 C 
ATOM      3  O   UNL     1      22.516  62.441   6.859  1.00  0.00    -0.550 OA
ATOM      4  O   UNL     1      22.387  64.598   6.096  1.00  0.00    -0.550 OA
ENDBRANCH   1   2
BRANCH   1   5
ATOM      5  C   UNL     1      25.388  63.831   7.382  1.00  0.00     0.003 C 
ATOM      6  C   UNL     1      25.891  65.085   6.668  1.00  0.00     0.004 C 
ENDBRANCH   1   5
TORSDOF 2
ENDMDL
MODEL 4
REMARK VINA RESULT:    -2.899      2.404      3.179
REMARK INTER + INTRA:          -3.246
REMARK INTER:                  -3.174
REMARK INTRA:                  -0.072
REMARK UNBOUND:                -0.009
REMARK SMILES CCCC(=O)[O-]
REMARK SMILES IDX 3 1 4 2 5 3 6 4 2 5 1 6
REMARK H PARENT
REMARK Flexibility Score: inf
ROOT
ATOM      1  C   UNL     1      18.343  54.886  13.589  1.00  0.00     0.052 C 
ENDROOT
BRANCH   1   2
ATOM      2  C   UNL     1      17.620  55.179  14.868  1.00  0.00     0.041 C 
ATOM      3  O   UNL     1      17.518  56.365  15.282  1.00  0.00    -0.550 OA
ATOM      4  O   UNL     1      17.030  54.147  15.586  1.00  0.00    -0.550 OA
ENDBRANCH   1   2
BRANCH   1   5
ATOM      5  C   UNL     1      19.521  53.928  13.810  1.00  0.00     0.003 C 
ATOM      6  C   UNL     1      20.564  54.502  14.768  1.00  0.00     0.004 C 
ENDBRANCH   1   5
TORSDOF 2
ENDMDL
MODEL 5
REMARK VINA RESULT:    -2.854     12.541     13.011
REMARK INTER + INTRA:          -3.197
REMARK INTER:                  -3.139
REMARK INTRA:                  -0.058
REMARK UNBOUND:                -0.009
REMARK SMILES CCCC(=O)[O-]
REMARK SMILES IDX 3 1 4 2 5 3 6 4 2 5 1 6
REMARK H PARENT
REMARK Flexibility Score: inf
ROOT
ATOM      1  C   UNL     1      23.995  64.035   8.073  1.00  0.00     0.052 C 
ENDROOT
BRANCH   1   2
ATOM      2  C   UNL     1      25.349  64.010   7.433  1.00  0.00     0.041 C 
ATOM      3  O   UNL     1      25.906  62.911   7.169  1.00  0.00    -0.550 OA
ATOM      4  O   UNL     1      25.982  65.200   7.096  1.00  0.00    -0.550 OA
ENDBRANCH   1   2
BRANCH   1   5
ATOM      5  C   UNL     1      22.902  63.562   7.105  1.00  0.00     0.003 C 
ATOM      6  C   UNL     1      22.513  64.642   6.095  1.00  0.00     0.004 C 
ENDBRANCH   1   5
TORSDOF 2
ENDMDL
MODEL 6
REMARK VINA RESULT:    -2.838      1.514      2.014
REMARK INTER + INTRA:          -3.179
REMARK INTER:                  -3.126
REMARK INTRA:                  -0.053
REMARK UNBOUND:                -0.009
REMARK SMILES CCCC(=O)[O-]
REMARK SMILES IDX 3 1 4 2 5 3 6 4 2 5 1 6
REMARK H PARENT
REMARK Flexibility Score: inf
ROOT
ATOM      1  C   UNL     1      19.918  52.983  15.434  1.00  0.00     0.052 C 
ENDROOT
BRANCH   1   2
ATOM      2  C   UNL     1      20.881  53.348  16.522  1.00  0.00     0.041 C 
ATOM      3  O   UNL     1      22.116  53.405  16.282  1.00  0.00    -0.550 OA
ATOM      4  O   UNL     1      20.412  53.656  17.792  1.00  0.00    -0.550 OA
ENDBRANCH   1   2
BRANCH   1   5
ATOM      5  C   UNL     1      19.937  54.008  14.292  1.00  0.00     0.003 C 
ATOM      6  C   UNL     1      19.048  55.217  14.581  1.00  0.00     0.004 C 
ENDBRANCH   1   5
TORSDOF 2
ENDMDL
MODEL 7
REMARK VINA RESULT:    -2.801      1.800      1.929
REMARK INTER + INTRA:          -3.138
REMARK INTER:                  -3.067
REMARK INTRA:                  -0.070
REMARK UNBOUND:                -0.009
REMARK SMILES CCCC(=O)[O-]
REMARK SMILES IDX 3 1 4 2 5 3 6 4 2 5 1 6
REMARK H PARENT
REMARK Flexibility Score: inf
ROOT
ATOM      1  C   UNL     1      19.311  53.409  14.892  1.00  0.00     0.052 C 
ENDROOT
BRANCH   1   2
ATOM      2  C   UNL     1      19.121  54.513  15.888  1.00  0.00     0.041 C 
ATOM      3  O   UNL     1      20.002  55.404  16.023  1.00  0.00    -0.550 OA
ATOM      4  O   UNL     1      17.957  54.578  16.642  1.00  0.00    -0.550 OA
ENDBRANCH   1   2
BRANCH   1   5
ATOM      5  C   UNL     1      19.367  53.944  13.456  1.00  0.00     0.003 C 
ATOM      6  C   UNL     1      18.106  54.721  13.075  1.00  0.00     0.004 C 
ENDBRANCH   1   5
TORSDOF 2
ENDMDL
MODEL 8
REMARK VINA RESULT:    -2.736      2.594      3.100
REMARK INTER + INTRA:          -3.065
REMARK INTER:                  -3.027
REMARK INTRA:                  -0.038
REMARK UNBOUND:                -0.009
REMARK SMILES CCCC(=O)[O-]
REMARK SMILES IDX 3 1 4 2 5 3 6 4 2 5 1 6
REMARK H PARENT
REMARK Flexibility Score: inf
ROOT
ATOM      1  C   UNL     1      18.166  56.046  15.096  1.00  0.00     0.052 C 
ENDROOT
BRANCH   1   2
ATOM      2  C   UNL     1      17.811  55.378  16.390  1.00  0.00     0.041 C 
ATOM      3  O   UNL     1      17.451  54.171  16.402  1.00  0.00    -0.550 OA
ATOM      4  O   UNL     1      17.910  56.078  17.585  1.00  0.00    -0.550 OA
ENDBRANCH   1   2
BRANCH   1   5
ATOM      5  C   UNL     1      18.545  55.025  14.016  1.00  0.00     0.003 C 
ATOM      6  C   UNL     1      17.582  55.051  12.829  1.00  0.00     0.004 C 
ENDBRANCH   1   5
TORSDOF 2
ENDMDL
