MODEL 1
REMARK VINA RESULT:    -6.858      0.000      0.000
REMARK INTER + INTRA:         -11.470
REMARK INTER:                 -10.066
REMARK INTRA:                  -1.404
REMARK UNBOUND:                -1.404
REMARK SMILES O=c1c(O[C@H]2O[C@@H](CO)[C@H](O)[C@H](O)[C@H]2O)c(-c2ccc(O)c(O)c2)oc2cc(O)cc(O)c12
REMARK SMILES IDX 4 1 3 2 16 3 25 4 2 5 26 6 1 7 33 8 27 9 31 10 28 11 30 12
REMARK SMILES IDX 17 13 18 14 19 15 20 16 24 17 22 18 21 19 23 21 32 23 29 25
REMARK SMILES IDX 5 27 14 28 6 29 12 30 7 31 10 32 15 33 13 35 8 37 9 38 11 40
REMARK H PARENT 21 20 23 22 32 24 29 26 15 34 13 36 9 39 11 41
REMARK Flexibility Score: inf
ROOT
ATOM      1  O   UNL     1      55.637   6.005  80.047  1.00  0.00    -0.454 OA
ENDROOT
BRANCH   1   2
ATOM      2  C   UNL     1      54.937   6.996  79.346  1.00  0.00     0.214 A 
ATOM      3  C   UNL     1      53.704   6.719  78.692  1.00  0.00     0.180 A 
ATOM      4  O   UNL     1      53.232   7.633  77.837  1.00  0.00    -0.452 OA
ATOM      5  C   UNL     1      55.500   8.288  79.234  1.00  0.00     0.239 A 
ATOM      6  C   UNL     1      53.879   8.737  77.503  1.00  0.00     0.146 A 
ATOM      7  O   UNL     1      56.434   8.646  79.997  1.00  0.00    -0.285 OA
ATOM      8  C   UNL     1      54.994   9.172  78.251  1.00  0.00     0.111 A 
ATOM      9  C   UNL     1      53.463   9.460  76.379  1.00  0.00     0.094 A 
ATOM     10  C   UNL     1      55.687  10.347  77.860  1.00  0.00     0.134 A 
ATOM     11  C   UNL     1      54.278  10.470  75.874  1.00  0.00     0.123 A 
ATOM     12  C   UNL     1      55.321  10.980  76.656  1.00  0.00     0.093 A 
BRANCH   3  13
ATOM     13  C   UNL     1      52.963   5.413  78.773  1.00  0.00     0.025 A 
ATOM     14  C   UNL     1      53.104   4.356  77.842  1.00  0.00     0.016 A 
ATOM     15  C   UNL     1      52.181   3.296  77.817  1.00  0.00     0.051 A 
ATOM     16  C   UNL     1      51.144   3.230  78.743  1.00  0.00     0.157 A 
ATOM     17  C   UNL     1      51.943   5.302  79.738  1.00  0.00     0.062 A 
ATOM     18  C   UNL     1      51.039   4.233  79.727  1.00  0.00     0.158 A 
BRANCH  16  19
ATOM     19  O   UNL     1      50.285   2.133  78.676  1.00  0.00    -0.504 OA
ATOM     20  H   UNL     1      49.535   2.057  78.008  1.00  0.00     0.293 HD
ENDBRANCH  16  19
BRANCH  18  21
ATOM     21  O   UNL     1      50.032   4.205  80.711  1.00  0.00    -0.504 OA
ATOM     22  H   UNL     1      49.816   3.377  81.252  1.00  0.00     0.293 HD
ENDBRANCH  18  21
ENDBRANCH   3  13
BRANCH  10  23
ATOM     23  O   UNL     1      56.736  10.870  78.620  1.00  0.00    -0.507 OA
ATOM     24  H   UNL     1      57.428  10.269  79.056  1.00  0.00     0.293 HD
ENDBRANCH  10  23
BRANCH  11  25
ATOM     25  O   UNL     1      54.029  10.977  74.597  1.00  0.00    -0.508 OA
ATOM     26  H   UNL     1      53.675  11.920  74.452  1.00  0.00     0.293 HD
ENDBRANCH  11  25
ENDBRANCH   1   2
BRANCH   1  27
ATOM     27  C   UNL     1      55.947   6.104  81.439  1.00  0.00     0.339 C 
ATOM     28  C   UNL     1      57.448   5.718  81.675  1.00  0.00     0.214 C 
ATOM     29  O   UNL     1      54.987   5.389  82.195  1.00  0.00    -0.332 OA
ATOM     30  C   UNL     1      57.702   4.201  81.871  1.00  0.00     0.180 C 
ATOM     31  C   UNL     1      55.185   3.980  82.248  1.00  0.00     0.179 C 
ATOM     32  C   UNL     1      56.593   3.599  82.764  1.00  0.00     0.177 C 
BRANCH  28  33
ATOM     33  O   UNL     1      58.238   6.191  80.600  1.00  0.00    -0.384 OA
ATOM     34  H   UNL     1      57.642   6.555  79.879  1.00  0.00     0.211 HD
ENDBRANCH  28  33
BRANCH  30  35
ATOM     35  O   UNL     1      58.964   3.962  82.455  1.00  0.00    -0.387 OA
ATOM     36  H   UNL     1      59.192   4.763  83.009  1.00  0.00     0.211 HD
ENDBRANCH  30  35
BRANCH  31  37
ATOM     37  C   UNL     1      54.790   3.255  80.919  1.00  0.00     0.191 C 
BRANCH  37  38
ATOM     38  O   UNL     1      53.631   2.478  81.105  1.00  0.00    -0.394 OA
ATOM     39  H   UNL     1      53.393   2.062  80.219  1.00  0.00     0.210 HD
ENDBRANCH  37  38
ENDBRANCH  31  37
BRANCH  32  40
ATOM     40  O   UNL     1      56.760   3.961  84.119  1.00  0.00    -0.387 OA
ATOM     41  H   UNL     1      56.196   4.768  84.302  1.00  0.00     0.211 HD
ENDBRANCH  32  40
ENDBRANCH   1  27
TORSDOF 12
ENDMDL
MODEL 2
REMARK VINA RESULT:    -6.666      2.764      6.441
REMARK INTER + INTRA:         -11.188
REMARK INTER:                 -10.355
REMARK INTRA:                  -0.833
REMARK UNBOUND:                -1.404
REMARK SMILES O=c1c(O[C@H]2O[C@@H](CO)[C@H](O)[C@H](O)[C@H]2O)c(-c2ccc(O)c(O)c2)oc2cc(O)cc(O)c12
REMARK SMILES IDX 4 1 3 2 16 3 25 4 2 5 26 6 1 7 33 8 27 9 31 10 28 11 30 12
REMARK SMILES IDX 17 13 18 14 19 15 20 16 24 17 22 18 21 19 23 21 32 23 29 25
REMARK SMILES IDX 5 27 14 28 6 29 12 30 7 31 10 32 15 33 13 35 8 37 9 38 11 40
REMARK H PARENT 21 20 23 22 32 24 29 26 15 34 13 36 9 39 11 41
REMARK Flexibility Score: inf
ROOT
ATOM      1  O   UNL     1      54.436   6.407  81.303  1.00  0.00    -0.454 OA
ENDROOT
BRANCH   1   2
ATOM      2  C   UNL     1      53.964   5.341  80.526  1.00  0.00     0.214 A 
ATOM      3  C   UNL     1      54.693   4.853  79.406  1.00  0.00     0.180 A 
ATOM      4  O   UNL     1      54.067   4.020  78.568  1.00  0.00    -0.452 OA
ATOM      5  C   UNL     1      52.703   4.775  80.825  1.00  0.00     0.239 A 
ATOM      6  C   UNL     1      52.791   3.686  78.673  1.00  0.00     0.146 A 
ATOM      7  O   UNL     1      52.155   4.989  81.937  1.00  0.00    -0.285 OA
ATOM      8  C   UNL     1      52.069   3.963  79.854  1.00  0.00     0.111 A 
ATOM      9  C   UNL     1      52.153   3.075  77.587  1.00  0.00     0.094 A 
ATOM     10  C   UNL     1      50.696   3.617  79.935  1.00  0.00     0.134 A 
ATOM     11  C   UNL     1      50.766   2.951  77.590  1.00  0.00     0.123 A 
ATOM     12  C   UNL     1      50.054   3.120  78.784  1.00  0.00     0.093 A 
BRANCH   3  13
ATOM     13  C   UNL     1      56.066   5.319  79.005  1.00  0.00     0.025 A 
ATOM     14  C   UNL     1      57.272   4.716  79.437  1.00  0.00     0.016 A 
ATOM     15  C   UNL     1      58.503   5.370  79.260  1.00  0.00     0.051 A 
ATOM     16  C   UNL     1      58.573   6.595  78.602  1.00  0.00     0.157 A 
ATOM     17  C   UNL     1      56.160   6.530  78.293  1.00  0.00     0.062 A 
ATOM     18  C   UNL     1      57.390   7.169  78.095  1.00  0.00     0.158 A 
BRANCH  16  19
ATOM     19  O   UNL     1      59.833   7.170  78.436  1.00  0.00    -0.504 OA
ATOM     20  H   UNL     1      60.663   6.636  78.235  1.00  0.00     0.293 HD
ENDBRANCH  16  19
BRANCH  18  21
ATOM     21  O   UNL     1      57.399   8.390  77.394  1.00  0.00    -0.504 OA
ATOM     22  H   UNL     1      56.838   8.552  76.567  1.00  0.00     0.293 HD
ENDBRANCH  18  21
ENDBRANCH   3  13
BRANCH  10  23
ATOM     23  O   UNL     1      49.963   3.785  81.112  1.00  0.00    -0.507 OA
ATOM     24  H   UNL     1      49.805   4.703  81.514  1.00  0.00     0.293 HD
ENDBRANCH  10  23
BRANCH  11  25
ATOM     25  O   UNL     1      50.103   2.635  76.403  1.00  0.00    -0.508 OA
ATOM     26  H   UNL     1      49.760   3.353  75.769  1.00  0.00     0.293 HD
ENDBRANCH  11  25
ENDBRANCH   1   2
BRANCH   1  27
ATOM     27  C   UNL     1      53.585   7.432  81.822  1.00  0.00     0.339 C 
ATOM     28  C   UNL     1      53.829   8.768  81.039  1.00  0.00     0.214 C 
ATOM     29  O   UNL     1      53.716   7.495  83.230  1.00  0.00    -0.332 OA
ATOM     30  C   UNL     1      54.983   9.641  81.594  1.00  0.00     0.180 C 
ATOM     31  C   UNL     1      54.859   8.201  83.701  1.00  0.00     0.179 C 
ATOM     32  C   UNL     1      54.938   9.641  83.139  1.00  0.00     0.177 C 
BRANCH  28  33
ATOM     33  O   UNL     1      54.070   8.485  79.673  1.00  0.00    -0.384 OA
ATOM     34  H   UNL     1      54.671   9.188  79.284  1.00  0.00     0.211 HD
ENDBRANCH  28  33
BRANCH  30  35
ATOM     35  O   UNL     1      54.900  10.967  81.117  1.00  0.00    -0.387 OA
ATOM     36  H   UNL     1      54.585  10.923  80.169  1.00  0.00     0.211 HD
ENDBRANCH  30  35
BRANCH  31  37
ATOM     37  C   UNL     1      56.190   7.394  83.536  1.00  0.00     0.191 C 
BRANCH  37  38
ATOM     38  O   UNL     1      55.990   6.039  83.863  1.00  0.00    -0.394 OA
ATOM     39  H   UNL     1      55.297   5.997  84.593  1.00  0.00     0.210 HD
ENDBRANCH  37  38
ENDBRANCH  31  37
BRANCH  32  40
ATOM     40  O   UNL     1      53.886  10.444  83.631  1.00  0.00    -0.387 OA
ATOM     41  H   UNL     1      53.083   9.861  83.770  1.00  0.00     0.211 HD
ENDBRANCH  32  40
ENDBRANCH   1  27
TORSDOF 12
ENDMDL
MODEL 3
REMARK VINA RESULT:    -6.386      2.657      6.529
REMARK INTER + INTRA:         -10.777
REMARK INTER:                  -9.093
REMARK INTRA:                  -1.685
REMARK UNBOUND:                -1.404
REMARK SMILES O=c1c(O[C@H]2O[C@@H](CO)[C@H](O)[C@H](O)[C@H]2O)c(-c2ccc(O)c(O)c2)oc2cc(O)cc(O)c12
REMARK SMILES IDX 4 1 3 2 16 3 25 4 2 5 26 6 1 7 33 8 27 9 31 10 28 11 30 12
REMARK SMILES IDX 17 13 18 14 19 15 20 16 24 17 22 18 21 19 23 21 32 23 29 25
REMARK SMILES IDX 5 27 14 28 6 29 12 30 7 31 10 32 15 33 13 35 8 37 9 38 11 40
REMARK H PARENT 21 20 23 22 32 24 29 26 15 34 13 36 9 39 11 41
REMARK Flexibility Score: inf
ROOT
ATOM      1  O   UNL     1      54.327   6.937  80.721  1.00  0.00    -0.454 OA
ENDROOT
BRANCH   1   2
ATOM      2  C   UNL     1      53.907   5.715  80.180  1.00  0.00     0.214 A 
ATOM      3  C   UNL     1      54.702   5.001  79.241  1.00  0.00     0.180 A 
ATOM      4  O   UNL     1      54.130   3.988  78.580  1.00  0.00    -0.452 OA
ATOM      5  C   UNL     1      52.635   5.207  80.530  1.00  0.00     0.239 A 
ATOM      6  C   UNL     1      52.853   3.663  78.688  1.00  0.00     0.146 A 
ATOM      7  O   UNL     1      52.022   5.655  81.534  1.00  0.00    -0.285 OA
ATOM      8  C   UNL     1      52.063   4.185  79.735  1.00  0.00     0.111 A 
ATOM      9  C   UNL     1      52.282   2.811  77.736  1.00  0.00     0.094 A 
ATOM     10  C   UNL     1      50.689   3.840  79.817  1.00  0.00     0.134 A 
ATOM     11  C   UNL     1      50.898   2.664  77.691  1.00  0.00     0.123 A 
ATOM     12  C   UNL     1      50.117   3.084  78.775  1.00  0.00     0.093 A 
BRANCH   3  13
ATOM     13  C   UNL     1      56.093   5.390  78.821  1.00  0.00     0.025 A 
ATOM     14  C   UNL     1      57.274   4.782  79.309  1.00  0.00     0.016 A 
ATOM     15  C   UNL     1      58.529   5.381  79.096  1.00  0.00     0.051 A 
ATOM     16  C   UNL     1      58.644   6.551  78.351  1.00  0.00     0.157 A 
ATOM     17  C   UNL     1      56.233   6.542  78.023  1.00  0.00     0.062 A 
ATOM     18  C   UNL     1      57.485   7.124  77.791  1.00  0.00     0.158 A 
BRANCH  16  19
ATOM     19  O   UNL     1      59.924   7.071  78.156  1.00  0.00    -0.504 OA
ATOM     20  H   UNL     1      60.312   7.811  78.717  1.00  0.00     0.293 HD
ENDBRANCH  16  19
BRANCH  18  21
ATOM     21  O   UNL     1      57.540   8.289  77.002  1.00  0.00    -0.504 OA
ATOM     22  H   UNL     1      56.716   8.814  76.739  1.00  0.00     0.293 HD
ENDBRANCH  18  21
ENDBRANCH   3  13
BRANCH  10  23
ATOM     23  O   UNL     1      49.889   4.255  80.884  1.00  0.00    -0.507 OA
ATOM     24  H   UNL     1      48.999   3.811  81.086  1.00  0.00     0.293 HD
ENDBRANCH  10  23
BRANCH  11  25
ATOM     25  O   UNL     1      50.306   2.076  76.571  1.00  0.00    -0.508 OA
ATOM     26  H   UNL     1      50.612   1.175  76.210  1.00  0.00     0.293 HD
ENDBRANCH  11  25
ENDBRANCH   1   2
BRANCH   1  27
ATOM     27  C   UNL     1      55.252   7.035  81.806  1.00  0.00     0.339 C 
ATOM     28  C   UNL     1      54.603   7.842  82.983  1.00  0.00     0.214 C 
ATOM     29  O   UNL     1      56.499   7.508  81.331  1.00  0.00    -0.332 OA
ATOM     30  C   UNL     1      54.774   9.379  82.884  1.00  0.00     0.180 C 
ATOM     31  C   UNL     1      56.576   8.916  81.134  1.00  0.00     0.179 C 
ATOM     32  C   UNL     1      56.206   9.714  82.407  1.00  0.00     0.177 C 
BRANCH  28  33
ATOM     33  O   UNL     1      53.225   7.528  83.076  1.00  0.00    -0.384 OA
ATOM     34  H   UNL     1      52.710   8.071  82.406  1.00  0.00     0.211 HD
ENDBRANCH  28  33
BRANCH  30  35
ATOM     35  O   UNL     1      54.529  10.006  84.125  1.00  0.00    -0.387 OA
ATOM     36  H   UNL     1      53.930   9.400  84.650  1.00  0.00     0.211 HD
ENDBRANCH  30  35
BRANCH  31  37
ATOM     37  C   UNL     1      55.818   9.399  79.853  1.00  0.00     0.191 C 
BRANCH  37  38
ATOM     38  O   UNL     1      56.622  10.279  79.104  1.00  0.00    -0.394 OA
ATOM     39  H   UNL     1      56.200  10.385  78.195  1.00  0.00     0.210 HD
ENDBRANCH  37  38
ENDBRANCH  31  37
BRANCH  32  40
ATOM     40  O   UNL     1      57.157   9.517  83.432  1.00  0.00    -0.387 OA
ATOM     41  H   UNL     1      58.022   9.932  83.144  1.00  0.00     0.211 HD
ENDBRANCH  32  40
ENDBRANCH   1  27
TORSDOF 12
ENDMDL
MODEL 4
REMARK VINA RESULT:    -6.309      2.277      3.667
REMARK INTER + INTRA:         -10.663
REMARK INTER:                  -9.505
REMARK INTRA:                  -1.158
REMARK UNBOUND:                -1.404
REMARK SMILES O=c1c(O[C@H]2O[C@@H](CO)[C@H](O)[C@H](O)[C@H]2O)c(-c2ccc(O)c(O)c2)oc2cc(O)cc(O)c12
REMARK SMILES IDX 4 1 3 2 16 3 25 4 2 5 26 6 1 7 33 8 27 9 31 10 28 11 30 12
REMARK SMILES IDX 17 13 18 14 19 15 20 16 24 17 22 18 21 19 23 21 32 23 29 25
REMARK SMILES IDX 5 27 14 28 6 29 12 30 7 31 10 32 15 33 13 35 8 37 9 38 11 40
REMARK H PARENT 21 20 23 22 32 24 29 26 15 34 13 36 9 39 11 41
REMARK Flexibility Score: inf
ROOT
ATOM      1  O   UNL     1      54.049   5.421  81.821  1.00  0.00    -0.454 OA
ENDROOT
BRANCH   1   2
ATOM      2  C   UNL     1      54.497   6.374  80.897  1.00  0.00     0.214 A 
ATOM      3  C   UNL     1      54.210   6.261  79.508  1.00  0.00     0.180 A 
ATOM      4  O   UNL     1      54.881   7.054  78.665  1.00  0.00    -0.452 OA
ATOM      5  C   UNL     1      55.305   7.444  81.348  1.00  0.00     0.239 A 
ATOM      6  C   UNL     1      55.847   7.877  79.036  1.00  0.00     0.146 A 
ATOM      7  O   UNL     1      55.364   7.728  82.572  1.00  0.00    -0.285 OA
ATOM      8  C   UNL     1      56.044   8.190  80.398  1.00  0.00     0.111 A 
ATOM      9  C   UNL     1      56.693   8.420  78.062  1.00  0.00     0.094 A 
ATOM     10  C   UNL     1      57.102   9.058  80.774  1.00  0.00     0.134 A 
ATOM     11  C   UNL     1      57.856   9.078  78.455  1.00  0.00     0.123 A 
ATOM     12  C   UNL     1      58.010   9.485  79.786  1.00  0.00     0.093 A 
BRANCH   3  13
ATOM     13  C   UNL     1      53.321   5.212  78.898  1.00  0.00     0.025 A 
ATOM     14  C   UNL     1      51.907   5.266  78.898  1.00  0.00     0.016 A 
ATOM     15  C   UNL     1      51.147   4.129  78.571  1.00  0.00     0.051 A 
ATOM     16  C   UNL     1      51.766   2.944  78.181  1.00  0.00     0.157 A 
ATOM     17  C   UNL     1      53.930   4.025  78.448  1.00  0.00     0.062 A 
ATOM     18  C   UNL     1      53.172   2.901  78.099  1.00  0.00     0.158 A 
BRANCH  16  19
ATOM     19  O   UNL     1      50.947   1.867  77.842  1.00  0.00    -0.504 OA
ATOM     20  H   UNL     1      51.301   0.989  77.497  1.00  0.00     0.293 HD
ENDBRANCH  16  19
BRANCH  18  21
ATOM     21  O   UNL     1      53.855   1.742  77.681  1.00  0.00    -0.504 OA
ATOM     22  H   UNL     1      53.579   0.811  77.965  1.00  0.00     0.293 HD
ENDBRANCH  18  21
ENDBRANCH   3  13
BRANCH  10  23
ATOM     23  O   UNL     1      57.280   9.471  82.096  1.00  0.00    -0.507 OA
ATOM     24  H   UNL     1      57.276  10.453  82.352  1.00  0.00     0.293 HD
ENDBRANCH  10  23
BRANCH  11  25
ATOM     25  O   UNL     1      58.847   9.344  77.508  1.00  0.00    -0.508 OA
ATOM     26  H   UNL     1      59.707   9.830  77.750  1.00  0.00     0.293 HD
ENDBRANCH  11  25
ENDBRANCH   1   2
BRANCH   1  27
ATOM     27  C   UNL     1      54.032   4.018  81.550  1.00  0.00     0.339 C 
ATOM     28  C   UNL     1      52.765   3.368  82.206  1.00  0.00     0.214 C 
ATOM     29  O   UNL     1      55.282   3.449  81.895  1.00  0.00    -0.332 OA
ATOM     30  C   UNL     1      52.952   2.936  83.683  1.00  0.00     0.180 C 
ATOM     31  C   UNL     1      55.463   3.181  83.281  1.00  0.00     0.179 C 
ATOM     32  C   UNL     1      54.343   2.286  83.863  1.00  0.00     0.177 C 
BRANCH  28  33
ATOM     33  O   UNL     1      51.668   4.257  82.112  1.00  0.00    -0.384 OA
ATOM     34  H   UNL     1      50.815   3.733  82.040  1.00  0.00     0.211 HD
ENDBRANCH  28  33
BRANCH  30  35
ATOM     35  O   UNL     1      51.948   2.029  84.085  1.00  0.00    -0.387 OA
ATOM     36  H   UNL     1      51.397   2.486  84.783  1.00  0.00     0.211 HD
ENDBRANCH  30  35
BRANCH  31  37
ATOM     37  C   UNL     1      55.731   4.472  84.125  1.00  0.00     0.191 C 
BRANCH  37  38
ATOM     38  O   UNL     1      56.716   5.269  83.510  1.00  0.00    -0.394 OA
ATOM     39  H   UNL     1      57.083   4.754  82.726  1.00  0.00     0.210 HD
ENDBRANCH  37  38
ENDBRANCH  31  37
BRANCH  32  40
ATOM     40  O   UNL     1      54.386   0.986  83.315  1.00  0.00    -0.387 OA
ATOM     41  H   UNL     1      55.307   0.616  83.453  1.00  0.00     0.211 HD
ENDBRANCH  32  40
ENDBRANCH   1  27
TORSDOF 12
ENDMDL
MODEL 5
REMARK VINA RESULT:    -6.253      2.174      6.441
REMARK INTER + INTRA:         -10.582
REMARK INTER:                  -9.025
REMARK INTRA:                  -1.557
REMARK UNBOUND:                -1.404
REMARK SMILES O=c1c(O[C@H]2O[C@@H](CO)[C@H](O)[C@H](O)[C@H]2O)c(-c2ccc(O)c(O)c2)oc2cc(O)cc(O)c12
REMARK SMILES IDX 4 1 3 2 16 3 25 4 2 5 26 6 1 7 33 8 27 9 31 10 28 11 30 12
REMARK SMILES IDX 17 13 18 14 19 15 20 16 24 17 22 18 21 19 23 21 32 23 29 25
REMARK SMILES IDX 5 27 14 28 6 29 12 30 7 31 10 32 15 33 13 35 8 37 9 38 11 40
REMARK H PARENT 21 20 23 22 32 24 29 26 15 34 13 36 9 39 11 41
REMARK Flexibility Score: inf
ROOT
ATOM      1  O   UNL     1      55.982   6.410  79.914  1.00  0.00    -0.454 OA
ENDROOT
BRANCH   1   2
ATOM      2  C   UNL     1      54.986   5.455  80.156  1.00  0.00     0.214 A 
ATOM      3  C   UNL     1      53.715   5.524  79.519  1.00  0.00     0.180 A 
ATOM      4  O   UNL     1      52.738   4.740  79.988  1.00  0.00    -0.452 OA
ATOM      5  C   UNL     1      55.226   4.432  81.101  1.00  0.00     0.239 A 
ATOM      6  C   UNL     1      52.858   3.967  81.054  1.00  0.00     0.146 A 
ATOM      7  O   UNL     1      56.398   4.179  81.484  1.00  0.00    -0.285 OA
ATOM      8  C   UNL     1      54.128   3.695  81.607  1.00  0.00     0.111 A 
ATOM      9  C   UNL     1      51.707   3.438  81.649  1.00  0.00     0.094 A 
ATOM     10  C   UNL     1      54.231   2.882  82.766  1.00  0.00     0.134 A 
ATOM     11  C   UNL     1      51.797   2.839  82.903  1.00  0.00     0.123 A 
ATOM     12  C   UNL     1      53.048   2.470  83.410  1.00  0.00     0.093 A 
BRANCH   3  13
ATOM     13  C   UNL     1      53.340   6.519  78.455  1.00  0.00     0.025 A 
ATOM     14  C   UNL     1      53.577   6.337  77.072  1.00  0.00     0.016 A 
ATOM     15  C   UNL     1      53.465   7.416  76.178  1.00  0.00     0.051 A 
ATOM     16  C   UNL     1      53.061   8.672  76.622  1.00  0.00     0.157 A 
ATOM     17  C   UNL     1      52.879   7.781  78.879  1.00  0.00     0.062 A 
ATOM     18  C   UNL     1      52.744   8.849  77.984  1.00  0.00     0.158 A 
BRANCH  16  19
ATOM     19  O   UNL     1      52.944   9.687  75.672  1.00  0.00    -0.504 OA
ATOM     20  H   UNL     1      52.992   9.525  74.679  1.00  0.00     0.293 HD
ENDBRANCH  16  19
BRANCH  18  21
ATOM     21  O   UNL     1      52.301  10.086  78.487  1.00  0.00    -0.504 OA
ATOM     22  H   UNL     1      51.322  10.300  78.635  1.00  0.00     0.293 HD
ENDBRANCH  18  21
ENDBRANCH   3  13
BRANCH  10  23
ATOM     23  O   UNL     1      55.468   2.508  83.295  1.00  0.00    -0.507 OA
ATOM     24  H   UNL     1      55.796   2.865  84.186  1.00  0.00     0.293 HD
ENDBRANCH  10  23
BRANCH  11  25
ATOM     25  O   UNL     1      50.631   2.593  83.630  1.00  0.00    -0.508 OA
ATOM     26  H   UNL     1      50.061   3.348  84.007  1.00  0.00     0.293 HD
ENDBRANCH  11  25
ENDBRANCH   1   2
BRANCH   1  27
ATOM     27  C   UNL     1      56.781   6.423  78.729  1.00  0.00     0.339 C 
ATOM     28  C   UNL     1      58.300   6.416  79.115  1.00  0.00     0.214 C 
ATOM     29  O   UNL     1      56.353   7.469  77.876  1.00  0.00    -0.332 OA
ATOM     30  C   UNL     1      58.908   7.819  79.371  1.00  0.00     0.180 C 
ATOM     31  C   UNL     1      56.834   8.764  78.218  1.00  0.00     0.179 C 
ATOM     32  C   UNL     1      58.378   8.816  78.316  1.00  0.00     0.177 C 
BRANCH  28  33
ATOM     33  O   UNL     1      58.500   5.603  80.256  1.00  0.00    -0.384 OA
ATOM     34  H   UNL     1      59.188   4.900  80.053  1.00  0.00     0.211 HD
ENDBRANCH  28  33
BRANCH  30  35
ATOM     35  O   UNL     1      60.318   7.784  79.324  1.00  0.00    -0.387 OA
ATOM     36  H   UNL     1      60.622   7.102  79.989  1.00  0.00     0.211 HD
ENDBRANCH  30  35
BRANCH  31  37
ATOM     37  C   UNL     1      56.109   9.379  79.461  1.00  0.00     0.191 C 
BRANCH  37  38
ATOM     38  O   UNL     1      55.387  10.530  79.093  1.00  0.00    -0.394 OA
ATOM     39  H   UNL     1      55.554  10.700  78.115  1.00  0.00     0.210 HD
ENDBRANCH  37  38
ENDBRANCH  31  37
BRANCH  32  40
ATOM     40  O   UNL     1      58.980   8.613  77.055  1.00  0.00    -0.387 OA
ATOM     41  H   UNL     1      59.060   7.627  76.899  1.00  0.00     0.211 HD
ENDBRANCH  32  40
ENDBRANCH   1  27
TORSDOF 12
ENDMDL
MODEL 6
REMARK VINA RESULT:    -6.247      0.987      2.191
REMARK INTER + INTRA:         -10.573
REMARK INTER:                  -9.115
REMARK INTRA:                  -1.457
REMARK UNBOUND:                -1.404
REMARK SMILES O=c1c(O[C@H]2O[C@@H](CO)[C@H](O)[C@H](O)[C@H]2O)c(-c2ccc(O)c(O)c2)oc2cc(O)cc(O)c12
REMARK SMILES IDX 4 1 3 2 16 3 25 4 2 5 26 6 1 7 33 8 27 9 31 10 28 11 30 12
REMARK SMILES IDX 17 13 18 14 19 15 20 16 24 17 22 18 21 19 23 21 32 23 29 25
REMARK SMILES IDX 5 27 14 28 6 29 12 30 7 31 10 32 15 33 13 35 8 37 9 38 11 40
REMARK H PARENT 21 20 23 22 32 24 29 26 15 34 13 36 9 39 11 41
REMARK Flexibility Score: inf
ROOT
ATOM      1  O   UNL     1      55.036   6.200  81.043  1.00  0.00    -0.454 OA
ENDROOT
BRANCH   1   2
ATOM      2  C   UNL     1      54.542   7.078  80.070  1.00  0.00     0.214 A 
ATOM      3  C   UNL     1      53.561   6.670  79.124  1.00  0.00     0.180 A 
ATOM      4  O   UNL     1      53.332   7.470  78.077  1.00  0.00    -0.452 OA
ATOM      5  C   UNL     1      55.075   8.385  79.987  1.00  0.00     0.239 A 
ATOM      6  C   UNL     1      54.015   8.574  77.826  1.00  0.00     0.146 A 
ATOM      7  O   UNL     1      55.735   8.867  80.943  1.00  0.00    -0.285 OA
ATOM      8  C   UNL     1      54.851   9.143  78.812  1.00  0.00     0.111 A 
ATOM      9  C   UNL     1      53.923   9.163  76.561  1.00  0.00     0.094 A 
ATOM     10  C   UNL     1      55.593  10.315  78.514  1.00  0.00     0.134 A 
ATOM     11  C   UNL     1      54.820  10.168  76.205  1.00  0.00     0.123 A 
ATOM     12  C   UNL     1      55.574  10.810  77.195  1.00  0.00     0.093 A 
BRANCH   3  13
ATOM     13  C   UNL     1      52.868   5.334  79.127  1.00  0.00     0.025 A 
ATOM     14  C   UNL     1      53.143   4.290  78.213  1.00  0.00     0.016 A 
ATOM     15  C   UNL     1      52.270   3.194  78.093  1.00  0.00     0.051 A 
ATOM     16  C   UNL     1      51.149   3.083  78.911  1.00  0.00     0.157 A 
ATOM     17  C   UNL     1      51.762   5.178  79.985  1.00  0.00     0.062 A 
ATOM     18  C   UNL     1      50.906   4.075  79.882  1.00  0.00     0.158 A 
BRANCH  16  19
ATOM     19  O   UNL     1      50.345   1.953  78.756  1.00  0.00    -0.504 OA
ATOM     20  H   UNL     1      49.946   1.447  79.530  1.00  0.00     0.293 HD
ENDBRANCH  16  19
BRANCH  18  21
ATOM     21  O   UNL     1      49.807   4.002  80.759  1.00  0.00    -0.504 OA
ATOM     22  H   UNL     1      49.054   3.336  80.640  1.00  0.00     0.293 HD
ENDBRANCH  18  21
ENDBRANCH   3  13
BRANCH  10  23
ATOM     23  O   UNL     1      56.359  10.967  79.482  1.00  0.00    -0.507 OA
ATOM     24  H   UNL     1      56.403  11.980  79.532  1.00  0.00     0.293 HD
ENDBRANCH  10  23
BRANCH  11  25
ATOM     25  O   UNL     1      54.938  10.539  74.865  1.00  0.00    -0.508 OA
ATOM     26  H   UNL     1      54.234  10.292  74.173  1.00  0.00     0.293 HD
ENDBRANCH  11  25
ENDBRANCH   1   2
BRANCH   1  27
ATOM     27  C   UNL     1      56.033   5.213  80.771  1.00  0.00     0.339 C 
ATOM     28  C   UNL     1      55.777   3.945  81.657  1.00  0.00     0.214 C 
ATOM     29  O   UNL     1      57.320   5.795  80.862  1.00  0.00    -0.332 OA
ATOM     30  C   UNL     1      56.420   4.001  83.066  1.00  0.00     0.180 C 
ATOM     31  C   UNL     1      57.825   5.943  82.184  1.00  0.00     0.179 C 
ATOM     32  C   UNL     1      57.838   4.609  82.967  1.00  0.00     0.177 C 
BRANCH  28  33
ATOM     33  O   UNL     1      54.385   3.723  81.785  1.00  0.00    -0.384 OA
ATOM     34  H   UNL     1      53.891   4.300  81.127  1.00  0.00     0.211 HD
ENDBRANCH  28  33
BRANCH  30  35
ATOM     35  O   UNL     1      56.493   2.718  83.650  1.00  0.00    -0.387 OA
ATOM     36  H   UNL     1      57.393   2.638  84.080  1.00  0.00     0.211 HD
ENDBRANCH  30  35
BRANCH  31  37
ATOM     37  C   UNL     1      57.154   7.120  82.968  1.00  0.00     0.191 C 
BRANCH  37  38
ATOM     38  O   UNL     1      57.857   8.321  82.754  1.00  0.00    -0.394 OA
ATOM     39  H   UNL     1      58.133   8.349  81.786  1.00  0.00     0.210 HD
ENDBRANCH  37  38
ENDBRANCH  31  37
BRANCH  32  40
ATOM     40  O   UNL     1      58.760   3.695  82.412  1.00  0.00    -0.387 OA
ATOM     41  H   UNL     1      59.079   3.087  83.141  1.00  0.00     0.211 HD
ENDBRANCH  32  40
ENDBRANCH   1  27
TORSDOF 12
ENDMDL
MODEL 7
REMARK VINA RESULT:    -6.194      1.715      6.163
REMARK INTER + INTRA:         -10.495
REMARK INTER:                  -9.576
REMARK INTRA:                  -0.918
REMARK UNBOUND:                -1.404
REMARK SMILES O=c1c(O[C@H]2O[C@@H](CO)[C@H](O)[C@H](O)[C@H]2O)c(-c2ccc(O)c(O)c2)oc2cc(O)cc(O)c12
REMARK SMILES IDX 4 1 3 2 16 3 25 4 2 5 26 6 1 7 33 8 27 9 31 10 28 11 30 12
REMARK SMILES IDX 17 13 18 14 19 15 20 16 24 17 22 18 21 19 23 21 32 23 29 25
REMARK SMILES IDX 5 27 14 28 6 29 12 30 7 31 10 32 15 33 13 35 8 37 9 38 11 40
REMARK H PARENT 21 20 23 22 32 24 29 26 15 34 13 36 9 39 11 41
REMARK Flexibility Score: inf
ROOT
ATOM      1  O   UNL     1      53.963   6.981  78.447  1.00  0.00    -0.454 OA
ENDROOT
BRANCH   1   2
ATOM      2  C   UNL     1      54.831   6.131  79.146  1.00  0.00     0.214 A 
ATOM      3  C   UNL     1      54.423   4.840  79.582  1.00  0.00     0.180 A 
ATOM      4  O   UNL     1      55.207   4.199  80.456  1.00  0.00    -0.452 OA
ATOM      5  C   UNL     1      56.126   6.592  79.479  1.00  0.00     0.239 A 
ATOM      6  C   UNL     1      56.292   4.724  80.999  1.00  0.00     0.146 A 
ATOM      7  O   UNL     1      56.614   7.598  78.902  1.00  0.00    -0.285 OA
ATOM      8  C   UNL     1      56.864   5.902  80.471  1.00  0.00     0.111 A 
ATOM      9  C   UNL     1      56.858   4.113  82.124  1.00  0.00     0.094 A 
ATOM     10  C   UNL     1      58.016   6.460  81.084  1.00  0.00     0.134 A 
ATOM     11  C   UNL     1      57.838   4.787  82.849  1.00  0.00     0.123 A 
ATOM     12  C   UNL     1      58.484   5.893  82.285  1.00  0.00     0.093 A 
BRANCH   3  13
ATOM     13  C   UNL     1      53.102   4.200  79.252  1.00  0.00     0.025 A 
ATOM     14  C   UNL     1      52.747   3.715  77.972  1.00  0.00     0.016 A 
ATOM     15  C   UNL     1      51.411   3.398  77.671  1.00  0.00     0.051 A 
ATOM     16  C   UNL     1      50.418   3.496  78.642  1.00  0.00     0.157 A 
ATOM     17  C   UNL     1      52.097   4.240  80.238  1.00  0.00     0.062 A 
ATOM     18  C   UNL     1      50.771   3.901  79.945  1.00  0.00     0.158 A 
BRANCH  16  19
ATOM     19  O   UNL     1      49.120   3.135  78.279  1.00  0.00    -0.504 OA
ATOM     20  H   UNL     1      48.458   2.729  78.921  1.00  0.00     0.293 HD
ENDBRANCH  16  19
BRANCH  18  21
ATOM     21  O   UNL     1      49.818   3.989  80.978  1.00  0.00    -0.504 OA
ATOM     22  H   UNL     1      49.333   4.848  81.205  1.00  0.00     0.293 HD
ENDBRANCH  18  21
ENDBRANCH   3  13
BRANCH  10  23
ATOM     23  O   UNL     1      58.672   7.569  80.544  1.00  0.00    -0.507 OA
ATOM     24  H   UNL     1      59.090   7.542  79.620  1.00  0.00     0.293 HD
ENDBRANCH  10  23
BRANCH  11  25
ATOM     25  O   UNL     1      58.180   4.334  84.125  1.00  0.00    -0.508 OA
ATOM     26  H   UNL     1      58.215   4.959  84.927  1.00  0.00     0.293 HD
ENDBRANCH  11  25
ENDBRANCH   1   2
BRANCH   1  27
ATOM     27  C   UNL     1      53.702   8.329  78.845  1.00  0.00     0.339 C 
ATOM     28  C   UNL     1      52.191   8.482  79.235  1.00  0.00     0.214 C 
ATOM     29  O   UNL     1      54.191   9.221  77.860  1.00  0.00    -0.332 OA
ATOM     30  C   UNL     1      51.246   8.798  78.047  1.00  0.00     0.180 C 
ATOM     31  C   UNL     1      53.350   9.390  76.724  1.00  0.00     0.179 C 
ATOM     32  C   UNL     1      51.916   9.827  77.109  1.00  0.00     0.177 C 
BRANCH  28  33
ATOM     33  O   UNL     1      51.746   7.309  79.890  1.00  0.00    -0.384 OA
ATOM     34  H   UNL     1      52.264   6.518  79.554  1.00  0.00     0.211 HD
ENDBRANCH  28  33
BRANCH  30  35
ATOM     35  O   UNL     1      50.007   9.301  78.496  1.00  0.00    -0.387 OA
ATOM     36  H   UNL     1      49.914   9.048  79.460  1.00  0.00     0.211 HD
ENDBRANCH  30  35
BRANCH  31  37
ATOM     37  C   UNL     1      53.388   8.168  75.746  1.00  0.00     0.191 C 
BRANCH  37  38
ATOM     38  O   UNL     1      54.607   7.474  75.869  1.00  0.00    -0.394 OA
ATOM     39  H   UNL     1      54.412   6.490  75.778  1.00  0.00     0.210 HD
ENDBRANCH  37  38
ENDBRANCH  31  37
BRANCH  32  40
ATOM     40  O   UNL     1      51.906  11.125  77.665  1.00  0.00    -0.387 OA
ATOM     41  H   UNL     1      52.799  11.295  78.086  1.00  0.00     0.211 HD
ENDBRANCH  32  40
ENDBRANCH   1  27
TORSDOF 12
ENDMDL
MODEL 8
REMARK VINA RESULT:    -6.183      2.160      6.185
REMARK INTER + INTRA:         -10.479
REMARK INTER:                  -8.898
REMARK INTRA:                  -1.581
REMARK UNBOUND:                -1.404
REMARK SMILES O=c1c(O[C@H]2O[C@@H](CO)[C@H](O)[C@H](O)[C@H]2O)c(-c2ccc(O)c(O)c2)oc2cc(O)cc(O)c12
REMARK SMILES IDX 4 1 3 2 16 3 25 4 2 5 26 6 1 7 33 8 27 9 31 10 28 11 30 12
REMARK SMILES IDX 17 13 18 14 19 15 20 16 24 17 22 18 21 19 23 21 32 23 29 25
REMARK SMILES IDX 5 27 14 28 6 29 12 30 7 31 10 32 15 33 13 35 8 37 9 38 11 40
REMARK H PARENT 21 20 23 22 32 24 29 26 15 34 13 36 9 39 11 41
REMARK Flexibility Score: inf
ROOT
ATOM      1  O   UNL     1      55.939   6.483  79.442  1.00  0.00    -0.454 OA
ENDROOT
BRANCH   1   2
ATOM      2  C   UNL     1      54.913   5.573  79.730  1.00  0.00     0.214 A 
ATOM      3  C   UNL     1      53.617   5.703  79.159  1.00  0.00     0.180 A 
ATOM      4  O   UNL     1      52.630   4.962  79.675  1.00  0.00    -0.452 OA
ATOM      5  C   UNL     1      55.155   4.534  80.658  1.00  0.00     0.239 A 
ATOM      6  C   UNL     1      52.768   4.178  80.731  1.00  0.00     0.146 A 
ATOM      7  O   UNL     1      56.331   4.226  80.980  1.00  0.00    -0.285 OA
ATOM      8  C   UNL     1      54.051   3.845  81.217  1.00  0.00     0.111 A 
ATOM      9  C   UNL     1      51.626   3.698  81.381  1.00  0.00     0.094 A 
ATOM     10  C   UNL     1      54.176   3.022  82.366  1.00  0.00     0.134 A 
ATOM     11  C   UNL     1      51.752   3.089  82.627  1.00  0.00     0.123 A 
ATOM     12  C   UNL     1      53.009   2.660  83.068  1.00  0.00     0.093 A 
BRANCH   3  13
ATOM     13  C   UNL     1      53.234   6.721  78.119  1.00  0.00     0.025 A 
ATOM     14  C   UNL     1      53.819   6.808  76.834  1.00  0.00     0.016 A 
ATOM     15  C   UNL     1      53.621   7.946  76.032  1.00  0.00     0.051 A 
ATOM     16  C   UNL     1      52.797   8.984  76.458  1.00  0.00     0.157 A 
ATOM     17  C   UNL     1      52.359   7.753  78.511  1.00  0.00     0.062 A 
ATOM     18  C   UNL     1      52.142   8.874  77.702  1.00  0.00     0.158 A 
BRANCH  16  19
ATOM     19  O   UNL     1      52.623  10.067  75.596  1.00  0.00    -0.504 OA
ATOM     20  H   UNL     1      51.763  10.588  75.527  1.00  0.00     0.293 HD
ENDBRANCH  16  19
BRANCH  18  21
ATOM     21  O   UNL     1      51.272   9.876  78.172  1.00  0.00    -0.504 OA
ATOM     22  H   UNL     1      51.474  10.864  78.084  1.00  0.00     0.293 HD
ENDBRANCH  18  21
ENDBRANCH   3  13
BRANCH  10  23
ATOM     23  O   UNL     1      55.420   2.589  82.830  1.00  0.00    -0.507 OA
ATOM     24  H   UNL     1      55.647   2.585  83.819  1.00  0.00     0.293 HD
ENDBRANCH  10  23
BRANCH  11  25
ATOM     25  O   UNL     1      50.614   2.892  83.412  1.00  0.00    -0.508 OA
ATOM     26  H   UNL     1      50.618   2.275  84.222  1.00  0.00     0.293 HD
ENDBRANCH  11  25
ENDBRANCH   1   2
BRANCH   1  27
ATOM     27  C   UNL     1      56.461   7.403  80.404  1.00  0.00     0.339 C 
ATOM     28  C   UNL     1      56.569   8.831  79.766  1.00  0.00     0.214 C 
ATOM     29  O   UNL     1      57.645   6.877  80.975  1.00  0.00    -0.332 OA
ATOM     30  C   UNL     1      57.890   9.099  79.002  1.00  0.00     0.180 C 
ATOM     31  C   UNL     1      58.819   7.033  80.185  1.00  0.00     0.179 C 
ATOM     32  C   UNL     1      59.078   8.508  79.795  1.00  0.00     0.177 C 
BRANCH  28  33
ATOM     33  O   UNL     1      55.472   9.051  78.898  1.00  0.00    -0.384 OA
ATOM     34  H   UNL     1      54.617   9.027  79.424  1.00  0.00     0.211 HD
ENDBRANCH  28  33
BRANCH  30  35
ATOM     35  O   UNL     1      58.096  10.480  78.798  1.00  0.00    -0.387 OA
ATOM     36  H   UNL     1      57.958  10.660  77.824  1.00  0.00     0.211 HD
ENDBRANCH  30  35
BRANCH  31  37
ATOM     37  C   UNL     1      58.876   6.048  78.970  1.00  0.00     0.191 C 
BRANCH  37  38
ATOM     38  O   UNL     1      58.501   4.750  79.368  1.00  0.00    -0.394 OA
ATOM     39  H   UNL     1      59.280   4.137  79.191  1.00  0.00     0.210 HD
ENDBRANCH  37  38
ENDBRANCH  31  37
BRANCH  32  40
ATOM     40  O   UNL     1      59.392   9.292  80.927  1.00  0.00    -0.387 OA
ATOM     41  H   UNL     1      58.885  10.153  80.865  1.00  0.00     0.211 HD
ENDBRANCH  32  40
ENDBRANCH   1  27
TORSDOF 12
ENDMDL
MODEL 9
REMARK VINA RESULT:    -5.901      2.290      7.921
REMARK INTER + INTRA:         -10.065
REMARK INTER:                  -8.500
REMARK INTRA:                  -1.565
REMARK UNBOUND:                -1.404
REMARK SMILES O=c1c(O[C@H]2O[C@@H](CO)[C@H](O)[C@H](O)[C@H]2O)c(-c2ccc(O)c(O)c2)oc2cc(O)cc(O)c12
REMARK SMILES IDX 4 1 3 2 16 3 25 4 2 5 26 6 1 7 33 8 27 9 31 10 28 11 30 12
REMARK SMILES IDX 17 13 18 14 19 15 20 16 24 17 22 18 21 19 23 21 32 23 29 25
REMARK SMILES IDX 5 27 14 28 6 29 12 30 7 31 10 32 15 33 13 35 8 37 9 38 11 40
REMARK H PARENT 21 20 23 22 32 24 29 26 15 34 13 36 9 39 11 41
REMARK Flexibility Score: inf
ROOT
ATOM      1  O   UNL     1      54.064   6.378  79.861  1.00  0.00    -0.454 OA
ENDROOT
BRANCH   1   2
ATOM      2  C   UNL     1      54.103   5.579  81.011  1.00  0.00     0.214 A 
ATOM      3  C   UNL     1      55.314   5.354  81.723  1.00  0.00     0.180 A 
ATOM      4  O   UNL     1      55.326   4.384  82.645  1.00  0.00    -0.452 OA
ATOM      5  C   UNL     1      52.923   4.930  81.440  1.00  0.00     0.239 A 
ATOM      6  C   UNL     1      54.308   3.573  82.877  1.00  0.00     0.146 A 
ATOM      7  O   UNL     1      51.799   5.299  81.010  1.00  0.00    -0.285 OA
ATOM      8  C   UNL     1      53.025   3.861  82.362  1.00  0.00     0.111 A 
ATOM      9  C   UNL     1      54.519   2.406  83.620  1.00  0.00     0.094 A 
ATOM     10  C   UNL     1      51.953   2.964  82.604  1.00  0.00     0.134 A 
ATOM     11  C   UNL     1      53.528   1.428  83.656  1.00  0.00     0.123 A 
ATOM     12  C   UNL     1      52.227   1.740  83.246  1.00  0.00     0.093 A 
BRANCH   3  13
ATOM     13  C   UNL     1      56.628   6.020  81.416  1.00  0.00     0.025 A 
ATOM     14  C   UNL     1      57.046   7.254  81.969  1.00  0.00     0.016 A 
ATOM     15  C   UNL     1      58.141   7.948  81.424  1.00  0.00     0.051 A 
ATOM     16  C   UNL     1      58.875   7.410  80.370  1.00  0.00     0.157 A 
ATOM     17  C   UNL     1      57.414   5.463  80.389  1.00  0.00     0.062 A 
ATOM     18  C   UNL     1      58.519   6.144  79.863  1.00  0.00     0.158 A 
BRANCH  16  19
ATOM     19  O   UNL     1      59.966   8.141  79.902  1.00  0.00    -0.504 OA
ATOM     20  H   UNL     1      59.915   9.118  79.659  1.00  0.00     0.293 HD
ENDBRANCH  16  19
BRANCH  18  21
ATOM     21  O   UNL     1      59.241   5.533  78.820  1.00  0.00    -0.504 OA
ATOM     22  H   UNL     1      58.825   4.870  78.179  1.00  0.00     0.293 HD
ENDBRANCH  18  21
ENDBRANCH   3  13
BRANCH  10  23
ATOM     23  O   UNL     1      50.648   3.250  82.197  1.00  0.00    -0.507 OA
ATOM     24  H   UNL     1      50.035   3.838  82.752  1.00  0.00     0.293 HD
ENDBRANCH  10  23
BRANCH  11  25
ATOM     25  O   UNL     1      53.842   0.151  84.125  1.00  0.00    -0.508 OA
ATOM     26  H   UNL     1      54.453  -0.478  83.609  1.00  0.00     0.293 HD
ENDBRANCH  11  25
ENDBRANCH   1   2
BRANCH   1  27
ATOM     27  C   UNL     1      54.126   7.806  79.900  1.00  0.00     0.339 C 
ATOM     28  C   UNL     1      52.826   8.409  79.266  1.00  0.00     0.214 C 
ATOM     29  O   UNL     1      55.356   8.246  79.352  1.00  0.00    -0.332 OA
ATOM     30  C   UNL     1      52.880   8.589  77.727  1.00  0.00     0.180 C 
ATOM     31  C   UNL     1      55.408   8.279  77.930  1.00  0.00     0.179 C 
ATOM     32  C   UNL     1      54.269   9.128  77.315  1.00  0.00     0.177 C 
BRANCH  28  33
ATOM     33  O   UNL     1      51.711   7.605  79.605  1.00  0.00    -0.384 OA
ATOM     34  H   UNL     1      51.900   6.649  79.365  1.00  0.00     0.211 HD
ENDBRANCH  28  33
BRANCH  30  35
ATOM     35  O   UNL     1      51.876   9.473  77.276  1.00  0.00    -0.387 OA
ATOM     36  H   UNL     1      51.859   9.419  76.278  1.00  0.00     0.211 HD
ENDBRANCH  30  35
BRANCH  31  37
ATOM     37  C   UNL     1      55.543   6.858  77.288  1.00  0.00     0.191 C 
BRANCH  37  38
ATOM     38  O   UNL     1      56.899   6.513  77.132  1.00  0.00    -0.394 OA
ATOM     39  H   UNL     1      56.945   5.525  76.941  1.00  0.00     0.210 HD
ENDBRANCH  37  38
ENDBRANCH  31  37
BRANCH  32  40
ATOM     40  O   UNL     1      54.416  10.495  77.637  1.00  0.00    -0.387 OA
ATOM     41  H   UNL     1      54.531  11.009  76.785  1.00  0.00     0.211 HD
ENDBRANCH  32  40
ENDBRANCH   1  27
TORSDOF 12
ENDMDL
