MODEL 1
REMARK VINA RESULT:    -7.793      0.000      0.000
REMARK INTER + INTRA:         -10.667
REMARK INTER:                 -10.526
REMARK INTRA:                  -0.141
REMARK UNBOUND:                -0.141
REMARK SMILES O=c1c(-c2ccc(O)cc2)coc2c([C@H]3O[C@@H](CO)[C@@H](O)[C@@H](O)[C@H]3O)c(O)ccc12
REMARK SMILES IDX 3 1 11 2 12 3 13 4 30 5 2 6 1 7 29 8 28 9 26 10 14 11 4 12
REMARK SMILES IDX 5 13 6 14 7 15 10 16 9 17 8 18 15 20 24 21 16 22 22 23 17 24
REMARK SMILES IDX 20 25 25 26 23 28 18 30 19 31 21 33 27 35
REMARK H PARENT 8 19 25 27 23 29 19 32 21 34 27 36
REMARK Flexibility Score: inf
ROOT
ATOM      1  C   UNL     1       4.030   0.851 -23.880  1.00  0.00     0.065 A 
ATOM      2  C   UNL     1       3.491   1.422 -25.041  1.00  0.00     0.208 A 
ATOM      3  O   UNL     1       3.491   2.737 -25.213  1.00  0.00    -0.463 OA
ATOM      4  C   UNL     1       3.996   3.589 -24.325  1.00  0.00     0.147 A 
ATOM      5  C   UNL     1       4.621   3.093 -23.159  1.00  0.00     0.066 A 
ATOM      6  C   UNL     1       4.615   1.703 -22.929  1.00  0.00     0.200 A 
ATOM      7  O   UNL     1       5.107   1.219 -21.868  1.00  0.00    -0.288 OA
ATOM      8  C   UNL     1       5.209   3.989 -22.257  1.00  0.00     0.020 A 
ATOM      9  C   UNL     1       5.223   5.355 -22.539  1.00  0.00     0.047 A 
ATOM     10  C   UNL     1       4.576   5.862 -23.676  1.00  0.00     0.125 A 
ATOM     11  C   UNL     1       3.910   4.985 -24.571  1.00  0.00     0.069 A 
ENDROOT
BRANCH   1  12
ATOM     12  C   UNL     1       3.795  -0.583 -23.609  1.00  0.00    -0.011 A 
ATOM     13  C   UNL     1       4.762  -1.522 -24.013  1.00  0.00     0.013 A 
ATOM     14  C   UNL     1       4.565  -2.888 -23.782  1.00  0.00     0.047 A 
ATOM     15  C   UNL     1       3.413  -3.328 -23.118  1.00  0.00     0.115 A 
ATOM     16  C   UNL     1       2.629  -1.027 -22.961  1.00  0.00     0.013 A 
ATOM     17  C   UNL     1       2.439  -2.398 -22.720  1.00  0.00     0.047 A 
BRANCH  15  18
ATOM     18  O   UNL     1       3.259  -4.687 -22.849  1.00  0.00    -0.508 OA
ATOM     19  H   UNL     1       2.431  -5.061 -22.385  1.00  0.00     0.293 HD
ENDBRANCH  15  18
ENDBRANCH   1  12
BRANCH  11  20
ATOM     20  C   UNL     1       3.061   5.413 -25.775  1.00  0.00     0.188 C 
ATOM     21  C   UNL     1       2.778   6.928 -25.978  1.00  0.00     0.179 C 
ATOM     22  O   UNL     1       1.821   4.701 -25.727  1.00  0.00    -0.362 OA
ATOM     23  C   UNL     1       1.926   7.111 -27.262  1.00  0.00     0.177 C 
ATOM     24  C   UNL     1       1.156   4.774 -26.977  1.00  0.00     0.176 C 
ATOM     25  C   UNL     1       0.661   6.224 -27.206  1.00  0.00     0.177 C 
BRANCH  21  26
ATOM     26  O   UNL     1       2.085   7.442 -24.867  1.00  0.00    -0.387 OA
ATOM     27  H   UNL     1       2.124   6.742 -24.158  1.00  0.00     0.211 HD
ENDBRANCH  21  26
BRANCH  23  28
ATOM     28  O   UNL     1       1.570   8.468 -27.423  1.00  0.00    -0.387 OA
ATOM     29  H   UNL     1       0.586   8.526 -27.304  1.00  0.00     0.211 HD
ENDBRANCH  23  28
BRANCH  24  30
ATOM     30  C   UNL     1       0.060   3.674 -27.093  1.00  0.00     0.191 C 
BRANCH  30  31
ATOM     31  O   UNL     1      -1.228   4.129 -26.719  1.00  0.00    -0.394 OA
ATOM     32  H   UNL     1      -1.723   4.396 -27.540  1.00  0.00     0.210 HD
ENDBRANCH  30  31
ENDBRANCH  24  30
BRANCH  25  33
ATOM     33  O   UNL     1      -0.189   6.724 -26.187  1.00  0.00    -0.388 OA
ATOM     34  H   UNL     1      -0.556   5.958 -25.670  1.00  0.00     0.211 HD
ENDBRANCH  25  33
ENDBRANCH  11  20
BRANCH  10  35
ATOM     35  O   UNL     1       4.684   7.228 -23.942  1.00  0.00    -0.507 OA
ATOM     36  H   UNL     1       4.700   7.597 -24.887  1.00  0.00     0.293 HD
ENDBRANCH  10  35
TORSDOF 9
ENDMDL
MODEL 2
REMARK VINA RESULT:    -7.601      2.474      8.078
REMARK INTER + INTRA:         -10.408
REMARK INTER:                 -10.257
REMARK INTRA:                  -0.151
REMARK UNBOUND:                -0.141
REMARK SMILES O=c1c(-c2ccc(O)cc2)coc2c([C@H]3O[C@@H](CO)[C@@H](O)[C@@H](O)[C@H]3O)c(O)ccc12
REMARK SMILES IDX 3 1 11 2 12 3 13 4 30 5 2 6 1 7 29 8 28 9 26 10 14 11 4 12
REMARK SMILES IDX 5 13 6 14 7 15 10 16 9 17 8 18 15 20 24 21 16 22 22 23 17 24
REMARK SMILES IDX 20 25 25 26 23 28 18 30 19 31 21 33 27 35
REMARK H PARENT 8 19 25 27 23 29 19 32 21 34 27 36
REMARK Flexibility Score: inf
ROOT
ATOM      1  C   UNL     1       3.778   2.917 -24.895  1.00  0.00     0.065 A 
ATOM      2  C   UNL     1       4.052   1.629 -24.414  1.00  0.00     0.208 A 
ATOM      3  O   UNL     1       3.432   0.571 -24.917  1.00  0.00    -0.463 OA
ATOM      4  C   UNL     1       2.534   0.648 -25.895  1.00  0.00     0.147 A 
ATOM      5  C   UNL     1       2.249   1.901 -26.485  1.00  0.00     0.066 A 
ATOM      6  C   UNL     1       2.869   3.051 -25.957  1.00  0.00     0.200 A 
ATOM      7  O   UNL     1       2.598   4.201 -26.412  1.00  0.00    -0.288 OA
ATOM      8  C   UNL     1       1.353   1.970 -27.558  1.00  0.00     0.020 A 
ATOM      9  C   UNL     1       0.787   0.804 -28.073  1.00  0.00     0.047 A 
ATOM     10  C   UNL     1       1.034  -0.441 -27.474  1.00  0.00     0.125 A 
ATOM     11  C   UNL     1       1.883  -0.533 -26.340  1.00  0.00     0.069 A 
ENDROOT
BRANCH   1  12
ATOM     12  C   UNL     1       4.297   4.086 -24.154  1.00  0.00    -0.011 A 
ATOM     13  C   UNL     1       5.688   4.264 -24.045  1.00  0.00     0.013 A 
ATOM     14  C   UNL     1       6.212   5.354 -23.341  1.00  0.00     0.047 A 
ATOM     15  C   UNL     1       5.350   6.294 -22.763  1.00  0.00     0.115 A 
ATOM     16  C   UNL     1       3.432   5.020 -23.555  1.00  0.00     0.013 A 
ATOM     17  C   UNL     1       3.960   6.119 -22.859  1.00  0.00     0.047 A 
BRANCH  15  18
ATOM     18  O   UNL     1       5.889   7.402 -22.112  1.00  0.00    -0.508 OA
ATOM     19  H   UNL     1       5.728   7.585 -21.121  1.00  0.00     0.293 HD
ENDBRANCH  15  18
ENDBRANCH   1  12
BRANCH  11  20
ATOM     20  C   UNL     1       2.138  -1.802 -25.516  1.00  0.00     0.188 C 
ATOM     21  C   UNL     1       1.173  -2.124 -24.340  1.00  0.00     0.179 C 
ATOM     22  O   UNL     1       3.482  -1.759 -25.027  1.00  0.00    -0.362 OA
ATOM     23  C   UNL     1       1.618  -3.454 -23.677  1.00  0.00     0.177 C 
ATOM     24  C   UNL     1       3.889  -3.039 -24.575  1.00  0.00     0.176 C 
ATOM     25  C   UNL     1       3.111  -3.393 -23.282  1.00  0.00     0.177 C 
BRANCH  21  26
ATOM     26  O   UNL     1       1.203  -1.084 -23.392  1.00  0.00    -0.387 OA
ATOM     27  H   UNL     1       0.583  -1.350 -22.658  1.00  0.00     0.211 HD
ENDBRANCH  21  26
BRANCH  23  28
ATOM     28  O   UNL     1       0.819  -3.726 -22.544  1.00  0.00    -0.387 OA
ATOM     29  H   UNL     1       0.896  -2.942 -21.940  1.00  0.00     0.211 HD
ENDBRANCH  23  28
BRANCH  24  30
ATOM     30  C   UNL     1       5.439  -3.126 -24.460  1.00  0.00     0.191 C 
BRANCH  30  31
ATOM     31  O   UNL     1       5.994  -2.116 -23.637  1.00  0.00    -0.394 OA
ATOM     32  H   UNL     1       5.978  -2.429 -22.692  1.00  0.00     0.210 HD
ENDBRANCH  30  31
ENDBRANCH  24  30
BRANCH  25  33
ATOM     33  O   UNL     1       3.257  -2.450 -22.232  1.00  0.00    -0.388 OA
ATOM     34  H   UNL     1       3.537  -2.929 -21.407  1.00  0.00     0.211 HD
ENDBRANCH  25  33
ENDBRANCH  11  20
BRANCH  10  35
ATOM     35  O   UNL     1       0.497  -1.580 -28.075  1.00  0.00    -0.507 OA
ATOM     36  H   UNL     1       1.054  -2.406 -28.265  1.00  0.00     0.293 HD
ENDBRANCH  10  35
TORSDOF 9
ENDMDL
MODEL 3
REMARK VINA RESULT:    -7.545      1.908      8.003
REMARK INTER + INTRA:         -10.332
REMARK INTER:                  -9.439
REMARK INTRA:                  -0.894
REMARK UNBOUND:                -0.141
REMARK SMILES O=c1c(-c2ccc(O)cc2)coc2c([C@H]3O[C@@H](CO)[C@@H](O)[C@@H](O)[C@H]3O)c(O)ccc12
REMARK SMILES IDX 3 1 11 2 12 3 13 4 30 5 2 6 1 7 29 8 28 9 26 10 14 11 4 12
REMARK SMILES IDX 5 13 6 14 7 15 10 16 9 17 8 18 15 20 24 21 16 22 22 23 17 24
REMARK SMILES IDX 20 25 25 26 23 28 18 30 19 31 21 33 27 35
REMARK H PARENT 8 19 25 27 23 29 19 32 21 34 27 36
REMARK Flexibility Score: inf
ROOT
ATOM      1  C   UNL     1       3.005   5.121 -25.411  1.00  0.00     0.065 A 
ATOM      2  C   UNL     1       2.500   3.879 -25.822  1.00  0.00     0.208 A 
ATOM      3  O   UNL     1       3.002   2.750 -25.340  1.00  0.00    -0.463 OA
ATOM      4  C   UNL     1       3.989   2.712 -24.449  1.00  0.00     0.147 A 
ATOM      5  C   UNL     1       4.508   3.919 -23.930  1.00  0.00     0.066 A 
ATOM      6  C   UNL     1       4.019   5.138 -24.440  1.00  0.00     0.200 A 
ATOM      7  O   UNL     1       4.498   6.243 -24.050  1.00  0.00    -0.288 OA
ATOM      8  C   UNL     1       5.502   3.875 -22.945  1.00  0.00     0.020 A 
ATOM      9  C   UNL     1       5.935   2.648 -22.443  1.00  0.00     0.047 A 
ATOM     10  C   UNL     1       5.452   1.442 -22.974  1.00  0.00     0.125 A 
ATOM     11  C   UNL     1       4.496   1.455 -24.024  1.00  0.00     0.069 A 
ENDROOT
BRANCH   1  12
ATOM     12  C   UNL     1       2.597   6.338 -26.142  1.00  0.00    -0.011 A 
ATOM     13  C   UNL     1       1.342   6.912 -25.870  1.00  0.00     0.013 A 
ATOM     14  C   UNL     1       0.921   8.058 -26.552  1.00  0.00     0.047 A 
ATOM     15  C   UNL     1       1.763   8.662 -27.493  1.00  0.00     0.115 A 
ATOM     16  C   UNL     1       3.434   6.934 -27.103  1.00  0.00     0.013 A 
ATOM     17  C   UNL     1       3.015   8.091 -27.778  1.00  0.00     0.047 A 
BRANCH  15  18
ATOM     18  O   UNL     1       1.350   9.834 -28.125  1.00  0.00    -0.508 OA
ATOM     19  H   UNL     1       0.375  10.131 -28.140  1.00  0.00     0.293 HD
ENDBRANCH  15  18
ENDBRANCH   1  12
BRANCH  11  20
ATOM     20  C   UNL     1       3.982   0.223 -24.778  1.00  0.00     0.188 C 
ATOM     21  C   UNL     1       2.520  -0.241 -24.525  1.00  0.00     0.179 C 
ATOM     22  O   UNL     1       4.875  -0.866 -24.526  1.00  0.00    -0.362 OA
ATOM     23  C   UNL     1       2.226  -1.481 -25.409  1.00  0.00     0.177 C 
ATOM     24  C   UNL     1       4.665  -1.910 -25.462  1.00  0.00     0.176 C 
ATOM     25  C   UNL     1       3.295  -2.576 -25.183  1.00  0.00     0.177 C 
BRANCH  21  26
ATOM     26  O   UNL     1       2.347  -0.571 -23.167  1.00  0.00    -0.387 OA
ATOM     27  H   UNL     1       1.873  -1.448 -23.145  1.00  0.00     0.211 HD
ENDBRANCH  21  26
BRANCH  23  28
ATOM     28  O   UNL     1       0.937  -1.987 -25.131  1.00  0.00    -0.387 OA
ATOM     29  H   UNL     1       0.302  -1.503 -25.721  1.00  0.00     0.211 HD
ENDBRANCH  23  28
BRANCH  24  30
ATOM     30  C   UNL     1       5.880  -2.883 -25.495  1.00  0.00     0.191 C 
BRANCH  30  31
ATOM     31  O   UNL     1       6.036  -3.621 -24.297  1.00  0.00    -0.394 OA
ATOM     32  H   UNL     1       6.526  -4.463 -24.501  1.00  0.00     0.210 HD
ENDBRANCH  30  31
ENDBRANCH  24  30
BRANCH  25  33
ATOM     33  O   UNL     1       3.143  -3.082 -23.866  1.00  0.00    -0.388 OA
ATOM     34  H   UNL     1       2.212  -2.913 -23.562  1.00  0.00     0.211 HD
ENDBRANCH  25  33
ENDBRANCH  11  20
BRANCH  10  35
ATOM     35  O   UNL     1       5.869   0.248 -22.385  1.00  0.00    -0.507 OA
ATOM     36  H   UNL     1       6.161   0.195 -21.416  1.00  0.00     0.293 HD
ENDBRANCH  10  35
TORSDOF 9
ENDMDL
MODEL 4
REMARK VINA RESULT:    -7.167      2.490      8.235
REMARK INTER + INTRA:          -9.822
REMARK INTER:                  -9.070
REMARK INTRA:                  -0.752
REMARK UNBOUND:                -0.141
REMARK SMILES O=c1c(-c2ccc(O)cc2)coc2c([C@H]3O[C@@H](CO)[C@@H](O)[C@@H](O)[C@H]3O)c(O)ccc12
REMARK SMILES IDX 3 1 11 2 12 3 13 4 30 5 2 6 1 7 29 8 28 9 26 10 14 11 4 12
REMARK SMILES IDX 5 13 6 14 7 15 10 16 9 17 8 18 15 20 24 21 16 22 22 23 17 24
REMARK SMILES IDX 20 25 25 26 23 28 18 30 19 31 21 33 27 35
REMARK H PARENT 8 19 25 27 23 29 19 32 21 34 27 36
REMARK Flexibility Score: inf
ROOT
ATOM      1  C   UNL     1       4.264   3.294 -24.466  1.00  0.00     0.065 A 
ATOM      2  C   UNL     1       4.312   2.137 -23.676  1.00  0.00     0.208 A 
ATOM      3  O   UNL     1       3.655   1.042 -24.036  1.00  0.00    -0.463 OA
ATOM      4  C   UNL     1       2.928   0.961 -25.147  1.00  0.00     0.147 A 
ATOM      5  C   UNL     1       2.883   2.060 -26.035  1.00  0.00     0.066 A 
ATOM      6  C   UNL     1       3.546   3.248 -25.671  1.00  0.00     0.200 A 
ATOM      7  O   UNL     1       3.481   4.278 -26.405  1.00  0.00    -0.288 OA
ATOM      8  C   UNL     1       2.170   1.948 -27.235  1.00  0.00     0.020 A 
ATOM      9  C   UNL     1       1.556   0.742 -27.574  1.00  0.00     0.047 A 
ATOM     10  C   UNL     1       1.565  -0.344 -26.686  1.00  0.00     0.125 A 
ATOM     11  C   UNL     1       2.219  -0.237 -25.430  1.00  0.00     0.069 A 
ENDROOT
BRANCH   1  12
ATOM     12  C   UNL     1       4.799   4.558 -23.918  1.00  0.00    -0.011 A 
ATOM     13  C   UNL     1       6.087   4.568 -23.352  1.00  0.00     0.013 A 
ATOM     14  C   UNL     1       6.618   5.746 -22.815  1.00  0.00     0.047 A 
ATOM     15  C   UNL     1       5.879   6.934 -22.865  1.00  0.00     0.115 A 
ATOM     16  C   UNL     1       4.049   5.748 -23.949  1.00  0.00     0.013 A 
ATOM     17  C   UNL     1       4.589   6.932 -23.420  1.00  0.00     0.047 A 
BRANCH  15  18
ATOM     18  O   UNL     1       6.445   8.110 -22.374  1.00  0.00    -0.508 OA
ATOM     19  H   UNL     1       7.021   8.722 -22.953  1.00  0.00     0.293 HD
ENDBRANCH  15  18
ENDBRANCH   1  12
BRANCH  11  20
ATOM     20  C   UNL     1       2.198  -1.294 -24.319  1.00  0.00     0.188 C 
ATOM     21  C   UNL     1       3.433  -2.226 -24.164  1.00  0.00     0.179 C 
ATOM     22  O   UNL     1       1.020  -2.090 -24.476  1.00  0.00    -0.362 OA
ATOM     23  C   UNL     1       3.189  -3.187 -22.970  1.00  0.00     0.177 C 
ATOM     24  C   UNL     1       0.759  -2.832 -23.297  1.00  0.00     0.176 C 
ATOM     25  C   UNL     1       1.842  -3.928 -23.135  1.00  0.00     0.177 C 
BRANCH  21  26
ATOM     26  O   UNL     1       3.627  -2.969 -25.343  1.00  0.00    -0.387 OA
ATOM     27  H   UNL     1       3.036  -2.563 -26.037  1.00  0.00     0.211 HD
ENDBRANCH  21  26
BRANCH  23  28
ATOM     28  O   UNL     1       4.250  -4.113 -22.862  1.00  0.00    -0.387 OA
ATOM     29  H   UNL     1       5.071  -3.591 -22.664  1.00  0.00     0.211 HD
ENDBRANCH  23  28
BRANCH  24  30
ATOM     30  C   UNL     1      -0.711  -3.345 -23.272  1.00  0.00     0.191 C 
BRANCH  30  31
ATOM     31  O   UNL     1      -0.809  -4.757 -23.276  1.00  0.00    -0.394 OA
ATOM     32  H   UNL     1      -0.387  -5.105 -24.108  1.00  0.00     0.210 HD
ENDBRANCH  30  31
ENDBRANCH  24  30
BRANCH  25  33
ATOM     33  O   UNL     1       1.952  -4.814 -24.238  1.00  0.00    -0.388 OA
ATOM     34  H   UNL     1       1.382  -5.611 -24.069  1.00  0.00     0.211 HD
ENDBRANCH  25  33
ENDBRANCH  11  20
BRANCH  10  35
ATOM     35  O   UNL     1       0.995  -1.546 -27.108  1.00  0.00    -0.507 OA
ATOM     36  H   UNL     1       1.555  -2.355 -27.352  1.00  0.00     0.293 HD
ENDBRANCH  10  35
TORSDOF 9
ENDMDL
MODEL 5
REMARK VINA RESULT:    -7.133      2.696      8.238
REMARK INTER + INTRA:          -9.776
REMARK INTER:                  -9.432
REMARK INTRA:                  -0.344
REMARK UNBOUND:                -0.141
REMARK SMILES O=c1c(-c2ccc(O)cc2)coc2c([C@H]3O[C@@H](CO)[C@@H](O)[C@@H](O)[C@H]3O)c(O)ccc12
REMARK SMILES IDX 3 1 11 2 12 3 13 4 30 5 2 6 1 7 29 8 28 9 26 10 14 11 4 12
REMARK SMILES IDX 5 13 6 14 7 15 10 16 9 17 8 18 15 20 24 21 16 22 22 23 17 24
REMARK SMILES IDX 20 25 25 26 23 28 18 30 19 31 21 33 27 35
REMARK H PARENT 8 19 25 27 23 29 19 32 21 34 27 36
REMARK Flexibility Score: inf
ROOT
ATOM      1  C   UNL     1       4.363   3.518 -26.144  1.00  0.00     0.065 A 
ATOM      2  C   UNL     1       3.625   2.999 -25.071  1.00  0.00     0.208 A 
ATOM      3  O   UNL     1       3.560   1.690 -24.863  1.00  0.00    -0.463 OA
ATOM      4  C   UNL     1       4.178   0.799 -25.631  1.00  0.00     0.147 A 
ATOM      5  C   UNL     1       5.000   1.241 -26.694  1.00  0.00     0.066 A 
ATOM      6  C   UNL     1       5.070   2.622 -26.961  1.00  0.00     0.200 A 
ATOM      7  O   UNL     1       5.743   3.060 -27.940  1.00  0.00    -0.288 OA
ATOM      8  C   UNL     1       5.701   0.302 -27.460  1.00  0.00     0.020 A 
ATOM      9  C   UNL     1       5.631  -1.054 -27.141  1.00  0.00     0.047 A 
ATOM     10  C   UNL     1       4.793  -1.508 -26.111  1.00  0.00     0.125 A 
ATOM     11  C   UNL     1       4.014  -0.587 -25.363  1.00  0.00     0.069 A 
ENDROOT
BRANCH   1  12
ATOM     12  C   UNL     1       4.216   4.948 -26.490  1.00  0.00    -0.011 A 
ATOM     13  C   UNL     1       4.191   5.902 -25.457  1.00  0.00     0.013 A 
ATOM     14  C   UNL     1       4.042   7.262 -25.750  1.00  0.00     0.047 A 
ATOM     15  C   UNL     1       3.946   7.686 -27.081  1.00  0.00     0.115 A 
ATOM     16  C   UNL     1       4.099   5.372 -27.826  1.00  0.00     0.013 A 
ATOM     17  C   UNL     1       3.961   6.739 -28.118  1.00  0.00     0.047 A 
BRANCH  15  18
ATOM     18  O   UNL     1       3.853   9.049 -27.357  1.00  0.00    -0.508 OA
ATOM     19  H   UNL     1       3.000   9.475 -27.720  1.00  0.00     0.293 HD
ENDBRANCH  15  18
ENDBRANCH   1  12
BRANCH  11  20
ATOM     20  C   UNL     1       2.968  -0.954 -24.303  1.00  0.00     0.188 C 
ATOM     21  C   UNL     1       3.452  -1.648 -22.999  1.00  0.00     0.179 C 
ATOM     22  O   UNL     1       1.962  -1.760 -24.923  1.00  0.00    -0.362 OA
ATOM     23  C   UNL     1       2.227  -1.899 -22.080  1.00  0.00     0.177 C 
ATOM     24  C   UNL     1       0.805  -1.829 -24.107  1.00  0.00     0.176 C 
ATOM     25  C   UNL     1       1.122  -2.666 -22.843  1.00  0.00     0.177 C 
BRANCH  21  26
ATOM     26  O   UNL     1       4.076  -2.871 -23.306  1.00  0.00    -0.387 OA
ATOM     27  H   UNL     1       5.032  -2.780 -23.035  1.00  0.00     0.211 HD
ENDBRANCH  21  26
BRANCH  23  28
ATOM     28  O   UNL     1       2.618  -2.616 -20.928  1.00  0.00    -0.387 OA
ATOM     29  H   UNL     1       2.468  -2.018 -20.149  1.00  0.00     0.211 HD
ENDBRANCH  23  28
BRANCH  24  30
ATOM     30  C   UNL     1      -0.430  -2.308 -24.926  1.00  0.00     0.191 C 
BRANCH  30  31
ATOM     31  O   UNL     1      -0.952  -1.309 -25.783  1.00  0.00    -0.394 OA
ATOM     32  H   UNL     1      -1.719  -1.691 -26.290  1.00  0.00     0.210 HD
ENDBRANCH  30  31
ENDBRANCH  24  30
BRANCH  25  33
ATOM     33  O   UNL     1       1.593  -3.978 -23.110  1.00  0.00    -0.388 OA
ATOM     34  H   UNL     1       1.353  -4.222 -24.043  1.00  0.00     0.211 HD
ENDBRANCH  25  33
ENDBRANCH  11  20
BRANCH  10  35
ATOM     35  O   UNL     1       4.817  -2.867 -25.792  1.00  0.00    -0.507 OA
ATOM     36  H   UNL     1       5.502  -3.504 -26.184  1.00  0.00     0.293 HD
ENDBRANCH  10  35
TORSDOF 9
ENDMDL
MODEL 6
REMARK VINA RESULT:    -6.941      2.293      3.826
REMARK INTER + INTRA:          -9.516
REMARK INTER:                  -8.736
REMARK INTRA:                  -0.780
REMARK UNBOUND:                -0.141
REMARK SMILES O=c1c(-c2ccc(O)cc2)coc2c([C@H]3O[C@@H](CO)[C@@H](O)[C@@H](O)[C@H]3O)c(O)ccc12
REMARK SMILES IDX 3 1 11 2 12 3 13 4 30 5 2 6 1 7 29 8 28 9 26 10 14 11 4 12
REMARK SMILES IDX 5 13 6 14 7 15 10 16 9 17 8 18 15 20 24 21 16 22 22 23 17 24
REMARK SMILES IDX 20 25 25 26 23 28 18 30 19 31 21 33 27 35
REMARK H PARENT 8 19 25 27 23 29 19 32 21 34 27 36
REMARK Flexibility Score: inf
ROOT
ATOM      1  C   UNL     1       3.174  -0.422 -25.283  1.00  0.00     0.065 A 
ATOM      2  C   UNL     1       2.501   0.782 -25.034  1.00  0.00     0.208 A 
ATOM      3  O   UNL     1       2.976   1.932 -25.493  1.00  0.00    -0.463 OA
ATOM      4  C   UNL     1       4.092   2.026 -26.211  1.00  0.00     0.147 A 
ATOM      5  C   UNL     1       4.795   0.852 -26.566  1.00  0.00     0.066 A 
ATOM      6  C   UNL     1       4.335  -0.385 -26.072  1.00  0.00     0.200 A 
ATOM      7  O   UNL     1       4.968  -1.455 -26.312  1.00  0.00    -0.288 OA
ATOM      8  C   UNL     1       5.933   0.948 -27.376  1.00  0.00     0.020 A 
ATOM      9  C   UNL     1       6.335   2.188 -27.871  1.00  0.00     0.047 A 
ATOM     10  C   UNL     1       5.666   3.364 -27.499  1.00  0.00     0.125 A 
ATOM     11  C   UNL     1       4.552   3.305 -26.621  1.00  0.00     0.069 A 
ENDROOT
BRANCH   1  12
ATOM     12  C   UNL     1       2.757  -1.640 -24.557  1.00  0.00    -0.011 A 
ATOM     13  C   UNL     1       1.429  -2.088 -24.679  1.00  0.00     0.013 A 
ATOM     14  C   UNL     1       0.999  -3.231 -23.997  1.00  0.00     0.047 A 
ATOM     15  C   UNL     1       1.900  -3.957 -23.209  1.00  0.00     0.115 A 
ATOM     16  C   UNL     1       3.656  -2.359 -23.749  1.00  0.00     0.013 A 
ATOM     17  C   UNL     1       3.226  -3.513 -23.074  1.00  0.00     0.047 A 
BRANCH  15  18
ATOM     18  O   UNL     1       1.469  -5.124 -22.580  1.00  0.00    -0.508 OA
ATOM     19  H   UNL     1       1.110  -5.924 -23.100  1.00  0.00     0.293 HD
ENDBRANCH  15  18
ENDBRANCH   1  12
BRANCH  11  20
ATOM     20  C   UNL     1       3.812   4.514 -26.035  1.00  0.00     0.188 C 
ATOM     21  C   UNL     1       2.932   5.374 -26.986  1.00  0.00     0.179 C 
ATOM     22  O   UNL     1       4.768   5.356 -25.384  1.00  0.00    -0.362 OA
ATOM     23  C   UNL     1       2.274   6.515 -26.167  1.00  0.00     0.177 C 
ATOM     24  C   UNL     1       4.118   6.281 -24.529  1.00  0.00     0.176 C 
ATOM     25  C   UNL     1       3.345   7.313 -25.388  1.00  0.00     0.177 C 
BRANCH  21  26
ATOM     26  O   UNL     1       3.725   5.919 -28.014  1.00  0.00    -0.387 OA
ATOM     27  H   UNL     1       4.010   5.156 -28.590  1.00  0.00     0.211 HD
ENDBRANCH  21  26
BRANCH  23  28
ATOM     28  O   UNL     1       1.545   7.372 -27.020  1.00  0.00    -0.387 OA
ATOM     29  H   UNL     1       1.791   8.303 -26.776  1.00  0.00     0.211 HD
ENDBRANCH  23  28
BRANCH  24  30
ATOM     30  C   UNL     1       5.116   6.890 -23.500  1.00  0.00     0.191 C 
BRANCH  30  31
ATOM     31  O   UNL     1       5.689   5.922 -22.640  1.00  0.00    -0.394 OA
ATOM     32  H   UNL     1       6.540   6.285 -22.274  1.00  0.00     0.210 HD
ENDBRANCH  30  31
ENDBRANCH  24  30
BRANCH  25  33
ATOM     33  O   UNL     1       4.147   8.016 -26.324  1.00  0.00    -0.388 OA
ATOM     34  H   UNL     1       4.641   7.358 -26.883  1.00  0.00     0.211 HD
ENDBRANCH  25  33
ENDBRANCH  11  20
BRANCH  10  35
ATOM     35  O   UNL     1       6.070   4.566 -28.081  1.00  0.00    -0.507 OA
ATOM     36  H   UNL     1       5.504   5.406 -28.038  1.00  0.00     0.293 HD
ENDBRANCH  10  35
TORSDOF 9
ENDMDL
MODEL 7
REMARK VINA RESULT:    -6.015      2.880      8.581
REMARK INTER + INTRA:          -8.266
REMARK INTER:                  -8.490
REMARK INTRA:                   0.224
REMARK UNBOUND:                -0.141
REMARK SMILES O=c1c(-c2ccc(O)cc2)coc2c([C@H]3O[C@@H](CO)[C@@H](O)[C@@H](O)[C@H]3O)c(O)ccc12
REMARK SMILES IDX 3 1 11 2 12 3 13 4 30 5 2 6 1 7 29 8 28 9 26 10 14 11 4 12
REMARK SMILES IDX 5 13 6 14 7 15 10 16 9 17 8 18 15 20 24 21 16 22 22 23 17 24
REMARK SMILES IDX 20 25 25 26 23 28 18 30 19 31 21 33 27 35
REMARK H PARENT 8 19 25 27 23 29 19 32 21 34 27 36
REMARK Flexibility Score: inf
ROOT
ATOM      1  C   UNL     1       1.834   3.455 -27.097  1.00  0.00     0.065 A 
ATOM      2  C   UNL     1       2.534   2.295 -26.738  1.00  0.00     0.208 A 
ATOM      3  O   UNL     1       1.912   1.127 -26.649  1.00  0.00    -0.463 OA
ATOM      4  C   UNL     1       0.615   0.972 -26.895  1.00  0.00     0.147 A 
ATOM      5  C   UNL     1      -0.152   2.077 -27.330  1.00  0.00     0.066 A 
ATOM      6  C   UNL     1       0.470   3.339 -27.409  1.00  0.00     0.200 A 
ATOM      7  O   UNL     1      -0.192   4.369 -27.733  1.00  0.00    -0.288 OA
ATOM      8  C   UNL     1      -1.502   1.896 -27.650  1.00  0.00     0.020 A 
ATOM      9  C   UNL     1      -2.071   0.624 -27.591  1.00  0.00     0.047 A 
ATOM     10  C   UNL     1      -1.330  -0.474 -27.128  1.00  0.00     0.125 A 
ATOM     11  C   UNL     1       0.022  -0.308 -26.729  1.00  0.00     0.069 A 
ENDROOT
BRANCH   1  12
ATOM     12  C   UNL     1       2.496   4.768 -26.949  1.00  0.00    -0.011 A 
ATOM     13  C   UNL     1       3.191   5.311 -28.045  1.00  0.00     0.013 A 
ATOM     14  C   UNL     1       3.838   6.547 -27.934  1.00  0.00     0.047 A 
ATOM     15  C   UNL     1       3.772   7.267 -26.736  1.00  0.00     0.115 A 
ATOM     16  C   UNL     1       2.448   5.483 -25.739  1.00  0.00     0.013 A 
ATOM     17  C   UNL     1       3.089   6.728 -25.634  1.00  0.00     0.047 A 
BRANCH  15  18
ATOM     18  O   UNL     1       4.377   8.521 -26.660  1.00  0.00    -0.508 OA
ATOM     19  H   UNL     1       5.389   8.637 -26.611  1.00  0.00     0.293 HD
ENDBRANCH  15  18
ENDBRANCH   1  12
BRANCH  11  20
ATOM     20  C   UNL     1       0.903  -1.388 -26.088  1.00  0.00     0.188 C 
ATOM     21  C   UNL     1       0.475  -1.970 -24.712  1.00  0.00     0.179 C 
ATOM     22  O   UNL     1       2.238  -0.882 -25.995  1.00  0.00    -0.362 OA
ATOM     23  C   UNL     1       1.502  -3.051 -24.283  1.00  0.00     0.177 C 
ATOM     24  C   UNL     1       3.155  -1.937 -25.754  1.00  0.00     0.176 C 
ATOM     25  C   UNL     1       2.939  -2.481 -24.320  1.00  0.00     0.177 C 
BRANCH  21  26
ATOM     26  O   UNL     1       0.430  -0.945 -23.748  1.00  0.00    -0.387 OA
ATOM     27  H   UNL     1       0.076  -1.356 -22.911  1.00  0.00     0.211 HD
ENDBRANCH  21  26
BRANCH  23  28
ATOM     28  O   UNL     1       1.196  -3.531 -22.990  1.00  0.00    -0.387 OA
ATOM     29  H   UNL     1       0.380  -4.090 -23.075  1.00  0.00     0.211 HD
ENDBRANCH  23  28
BRANCH  24  30
ATOM     30  C   UNL     1       4.612  -1.498 -26.084  1.00  0.00     0.191 C 
BRANCH  30  31
ATOM     31  O   UNL     1       5.518  -1.730 -25.021  1.00  0.00    -0.394 OA
ATOM     32  H   UNL     1       5.894  -2.647 -25.115  1.00  0.00     0.210 HD
ENDBRANCH  30  31
ENDBRANCH  24  30
BRANCH  25  33
ATOM     33  O   UNL     1       3.059  -1.506 -23.296  1.00  0.00    -0.388 OA
ATOM     34  H   UNL     1       2.889  -0.607 -23.687  1.00  0.00     0.211 HD
ENDBRANCH  25  33
ENDBRANCH  11  20
BRANCH  10  35
ATOM     35  O   UNL     1      -1.930  -1.734 -27.158  1.00  0.00    -0.507 OA
ATOM     36  H   UNL     1      -2.081  -2.282 -26.318  1.00  0.00     0.293 HD
ENDBRANCH  10  35
TORSDOF 9
ENDMDL
MODEL 8
REMARK VINA RESULT:    -5.843      2.163      4.515
REMARK INTER + INTRA:          -8.033
REMARK INTER:                  -7.692
REMARK INTRA:                  -0.341
REMARK UNBOUND:                -0.141
REMARK SMILES O=c1c(-c2ccc(O)cc2)coc2c([C@H]3O[C@@H](CO)[C@@H](O)[C@@H](O)[C@H]3O)c(O)ccc12
REMARK SMILES IDX 3 1 11 2 12 3 13 4 30 5 2 6 1 7 29 8 28 9 26 10 14 11 4 12
REMARK SMILES IDX 5 13 6 14 7 15 10 16 9 17 8 18 15 20 24 21 16 22 22 23 17 24
REMARK SMILES IDX 20 25 25 26 23 28 18 30 19 31 21 33 27 35
REMARK H PARENT 8 19 25 27 23 29 19 32 21 34 27 36
REMARK Flexibility Score: inf
ROOT
ATOM      1  C   UNL     1       2.737   0.658 -25.947  1.00  0.00     0.065 A 
ATOM      2  C   UNL     1       3.217   1.913 -25.550  1.00  0.00     0.208 A 
ATOM      3  O   UNL     1       2.579   3.024 -25.895  1.00  0.00    -0.463 OA
ATOM      4  C   UNL     1       1.463   3.029 -26.617  1.00  0.00     0.147 A 
ATOM      5  C   UNL     1       0.872   1.803 -27.000  1.00  0.00     0.066 A 
ATOM      6  C   UNL     1       1.537   0.604 -26.675  1.00  0.00     0.200 A 
ATOM      7  O   UNL     1       1.078  -0.515 -27.051  1.00  0.00    -0.288 OA
ATOM      8  C   UNL     1      -0.338   1.810 -27.704  1.00  0.00     0.020 A 
ATOM      9  C   UNL     1      -0.981   3.017 -27.976  1.00  0.00     0.047 A 
ATOM     10  C   UNL     1      -0.389   4.242 -27.632  1.00  0.00     0.125 A 
ATOM     11  C   UNL     1       0.873   4.269 -26.981  1.00  0.00     0.069 A 
ENDROOT
BRANCH   1  12
ATOM     12  C   UNL     1       3.594  -0.531 -25.759  1.00  0.00    -0.011 A 
ATOM     13  C   UNL     1       3.304  -1.425 -24.712  1.00  0.00     0.013 A 
ATOM     14  C   UNL     1       4.102  -2.554 -24.499  1.00  0.00     0.047 A 
ATOM     15  C   UNL     1       5.183  -2.818 -25.349  1.00  0.00     0.115 A 
ATOM     16  C   UNL     1       4.693  -0.786 -26.599  1.00  0.00     0.013 A 
ATOM     17  C   UNL     1       5.486  -1.926 -26.391  1.00  0.00     0.047 A 
BRANCH  15  18
ATOM     18  O   UNL     1       5.935  -3.976 -25.156  1.00  0.00    -0.508 OA
ATOM     19  H   UNL     1       6.604  -4.071 -24.392  1.00  0.00     0.293 HD
ENDBRANCH  15  18
ENDBRANCH   1  12
BRANCH  11  20
ATOM     20  C   UNL     1       1.688   5.529 -26.663  1.00  0.00     0.188 C 
ATOM     21  C   UNL     1       2.676   6.059 -27.739  1.00  0.00     0.179 C 
ATOM     22  O   UNL     1       2.393   5.312 -25.438  1.00  0.00    -0.362 OA
ATOM     23  C   UNL     1       3.362   7.342 -27.201  1.00  0.00     0.177 C 
ATOM     24  C   UNL     1       2.867   6.540 -24.911  1.00  0.00     0.176 C 
ATOM     25  C   UNL     1       4.001   7.079 -25.818  1.00  0.00     0.177 C 
BRANCH  21  26
ATOM     26  O   UNL     1       3.648   5.082 -28.025  1.00  0.00    -0.387 OA
ATOM     27  H   UNL     1       3.265   4.207 -27.739  1.00  0.00     0.211 HD
ENDBRANCH  21  26
BRANCH  23  28
ATOM     28  O   UNL     1       4.338   7.796 -28.116  1.00  0.00    -0.387 OA
ATOM     29  H   UNL     1       4.947   8.400 -27.615  1.00  0.00     0.211 HD
ENDBRANCH  23  28
BRANCH  24  30
ATOM     30  C   UNL     1       3.234   6.398 -23.404  1.00  0.00     0.191 C 
BRANCH  30  31
ATOM     31  O   UNL     1       4.628   6.295 -23.178  1.00  0.00    -0.394 OA
ATOM     32  H   UNL     1       4.791   5.582 -22.503  1.00  0.00     0.210 HD
ENDBRANCH  30  31
ENDBRANCH  24  30
BRANCH  25  33
ATOM     33  O   UNL     1       5.090   6.187 -25.992  1.00  0.00    -0.388 OA
ATOM     34  H   UNL     1       4.768   5.256 -25.852  1.00  0.00     0.211 HD
ENDBRANCH  25  33
ENDBRANCH  11  20
BRANCH  10  35
ATOM     35  O   UNL     1      -1.110   5.413 -27.866  1.00  0.00    -0.507 OA
ATOM     36  H   UNL     1      -1.822   5.477 -28.586  1.00  0.00     0.293 HD
ENDBRANCH  10  35
TORSDOF 9
ENDMDL
