MODEL 1
REMARK VINA RESULT:    -4.466      0.000      0.000
REMARK INTER + INTRA:          -8.728
REMARK INTER:                  -7.077
REMARK INTRA:                  -1.652
REMARK UNBOUND:                -1.652
REMARK SMILES CCCCCCCCCCCC(=O)[O-]
REMARK SMILES IDX 7 1 8 2 9 3 10 4 11 5 12 6 13 7 14 8 6 9 5 10 4 11 3 12 2 13
REMARK SMILES IDX 1 14
REMARK H PARENT
REMARK Flexibility Score: inf
ROOT
ATOM      1  C   UNL     1     138.127 130.131 129.399  1.00  0.00     0.000 C 
ENDROOT
BRANCH   1   2
ATOM      2  C   UNL     1     138.919 130.884 130.483  1.00  0.00     0.000 C 
BRANCH   2   3
ATOM      3  C   UNL     1     139.628 132.138 129.942  1.00  0.00     0.000 C 
BRANCH   3   4
ATOM      4  C   UNL     1     139.199 133.460 130.605  1.00  0.00     0.006 C 
BRANCH   4   5
ATOM      5  C   UNL     1     139.802 134.694 129.921  1.00  0.00     0.053 C 
BRANCH   5   6
ATOM      6  C   UNL     1     139.044 135.926 130.303  1.00  0.00     0.041 C 
ATOM      7  O   UNL     1     137.856 135.837 130.710  1.00  0.00    -0.550 OA
ATOM      8  O   UNL     1     139.665 137.167 130.256  1.00  0.00    -0.550 OA
ENDBRANCH   5   6
ENDBRANCH   4   5
ENDBRANCH   3   4
ENDBRANCH   2   3
ENDBRANCH   1   2
BRANCH   1   9
ATOM      9  C   UNL     1     138.147 130.854 128.043  1.00  0.00     0.000 C 
BRANCH   9  10
ATOM     10  C   UNL     1     136.762 131.382 127.637  1.00  0.00    -0.000 C 
BRANCH  10  11
ATOM     11  C   UNL     1     136.754 132.917 127.586  1.00  0.00    -0.000 C 
BRANCH  11  12
ATOM     12  C   UNL     1     135.957 133.551 128.742  1.00  0.00    -0.000 C 
BRANCH  12  13
ATOM     13  C   UNL     1     135.220 132.548 129.646  1.00  0.00    -0.003 C 
ATOM     14  C   UNL     1     135.610 132.669 131.119  1.00  0.00     0.004 C 
ENDBRANCH  12  13
ENDBRANCH  11  12
ENDBRANCH  10  11
ENDBRANCH   9  10
ENDBRANCH   1   9
TORSDOF 10
ENDMDL
MODEL 2
REMARK VINA RESULT:    -4.448      2.434      4.655
REMARK INTER + INTRA:          -8.700
REMARK INTER:                  -7.229
REMARK INTRA:                  -1.471
REMARK UNBOUND:                -1.652
REMARK SMILES CCCCCCCCCCCC(=O)[O-]
REMARK SMILES IDX 7 1 8 2 9 3 10 4 11 5 12 6 13 7 14 8 6 9 5 10 4 11 3 12 2 13
REMARK SMILES IDX 1 14
REMARK H PARENT
REMARK Flexibility Score: inf
ROOT
ATOM      1  C   UNL     1     139.389 134.452 129.563  1.00  0.00     0.000 C 
ENDROOT
BRANCH   1   2
ATOM      2  C   UNL     1     138.062 134.395 128.786  1.00  0.00     0.000 C 
BRANCH   2   3
ATOM      3  C   UNL     1     136.830 134.402 129.707  1.00  0.00     0.000 C 
BRANCH   3   4
ATOM      4  C   UNL     1     135.517 133.959 129.035  1.00  0.00     0.006 C 
BRANCH   4   5
ATOM      5  C   UNL     1     134.341 133.877 130.016  1.00  0.00     0.053 C 
BRANCH   5   6
ATOM      6  C   UNL     1     134.399 132.601 130.795  1.00  0.00     0.041 C 
ATOM      7  O   UNL     1     134.200 131.499 130.221  1.00  0.00    -0.550 OA
ATOM      8  O   UNL     1     134.721 132.626 132.146  1.00  0.00    -0.550 OA
ENDBRANCH   5   6
ENDBRANCH   4   5
ENDBRANCH   3   4
ENDBRANCH   2   3
ENDBRANCH   1   2
BRANCH   1   9
ATOM      9  C   UNL     1     139.444 133.433 130.713  1.00  0.00     0.000 C 
BRANCH   9  10
ATOM     10  C   UNL     1     139.577 131.987 130.214  1.00  0.00    -0.000 C 
BRANCH  10  11
ATOM     11  C   UNL     1     138.380 131.137 130.668  1.00  0.00    -0.000 C 
BRANCH  11  12
ATOM     12  C   UNL     1     137.558 130.582 129.490  1.00  0.00    -0.000 C 
BRANCH  12  13
ATOM     13  C   UNL     1     138.217 130.740 128.109  1.00  0.00    -0.003 C 
ATOM     14  C   UNL     1     137.266 131.304 127.053  1.00  0.00     0.004 C 
ENDBRANCH  12  13
ENDBRANCH  11  12
ENDBRANCH  10  11
ENDBRANCH   9  10
ENDBRANCH   1   9
TORSDOF 10
ENDMDL
MODEL 3
REMARK VINA RESULT:    -4.447      1.008      1.499
REMARK INTER + INTRA:          -8.699
REMARK INTER:                  -7.169
REMARK INTRA:                  -1.529
REMARK UNBOUND:                -1.652
REMARK SMILES CCCCCCCCCCCC(=O)[O-]
REMARK SMILES IDX 7 1 8 2 9 3 10 4 11 5 12 6 13 7 14 8 6 9 5 10 4 11 3 12 2 13
REMARK SMILES IDX 1 14
REMARK H PARENT
REMARK Flexibility Score: inf
ROOT
ATOM      1  C   UNL     1     139.289 131.230 129.569  1.00  0.00     0.000 C 
ENDROOT
BRANCH   1   2
ATOM      2  C   UNL     1     138.390 131.850 130.654  1.00  0.00     0.000 C 
BRANCH   2   3
ATOM      3  C   UNL     1     138.802 133.286 131.021  1.00  0.00     0.000 C 
BRANCH   3   4
ATOM      4  C   UNL     1     139.642 134.012 129.953  1.00  0.00     0.006 C 
BRANCH   4   5
ATOM      5  C   UNL     1     138.959 135.275 129.412  1.00  0.00     0.053 C 
BRANCH   5   6
ATOM      6  C   UNL     1     138.704 136.246 130.521  1.00  0.00     0.041 C 
ATOM      7  O   UNL     1     139.667 136.795 131.116  1.00  0.00    -0.550 OA
ATOM      8  O   UNL     1     137.400 136.583 130.863  1.00  0.00    -0.550 OA
ENDBRANCH   5   6
ENDBRANCH   4   5
ENDBRANCH   3   4
ENDBRANCH   2   3
ENDBRANCH   1   2
BRANCH   1   9
ATOM      9  C   UNL     1     138.482 130.562 128.444  1.00  0.00     0.000 C 
BRANCH   9  10
ATOM     10  C   UNL     1     137.055 131.121 128.331  1.00  0.00    -0.000 C 
BRANCH  10  11
ATOM     11  C   UNL     1     136.969 132.187 127.228  1.00  0.00    -0.000 C 
BRANCH  11  12
ATOM     12  C   UNL     1     136.345 133.506 127.717  1.00  0.00    -0.000 C 
BRANCH  12  13
ATOM     13  C   UNL     1     135.501 133.388 128.998  1.00  0.00    -0.003 C 
ATOM     14  C   UNL     1     134.852 134.708 129.412  1.00  0.00     0.004 C 
ENDBRANCH  12  13
ENDBRANCH  11  12
ENDBRANCH  10  11
ENDBRANCH   9  10
ENDBRANCH   1   9
TORSDOF 10
ENDMDL
MODEL 4
REMARK VINA RESULT:    -4.428      1.602      3.543
REMARK INTER + INTRA:          -8.668
REMARK INTER:                  -7.227
REMARK INTRA:                  -1.441
REMARK UNBOUND:                -1.652
REMARK SMILES CCCCCCCCCCCC(=O)[O-]
REMARK SMILES IDX 7 1 8 2 9 3 10 4 11 5 12 6 13 7 14 8 6 9 5 10 4 11 3 12 2 13
REMARK SMILES IDX 1 14
REMARK H PARENT
REMARK Flexibility Score: inf
ROOT
ATOM      1  C   UNL     1     134.131 133.637 129.714  1.00  0.00     0.000 C 
ENDROOT
BRANCH   1   2
ATOM      2  C   UNL     1     135.434 134.238 129.157  1.00  0.00     0.000 C 
BRANCH   2   3
ATOM      3  C   UNL     1     136.584 134.219 130.179  1.00  0.00     0.000 C 
BRANCH   3   4
ATOM      4  C   UNL     1     137.957 134.632 129.616  1.00  0.00     0.006 C 
BRANCH   4   5
ATOM      5  C   UNL     1     139.129 133.991 130.368  1.00  0.00     0.053 C 
BRANCH   5   6
ATOM      6  C   UNL     1     140.139 135.029 130.746  1.00  0.00     0.041 C 
ATOM      7  O   UNL     1     140.169 136.131 130.140  1.00  0.00    -0.550 OA
ATOM      8  O   UNL     1     141.012 134.797 131.800  1.00  0.00    -0.550 OA
ENDBRANCH   5   6
ENDBRANCH   4   5
ENDBRANCH   3   4
ENDBRANCH   2   3
ENDBRANCH   1   2
BRANCH   1   9
ATOM      9  C   UNL     1     134.385 132.483 130.697  1.00  0.00     0.000 C 
BRANCH   9  10
ATOM     10  C   UNL     1     133.987 131.117 130.118  1.00  0.00    -0.000 C 
BRANCH  10  11
ATOM     11  C   UNL     1     135.123 130.531 129.266  1.00  0.00    -0.000 C 
BRANCH  11  12
ATOM     12  C   UNL     1     136.498 130.626 129.954  1.00  0.00    -0.000 C 
BRANCH  12  13
ATOM     13  C   UNL     1     137.692 130.776 128.995  1.00  0.00    -0.003 C 
ATOM     14  C   UNL     1     137.297 131.333 127.628  1.00  0.00     0.004 C 
ENDBRANCH  12  13
ENDBRANCH  11  12
ENDBRANCH  10  11
ENDBRANCH   9  10
ENDBRANCH   1   9
TORSDOF 10
ENDMDL
MODEL 5
REMARK VINA RESULT:    -4.397      2.378      4.419
REMARK INTER + INTRA:          -8.619
REMARK INTER:                  -7.049
REMARK INTRA:                  -1.570
REMARK UNBOUND:                -1.652
REMARK SMILES CCCCCCCCCCCC(=O)[O-]
REMARK SMILES IDX 7 1 8 2 9 3 10 4 11 5 12 6 13 7 14 8 6 9 5 10 4 11 3 12 2 13
REMARK SMILES IDX 1 14
REMARK H PARENT
REMARK Flexibility Score: inf
ROOT
ATOM      1  C   UNL     1     138.121 130.861 128.056  1.00  0.00     0.000 C 
ENDROOT
BRANCH   1   2
ATOM      2  C   UNL     1     136.798 131.516 127.623  1.00  0.00     0.000 C 
BRANCH   2   3
ATOM      3  C   UNL     1     136.795 133.042 127.818  1.00  0.00     0.000 C 
BRANCH   3   4
ATOM      4  C   UNL     1     135.729 133.567 128.799  1.00  0.00     0.006 C 
BRANCH   4   5
ATOM      5  C   UNL     1     135.982 133.129 130.247  1.00  0.00     0.053 C 
BRANCH   5   6
ATOM      6  C   UNL     1     134.816 132.350 130.769  1.00  0.00     0.041 C 
ATOM      7  O   UNL     1     134.387 132.558 131.933  1.00  0.00    -0.550 OA
ATOM      8  O   UNL     1     134.173 131.430 129.951  1.00  0.00    -0.550 OA
ENDBRANCH   5   6
ENDBRANCH   4   5
ENDBRANCH   3   4
ENDBRANCH   2   3
ENDBRANCH   1   2
BRANCH   1   9
ATOM      9  C   UNL     1     138.013 130.153 129.417  1.00  0.00     0.000 C 
BRANCH   9  10
ATOM     10  C   UNL     1     138.939 130.769 130.476  1.00  0.00    -0.000 C 
BRANCH  10  11
ATOM     11  C   UNL     1     139.763 131.921 129.881  1.00  0.00    -0.000 C 
BRANCH  11  12
ATOM     12  C   UNL     1     139.559 133.253 130.627  1.00  0.00    -0.000 C 
BRANCH  12  13
ATOM     13  C   UNL     1     139.921 134.511 129.819  1.00  0.00    -0.003 C 
ATOM     14  C   UNL     1     138.825 135.577 129.847  1.00  0.00     0.004 C 
ENDBRANCH  12  13
ENDBRANCH  11  12
ENDBRANCH  10  11
ENDBRANCH   9  10
ENDBRANCH   1   9
TORSDOF 10
ENDMDL
MODEL 6
REMARK VINA RESULT:    -4.393      1.265      2.934
REMARK INTER + INTRA:          -8.613
REMARK INTER:                  -7.060
REMARK INTRA:                  -1.553
REMARK UNBOUND:                -1.652
REMARK SMILES CCCCCCCCCCCC(=O)[O-]
REMARK SMILES IDX 7 1 8 2 9 3 10 4 11 5 12 6 13 7 14 8 6 9 5 10 4 11 3 12 2 13
REMARK SMILES IDX 1 14
REMARK H PARENT
REMARK Flexibility Score: inf
ROOT
ATOM      1  C   UNL     1     135.786 132.274 130.948  1.00  0.00     0.000 C 
ENDROOT
BRANCH   1   2
ATOM      2  C   UNL     1     136.901 133.330 131.045  1.00  0.00     0.000 C 
BRANCH   2   3
ATOM      3  C   UNL     1     136.916 134.294 129.846  1.00  0.00     0.000 C 
BRANCH   3   4
ATOM      4  C   UNL     1     138.259 134.374 129.096  1.00  0.00     0.006 C 
BRANCH   4   5
ATOM      5  C   UNL     1     138.960 135.727 129.266  1.00  0.00     0.053 C 
BRANCH   5   6
ATOM      6  C   UNL     1     139.738 135.757 130.543  1.00  0.00     0.041 C 
ATOM      7  O   UNL     1     139.726 136.786 131.268  1.00  0.00    -0.550 OA
ATOM      8  O   UNL     1     140.435 134.629 130.959  1.00  0.00    -0.550 OA
ENDBRANCH   5   6
ENDBRANCH   4   5
ENDBRANCH   3   4
ENDBRANCH   2   3
ENDBRANCH   1   2
BRANCH   1   9
ATOM      9  C   UNL     1     135.212 132.149 129.528  1.00  0.00     0.000 C 
BRANCH   9  10
ATOM     10  C   UNL     1     135.762 130.926 128.776  1.00  0.00    -0.000 C 
BRANCH  10  11
ATOM     11  C   UNL     1     136.707 131.358 127.644  1.00  0.00    -0.000 C 
BRANCH  11  12
ATOM     12  C   UNL     1     138.143 130.832 127.829  1.00  0.00    -0.000 C 
BRANCH  12  13
ATOM     13  C   UNL     1     138.467 130.319 129.243  1.00  0.00    -0.003 C 
ATOM     14  C   UNL     1     139.653 131.038 129.885  1.00  0.00     0.004 C 
ENDBRANCH  12  13
ENDBRANCH  11  12
ENDBRANCH  10  11
ENDBRANCH   9  10
ENDBRANCH   1   9
TORSDOF 10
ENDMDL
MODEL 7
REMARK VINA RESULT:    -4.298      2.606      4.716
REMARK INTER + INTRA:          -8.462
REMARK INTER:                  -6.993
REMARK INTRA:                  -1.469
REMARK UNBOUND:                -1.652
REMARK SMILES CCCCCCCCCCCC(=O)[O-]
REMARK SMILES IDX 7 1 8 2 9 3 10 4 11 5 12 6 13 7 14 8 6 9 5 10 4 11 3 12 2 13
REMARK SMILES IDX 1 14
REMARK H PARENT
REMARK Flexibility Score: inf
ROOT
ATOM      1  C   UNL     1     137.623 132.343 131.787  1.00  0.00     0.000 C 
ENDROOT
BRANCH   1   2
ATOM      2  C   UNL     1     136.202 132.723 131.332  1.00  0.00     0.000 C 
BRANCH   2   3
ATOM      3  C   UNL     1     136.187 133.899 130.341  1.00  0.00     0.000 C 
BRANCH   3   4
ATOM      4  C   UNL     1     135.576 133.577 128.964  1.00  0.00     0.006 C 
BRANCH   4   5
ATOM      5  C   UNL     1     136.634 133.250 127.903  1.00  0.00     0.053 C 
BRANCH   5   6
ATOM      6  C   UNL     1     136.709 131.773 127.678  1.00  0.00     0.041 C 
ATOM      7  O   UNL     1     137.640 131.285 126.987  1.00  0.00    -0.550 OA
ATOM      8  O   UNL     1     135.779 130.931 128.274  1.00  0.00    -0.550 OA
ENDBRANCH   5   6
ENDBRANCH   4   5
ENDBRANCH   3   4
ENDBRANCH   2   3
ENDBRANCH   1   2
BRANCH   1   9
ATOM      9  C   UNL     1     138.343 131.434 130.779  1.00  0.00     0.000 C 
BRANCH   9  10
ATOM     10  C   UNL     1     139.581 132.104 130.161  1.00  0.00    -0.000 C 
BRANCH  10  11
ATOM     11  C   UNL     1     139.847 133.470 130.813  1.00  0.00    -0.000 C 
BRANCH  11  12
ATOM     12  C   UNL     1     139.804 134.633 129.805  1.00  0.00    -0.000 C 
BRANCH  12  13
ATOM     13  C   UNL     1     139.909 136.035 130.429  1.00  0.00    -0.003 C 
ATOM     14  C   UNL     1     138.547 136.679 130.689  1.00  0.00     0.004 C 
ENDBRANCH  12  13
ENDBRANCH  11  12
ENDBRANCH  10  11
ENDBRANCH   9  10
ENDBRANCH   1   9
TORSDOF 10
ENDMDL
MODEL 8
REMARK VINA RESULT:    -4.289      1.267      2.103
REMARK INTER + INTRA:          -8.447
REMARK INTER:                  -6.975
REMARK INTRA:                  -1.472
REMARK UNBOUND:                -1.652
REMARK SMILES CCCCCCCCCCCC(=O)[O-]
REMARK SMILES IDX 7 1 8 2 9 3 10 4 11 5 12 6 13 7 14 8 6 9 5 10 4 11 3 12 2 13
REMARK SMILES IDX 1 14
REMARK H PARENT
REMARK Flexibility Score: inf
ROOT
ATOM      1  C   UNL     1     139.142 131.943 130.962  1.00  0.00     0.000 C 
ENDROOT
BRANCH   1   2
ATOM      2  C   UNL     1     139.625 133.403 131.030  1.00  0.00     0.000 C 
BRANCH   2   3
ATOM      3  C   UNL     1     139.559 134.117 129.670  1.00  0.00     0.000 C 
BRANCH   3   4
ATOM      4  C   UNL     1     138.174 134.679 129.299  1.00  0.00     0.006 C 
BRANCH   4   5
ATOM      5  C   UNL     1     137.397 135.204 130.513  1.00  0.00     0.053 C 
BRANCH   5   6
ATOM      6  C   UNL     1     137.620 136.674 130.680  1.00  0.00     0.041 C 
ATOM      7  O   UNL     1     136.657 137.476 130.570  1.00  0.00    -0.550 OA
ATOM      8  O   UNL     1     138.883 137.153 131.006  1.00  0.00    -0.550 OA
ENDBRANCH   5   6
ENDBRANCH   4   5
ENDBRANCH   3   4
ENDBRANCH   2   3
ENDBRANCH   1   2
BRANCH   1   9
ATOM      9  C   UNL     1     139.629 131.217 129.697  1.00  0.00     0.000 C 
BRANCH   9  10
ATOM     10  C   UNL     1     138.531 130.358 129.051  1.00  0.00    -0.000 C 
BRANCH  10  11
ATOM     11  C   UNL     1     137.844 131.118 127.907  1.00  0.00    -0.000 C 
BRANCH  11  12
ATOM     12  C   UNL     1     136.336 131.323 128.145  1.00  0.00    -0.000 C 
BRANCH  12  13
ATOM     13  C   UNL     1     135.830 130.865 129.523  1.00  0.00    -0.003 C 
ATOM     14  C   UNL     1     135.472 132.028 130.448  1.00  0.00     0.004 C 
ENDBRANCH  12  13
ENDBRANCH  11  12
ENDBRANCH  10  11
ENDBRANCH   9  10
ENDBRANCH   1   9
TORSDOF 10
ENDMDL
MODEL 9
REMARK VINA RESULT:    -4.235      3.100      5.376
REMARK INTER + INTRA:          -8.362
REMARK INTER:                  -6.997
REMARK INTRA:                  -1.365
REMARK UNBOUND:                -1.652
REMARK SMILES CCCCCCCCCCCC(=O)[O-]
REMARK SMILES IDX 7 1 8 2 9 3 10 4 11 5 12 6 13 7 14 8 6 9 5 10 4 11 3 12 2 13
REMARK SMILES IDX 1 14
REMARK H PARENT
REMARK Flexibility Score: inf
ROOT
ATOM      1  C   UNL     1     137.810 132.794 129.126  1.00  0.00     0.000 C 
ENDROOT
BRANCH   1   2
ATOM      2  C   UNL     1     136.770 133.853 128.721  1.00  0.00     0.000 C 
BRANCH   2   3
ATOM      3  C   UNL     1     135.760 134.158 129.841  1.00  0.00     0.000 C 
BRANCH   3   4
ATOM      4  C   UNL     1     134.360 133.549 129.634  1.00  0.00     0.006 C 
BRANCH   4   5
ATOM      5  C   UNL     1     134.014 132.478 130.676  1.00  0.00     0.053 C 
BRANCH   5   6
ATOM      6  C   UNL     1     134.016 131.119 130.050  1.00  0.00     0.041 C 
ATOM      7  O   UNL     1     133.196 130.245 130.432  1.00  0.00    -0.550 OA
ATOM      8  O   UNL     1     134.892 130.835 129.010  1.00  0.00    -0.550 OA
ENDBRANCH   5   6
ENDBRANCH   4   5
ENDBRANCH   3   4
ENDBRANCH   2   3
ENDBRANCH   1   2
BRANCH   1   9
ATOM      9  C   UNL     1     137.717 132.413 130.613  1.00  0.00     0.000 C 
BRANCH   9  10
ATOM     10  C   UNL     1     139.009 132.728 131.383  1.00  0.00    -0.000 C 
BRANCH  10  11
ATOM     11  C   UNL     1     139.995 133.511 130.503  1.00  0.00    -0.000 C 
BRANCH  11  12
ATOM     12  C   UNL     1     140.289 134.923 131.042  1.00  0.00    -0.000 C 
BRANCH  12  13
ATOM     13  C   UNL     1     139.719 136.072 130.192  1.00  0.00    -0.003 C 
ATOM     14  C   UNL     1     138.438 136.670 130.775  1.00  0.00     0.004 C 
ENDBRANCH  12  13
ENDBRANCH  11  12
ENDBRANCH  10  11
ENDBRANCH   9  10
ENDBRANCH   1   9
TORSDOF 10
ENDMDL
