MODEL 1
REMARK VINA RESULT:    10.186      0.000      0.000
REMARK INTER + INTRA:          15.056
REMARK INTER:                  15.545
REMARK INTRA:                  -0.489
REMARK UNBOUND:                -0.489
REMARK SMILES CCCCCCCCCCC(=O)[O-]
REMARK SMILES IDX 7 1 8 2 9 3 10 4 11 5 12 6 13 7 6 8 5 9 4 10 3 11 2 12 1 13
REMARK H PARENT
REMARK Flexibility Score: inf
ROOT
ATOM      1  C   UNL     1      53.357  55.553  26.193  1.00  0.00     0.000 C 
ENDROOT
BRANCH   1   2
ATOM      2  C   UNL     1      52.276  55.531  27.291  1.00  0.00     0.000 C 
BRANCH   2   3
ATOM      3  C   UNL     1      52.646  54.638  28.485  1.00  0.00     0.006 C 
BRANCH   3   4
ATOM      4  C   UNL     1      52.410  53.151  28.192  1.00  0.00     0.053 C 
BRANCH   4   5
ATOM      5  C   UNL     1      51.101  52.681  28.747  1.00  0.00     0.041 C 
ATOM      6  O   UNL     1      50.340  51.959  28.050  1.00  0.00    -0.550 OA
ATOM      7  O   UNL     1      50.738  53.010  30.047  1.00  0.00    -0.550 OA
ENDBRANCH   4   5
ENDBRANCH   3   4
ENDBRANCH   2   3
ENDBRANCH   1   2
BRANCH   1   8
ATOM      8  C   UNL     1      52.962  56.355  24.934  1.00  0.00     0.000 C 
BRANCH   8   9
ATOM      9  C   UNL     1      54.169  56.707  24.043  1.00  0.00    -0.000 C 
BRANCH   9  10
ATOM     10  C   UNL     1      55.298  55.666  24.134  1.00  0.00    -0.000 C 
BRANCH  10  11
ATOM     11  C   UNL     1      56.688  56.248  24.453  1.00  0.00    -0.000 C 
BRANCH  11  12
ATOM     12  C   UNL     1      56.717  57.123  25.725  1.00  0.00    -0.003 C 
ATOM     13  C   UNL     1      58.088  57.125  26.398  1.00  0.00     0.004 C 
ENDBRANCH  11  12
ENDBRANCH  10  11
ENDBRANCH   9  10
ENDBRANCH   8   9
ENDBRANCH   1   8
TORSDOF 9
ENDMDL
MODEL 2
REMARK VINA RESULT:    10.393      3.547      6.446
REMARK INTER + INTRA:          15.372
REMARK INTER:                  15.834
REMARK INTRA:                  -0.462
REMARK UNBOUND:                -0.489
REMARK SMILES CCCCCCCCCCC(=O)[O-]
REMARK SMILES IDX 7 1 8 2 9 3 10 4 11 5 12 6 13 7 6 8 5 9 4 10 3 11 2 12 1 13
REMARK H PARENT
REMARK Flexibility Score: inf
ROOT
ATOM      1  C   UNL     1      53.392  56.455  24.270  1.00  0.00     0.000 C 
ENDROOT
BRANCH   1   2
ATOM      2  C   UNL     1      54.657  55.612  24.029  1.00  0.00     0.000 C 
BRANCH   2   3
ATOM      3  C   UNL     1      55.930  56.459  23.882  1.00  0.00     0.006 C 
BRANCH   3   4
ATOM      4  C   UNL     1      56.341  57.123  25.202  1.00  0.00     0.053 C 
BRANCH   4   5
ATOM      5  C   UNL     1      57.526  56.443  25.816  1.00  0.00     0.041 C 
ATOM      6  O   UNL     1      58.432  57.122  26.366  1.00  0.00    -0.550 OA
ATOM      7  O   UNL     1      57.611  55.056  25.810  1.00  0.00    -0.550 OA
ENDBRANCH   4   5
ENDBRANCH   3   4
ENDBRANCH   2   3
ENDBRANCH   1   2
BRANCH   1   8
ATOM      8  C   UNL     1      52.577  56.032  25.512  1.00  0.00     0.000 C 
BRANCH   8   9
ATOM      9  C   UNL     1      53.454  55.445  26.634  1.00  0.00    -0.000 C 
BRANCH   9  10
ATOM     10  C   UNL     1      52.647  55.093  27.896  1.00  0.00    -0.000 C 
BRANCH  10  11
ATOM     11  C   UNL     1      52.354  53.592  28.076  1.00  0.00    -0.000 C 
BRANCH  11  12
ATOM     12  C   UNL     1      51.174  53.301  29.029  1.00  0.00    -0.003 C 
ATOM     13  C   UNL     1      50.571  51.916  28.801  1.00  0.00     0.004 C 
ENDBRANCH  11  12
ENDBRANCH  10  11
ENDBRANCH   9  10
ENDBRANCH   8   9
ENDBRANCH   1   8
TORSDOF 9
ENDMDL
MODEL 3
REMARK VINA RESULT:    11.340      9.949     11.483
REMARK INTER + INTRA:          16.817
REMARK INTER:                  17.199
REMARK INTRA:                  -0.382
REMARK UNBOUND:                -0.489
REMARK SMILES CCCCCCCCCCC(=O)[O-]
REMARK SMILES IDX 7 1 8 2 9 3 10 4 11 5 12 6 13 7 6 8 5 9 4 10 3 11 2 12 1 13
REMARK H PARENT
REMARK Flexibility Score: inf
ROOT
ATOM      1  C   UNL     1      57.244  47.756  18.295  1.00  0.00     0.000 C 
ENDROOT
BRANCH   1   2
ATOM      2  C   UNL     1      56.151  48.130  19.314  1.00  0.00     0.000 C 
BRANCH   2   3
ATOM      3  C   UNL     1      56.085  47.167  20.510  1.00  0.00     0.006 C 
BRANCH   3   4
ATOM      4  C   UNL     1      56.476  47.851  21.826  1.00  0.00     0.053 C 
BRANCH   4   5
ATOM      5  C   UNL     1      57.528  47.077  22.558  1.00  0.00     0.041 C 
ATOM      6  O   UNL     1      57.200  46.180  23.380  1.00  0.00    -0.550 OA
ATOM      7  O   UNL     1      58.872  47.321  22.305  1.00  0.00    -0.550 OA
ENDBRANCH   4   5
ENDBRANCH   3   4
ENDBRANCH   2   3
ENDBRANCH   1   2
BRANCH   1   8
ATOM      8  C   UNL     1      57.101  48.460  16.929  1.00  0.00     0.000 C 
BRANCH   8   9
ATOM      9  C   UNL     1      55.822  49.313  16.823  1.00  0.00    -0.000 C 
BRANCH   9  10
ATOM     10  C   UNL     1      55.883  50.336  15.675  1.00  0.00    -0.000 C 
BRANCH  10  11
ATOM     11  C   UNL     1      54.548  50.561  14.940  1.00  0.00    -0.000 C 
BRANCH  11  12
ATOM     12  C   UNL     1      53.373  49.748  15.525  1.00  0.00    -0.003 C 
ATOM     13  C   UNL     1      52.028  50.445  15.326  1.00  0.00     0.004 C 
ENDBRANCH  11  12
ENDBRANCH  10  11
ENDBRANCH   9  10
ENDBRANCH   8   9
ENDBRANCH   1   8
TORSDOF 9
ENDMDL
MODEL 4
REMARK VINA RESULT:    12.000     12.468     13.934
REMARK INTER + INTRA:          17.824
REMARK INTER:                  18.148
REMARK INTRA:                  -0.324
REMARK UNBOUND:                -0.489
REMARK SMILES CCCCCCCCCCC(=O)[O-]
REMARK SMILES IDX 7 1 8 2 9 3 10 4 11 5 12 6 13 7 6 8 5 9 4 10 3 11 2 12 1 13
REMARK H PARENT
REMARK Flexibility Score: inf
ROOT
ATOM      1  C   UNL     1      56.221  44.773  20.135  1.00  0.00     0.000 C 
ENDROOT
BRANCH   1   2
ATOM      2  C   UNL     1      55.455  46.108  20.174  1.00  0.00     0.000 C 
BRANCH   2   3
ATOM      3  C   UNL     1      56.374  47.335  20.073  1.00  0.00     0.006 C 
BRANCH   3   4
ATOM      4  C   UNL     1      56.477  48.093  21.403  1.00  0.00     0.053 C 
BRANCH   4   5
ATOM      5  C   UNL     1      57.285  47.332  22.409  1.00  0.00     0.041 C 
ATOM      6  O   UNL     1      58.533  47.234  22.277  1.00  0.00    -0.550 OA
ATOM      7  O   UNL     1      56.662  46.762  23.512  1.00  0.00    -0.550 OA
ENDBRANCH   4   5
ENDBRANCH   3   4
ENDBRANCH   2   3
ENDBRANCH   1   2
BRANCH   1   8
ATOM      8  C   UNL     1      55.313  43.524  20.156  1.00  0.00     0.000 C 
BRANCH   8   9
ATOM      9  C   UNL     1      55.955  42.326  20.883  1.00  0.00    -0.000 C 
BRANCH   9  10
ATOM     10  C   UNL     1      54.923  41.269  21.311  1.00  0.00    -0.000 C 
BRANCH  10  11
ATOM     11  C   UNL     1      55.213  39.843  20.806  1.00  0.00    -0.000 C 
BRANCH  11  12
ATOM     12  C   UNL     1      56.714  39.483  20.792  1.00  0.00    -0.003 C 
ATOM     13  C   UNL     1      56.971  38.045  21.238  1.00  0.00     0.004 C 
ENDBRANCH  11  12
ENDBRANCH  10  11
ENDBRANCH   9  10
ENDBRANCH   8   9
ENDBRANCH   1   8
TORSDOF 9
ENDMDL
MODEL 5
REMARK VINA RESULT:    12.242     10.398     11.922
REMARK INTER + INTRA:          18.195
REMARK INTER:                  18.714
REMARK INTRA:                  -0.519
REMARK UNBOUND:                -0.489
REMARK SMILES CCCCCCCCCCC(=O)[O-]
REMARK SMILES IDX 7 1 8 2 9 3 10 4 11 5 12 6 13 7 6 8 5 9 4 10 3 11 2 12 1 13
REMARK H PARENT
REMARK Flexibility Score: inf
ROOT
ATOM      1  C   UNL     1      56.072  47.868  18.954  1.00  0.00     0.000 C 
ENDROOT
BRANCH   1   2
ATOM      2  C   UNL     1      57.209  47.841  17.915  1.00  0.00     0.000 C 
BRANCH   2   3
ATOM      3  C   UNL     1      56.942  48.747  16.704  1.00  0.00     0.006 C 
BRANCH   3   4
ATOM      4  C   UNL     1      55.508  49.291  16.692  1.00  0.00     0.053 C 
BRANCH   4   5
ATOM      5  C   UNL     1      55.327  50.345  15.642  1.00  0.00     0.041 C 
ATOM      6  O   UNL     1      54.329  50.311  14.875  1.00  0.00    -0.550 OA
ATOM      7  O   UNL     1      56.243  51.383  15.535  1.00  0.00    -0.550 OA
ENDBRANCH   4   5
ENDBRANCH   3   4
ENDBRANCH   2   3
ENDBRANCH   1   2
BRANCH   1   8
ATOM      8  C   UNL     1      56.456  47.274  20.326  1.00  0.00     0.000 C 
BRANCH   8   9
ATOM      9  C   UNL     1      56.483  48.326  21.451  1.00  0.00    -0.000 C 
BRANCH   9  10
ATOM     10  C   UNL     1      57.256  47.850  22.692  1.00  0.00    -0.000 C 
BRANCH  10  11
ATOM     11  C   UNL     1      58.372  46.827  22.405  1.00  0.00    -0.000 C 
BRANCH  11  12
ATOM     12  C   UNL     1      59.796  47.400  22.572  1.00  0.00    -0.003 C 
ATOM     13  C   UNL     1      60.123  48.459  21.522  1.00  0.00     0.004 C 
ENDBRANCH  11  12
ENDBRANCH  10  11
ENDBRANCH   9  10
ENDBRANCH   8   9
ENDBRANCH   1   8
TORSDOF 9
ENDMDL
MODEL 6
REMARK VINA RESULT:    13.114     13.128     14.000
REMARK INTER + INTRA:          19.524
REMARK INTER:                  19.907
REMARK INTRA:                  -0.382
REMARK UNBOUND:                -0.489
REMARK SMILES CCCCCCCCCCC(=O)[O-]
REMARK SMILES IDX 7 1 8 2 9 3 10 4 11 5 12 6 13 7 6 8 5 9 4 10 3 11 2 12 1 13
REMARK H PARENT
REMARK Flexibility Score: inf
ROOT
ATOM      1  C   UNL     1      56.030  43.153  20.875  1.00  0.00     0.000 C 
ENDROOT
BRANCH   1   2
ATOM      2  C   UNL     1      54.977  42.036  20.746  1.00  0.00     0.000 C 
BRANCH   2   3
ATOM      3  C   UNL     1      55.329  40.777  21.552  1.00  0.00     0.006 C 
BRANCH   3   4
ATOM      4  C   UNL     1      55.482  39.540  20.657  1.00  0.00     0.053 C 
BRANCH   4   5
ATOM      5  C   UNL     1      56.762  38.814  20.936  1.00  0.00     0.041 C 
ATOM      6  O   UNL     1      57.865  39.320  20.596  1.00  0.00    -0.550 OA
ATOM      7  O   UNL     1      56.739  37.595  21.602  1.00  0.00    -0.550 OA
ENDBRANCH   4   5
ENDBRANCH   3   4
ENDBRANCH   2   3
ENDBRANCH   1   2
BRANCH   1   8
ATOM      8  C   UNL     1      55.939  44.237  19.779  1.00  0.00     0.000 C 
BRANCH   8   9
ATOM      9  C   UNL     1      55.392  45.578  20.303  1.00  0.00    -0.000 C 
BRANCH   9  10
ATOM     10  C   UNL     1      56.357  46.750  20.057  1.00  0.00    -0.000 C 
BRANCH  10  11
ATOM     11  C   UNL     1      56.417  47.787  21.195  1.00  0.00    -0.000 C 
BRANCH  11  12
ATOM     12  C   UNL     1      57.414  47.421  22.315  1.00  0.00    -0.003 C 
ATOM     13  C   UNL     1      56.732  46.737  23.499  1.00  0.00     0.004 C 
ENDBRANCH  11  12
ENDBRANCH  10  11
ENDBRANCH   9  10
ENDBRANCH   8   9
ENDBRANCH   1   8
TORSDOF 9
ENDMDL
