MODEL 1
REMARK VINA RESULT:    -4.675      0.000      0.000
REMARK INTER + INTRA:          -6.724
REMARK INTER:                  -6.315
REMARK INTRA:                  -0.409
REMARK UNBOUND:                -0.409
REMARK SMILES CCCCCCC=CC(=O)[O-]
REMARK SMILES IDX 5 1 6 2 7 3 8 4 9 5 10 6 11 7 4 8 3 9 2 10 1 11
REMARK H PARENT
REMARK Flexibility Score: inf
ROOT
ATOM      1  C   UNL     1      12.244   1.637  -1.473  1.00  0.00     0.004 C 
ENDROOT
BRANCH   1   2
ATOM      2  C   UNL     1      11.359   1.587  -0.215  1.00  0.00     0.027 C 
BRANCH   2   3
ATOM      3  C   UNL     1      10.309   2.662  -0.202  1.00  0.00    -0.025 C 
ATOM      4  C   UNL     1       9.963   3.289   0.928  1.00  0.00     0.020 C 
BRANCH   4   5
ATOM      5  C   UNL     1       8.934   4.340   0.962  1.00  0.00     0.064 C 
ATOM      6  O   UNL     1       7.900   4.265   0.248  1.00  0.00    -0.545 OA
ATOM      7  O   UNL     1       9.108   5.437   1.796  1.00  0.00    -0.545 OA
ENDBRANCH   4   5
ENDBRANCH   2   3
ENDBRANCH   1   2
BRANCH   1   8
ATOM      8  C   UNL     1      11.999   2.865  -2.369  1.00  0.00     0.000 C 
BRANCH   8   9
ATOM      9  C   UNL     1      11.557   2.488  -3.790  1.00  0.00    -0.000 C 
BRANCH   9  10
ATOM     10  C   UNL     1      11.496   0.966  -3.960  1.00  0.00    -0.003 C 
ATOM     11  C   UNL     1      11.620   0.568  -5.427  1.00  0.00     0.004 C 
ENDBRANCH   9  10
ENDBRANCH   8   9
ENDBRANCH   1   8
TORSDOF 6
ENDMDL
MODEL 2
REMARK VINA RESULT:    -4.573      3.283      3.898
REMARK INTER + INTRA:          -6.586
REMARK INTER:                  -6.273
REMARK INTRA:                  -0.313
REMARK UNBOUND:                -0.409
REMARK SMILES CCCCCCC=CC(=O)[O-]
REMARK SMILES IDX 5 1 6 2 7 3 8 4 9 5 10 6 11 7 4 8 3 9 2 10 1 11
REMARK H PARENT
REMARK Flexibility Score: inf
ROOT
ATOM      1  C   UNL     1      10.460   1.988  -2.451  1.00  0.00     0.004 C 
ENDROOT
BRANCH   1   2
ATOM      2  C   UNL     1      10.426   2.533  -1.013  1.00  0.00     0.027 C 
BRANCH   2   3
ATOM      3  C   UNL     1      11.358   1.798  -0.092  1.00  0.00    -0.025 C 
ATOM      4  C   UNL     1      12.100   0.770  -0.522  1.00  0.00     0.020 C 
BRANCH   4   5
ATOM      5  C   UNL     1      13.016   0.035   0.365  1.00  0.00     0.064 C 
ATOM      6  O   UNL     1      14.209  -0.190   0.029  1.00  0.00    -0.545 OA
ATOM      7  O   UNL     1      12.555  -0.422   1.593  1.00  0.00    -0.545 OA
ENDBRANCH   4   5
ENDBRANCH   2   3
ENDBRANCH   1   2
BRANCH   1   8
ATOM      8  C   UNL     1      11.435   2.730  -3.385  1.00  0.00     0.000 C 
BRANCH   8   9
ATOM      9  C   UNL     1      11.499   2.115  -4.790  1.00  0.00    -0.000 C 
BRANCH   9  10
ATOM     10  C   UNL     1      11.469   0.584  -4.722  1.00  0.00    -0.003 C 
ATOM     11  C   UNL     1      11.881  -0.036  -6.054  1.00  0.00     0.004 C 
ENDBRANCH   9  10
ENDBRANCH   8   9
ENDBRANCH   1   8
TORSDOF 6
ENDMDL
MODEL 3
REMARK VINA RESULT:    -4.570      0.953      1.547
REMARK INTER + INTRA:          -6.582
REMARK INTER:                  -6.121
REMARK INTRA:                  -0.461
REMARK UNBOUND:                -0.409
REMARK SMILES CCCCCCC=CC(=O)[O-]
REMARK SMILES IDX 5 1 6 2 7 3 8 4 9 5 10 6 11 7 4 8 3 9 2 10 1 11
REMARK H PARENT
REMARK Flexibility Score: inf
ROOT
ATOM      1  C   UNL     1      11.450   1.597  -0.355  1.00  0.00     0.004 C 
ENDROOT
BRANCH   1   2
ATOM      2  C   UNL     1      10.065   2.266  -0.404  1.00  0.00     0.027 C 
BRANCH   2   3
ATOM      3  C   UNL     1       9.827   3.190   0.756  1.00  0.00    -0.025 C 
ATOM      4  C   UNL     1       9.745   4.515   0.590  1.00  0.00     0.020 C 
BRANCH   4   5
ATOM      5  C   UNL     1       9.517   5.437   1.714  1.00  0.00     0.064 C 
ATOM      6  O   UNL     1       8.397   5.985   1.891  1.00  0.00    -0.545 OA
ATOM      7  O   UNL     1      10.556   5.709   2.595  1.00  0.00    -0.545 OA
ENDBRANCH   4   5
ENDBRANCH   2   3
ENDBRANCH   1   2
BRANCH   1   8
ATOM      8  C   UNL     1      12.237   1.675  -1.677  1.00  0.00     0.000 C 
BRANCH   8   9
ATOM      9  C   UNL     1      11.889   2.922  -2.503  1.00  0.00    -0.000 C 
BRANCH   9  10
ATOM     10  C   UNL     1      11.440   2.536  -3.917  1.00  0.00    -0.003 C 
ATOM     11  C   UNL     1      11.460   1.023  -4.110  1.00  0.00     0.004 C 
ENDBRANCH   9  10
ENDBRANCH   8   9
ENDBRANCH   1   8
TORSDOF 6
ENDMDL
MODEL 4
REMARK VINA RESULT:    -4.464      3.320      5.314
REMARK INTER + INTRA:          -6.438
REMARK INTER:                  -5.882
REMARK INTRA:                  -0.556
REMARK UNBOUND:                -0.409
REMARK SMILES CCCCCCC=CC(=O)[O-]
REMARK SMILES IDX 5 1 6 2 7 3 8 4 9 5 10 6 11 7 4 8 3 9 2 10 1 11
REMARK H PARENT
REMARK Flexibility Score: inf
ROOT
ATOM      1  C   UNL     1      10.177   2.205  -0.392  1.00  0.00     0.004 C 
ENDROOT
BRANCH   1   2
ATOM      2  C   UNL     1      11.585   1.626  -0.617  1.00  0.00     0.027 C 
BRANCH   2   3
ATOM      3  C   UNL     1      12.000   1.660  -2.060  1.00  0.00    -0.025 C 
ATOM      4  C   UNL     1      11.102   1.591  -3.050  1.00  0.00     0.020 C 
BRANCH   4   5
ATOM      5  C   UNL     1      11.489   1.617  -4.469  1.00  0.00     0.064 C 
ATOM      6  O   UNL     1      11.522   2.697  -5.117  1.00  0.00    -0.545 OA
ATOM      7  O   UNL     1      11.824   0.430  -5.107  1.00  0.00    -0.545 OA
ENDBRANCH   4   5
ENDBRANCH   2   3
ENDBRANCH   1   2
BRANCH   1   8
ATOM      8  C   UNL     1      10.056   3.103   0.854  1.00  0.00     0.000 C 
BRANCH   8   9
ATOM      9  C   UNL     1       9.605   4.532   0.517  1.00  0.00    -0.000 C 
BRANCH   9  10
ATOM     10  C   UNL     1       9.521   4.738  -1.000  1.00  0.00    -0.003 C 
ATOM     11  C   UNL     1      10.664   5.615  -1.502  1.00  0.00     0.004 C 
ENDBRANCH   9  10
ENDBRANCH   8   9
ENDBRANCH   1   8
TORSDOF 6
ENDMDL
MODEL 5
REMARK VINA RESULT:    -4.408      3.352      6.057
REMARK INTER + INTRA:          -6.364
REMARK INTER:                  -6.160
REMARK INTRA:                  -0.204
REMARK UNBOUND:                -0.409
REMARK SMILES CCCCCCC=CC(=O)[O-]
REMARK SMILES IDX 5 1 6 2 7 3 8 4 9 5 10 6 11 7 4 8 3 9 2 10 1 11
REMARK H PARENT
REMARK Flexibility Score: inf
ROOT
ATOM      1  C   UNL     1      10.538   1.929  -0.425  1.00  0.00     0.004 C 
ENDROOT
BRANCH   1   2
ATOM      2  C   UNL     1      11.919   1.787  -1.088  1.00  0.00     0.027 C 
BRANCH   2   3
ATOM      3  C   UNL     1      11.894   2.109  -2.555  1.00  0.00    -0.025 C 
ATOM      4  C   UNL     1      11.537   1.196  -3.466  1.00  0.00     0.020 C 
BRANCH   4   5
ATOM      5  C   UNL     1      11.511   1.490  -4.907  1.00  0.00     0.064 C 
ATOM      6  O   UNL     1      11.356   2.666  -5.331  1.00  0.00    -0.545 OA
ATOM      7  O   UNL     1      11.657   0.451  -5.817  1.00  0.00    -0.545 OA
ENDBRANCH   4   5
ENDBRANCH   2   3
ENDBRANCH   1   2
BRANCH   1   8
ATOM      8  C   UNL     1      10.033   3.380  -0.321  1.00  0.00     0.000 C 
BRANCH   8   9
ATOM      9  C   UNL     1       9.890   3.858   1.132  1.00  0.00    -0.000 C 
BRANCH   9  10
ATOM     10  C   UNL     1       9.741   5.382   1.196  1.00  0.00    -0.003 C 
ATOM     11  C   UNL     1      10.317   5.940   2.494  1.00  0.00     0.004 C 
ENDBRANCH   9  10
ENDBRANCH   8   9
ENDBRANCH   1   8
TORSDOF 6
ENDMDL
MODEL 6
REMARK VINA RESULT:    -4.309      3.391      5.283
REMARK INTER + INTRA:          -6.230
REMARK INTER:                  -5.731
REMARK INTRA:                  -0.499
REMARK UNBOUND:                -0.409
REMARK SMILES CCCCCCC=CC(=O)[O-]
REMARK SMILES IDX 5 1 6 2 7 3 8 4 9 5 10 6 11 7 4 8 3 9 2 10 1 11
REMARK H PARENT
REMARK Flexibility Score: inf
ROOT
ATOM      1  C   UNL     1      10.090   2.026  -1.967  1.00  0.00     0.004 C 
ENDROOT
BRANCH   1   2
ATOM      2  C   UNL     1      11.583   2.389  -2.061  1.00  0.00     0.027 C 
BRANCH   2   3
ATOM      3  C   UNL     1      12.463   1.417  -1.327  1.00  0.00    -0.025 C 
ATOM      4  C   UNL     1      12.112   0.916  -0.137  1.00  0.00     0.020 C 
BRANCH   4   5
ATOM      5  C   UNL     1      12.962  -0.033   0.600  1.00  0.00     0.064 C 
ATOM      6  O   UNL     1      14.134  -0.292   0.218  1.00  0.00    -0.545 OA
ATOM      7  O   UNL     1      12.462  -0.655   1.736  1.00  0.00    -0.545 OA
ENDBRANCH   4   5
ENDBRANCH   2   3
ENDBRANCH   1   2
BRANCH   1   8
ATOM      8  C   UNL     1       9.183   3.193  -1.537  1.00  0.00     0.000 C 
BRANCH   8   9
ATOM      9  C   UNL     1       9.894   4.191  -0.611  1.00  0.00    -0.000 C 
BRANCH   9  10
ATOM     10  C   UNL     1       9.561   3.910   0.858  1.00  0.00    -0.003 C 
ATOM     11  C   UNL     1       9.793   5.144   1.724  1.00  0.00     0.004 C 
ENDBRANCH   9  10
ENDBRANCH   8   9
ENDBRANCH   1   8
TORSDOF 6
ENDMDL
MODEL 7
REMARK VINA RESULT:    -4.158      1.645      3.067
REMARK INTER + INTRA:          -6.026
REMARK INTER:                  -5.851
REMARK INTRA:                  -0.175
REMARK UNBOUND:                -0.409
REMARK SMILES CCCCCCC=CC(=O)[O-]
REMARK SMILES IDX 5 1 6 2 7 3 8 4 9 5 10 6 11 7 4 8 3 9 2 10 1 11
REMARK H PARENT
REMARK Flexibility Score: inf
ROOT
ATOM      1  C   UNL     1      10.728   2.062  -2.321  1.00  0.00     0.004 C 
ENDROOT
BRANCH   1   2
ATOM      2  C   UNL     1       9.646   2.100  -1.227  1.00  0.00     0.027 C 
BRANCH   2   3
ATOM      3  C   UNL     1       9.566   3.431  -0.536  1.00  0.00    -0.025 C 
ATOM      4  C   UNL     1       8.895   3.586   0.611  1.00  0.00     0.020 C 
BRANCH   4   5
ATOM      5  C   UNL     1       8.801   4.882   1.300  1.00  0.00     0.064 C 
ATOM      6  O   UNL     1       9.834   5.511   1.650  1.00  0.00    -0.545 OA
ATOM      7  O   UNL     1       7.550   5.421   1.572  1.00  0.00    -0.545 OA
ENDBRANCH   4   5
ENDBRANCH   2   3
ENDBRANCH   1   2
BRANCH   1   8
ATOM      8  C   UNL     1      12.108   1.590  -1.827  1.00  0.00     0.000 C 
BRANCH   8   9
ATOM      9  C   UNL     1      12.117   1.235  -0.333  1.00  0.00    -0.000 C 
BRANCH   9  10
ATOM     10  C   UNL     1      13.111   0.104  -0.043  1.00  0.00    -0.003 C 
ATOM     11  C   UNL     1      12.915  -0.456   1.362  1.00  0.00     0.004 C 
ENDBRANCH   9  10
ENDBRANCH   8   9
ENDBRANCH   1   8
TORSDOF 6
ENDMDL
MODEL 8
REMARK VINA RESULT:    -4.122      2.870      5.069
REMARK INTER + INTRA:          -5.977
REMARK INTER:                  -5.557
REMARK INTRA:                  -0.420
REMARK UNBOUND:                -0.409
REMARK SMILES CCCCCCC=CC(=O)[O-]
REMARK SMILES IDX 5 1 6 2 7 3 8 4 9 5 10 6 11 7 4 8 3 9 2 10 1 11
REMARK H PARENT
REMARK Flexibility Score: inf
ROOT
ATOM      1  C   UNL     1      12.293   1.914  -1.787  1.00  0.00     0.004 C 
ENDROOT
BRANCH   1   2
ATOM      2  C   UNL     1      11.552   1.428  -3.045  1.00  0.00     0.027 C 
BRANCH   2   3
ATOM      3  C   UNL     1      11.393   2.509  -4.077  1.00  0.00    -0.025 C 
ATOM      4  C   UNL     1      10.681   3.614  -3.828  1.00  0.00     0.020 C 
BRANCH   4   5
ATOM      5  C   UNL     1      10.509   4.682  -4.826  1.00  0.00     0.064 C 
ATOM      6  O   UNL     1       9.891   5.743  -4.546  1.00  0.00    -0.545 OA
ATOM      7  O   UNL     1      11.035   4.514  -6.101  1.00  0.00    -0.545 OA
ENDBRANCH   4   5
ENDBRANCH   2   3
ENDBRANCH   1   2
BRANCH   1   8
ATOM      8  C   UNL     1      11.578   1.580  -0.465  1.00  0.00     0.000 C 
BRANCH   8   9
ATOM      9  C   UNL     1      10.143   2.124  -0.410  1.00  0.00    -0.000 C 
BRANCH   9  10
ATOM     10  C   UNL     1       9.943   3.025   0.814  1.00  0.00    -0.003 C 
ATOM     11  C   UNL     1       9.203   4.306   0.443  1.00  0.00     0.004 C 
ENDBRANCH   9  10
ENDBRANCH   8   9
ENDBRANCH   1   8
TORSDOF 6
ENDMDL
MODEL 9
REMARK VINA RESULT:    -4.030      3.156      4.966
REMARK INTER + INTRA:          -5.852
REMARK INTER:                  -5.131
REMARK INTRA:                  -0.721
REMARK UNBOUND:                -0.409
REMARK SMILES CCCCCCC=CC(=O)[O-]
REMARK SMILES IDX 5 1 6 2 7 3 8 4 9 5 10 6 11 7 4 8 3 9 2 10 1 11
REMARK H PARENT
REMARK Flexibility Score: inf
ROOT
ATOM      1  C   UNL     1       8.671   4.639   1.065  1.00  0.00     0.004 C 
ENDROOT
BRANCH   1   2
ATOM      2  C   UNL     1       8.881   3.134   0.824  1.00  0.00     0.027 C 
BRANCH   2   3
ATOM      3  C   UNL     1      10.286   2.804   0.405  1.00  0.00    -0.025 C 
ATOM      4  C   UNL     1      10.538   2.100  -0.704  1.00  0.00     0.020 C 
BRANCH   4   5
ATOM      5  C   UNL     1      11.906   1.763  -1.129  1.00  0.00     0.064 C 
ATOM      6  O   UNL     1      12.613   0.954  -0.471  1.00  0.00    -0.545 OA
ATOM      7  O   UNL     1      12.428   2.349  -2.275  1.00  0.00    -0.545 OA
ENDBRANCH   4   5
ENDBRANCH   2   3
ENDBRANCH   1   2
BRANCH   1   8
ATOM      8  C   UNL     1       9.974   5.459   1.113  1.00  0.00     0.000 C 
BRANCH   8   9
ATOM      9  C   UNL     1       9.930   6.701   0.211  1.00  0.00    -0.000 C 
BRANCH   9  10
ATOM     10  C   UNL     1       9.781   6.306  -1.262  1.00  0.00    -0.003 C 
ATOM     11  C   UNL     1      11.076   5.714  -1.809  1.00  0.00     0.004 C 
ENDBRANCH   9  10
ENDBRANCH   8   9
ENDBRANCH   1   8
TORSDOF 6
ENDMDL
