MODEL 1
REMARK VINA RESULT:    -3.406      0.000      0.000
REMARK INTER + INTRA:          -3.829
REMARK INTER:                  -3.805
REMARK INTRA:                  -0.025
REMARK UNBOUND:                -0.025
REMARK SMILES CCCC(=O)[O-]
REMARK SMILES IDX 3 1 4 2 5 3 6 4 2 5 1 6
REMARK H PARENT
REMARK Flexibility Score: inf
ROOT
ATOM      1  C   UNL     1     160.177 146.351 155.035  1.00  0.00     0.052 C 
ENDROOT
BRANCH   1   2
ATOM      2  C   UNL     1     160.461 147.815 154.897  1.00  0.00     0.041 C 
ATOM      3  O   UNL     1     161.589 148.274 155.216  1.00  0.00    -0.550 OA
ATOM      4  O   UNL     1     159.469 148.677 154.447  1.00  0.00    -0.550 OA
ENDBRANCH   1   2
BRANCH   1   5
ATOM      5  C   UNL     1     160.036 145.666 153.669  1.00  0.00     0.003 C 
ATOM      6  C   UNL     1     158.578 145.544 153.228  1.00  0.00     0.004 C 
ENDBRANCH   1   5
TORSDOF 2
ENDMDL
MODEL 2
REMARK VINA RESULT:    -3.398      2.241      3.238
REMARK INTER + INTRA:          -3.821
REMARK INTER:                  -3.815
REMARK INTRA:                  -0.005
REMARK UNBOUND:                -0.025
REMARK SMILES CCCC(=O)[O-]
REMARK SMILES IDX 3 1 4 2 5 3 6 4 2 5 1 6
REMARK H PARENT
REMARK Flexibility Score: inf
ROOT
ATOM      1  C   UNL     1     160.245 146.208 154.742  1.00  0.00     0.052 C 
ENDROOT
BRANCH   1   2
ATOM      2  C   UNL     1     159.588 145.729 153.484  1.00  0.00     0.041 C 
ATOM      3  O   UNL     1     160.227 145.014 152.668  1.00  0.00    -0.550 OA
ATOM      4  O   UNL     1     158.281 146.101 153.196  1.00  0.00    -0.550 OA
ENDBRANCH   1   2
BRANCH   1   5
ATOM      5  C   UNL     1     160.193 147.737 154.865  1.00  0.00     0.003 C 
ATOM      6  C   UNL     1     161.299 148.285 155.767  1.00  0.00     0.004 C 
ENDBRANCH   1   5
TORSDOF 2
ENDMDL
MODEL 3
REMARK VINA RESULT:    -3.124      3.059      3.729
REMARK INTER + INTRA:          -3.514
REMARK INTER:                  -3.481
REMARK INTRA:                  -0.033
REMARK UNBOUND:                -0.025
REMARK SMILES CCCC(=O)[O-]
REMARK SMILES IDX 3 1 4 2 5 3 6 4 2 5 1 6
REMARK H PARENT
REMARK Flexibility Score: inf
ROOT
ATOM      1  C   UNL     1     158.380 145.739 152.094  1.00  0.00     0.052 C 
ENDROOT
BRANCH   1   2
ATOM      2  C   UNL     1     159.653 145.282 152.738  1.00  0.00     0.041 C 
ATOM      3  O   UNL     1     160.555 144.744 152.044  1.00  0.00    -0.550 OA
ATOM      4  O   UNL     1     159.829 145.421 154.109  1.00  0.00    -0.550 OA
ENDBRANCH   1   2
BRANCH   1   5
ATOM      5  C   UNL     1     158.542 145.922 150.579  1.00  0.00     0.003 C 
ATOM      6  C   UNL     1     157.513 145.120 149.783  1.00  0.00     0.004 C 
ENDBRANCH   1   5
TORSDOF 2
ENDMDL
MODEL 4
REMARK VINA RESULT:    -2.932      3.674      4.483
REMARK INTER + INTRA:          -3.300
REMARK INTER:                  -3.293
REMARK INTRA:                  -0.007
REMARK UNBOUND:                -0.025
REMARK SMILES CCCC(=O)[O-]
REMARK SMILES IDX 3 1 4 2 5 3 6 4 2 5 1 6
REMARK H PARENT
REMARK Flexibility Score: inf
ROOT
ATOM      1  C   UNL     1     159.381 145.004 151.482  1.00  0.00     0.052 C 
ENDROOT
BRANCH   1   2
ATOM      2  C   UNL     1     158.911 145.701 150.242  1.00  0.00     0.041 C 
ATOM      3  O   UNL     1     159.745 146.098 149.385  1.00  0.00    -0.550 OA
ATOM      4  O   UNL     1     157.557 145.943 150.049  1.00  0.00    -0.550 OA
ENDBRANCH   1   2
BRANCH   1   5
ATOM      5  C   UNL     1     158.731 145.587 152.744  1.00  0.00     0.003 C 
ATOM      6  C   UNL     1     159.714 145.693 153.909  1.00  0.00     0.004 C 
ENDBRANCH   1   5
TORSDOF 2
ENDMDL
MODEL 5
REMARK VINA RESULT:    -2.862      4.901      5.857
REMARK INTER + INTRA:          -3.222
REMARK INTER:                  -3.216
REMARK INTRA:                  -0.006
REMARK UNBOUND:                -0.025
REMARK SMILES CCCC(=O)[O-]
REMARK SMILES IDX 3 1 4 2 5 3 6 4 2 5 1 6
REMARK H PARENT
REMARK Flexibility Score: inf
ROOT
ATOM      1  C   UNL     1     158.031 145.802 150.326  1.00  0.00     0.052 C 
ENDROOT
BRANCH   1   2
ATOM      2  C   UNL     1     157.735 144.689 149.367  1.00  0.00     0.041 C 
ATOM      3  O   UNL     1     158.663 144.177 148.688  1.00  0.00    -0.550 OA
ATOM      4  O   UNL     1     156.430 144.243 149.200  1.00  0.00    -0.550 OA
ENDBRANCH   1   2
BRANCH   1   5
ATOM      5  C   UNL     1     158.922 145.333 151.485  1.00  0.00     0.003 C 
ATOM      6  C   UNL     1     158.597 146.050 152.795  1.00  0.00     0.004 C 
ENDBRANCH   1   5
TORSDOF 2
ENDMDL
MODEL 6
REMARK VINA RESULT:    -2.268     12.638     13.255
REMARK INTER + INTRA:          -2.558
REMARK INTER:                  -2.533
REMARK INTRA:                  -0.025
REMARK UNBOUND:                -0.025
REMARK SMILES CCCC(=O)[O-]
REMARK SMILES IDX 3 1 4 2 5 3 6 4 2 5 1 6
REMARK H PARENT
REMARK Flexibility Score: inf
ROOT
ATOM      1  C   UNL     1     156.041 155.547 145.672  1.00  0.00     0.052 C 
ENDROOT
BRANCH   1   2
ATOM      2  C   UNL     1     154.816 155.768 144.838  1.00  0.00     0.041 C 
ATOM      3  O   UNL     1     154.367 154.840 144.115  1.00  0.00    -0.550 OA
ATOM      4  O   UNL     1     154.192 157.009 144.833  1.00  0.00    -0.550 OA
ENDBRANCH   1   2
BRANCH   1   5
ATOM      5  C   UNL     1     155.687 155.238 147.133  1.00  0.00     0.003 C 
ATOM      6  C   UNL     1     156.080 153.818 147.538  1.00  0.00     0.004 C 
ENDBRANCH   1   5
TORSDOF 2
ENDMDL
MODEL 7
REMARK VINA RESULT:    -2.105     17.100     17.674
REMARK INTER + INTRA:          -2.376
REMARK INTER:                  -2.369
REMARK INTRA:                  -0.007
REMARK UNBOUND:                -0.025
REMARK SMILES CCCC(=O)[O-]
REMARK SMILES IDX 3 1 4 2 5 3 6 4 2 5 1 6
REMARK H PARENT
REMARK Flexibility Score: inf
ROOT
ATOM      1  C   UNL     1     146.898 148.173 141.979  1.00  0.00     0.052 C 
ENDROOT
BRANCH   1   2
ATOM      2  C   UNL     1     146.772 149.580 142.482  1.00  0.00     0.041 C 
ATOM      3  O   UNL     1     147.437 150.504 141.945  1.00  0.00    -0.550 OA
ATOM      4  O   UNL     1     145.947 149.861 143.563  1.00  0.00    -0.550 OA
ENDBRANCH   1   2
BRANCH   1   5
ATOM      5  C   UNL     1     147.225 147.191 143.112  1.00  0.00     0.003 C 
ATOM      6  C   UNL     1     148.272 146.158 142.701  1.00  0.00     0.004 C 
ENDBRANCH   1   5
TORSDOF 2
ENDMDL
MODEL 8
REMARK VINA RESULT:    -2.071     24.160     24.770
REMARK INTER + INTRA:          -2.338
REMARK INTER:                  -2.303
REMARK INTRA:                  -0.036
REMARK UNBOUND:                -0.025
REMARK SMILES CCCC(=O)[O-]
REMARK SMILES IDX 3 1 4 2 5 3 6 4 2 5 1 6
REMARK H PARENT
REMARK Flexibility Score: inf
ROOT
ATOM      1  C   UNL     1     151.413 163.971 137.975  1.00  0.00     0.052 C 
ENDROOT
BRANCH   1   2
ATOM      2  C   UNL     1     151.788 162.661 137.351  1.00  0.00     0.041 C 
ATOM      3  O   UNL     1     151.983 162.585 136.110  1.00  0.00    -0.550 OA
ATOM      4  O   UNL     1     151.887 161.520 138.137  1.00  0.00    -0.550 OA
ENDBRANCH   1   2
BRANCH   1   5
ATOM      5  C   UNL     1     150.021 163.918 138.619  1.00  0.00     0.003 C 
ATOM      6  C   UNL     1     150.073 164.125 140.132  1.00  0.00     0.004 C 
ENDBRANCH   1   5
TORSDOF 2
ENDMDL
