MODEL 1
REMARK VINA RESULT:    -3.034      0.000      0.000
REMARK INTER + INTRA:          -3.731
REMARK INTER:                  -3.566
REMARK INTRA:                  -0.165
REMARK UNBOUND:                -0.165
REMARK SMILES O=C([O-])CCC(=O)[O-]
REMARK SMILES IDX 4 1 2 2 1 3 3 4 5 5 6 6 7 7 8 8
REMARK H PARENT
REMARK Flexibility Score: inf
ROOT
ATOM      1  C   UNL     1      30.940  10.240  29.387  1.00  0.00     0.059 C 
ENDROOT
BRANCH   1   2
ATOM      2  C   UNL     1      31.056   9.115  28.403  1.00  0.00     0.042 C 
ATOM      3  O   UNL     1      31.793   9.235  27.389  1.00  0.00    -0.550 OA
ATOM      4  O   UNL     1      30.384   7.921  28.630  1.00  0.00    -0.550 OA
ENDBRANCH   1   2
BRANCH   1   5
ATOM      5  C   UNL     1      30.306  11.482  28.752  1.00  0.00     0.059 C 
BRANCH   5   6
ATOM      6  C   UNL     1      28.921  11.202  28.254  1.00  0.00     0.042 C 
ATOM      7  O   UNL     1      27.963  11.105  29.065  1.00  0.00    -0.550 OA
ATOM      8  O   UNL     1      28.681  11.091  26.889  1.00  0.00    -0.550 OA
ENDBRANCH   5   6
ENDBRANCH   1   5
TORSDOF 3
ENDMDL
MODEL 2
REMARK VINA RESULT:    -3.027      0.062      3.472
REMARK INTER + INTRA:          -3.723
REMARK INTER:                  -3.565
REMARK INTRA:                  -0.158
REMARK UNBOUND:                -0.165
REMARK SMILES O=C([O-])CCC(=O)[O-]
REMARK SMILES IDX 4 1 2 2 1 3 3 4 5 5 6 6 7 7 8 8
REMARK H PARENT
REMARK Flexibility Score: inf
ROOT
ATOM      1  C   UNL     1      30.291  11.452  28.791  1.00  0.00     0.059 C 
ENDROOT
BRANCH   1   2
ATOM      2  C   UNL     1      28.910  11.212  28.258  1.00  0.00     0.042 C 
ATOM      3  O   UNL     1      27.932  11.139  29.046  1.00  0.00    -0.550 OA
ATOM      4  O   UNL     1      28.702  11.109  26.889  1.00  0.00    -0.550 OA
ENDBRANCH   1   2
BRANCH   1   5
ATOM      5  C   UNL     1      30.892  10.179  29.396  1.00  0.00     0.059 C 
BRANCH   5   6
ATOM      6  C   UNL     1      31.019   9.089  28.377  1.00  0.00     0.042 C 
ATOM      7  O   UNL     1      31.798   9.225  27.397  1.00  0.00    -0.550 OA
ATOM      8  O   UNL     1      30.308   7.904  28.532  1.00  0.00    -0.550 OA
ENDBRANCH   5   6
ENDBRANCH   1   5
TORSDOF 3
ENDMDL
MODEL 3
REMARK VINA RESULT:    -3.015      2.059      3.022
REMARK INTER + INTRA:          -3.709
REMARK INTER:                  -3.672
REMARK INTRA:                  -0.038
REMARK UNBOUND:                -0.165
REMARK SMILES O=C([O-])CCC(=O)[O-]
REMARK SMILES IDX 4 1 2 2 1 3 3 4 5 5 6 6 7 7 8 8
REMARK H PARENT
REMARK Flexibility Score: inf
ROOT
ATOM      1  C   UNL     1      29.146  10.491  29.324  1.00  0.00     0.059 C 
ENDROOT
BRANCH   1   2
ATOM      2  C   UNL     1      29.510  10.360  27.876  1.00  0.00     0.042 C 
ATOM      3  O   UNL     1      30.434   9.580  27.524  1.00  0.00    -0.550 OA
ATOM      4  O   UNL     1      28.800  11.067  26.914  1.00  0.00    -0.550 OA
ENDBRANCH   1   2
BRANCH   1   5
ATOM      5  C   UNL     1      28.018  11.505  29.533  1.00  0.00     0.059 C 
BRANCH   5   6
ATOM      6  C   UNL     1      27.982  12.011  30.944  1.00  0.00     0.042 C 
ATOM      7  O   UNL     1      27.043  12.757  31.325  1.00  0.00    -0.550 OA
ATOM      8  O   UNL     1      28.965  11.623  31.847  1.00  0.00    -0.550 OA
ENDBRANCH   5   6
ENDBRANCH   1   5
TORSDOF 3
ENDMDL
MODEL 4
REMARK VINA RESULT:    -3.015      0.099      3.356
REMARK INTER + INTRA:          -3.709
REMARK INTER:                  -3.568
REMARK INTRA:                  -0.141
REMARK UNBOUND:                -0.165
REMARK SMILES O=C([O-])CCC(=O)[O-]
REMARK SMILES IDX 4 1 2 2 1 3 3 4 5 5 6 6 7 7 8 8
REMARK H PARENT
REMARK Flexibility Score: inf
ROOT
ATOM      1  C   UNL     1      30.293  11.475  28.713  1.00  0.00     0.059 C 
ENDROOT
BRANCH   1   2
ATOM      2  C   UNL     1      28.898  11.272  28.205  1.00  0.00     0.042 C 
ATOM      3  O   UNL     1      28.686  11.153  26.970  1.00  0.00    -0.550 OA
ATOM      4  O   UNL     1      27.840  11.172  29.099  1.00  0.00    -0.550 OA
ENDBRANCH   1   2
BRANCH   1   5
ATOM      5  C   UNL     1      30.855  10.200  29.349  1.00  0.00     0.059 C 
BRANCH   5   6
ATOM      6  C   UNL     1      31.014   9.103  28.341  1.00  0.00     0.042 C 
ATOM      7  O   UNL     1      31.802   9.246  27.370  1.00  0.00    -0.550 OA
ATOM      8  O   UNL     1      30.324   7.907  28.498  1.00  0.00    -0.550 OA
ENDBRANCH   5   6
ENDBRANCH   1   5
TORSDOF 3
ENDMDL
MODEL 5
REMARK VINA RESULT:    -2.988      3.475      4.439
REMARK INTER + INTRA:          -3.678
REMARK INTER:                  -3.592
REMARK INTRA:                  -0.086
REMARK UNBOUND:                -0.165
REMARK SMILES O=C([O-])CCC(=O)[O-]
REMARK SMILES IDX 4 1 2 2 1 3 3 4 5 5 6 6 7 7 8 8
REMARK H PARENT
REMARK Flexibility Score: inf
ROOT
ATOM      1  C   UNL     1      30.376   7.452  29.015  1.00  0.00     0.059 C 
ENDROOT
BRANCH   1   2
ATOM      2  C   UNL     1      30.328   6.434  30.115  1.00  0.00     0.042 C 
ATOM      3  O   UNL     1      29.659   5.377  29.970  1.00  0.00    -0.550 OA
ATOM      4  O   UNL     1      31.054   6.636  31.281  1.00  0.00    -0.550 OA
ENDBRANCH   1   2
BRANCH   1   5
ATOM      5  C   UNL     1      31.373   8.572  29.326  1.00  0.00     0.059 C 
BRANCH   5   6
ATOM      6  C   UNL     1      32.650   8.405  28.560  1.00  0.00     0.042 C 
ATOM      7  O   UNL     1      32.625   8.004  27.367  1.00  0.00    -0.550 OA
ATOM      8  O   UNL     1      33.865   8.732  29.152  1.00  0.00    -0.550 OA
ENDBRANCH   5   6
ENDBRANCH   1   5
TORSDOF 3
ENDMDL
MODEL 6
REMARK VINA RESULT:    -2.960      3.377      4.347
REMARK INTER + INTRA:          -3.644
REMARK INTER:                  -3.557
REMARK INTRA:                  -0.087
REMARK UNBOUND:                -0.165
REMARK SMILES O=C([O-])CCC(=O)[O-]
REMARK SMILES IDX 4 1 2 2 1 3 3 4 5 5 6 6 7 7 8 8
REMARK H PARENT
REMARK Flexibility Score: inf
ROOT
ATOM      1  C   UNL     1      31.369   8.688  29.537  1.00  0.00     0.059 C 
ENDROOT
BRANCH   1   2
ATOM      2  C   UNL     1      32.605   8.532  28.703  1.00  0.00     0.042 C 
ATOM      3  O   UNL     1      32.520   8.128  27.514  1.00  0.00    -0.550 OA
ATOM      4  O   UNL     1      33.845   8.871  29.229  1.00  0.00    -0.550 OA
ENDBRANCH   1   2
BRANCH   1   5
ATOM      5  C   UNL     1      30.397   7.522  29.329  1.00  0.00     0.059 C 
BRANCH   5   6
ATOM      6  C   UNL     1      30.503   6.512  30.431  1.00  0.00     0.042 C 
ATOM      7  O   UNL     1      30.065   5.343  30.262  1.00  0.00    -0.550 OA
ATOM      8  O   UNL     1      31.123   6.849  31.628  1.00  0.00    -0.550 OA
ENDBRANCH   5   6
ENDBRANCH   1   5
TORSDOF 3
ENDMDL
MODEL 7
REMARK VINA RESULT:    -2.959      1.935      3.889
REMARK INTER + INTRA:          -3.644
REMARK INTER:                  -3.549
REMARK INTRA:                  -0.095
REMARK UNBOUND:                -0.165
REMARK SMILES O=C([O-])CCC(=O)[O-]
REMARK SMILES IDX 4 1 2 2 1 3 3 4 5 5 6 6 7 7 8 8
REMARK H PARENT
REMARK Flexibility Score: inf
ROOT
ATOM      1  C   UNL     1      27.867  11.190  29.553  1.00  0.00     0.059 C 
ENDROOT
BRANCH   1   2
ATOM      2  C   UNL     1      28.077  12.397  30.417  1.00  0.00     0.042 C 
ATOM      3  O   UNL     1      29.114  13.098  30.284  1.00  0.00    -0.550 OA
ATOM      4  O   UNL     1      27.107  12.770  31.338  1.00  0.00    -0.550 OA
ENDBRANCH   1   2
BRANCH   1   5
ATOM      5  C   UNL     1      29.178  10.439  29.303  1.00  0.00     0.059 C 
BRANCH   5   6
ATOM      6  C   UNL     1      29.516  10.386  27.845  1.00  0.00     0.042 C 
ATOM      7  O   UNL     1      30.477   9.679  27.443  1.00  0.00    -0.550 OA
ATOM      8  O   UNL     1      28.744  11.085  26.925  1.00  0.00    -0.550 OA
ENDBRANCH   5   6
ENDBRANCH   1   5
TORSDOF 3
ENDMDL
MODEL 8
REMARK VINA RESULT:    -2.950      1.616      4.012
REMARK INTER + INTRA:          -3.633
REMARK INTER:                  -3.552
REMARK INTRA:                  -0.080
REMARK UNBOUND:                -0.165
REMARK SMILES O=C([O-])CCC(=O)[O-]
REMARK SMILES IDX 4 1 2 2 1 3 3 4 5 5 6 6 7 7 8 8
REMARK H PARENT
REMARK Flexibility Score: inf
ROOT
ATOM      1  C   UNL     1      30.133   9.383  27.962  1.00  0.00     0.059 C 
ENDROOT
BRANCH   1   2
ATOM      2  C   UNL     1      29.752  10.825  28.109  1.00  0.00     0.042 C 
ATOM      3  O   UNL     1      28.716  11.266  27.547  1.00  0.00    -0.550 OA
ATOM      4  O   UNL     1      30.520  11.670  28.901  1.00  0.00    -0.550 OA
ENDBRANCH   1   2
BRANCH   1   5
ATOM      5  C   UNL     1      31.633   9.219  27.699  1.00  0.00     0.059 C 
BRANCH   5   6
ATOM      6  C   UNL     1      32.308   8.457  28.798  1.00  0.00     0.042 C 
ATOM      7  O   UNL     1      33.559   8.511  28.930  1.00  0.00    -0.550 OA
ATOM      8  O   UNL     1      31.551   7.722  29.703  1.00  0.00    -0.550 OA
ENDBRANCH   5   6
ENDBRANCH   1   5
TORSDOF 3
ENDMDL
MODEL 9
REMARK VINA RESULT:    -2.852      1.781      2.169
REMARK INTER + INTRA:          -3.517
REMARK INTER:                  -3.327
REMARK INTRA:                  -0.190
REMARK UNBOUND:                -0.165
REMARK SMILES O=C([O-])CCC(=O)[O-]
REMARK SMILES IDX 4 1 2 2 1 3 3 4 5 5 6 6 7 7 8 8
REMARK H PARENT
REMARK Flexibility Score: inf
ROOT
ATOM      1  C   UNL     1      30.716   7.998  29.148  1.00  0.00     0.059 C 
ENDROOT
BRANCH   1   2
ATOM      2  C   UNL     1      32.148   8.245  28.780  1.00  0.00     0.042 C 
ATOM      3  O   UNL     1      32.985   8.556  29.668  1.00  0.00    -0.550 OA
ATOM      4  O   UNL     1      32.564   8.091  27.464  1.00  0.00    -0.550 OA
ENDBRANCH   1   2
BRANCH   1   5
ATOM      5  C   UNL     1      30.034   9.274  29.650  1.00  0.00     0.059 C 
BRANCH   5   6
ATOM      6  C   UNL     1      30.089  10.369  28.629  1.00  0.00     0.042 C 
ATOM      7  O   UNL     1      30.660  11.458  28.898  1.00  0.00    -0.550 OA
ATOM      8  O   UNL     1      29.545  10.170  27.365  1.00  0.00    -0.550 OA
ENDBRANCH   5   6
ENDBRANCH   1   5
TORSDOF 3
ENDMDL
