MODEL 1
REMARK VINA RESULT:     3.869      0.000      0.000
REMARK INTER + INTRA:           5.141
REMARK INTER:                   5.452
REMARK INTRA:                  -0.311
REMARK UNBOUND:                -0.311
REMARK SMILES CCCCCCCCC(=O)[O-]
REMARK SMILES IDX 6 1 7 2 8 3 9 4 10 5 11 6 5 7 4 8 3 9 2 10 1 11
REMARK H PARENT
REMARK Flexibility Score: inf
ROOT
ATOM      1  C   UNL     1       1.615   6.974  -3.268  1.00  0.00     0.000 C 
ENDROOT
BRANCH   1   2
ATOM      2  C   UNL     1       3.026   7.585  -3.267  1.00  0.00     0.006 C 
BRANCH   2   3
ATOM      3  C   UNL     1       3.859   7.144  -2.058  1.00  0.00     0.053 C 
BRANCH   3   4
ATOM      4  C   UNL     1       5.320   7.228  -2.373  1.00  0.00     0.041 C 
ATOM      5  O   UNL     1       5.895   6.280  -2.967  1.00  0.00    -0.550 OA
ATOM      6  O   UNL     1       6.056   8.333  -1.965  1.00  0.00    -0.550 OA
ENDBRANCH   3   4
ENDBRANCH   2   3
ENDBRANCH   1   2
BRANCH   1   7
ATOM      7  C   UNL     1       0.526   7.999  -3.621  1.00  0.00     0.000 C 
BRANCH   7   8
ATOM      8  C   UNL     1       0.200   7.956  -5.122  1.00  0.00    -0.000 C 
BRANCH   8   9
ATOM      9  C   UNL     1       0.866   9.099  -5.906  1.00  0.00    -0.000 C 
BRANCH   9  10
ATOM     10  C   UNL     1       1.565   8.612  -7.184  1.00  0.00    -0.003 C 
ATOM     11  C   UNL     1       0.552   8.101  -8.203  1.00  0.00     0.004 C 
ENDBRANCH   9  10
ENDBRANCH   8   9
ENDBRANCH   7   8
ENDBRANCH   1   7
TORSDOF 7
ENDMDL
MODEL 2
REMARK VINA RESULT:     3.911      3.077      5.566
REMARK INTER + INTRA:           5.201
REMARK INTER:                   5.437
REMARK INTRA:                  -0.237
REMARK UNBOUND:                -0.311
REMARK SMILES CCCCCCCCC(=O)[O-]
REMARK SMILES IDX 6 1 7 2 8 3 9 4 10 5 11 6 5 7 4 8 3 9 2 10 1 11
REMARK H PARENT
REMARK Flexibility Score: inf
ROOT
ATOM      1  C   UNL     1       0.483   7.974  -3.966  1.00  0.00     0.000 C 
ENDROOT
BRANCH   1   2
ATOM      2  C   UNL     1       1.148   8.726  -5.130  1.00  0.00     0.006 C 
BRANCH   2   3
ATOM      3  C   UNL     1       0.312   8.684  -6.415  1.00  0.00     0.053 C 
BRANCH   3   4
ATOM      4  C   UNL     1       1.191   8.436  -7.601  1.00  0.00     0.041 C 
ATOM      5  O   UNL     1       0.726   7.876  -8.628  1.00  0.00    -0.550 OA
ATOM      6  O   UNL     1       2.536   8.779  -7.554  1.00  0.00    -0.550 OA
ENDBRANCH   3   4
ENDBRANCH   2   3
ENDBRANCH   1   2
BRANCH   1   7
ATOM      7  C   UNL     1       1.446   7.008  -3.258  1.00  0.00     0.000 C 
BRANCH   7   8
ATOM      8  C   UNL     1       2.889   7.532  -3.317  1.00  0.00    -0.000 C 
BRANCH   8   9
ATOM      9  C   UNL     1       3.813   6.838  -2.303  1.00  0.00    -0.000 C 
BRANCH   9  10
ATOM     10  C   UNL     1       5.296   7.169  -2.532  1.00  0.00    -0.003 C 
ATOM     11  C   UNL     1       5.697   8.436  -1.784  1.00  0.00     0.004 C 
ENDBRANCH   9  10
ENDBRANCH   8   9
ENDBRANCH   7   8
ENDBRANCH   1   7
TORSDOF 7
ENDMDL
MODEL 3
REMARK VINA RESULT:     4.192      1.970      3.166
REMARK INTER + INTRA:           5.596
REMARK INTER:                   5.772
REMARK INTRA:                  -0.176
REMARK UNBOUND:                -0.311
REMARK SMILES CCCCCCCCC(=O)[O-]
REMARK SMILES IDX 6 1 7 2 8 3 9 4 10 5 11 6 5 7 4 8 3 9 2 10 1 11
REMARK H PARENT
REMARK Flexibility Score: inf
ROOT
ATOM      1  C   UNL     1       4.736   7.588  -2.159  1.00  0.00     0.000 C 
ENDROOT
BRANCH   1   2
ATOM      2  C   UNL     1       5.755   6.626  -2.792  1.00  0.00     0.006 C 
BRANCH   2   3
ATOM      3  C   UNL     1       5.128   5.288  -3.203  1.00  0.00     0.053 C 
BRANCH   3   4
ATOM      4  C   UNL     1       6.036   4.553  -4.139  1.00  0.00     0.041 C 
ATOM      5  O   UNL     1       6.022   4.812  -5.370  1.00  0.00    -0.550 OA
ATOM      6  O   UNL     1       6.861   3.544  -3.657  1.00  0.00    -0.550 OA
ENDBRANCH   3   4
ENDBRANCH   2   3
ENDBRANCH   1   2
BRANCH   1   7
ATOM      7  C   UNL     1       3.283   7.135  -2.373  1.00  0.00     0.000 C 
BRANCH   7   8
ATOM      8  C   UNL     1       2.696   7.762  -3.647  1.00  0.00    -0.000 C 
BRANCH   8   9
ATOM      9  C   UNL     1       1.181   7.536  -3.776  1.00  0.00    -0.000 C 
BRANCH   9  10
ATOM     10  C   UNL     1       0.483   8.649  -4.571  1.00  0.00    -0.003 C 
ATOM     11  C   UNL     1       0.980   8.688  -6.013  1.00  0.00     0.004 C 
ENDBRANCH   9  10
ENDBRANCH   8   9
ENDBRANCH   7   8
ENDBRANCH   1   7
TORSDOF 7
ENDMDL
MODEL 4
REMARK VINA RESULT:     4.235      3.041      5.460
REMARK INTER + INTRA:           5.657
REMARK INTER:                   5.878
REMARK INTRA:                  -0.222
REMARK UNBOUND:                -0.311
REMARK SMILES CCCCCCCCC(=O)[O-]
REMARK SMILES IDX 6 1 7 2 8 3 9 4 10 5 11 6 5 7 4 8 3 9 2 10 1 11
REMARK H PARENT
REMARK Flexibility Score: inf
ROOT
ATOM      1  C   UNL     1       2.750   7.643  -3.544  1.00  0.00     0.000 C 
ENDROOT
BRANCH   1   2
ATOM      2  C   UNL     1       1.226   7.610  -3.348  1.00  0.00     0.006 C 
BRANCH   2   3
ATOM      3  C   UNL     1       0.460   7.581  -4.676  1.00  0.00     0.053 C 
BRANCH   3   4
ATOM      4  C   UNL     1       0.819   8.769  -5.512  1.00  0.00     0.041 C 
ATOM      5  O   UNL     1       0.400   9.913  -5.200  1.00  0.00    -0.550 OA
ATOM      6  O   UNL     1       1.577   8.604  -6.665  1.00  0.00    -0.550 OA
ENDBRANCH   3   4
ENDBRANCH   2   3
ENDBRANCH   1   2
BRANCH   1   7
ATOM      7  C   UNL     1       3.518   7.189  -2.294  1.00  0.00     0.000 C 
BRANCH   7   8
ATOM      8  C   UNL     1       4.989   7.629  -2.364  1.00  0.00    -0.000 C 
BRANCH   8   9
ATOM      9  C   UNL     1       5.943   6.463  -2.669  1.00  0.00    -0.000 C 
BRANCH   9  10
ATOM     10  C   UNL     1       5.233   5.278  -3.341  1.00  0.00    -0.003 C 
ATOM     11  C   UNL     1       6.098   4.673  -4.442  1.00  0.00     0.004 C 
ENDBRANCH   9  10
ENDBRANCH   8   9
ENDBRANCH   7   8
ENDBRANCH   1   7
TORSDOF 7
ENDMDL
