MODEL 1
REMARK VINA RESULT:    -5.266      0.000      0.000
REMARK INTER + INTRA:          -5.420
REMARK INTER:                  -5.420
REMARK INTRA:                   0.000
REMARK UNBOUND:                 0.000
REMARK SMILES Nc1ncnc2nc[nH]c12
REMARK SMILES IDX 8 1 7 2 6 3 5 4 4 5 3 6 2 7 10 8 9 9 1 11
REMARK H PARENT 9 10 1 12 1 13
REMARK Flexibility Score: inf
ROOT
ATOM      1  C   UNL     1     -14.081 -29.794 -12.042  1.00  0.00     0.199 A 
ATOM      2  N   UNL     1     -14.457 -28.876 -11.110  1.00  0.00    -0.217 NA
ATOM      3  C   UNL     1     -14.439 -27.731 -11.812  1.00  0.00     0.182 A 
ATOM      4  N   UNL     1     -14.739 -26.495 -11.350  1.00  0.00    -0.215 NA
ATOM      5  C   UNL     1     -14.663 -25.443 -12.222  1.00  0.00     0.226 A 
ATOM      6  N   UNL     1     -14.294 -25.646 -13.526  1.00  0.00    -0.217 NA
ATOM      7  C   UNL     1     -13.991 -26.895 -13.996  1.00  0.00     0.152 A 
ATOM      8  C   UNL     1     -14.072 -27.954 -13.096  1.00  0.00     0.127 A 
ATOM      9  N   UNL     1     -13.839 -29.261 -13.267  1.00  0.00    -0.340 N 
ATOM     10  H   UNL     1     -13.541 -29.763 -14.131  1.00  0.00     0.168 HD
ENDROOT
BRANCH   7  11
ATOM     11  N   UNL     1     -13.609 -27.081 -15.358  1.00  0.00    -0.382 N 
ATOM     12  H   UNL     1     -14.340 -27.192 -16.096  1.00  0.00     0.158 HD
ATOM     13  H   UNL     1     -12.605 -27.113 -15.642  1.00  0.00     0.158 HD
ENDBRANCH   7  11
TORSDOF 1
ENDMDL
MODEL 2
REMARK VINA RESULT:    -4.750      1.093      3.062
REMARK INTER + INTRA:          -4.888
REMARK INTER:                  -4.888
REMARK INTRA:                   0.000
REMARK UNBOUND:                 0.000
REMARK SMILES Nc1ncnc2nc[nH]c12
REMARK SMILES IDX 8 1 7 2 6 3 5 4 4 5 3 6 2 7 10 8 9 9 1 11
REMARK H PARENT 9 10 1 12 1 13
REMARK Flexibility Score: inf
ROOT
ATOM      1  C   UNL     1     -14.076 -24.797 -14.401  1.00  0.00     0.199 A 
ATOM      2  N   UNL     1     -14.468 -24.787 -13.097  1.00  0.00    -0.217 NA
ATOM      3  C   UNL     1     -14.388 -26.086 -12.764  1.00  0.00     0.182 A 
ATOM      4  N   UNL     1     -14.672 -26.631 -11.558  1.00  0.00    -0.215 NA
ATOM      5  C   UNL     1     -14.529 -27.983 -11.410  1.00  0.00     0.226 A 
ATOM      6  N   UNL     1     -14.107 -28.757 -12.459  1.00  0.00    -0.217 NA
ATOM      7  C   UNL     1     -13.817 -28.209 -13.679  1.00  0.00     0.152 A 
ATOM      8  C   UNL     1     -13.969 -26.832 -13.813  1.00  0.00     0.127 A 
ATOM      9  N   UNL     1     -13.764 -26.032 -14.868  1.00  0.00    -0.340 N 
ATOM     10  H   UNL     1     -13.442 -26.287 -15.827  1.00  0.00     0.168 HD
ENDROOT
BRANCH   7  11
ATOM     11  N   UNL     1     -13.379 -29.035 -14.757  1.00  0.00    -0.382 N 
ATOM     12  H   UNL     1     -13.049 -28.601 -15.647  1.00  0.00     0.158 HD
ATOM     13  H   UNL     1     -13.381 -30.076 -14.680  1.00  0.00     0.158 HD
ENDBRANCH   7  11
TORSDOF 1
ENDMDL
MODEL 3
REMARK VINA RESULT:    -4.573      1.770      1.810
REMARK INTER + INTRA:          -4.707
REMARK INTER:                  -4.707
REMARK INTRA:                   0.000
REMARK UNBOUND:                 0.000
REMARK SMILES Nc1ncnc2nc[nH]c12
REMARK SMILES IDX 8 1 7 2 6 3 5 4 4 5 3 6 2 7 10 8 9 9 1 11
REMARK H PARENT 9 10 1 12 1 13
REMARK Flexibility Score: inf
ROOT
ATOM      1  C   UNL     1     -14.049 -30.104 -12.241  1.00  0.00     0.199 A 
ATOM      2  N   UNL     1     -13.169 -29.559 -11.358  1.00  0.00    -0.217 NA
ATOM      3  C   UNL     1     -12.755 -28.459 -12.007  1.00  0.00     0.182 A 
ATOM      4  N   UNL     1     -11.860 -27.545 -11.561  1.00  0.00    -0.215 NA
ATOM      5  C   UNL     1     -11.563 -26.483 -12.371  1.00  0.00     0.226 A 
ATOM      6  N   UNL     1     -12.161 -26.356 -13.599  1.00  0.00    -0.217 NA
ATOM      7  C   UNL     1     -13.065 -27.277 -14.051  1.00  0.00     0.152 A 
ATOM      8  C   UNL     1     -13.356 -28.352 -13.215  1.00  0.00     0.127 A 
ATOM      9  N   UNL     1     -14.185 -29.389 -13.387  1.00  0.00    -0.340 N 
ATOM     10  H   UNL     1     -14.796 -29.607 -14.204  1.00  0.00     0.168 HD
ENDROOT
BRANCH   7  11
ATOM     11  N   UNL     1     -13.674 -27.124 -15.333  1.00  0.00    -0.382 N 
ATOM     12  H   UNL     1     -13.260 -26.468 -16.033  1.00  0.00     0.158 HD
ATOM     13  H   UNL     1     -14.534 -27.654 -15.593  1.00  0.00     0.158 HD
ENDBRANCH   7  11
TORSDOF 1
ENDMDL
MODEL 4
REMARK VINA RESULT:    -4.493      8.729      9.503
REMARK INTER + INTRA:          -4.624
REMARK INTER:                  -4.624
REMARK INTRA:                   0.000
REMARK UNBOUND:                 0.000
REMARK SMILES Nc1ncnc2nc[nH]c12
REMARK SMILES IDX 8 1 7 2 6 3 5 4 4 5 3 6 2 7 10 8 9 9 1 11
REMARK H PARENT 9 10 1 12 1 13
REMARK Flexibility Score: inf
ROOT
ATOM      1  C   UNL     1     -18.959 -36.642 -11.885  1.00  0.00     0.199 A 
ATOM      2  N   UNL     1     -17.991 -37.107 -11.049  1.00  0.00    -0.217 NA
ATOM      3  C   UNL     1     -16.869 -36.854 -11.742  1.00  0.00     0.182 A 
ATOM      4  N   UNL     1     -15.600 -37.125 -11.353  1.00  0.00    -0.215 NA
ATOM      5  C   UNL     1     -14.580 -36.791 -12.201  1.00  0.00     0.226 A 
ATOM      6  N   UNL     1     -14.844 -36.197 -13.408  1.00  0.00    -0.217 NA
ATOM      7  C   UNL     1     -16.124 -35.922 -13.802  1.00  0.00     0.152 A 
ATOM      8  C   UNL     1     -17.151 -36.268 -12.929  1.00  0.00     0.127 A 
ATOM      9  N   UNL     1     -18.477 -36.123 -13.043  1.00  0.00    -0.340 N 
ATOM     10  H   UNL     1     -19.024 -35.711 -13.830  1.00  0.00     0.168 HD
ENDROOT
BRANCH   7  11
ATOM     11  N   UNL     1     -16.375 -35.304 -15.064  1.00  0.00    -0.382 N 
ATOM     12  H   UNL     1     -16.348 -35.872 -15.940  1.00  0.00     0.158 HD
ATOM     13  H   UNL     1     -16.586 -34.284 -15.138  1.00  0.00     0.158 HD
ENDBRANCH   7  11
TORSDOF 1
ENDMDL
MODEL 5
REMARK VINA RESULT:    -4.473      7.435      9.185
REMARK INTER + INTRA:          -4.604
REMARK INTER:                  -4.604
REMARK INTRA:                   0.000
REMARK UNBOUND:                 0.000
REMARK SMILES Nc1ncnc2nc[nH]c12
REMARK SMILES IDX 8 1 7 2 6 3 5 4 4 5 3 6 2 7 10 8 9 9 1 11
REMARK H PARENT 9 10 1 12 1 13
REMARK Flexibility Score: inf
ROOT
ATOM      1  C   UNL     1     -20.105 -35.261 -12.470  1.00  0.00     0.199 A 
ATOM      2  N   UNL     1     -19.650 -36.365 -11.818  1.00  0.00    -0.217 NA
ATOM      3  C   UNL     1     -18.321 -36.266 -11.978  1.00  0.00     0.182 A 
ATOM      4  N   UNL     1     -17.383 -37.125 -11.513  1.00  0.00    -0.215 NA
ATOM      5  C   UNL     1     -16.069 -36.853 -11.779  1.00  0.00     0.226 A 
ATOM      6  N   UNL     1     -15.720 -35.738 -12.497  1.00  0.00    -0.217 NA
ATOM      7  C   UNL     1     -16.665 -34.869 -12.967  1.00  0.00     0.152 A 
ATOM      8  C   UNL     1     -17.998 -35.159 -12.688  1.00  0.00     0.127 A 
ATOM      9  N   UNL     1     -19.119 -34.503 -13.013  1.00  0.00    -0.340 N 
ATOM     10  H   UNL     1     -19.223 -33.618 -13.555  1.00  0.00     0.168 HD
ENDROOT
BRANCH   7  11
ATOM     11  N   UNL     1     -16.278 -33.715 -13.712  1.00  0.00    -0.382 N 
ATOM     12  H   UNL     1     -15.455 -33.758 -14.353  1.00  0.00     0.158 HD
ATOM     13  H   UNL     1     -16.802 -32.815 -13.633  1.00  0.00     0.158 HD
ENDBRANCH   7  11
TORSDOF 1
ENDMDL
MODEL 6
REMARK VINA RESULT:    -4.380      1.716      3.262
REMARK INTER + INTRA:          -4.508
REMARK INTER:                  -4.508
REMARK INTRA:                   0.000
REMARK UNBOUND:                 0.000
REMARK SMILES Nc1ncnc2nc[nH]c12
REMARK SMILES IDX 8 1 7 2 6 3 5 4 4 5 3 6 2 7 10 8 9 9 1 11
REMARK H PARENT 9 10 1 12 1 13
REMARK Flexibility Score: inf
ROOT
ATOM      1  C   UNL     1     -15.257 -26.595 -12.509  1.00  0.00     0.199 A 
ATOM      2  N   UNL     1     -14.094 -26.444 -11.818  1.00  0.00    -0.217 NA
ATOM      3  C   UNL     1     -13.525 -27.654 -11.947  1.00  0.00     0.182 A 
ATOM      4  N   UNL     1     -12.333 -28.046 -11.439  1.00  0.00    -0.215 NA
ATOM      5  C   UNL     1     -11.918 -29.327 -11.678  1.00  0.00     0.226 A 
ATOM      6  N   UNL     1     -12.695 -30.184 -12.415  1.00  0.00    -0.217 NA
ATOM      7  C   UNL     1     -13.899 -29.790 -12.930  1.00  0.00     0.152 A 
ATOM      8  C   UNL     1     -14.307 -28.484 -12.677  1.00  0.00     0.127 A 
ATOM      9  N   UNL     1     -15.416 -27.831 -13.046  1.00  0.00    -0.340 N 
ATOM     10  H   UNL     1     -16.221 -28.179 -13.612  1.00  0.00     0.168 HD
ENDROOT
BRANCH   7  11
ATOM     11  N   UNL     1     -14.691 -30.700 -13.694  1.00  0.00    -0.382 N 
ATOM     12  H   UNL     1     -14.231 -31.365 -14.355  1.00  0.00     0.158 HD
ATOM     13  H   UNL     1     -15.731 -30.719 -13.610  1.00  0.00     0.158 HD
ENDBRANCH   7  11
TORSDOF 1
ENDMDL
MODEL 7
REMARK VINA RESULT:    -4.329      1.825      3.465
REMARK INTER + INTRA:          -4.456
REMARK INTER:                  -4.456
REMARK INTRA:                   0.000
REMARK UNBOUND:                 0.000
REMARK SMILES Nc1ncnc2nc[nH]c12
REMARK SMILES IDX 8 1 7 2 6 3 5 4 4 5 3 6 2 7 10 8 9 9 1 11
REMARK H PARENT 9 10 1 12 1 13
REMARK Flexibility Score: inf
ROOT
ATOM      1  C   UNL     1     -12.859 -25.258 -14.159  1.00  0.00     0.199 A 
ATOM      2  N   UNL     1     -11.854 -25.817 -13.432  1.00  0.00    -0.217 NA
ATOM      3  C   UNL     1     -12.476 -26.841 -12.824  1.00  0.00     0.182 A 
ATOM      4  N   UNL     1     -11.919 -27.734 -11.972  1.00  0.00    -0.215 NA
ATOM      5  C   UNL     1     -12.718 -28.714 -11.451  1.00  0.00     0.226 A 
ATOM      6  N   UNL     1     -14.046 -28.782 -11.787  1.00  0.00    -0.217 NA
ATOM      7  C   UNL     1     -14.610 -27.881 -12.648  1.00  0.00     0.152 A 
ATOM      8  C   UNL     1     -13.783 -26.891 -13.170  1.00  0.00     0.127 A 
ATOM      9  N   UNL     1     -14.051 -25.891 -14.020  1.00  0.00    -0.340 N 
ATOM     10  H   UNL     1     -14.958 -25.647 -14.475  1.00  0.00     0.168 HD
ENDROOT
BRANCH   7  11
ATOM     11  N   UNL     1     -15.994 -27.972 -12.984  1.00  0.00    -0.382 N 
ATOM     12  H   UNL     1     -16.622 -27.150 -12.842  1.00  0.00     0.158 HD
ATOM     13  H   UNL     1     -16.403 -28.850 -13.372  1.00  0.00     0.158 HD
ENDBRANCH   7  11
TORSDOF 1
ENDMDL
MODEL 8
REMARK VINA RESULT:    -4.317      7.885      8.954
REMARK INTER + INTRA:          -4.443
REMARK INTER:                  -4.443
REMARK INTRA:                   0.000
REMARK UNBOUND:                 0.000
REMARK SMILES Nc1ncnc2nc[nH]c12
REMARK SMILES IDX 8 1 7 2 6 3 5 4 4 5 3 6 2 7 10 8 9 9 1 11
REMARK H PARENT 9 10 1 12 1 13
REMARK Flexibility Score: inf
ROOT
ATOM      1  C   UNL     1     -14.263 -35.841 -16.090  1.00  0.00     0.199 A 
ATOM      2  N   UNL     1     -13.787 -36.697 -15.146  1.00  0.00    -0.217 NA
ATOM      3  C   UNL     1     -14.595 -36.450 -14.102  1.00  0.00     0.182 A 
ATOM      4  N   UNL     1     -14.551 -37.045 -12.886  1.00  0.00    -0.215 NA
ATOM      5  C   UNL     1     -15.464 -36.658 -11.944  1.00  0.00     0.226 A 
ATOM      6  N   UNL     1     -16.395 -35.693 -12.232  1.00  0.00    -0.217 NA
ATOM      7  C   UNL     1     -16.442 -35.092 -13.459  1.00  0.00     0.152 A 
ATOM      8  C   UNL     1     -15.506 -35.496 -14.407  1.00  0.00     0.127 A 
ATOM      9  N   UNL     1     -15.314 -35.093 -15.669  1.00  0.00    -0.340 N 
ATOM     10  H   UNL     1     -15.840 -34.374 -16.211  1.00  0.00     0.168 HD
ENDROOT
BRANCH   7  11
ATOM     11  N   UNL     1     -17.420 -34.090 -13.736  1.00  0.00    -0.382 N 
ATOM     12  H   UNL     1     -17.675 -33.392 -13.002  1.00  0.00     0.158 HD
ATOM     13  H   UNL     1     -17.895 -34.035 -14.663  1.00  0.00     0.158 HD
ENDBRANCH   7  11
TORSDOF 1
ENDMDL
MODEL 9
REMARK VINA RESULT:    -4.214      2.087      2.475
REMARK INTER + INTRA:          -4.337
REMARK INTER:                  -4.337
REMARK INTRA:                   0.000
REMARK UNBOUND:                 0.000
REMARK SMILES Nc1ncnc2nc[nH]c12
REMARK SMILES IDX 8 1 7 2 6 3 5 4 4 5 3 6 2 7 10 8 9 9 1 11
REMARK H PARENT 9 10 1 12 1 13
REMARK Flexibility Score: inf
ROOT
ATOM      1  C   UNL     1     -11.887 -28.546 -11.222  1.00  0.00     0.199 A 
ATOM      2  N   UNL     1     -11.169 -27.532 -11.778  1.00  0.00    -0.217 NA
ATOM      3  C   UNL     1     -12.088 -26.911 -12.535  1.00  0.00     0.182 A 
ATOM      4  N   UNL     1     -11.894 -25.818 -13.310  1.00  0.00    -0.215 NA
ATOM      5  C   UNL     1     -12.960 -25.326 -14.012  1.00  0.00     0.226 A 
ATOM      6  N   UNL     1     -14.188 -25.929 -13.925  1.00  0.00    -0.217 NA
ATOM      7  C   UNL     1     -14.388 -27.032 -13.142  1.00  0.00     0.152 A 
ATOM      8  C   UNL     1     -13.293 -27.521 -12.434  1.00  0.00     0.127 A 
ATOM      9  N   UNL     1     -13.189 -28.566 -11.604  1.00  0.00    -0.340 N 
ATOM     10  H   UNL     1     -13.927 -29.243 -11.311  1.00  0.00     0.168 HD
ENDROOT
BRANCH   7  11
ATOM     11  N   UNL     1     -15.676 -27.643 -13.067  1.00  0.00    -0.382 N 
ATOM     12  H   UNL     1     -16.424 -27.213 -12.480  1.00  0.00     0.158 HD
ATOM     13  H   UNL     1     -15.893 -28.519 -13.590  1.00  0.00     0.158 HD
ENDBRANCH   7  11
TORSDOF 1
ENDMDL
