MODEL 1
REMARK VINA RESULT:    -5.506      0.000      0.000
REMARK INTER + INTRA:          -6.032
REMARK INTER:                  -5.989
REMARK INTRA:                  -0.044
REMARK UNBOUND:                -0.044
REMARK SMILES COc1ccccc1O
REMARK SMILES IDX 3 1 4 2 5 3 6 4 7 5 8 6 2 7 1 8 9 9
REMARK H PARENT 9 10
REMARK Flexibility Score: inf
ROOT
ATOM      1  C   UNL     1     -36.511  -9.268  26.788  1.00  0.00     0.160 A 
ATOM      2  C   UNL     1     -36.007  -8.541  25.690  1.00  0.00     0.050 A 
ATOM      3  C   UNL     1     -36.815  -7.615  25.025  1.00  0.00     0.004 A 
ATOM      4  C   UNL     1     -38.129  -7.404  25.444  1.00  0.00     0.004 A 
ATOM      5  C   UNL     1     -38.639  -8.119  26.530  1.00  0.00     0.050 A 
ATOM      6  C   UNL     1     -37.838  -9.048  27.204  1.00  0.00     0.157 A 
ENDROOT
BRANCH   1   7
ATOM      7  O   UNL     1     -35.729 -10.206  27.481  1.00  0.00    -0.493 OA
ATOM      8  C   UNL     1     -34.628  -9.874  28.322  1.00  0.00     0.278 C 
ENDBRANCH   1   7
BRANCH   6   9
ATOM      9  O   UNL     1     -38.380  -9.744  28.284  1.00  0.00    -0.504 OA
ATOM     10  H   UNL     1     -39.367  -9.709  28.508  1.00  0.00     0.293 HD
ENDBRANCH   6   9
TORSDOF 2
ENDMDL
MODEL 2
REMARK VINA RESULT:    -5.266      2.293      3.312
REMARK INTER + INTRA:          -5.771
REMARK INTER:                  -5.755
REMARK INTRA:                  -0.017
REMARK UNBOUND:                -0.044
REMARK SMILES COc1ccccc1O
REMARK SMILES IDX 3 1 4 2 5 3 6 4 7 5 8 6 2 7 1 8 9 9
REMARK H PARENT 9 10
REMARK Flexibility Score: inf
ROOT
ATOM      1  C   UNL     1     -37.269  -7.974  25.468  1.00  0.00     0.160 A 
ATOM      2  C   UNL     1     -36.409  -8.848  26.163  1.00  0.00     0.050 A 
ATOM      3  C   UNL     1     -36.882  -9.586  27.251  1.00  0.00     0.004 A 
ATOM      4  C   UNL     1     -38.211  -9.462  27.657  1.00  0.00     0.004 A 
ATOM      5  C   UNL     1     -39.072  -8.599  26.976  1.00  0.00     0.050 A 
ATOM      6  C   UNL     1     -38.608  -7.855  25.884  1.00  0.00     0.157 A 
ENDROOT
BRANCH   1   7
ATOM      7  O   UNL     1     -36.830  -7.217  24.370  1.00  0.00    -0.493 OA
ATOM      8  C   UNL     1     -36.357  -5.875  24.451  1.00  0.00     0.278 C 
ENDBRANCH   1   7
BRANCH   6   9
ATOM      9  O   UNL     1     -39.495  -7.003  25.226  1.00  0.00    -0.504 OA
ATOM     10  H   UNL     1     -39.217  -6.088  24.894  1.00  0.00     0.293 HD
ENDBRANCH   6   9
TORSDOF 2
ENDMDL
MODEL 3
REMARK VINA RESULT:    -5.070      1.150      2.350
REMARK INTER + INTRA:          -5.558
REMARK INTER:                  -5.521
REMARK INTRA:                  -0.037
REMARK UNBOUND:                -0.044
REMARK SMILES COc1ccccc1O
REMARK SMILES IDX 3 1 4 2 5 3 6 4 7 5 8 6 2 7 1 8 9 9
REMARK H PARENT 9 10
REMARK Flexibility Score: inf
ROOT
ATOM      1  C   UNL     1     -36.464  -9.127  26.588  1.00  0.00     0.160 A 
ATOM      2  C   UNL     1     -37.761  -9.101  27.141  1.00  0.00     0.050 A 
ATOM      3  C   UNL     1     -38.736  -8.249  26.615  1.00  0.00     0.004 A 
ATOM      4  C   UNL     1     -38.431  -7.417  25.538  1.00  0.00     0.004 A 
ATOM      5  C   UNL     1     -37.150  -7.434  24.982  1.00  0.00     0.050 A 
ATOM      6  C   UNL     1     -36.166  -8.284  25.501  1.00  0.00     0.157 A 
ENDROOT
BRANCH   1   7
ATOM      7  O   UNL     1     -35.459  -9.970  27.089  1.00  0.00    -0.493 OA
ATOM      8  C   UNL     1     -35.008  -9.974  28.440  1.00  0.00     0.278 C 
ENDBRANCH   1   7
BRANCH   6   9
ATOM      9  O   UNL     1     -34.897  -8.276  24.921  1.00  0.00    -0.504 OA
ATOM     10  H   UNL     1     -34.143  -7.705  25.283  1.00  0.00     0.293 HD
ENDBRANCH   6   9
TORSDOF 2
ENDMDL
MODEL 4
REMARK VINA RESULT:    -5.042      2.141      3.221
REMARK INTER + INTRA:          -5.528
REMARK INTER:                  -5.492
REMARK INTRA:                  -0.036
REMARK UNBOUND:                -0.044
REMARK SMILES COc1ccccc1O
REMARK SMILES IDX 3 1 4 2 5 3 6 4 7 5 8 6 2 7 1 8 9 9
REMARK H PARENT 9 10
REMARK Flexibility Score: inf
ROOT
ATOM      1  C   UNL     1     -38.150  -8.810  25.587  1.00  0.00     0.160 A 
ATOM      2  C   UNL     1     -36.819  -9.273  25.588  1.00  0.00     0.050 A 
ATOM      3  C   UNL     1     -35.770  -8.407  25.267  1.00  0.00     0.004 A 
ATOM      4  C   UNL     1     -36.035  -7.076  24.942  1.00  0.00     0.004 A 
ATOM      5  C   UNL     1     -37.350  -6.606  24.938  1.00  0.00     0.050 A 
ATOM      6  C   UNL     1     -38.408  -7.465  25.258  1.00  0.00     0.157 A 
ENDROOT
BRANCH   1   7
ATOM      7  O   UNL     1     -39.230  -9.649  25.904  1.00  0.00    -0.493 OA
ATOM      8  C   UNL     1     -39.519 -10.878  25.243  1.00  0.00     0.278 C 
ENDBRANCH   1   7
BRANCH   6   9
ATOM      9  O   UNL     1     -39.709  -6.962  25.245  1.00  0.00    -0.504 OA
ATOM     10  H   UNL     1     -40.058  -6.350  25.972  1.00  0.00     0.293 HD
ENDBRANCH   6   9
TORSDOF 2
ENDMDL
MODEL 5
REMARK VINA RESULT:    -4.817      2.132      3.788
REMARK INTER + INTRA:          -5.283
REMARK INTER:                  -5.265
REMARK INTRA:                  -0.018
REMARK UNBOUND:                -0.044
REMARK SMILES COc1ccccc1O
REMARK SMILES IDX 3 1 4 2 5 3 6 4 7 5 8 6 2 7 1 8 9 9
REMARK H PARENT 9 10
REMARK Flexibility Score: inf
ROOT
ATOM      1  C   UNL     1     -37.120  -7.995  25.354  1.00  0.00     0.160 A 
ATOM      2  C   UNL     1     -38.305  -8.195  26.092  1.00  0.00     0.050 A 
ATOM      3  C   UNL     1     -38.302  -9.018  27.222  1.00  0.00     0.004 A 
ATOM      4  C   UNL     1     -37.125  -9.648  27.626  1.00  0.00     0.004 A 
ATOM      5  C   UNL     1     -35.945  -9.457  26.903  1.00  0.00     0.050 A 
ATOM      6  C   UNL     1     -35.937  -8.634  25.770  1.00  0.00     0.157 A 
ENDROOT
BRANCH   1   7
ATOM      7  O   UNL     1     -37.084  -7.175  24.215  1.00  0.00    -0.493 OA
ATOM      8  C   UNL     1     -36.725  -5.796  24.224  1.00  0.00     0.278 C 
ENDBRANCH   1   7
BRANCH   6   9
ATOM      9  O   UNL     1     -34.742  -8.465  25.071  1.00  0.00    -0.504 OA
ATOM     10  H   UNL     1     -34.391  -7.550  24.817  1.00  0.00     0.293 HD
ENDBRANCH   6   9
TORSDOF 2
ENDMDL
MODEL 6
REMARK VINA RESULT:    -4.635      2.166      2.701
REMARK INTER + INTRA:          -5.085
REMARK INTER:                  -5.060
REMARK INTRA:                  -0.025
REMARK UNBOUND:                -0.044
REMARK SMILES COc1ccccc1O
REMARK SMILES IDX 3 1 4 2 5 3 6 4 7 5 8 6 2 7 1 8 9 9
REMARK H PARENT 9 10
REMARK Flexibility Score: inf
ROOT
ATOM      1  C   UNL     1     -38.309 -10.024  25.973  1.00  0.00     0.160 A 
ATOM      2  C   UNL     1     -37.316 -10.097  24.975  1.00  0.00     0.050 A 
ATOM      3  C   UNL     1     -36.548  -8.973  24.659  1.00  0.00     0.004 A 
ATOM      4  C   UNL     1     -36.761  -7.769  25.331  1.00  0.00     0.004 A 
ATOM      5  C   UNL     1     -37.742  -7.685  26.323  1.00  0.00     0.050 A 
ATOM      6  C   UNL     1     -38.516  -8.805  26.647  1.00  0.00     0.157 A 
ENDROOT
BRANCH   1   7
ATOM      7  O   UNL     1     -39.099 -11.133  26.318  1.00  0.00    -0.493 OA
ATOM      8  C   UNL     1     -39.169 -12.340  25.565  1.00  0.00     0.278 C 
ENDBRANCH   1   7
BRANCH   6   9
ATOM      9  O   UNL     1     -39.486  -8.687  27.641  1.00  0.00    -0.504 OA
ATOM     10  H   UNL     1     -39.319  -8.984  28.595  1.00  0.00     0.293 HD
ENDBRANCH   6   9
TORSDOF 2
ENDMDL
MODEL 7
REMARK VINA RESULT:    -4.617     10.328     11.608
REMARK INTER + INTRA:          -5.066
REMARK INTER:                  -5.031
REMARK INTRA:                  -0.035
REMARK UNBOUND:                -0.044
REMARK SMILES COc1ccccc1O
REMARK SMILES IDX 3 1 4 2 5 3 6 4 7 5 8 6 2 7 1 8 9 9
REMARK H PARENT 9 10
REMARK Flexibility Score: inf
ROOT
ATOM      1  C   UNL     1     -25.301 -11.641  27.205  1.00  0.00     0.160 A 
ATOM      2  C   UNL     1     -25.974 -11.189  26.052  1.00  0.00     0.050 A 
ATOM      3  C   UNL     1     -27.102 -10.371  26.168  1.00  0.00     0.004 A 
ATOM      4  C   UNL     1     -27.568  -9.997  27.428  1.00  0.00     0.004 A 
ATOM      5  C   UNL     1     -26.908 -10.438  28.578  1.00  0.00     0.050 A 
ATOM      6  C   UNL     1     -25.778 -11.257  28.473  1.00  0.00     0.157 A 
ENDROOT
BRANCH   1   7
ATOM      7  O   UNL     1     -24.164 -12.462  27.128  1.00  0.00    -0.493 OA
ATOM      8  C   UNL     1     -24.100 -13.685  26.399  1.00  0.00     0.278 C 
ENDBRANCH   1   7
BRANCH   6   9
ATOM      9  O   UNL     1     -25.143 -11.679  29.641  1.00  0.00    -0.504 OA
ATOM     10  H   UNL     1     -24.524 -12.480  29.659  1.00  0.00     0.293 HD
ENDBRANCH   6   9
TORSDOF 2
ENDMDL
MODEL 8
REMARK VINA RESULT:    -4.570      2.522      3.201
REMARK INTER + INTRA:          -5.014
REMARK INTER:                  -4.989
REMARK INTRA:                  -0.025
REMARK UNBOUND:                -0.044
REMARK SMILES COc1ccccc1O
REMARK SMILES IDX 3 1 4 2 5 3 6 4 7 5 8 6 2 7 1 8 9 9
REMARK H PARENT 9 10
REMARK Flexibility Score: inf
ROOT
ATOM      1  C   UNL     1     -37.769  -8.109  25.390  1.00  0.00     0.160 A 
ATOM      2  C   UNL     1     -37.057  -9.016  24.579  1.00  0.00     0.050 A 
ATOM      3  C   UNL     1     -37.249 -10.393  24.723  1.00  0.00     0.004 A 
ATOM      4  C   UNL     1     -38.148 -10.879  25.673  1.00  0.00     0.004 A 
ATOM      5  C   UNL     1     -38.859  -9.989  26.482  1.00  0.00     0.050 A 
ATOM      6  C   UNL     1     -38.675  -8.608  26.345  1.00  0.00     0.157 A 
ENDROOT
BRANCH   1   7
ATOM      7  O   UNL     1     -37.604  -6.720  25.273  1.00  0.00    -0.493 OA
ATOM      8  C   UNL     1     -36.579  -6.090  24.509  1.00  0.00     0.278 C 
ENDBRANCH   1   7
BRANCH   6   9
ATOM      9  O   UNL     1     -39.401  -7.748  27.169  1.00  0.00    -0.504 OA
ATOM     10  H   UNL     1     -40.413  -7.705  27.145  1.00  0.00     0.293 HD
ENDBRANCH   6   9
TORSDOF 2
ENDMDL
MODEL 9
REMARK VINA RESULT:    -4.534      9.750     11.283
REMARK INTER + INTRA:          -4.975
REMARK INTER:                  -4.929
REMARK INTRA:                  -0.046
REMARK UNBOUND:                -0.044
REMARK SMILES COc1ccccc1O
REMARK SMILES IDX 3 1 4 2 5 3 6 4 7 5 8 6 2 7 1 8 9 9
REMARK H PARENT 9 10
REMARK Flexibility Score: inf
ROOT
ATOM      1  C   UNL     1     -25.502 -10.387  28.180  1.00  0.00     0.160 A 
ATOM      2  C   UNL     1     -26.109  -9.617  29.193  1.00  0.00     0.050 A 
ATOM      3  C   UNL     1     -27.465  -9.287  29.112  1.00  0.00     0.004 A 
ATOM      4  C   UNL     1     -28.226  -9.718  28.026  1.00  0.00     0.004 A 
ATOM      5  C   UNL     1     -27.635 -10.481  27.016  1.00  0.00     0.050 A 
ATOM      6  C   UNL     1     -26.278 -10.818  27.088  1.00  0.00     0.157 A 
ENDROOT
BRANCH   1   7
ATOM      7  O   UNL     1     -24.143 -10.738  28.228  1.00  0.00    -0.493 OA
ATOM      8  C   UNL     1     -23.607 -11.782  29.036  1.00  0.00     0.278 C 
ENDBRANCH   1   7
BRANCH   6   9
ATOM      9  O   UNL     1     -25.720 -11.581  26.063  1.00  0.00    -0.504 OA
ATOM     10  H   UNL     1     -24.742 -11.843  26.057  1.00  0.00     0.293 HD
ENDBRANCH   6   9
TORSDOF 2
ENDMDL
