MODEL 1
REMARK VINA RESULT:    -4.268      0.000      0.000
REMARK INTER + INTRA:          -5.305
REMARK INTER:                  -5.016
REMARK INTRA:                  -0.289
REMARK UNBOUND:                -0.289
REMARK SMILES O=c1c(O)c(-c2ccc(O)cc2)oc2cc(O)cc(O)c12
REMARK SMILES IDX 5 1 3 2 2 3 1 4 21 5 19 6 18 7 16 8 15 9 14 10 13 11 6 12
REMARK SMILES IDX 7 13 8 14 9 15 12 16 11 17 10 18 4 20 20 22 17 24
REMARK H PARENT 10 19 4 21 20 23 17 25
REMARK Flexibility Score: inf
ROOT
ATOM      1  C   UNL     1      36.156  -3.044   3.621  1.00  0.00     0.180 A 
ATOM      2  C   UNL     1      35.615  -2.491   2.445  1.00  0.00     0.208 A 
ATOM      3  C   UNL     1      36.447  -2.331   1.326  1.00  0.00     0.238 A 
ATOM      4  O   UNL     1      35.977  -1.826   0.270  1.00  0.00    -0.285 OA
ATOM      5  C   UNL     1      37.793  -2.743   1.394  1.00  0.00     0.111 A 
ATOM      6  C   UNL     1      38.697  -2.620   0.311  1.00  0.00     0.134 A 
ATOM      7  C   UNL     1      40.020  -3.063   0.455  1.00  0.00     0.093 A 
ATOM      8  C   UNL     1      40.457  -3.624   1.657  1.00  0.00     0.123 A 
ATOM      9  C   UNL     1      39.570  -3.747   2.730  1.00  0.00     0.094 A 
ATOM     10  C   UNL     1      38.248  -3.311   2.608  1.00  0.00     0.146 A 
ATOM     11  O   UNL     1      37.426  -3.435   3.644  1.00  0.00    -0.452 OA
ENDROOT
BRANCH   1  12
ATOM     12  C   UNL     1      35.348  -3.227   4.849  1.00  0.00     0.021 A 
ATOM     13  C   UNL     1      34.825  -4.496   5.149  1.00  0.00     0.016 A 
ATOM     14  C   UNL     1      34.078  -4.697   6.314  1.00  0.00     0.047 A 
ATOM     15  C   UNL     1      33.857  -3.639   7.199  1.00  0.00     0.115 A 
ATOM     16  C   UNL     1      35.139  -2.171   5.753  1.00  0.00     0.016 A 
ATOM     17  C   UNL     1      34.392  -2.374   6.918  1.00  0.00     0.047 A 
BRANCH  15  18
ATOM     18  O   UNL     1      33.110  -3.853   8.356  1.00  0.00    -0.508 OA
ATOM     19  H   UNL     1      32.852  -4.786   8.654  1.00  0.00     0.293 HD
ENDBRANCH  15  18
ENDBRANCH   1  12
BRANCH   2  20
ATOM     20  O   UNL     1      34.264  -2.137   2.387  1.00  0.00    -0.502 OA
ATOM     21  H   UNL     1      33.873  -1.612   1.614  1.00  0.00     0.293 HD
ENDBRANCH   2  20
BRANCH   6  22
ATOM     22  O   UNL     1      38.291  -2.064  -0.903  1.00  0.00    -0.507 OA
ATOM     23  H   UNL     1      38.612  -2.431  -1.792  1.00  0.00     0.293 HD
ENDBRANCH   6  22
BRANCH   8  24
ATOM     24  O   UNL     1      41.776  -4.057   1.773  1.00  0.00    -0.508 OA
ATOM     25  H   UNL     1      42.019  -4.876   2.319  1.00  0.00     0.293 HD
ENDBRANCH   8  24
TORSDOF 5
ENDMDL
MODEL 2
REMARK VINA RESULT:    -3.987     10.756     12.268
REMARK INTER + INTRA:          -4.975
REMARK INTER:                  -4.699
REMARK INTRA:                  -0.276
REMARK UNBOUND:                -0.289
REMARK SMILES O=c1c(O)c(-c2ccc(O)cc2)oc2cc(O)cc(O)c12
REMARK SMILES IDX 5 1 3 2 2 3 1 4 21 5 19 6 18 7 16 8 15 9 14 10 13 11 6 12
REMARK SMILES IDX 7 13 8 14 9 15 12 16 11 17 10 18 4 20 20 22 17 24
REMARK H PARENT 10 19 4 21 20 23 17 25
REMARK Flexibility Score: inf
ROOT
ATOM      1  C   UNL     1      30.175 -11.384  -0.569  1.00  0.00     0.180 A 
ATOM      2  C   UNL     1      30.939 -12.394  -1.185  1.00  0.00     0.208 A 
ATOM      3  C   UNL     1      31.780 -13.188  -0.390  1.00  0.00     0.238 A 
ATOM      4  O   UNL     1      32.478 -14.088  -0.932  1.00  0.00    -0.285 OA
ATOM      5  C   UNL     1      31.829 -12.974   1.002  1.00  0.00     0.111 A 
ATOM      6  C   UNL     1      32.647 -13.731   1.875  1.00  0.00     0.134 A 
ATOM      7  C   UNL     1      32.633 -13.463   3.251  1.00  0.00     0.093 A 
ATOM      8  C   UNL     1      31.818 -12.455   3.773  1.00  0.00     0.123 A 
ATOM      9  C   UNL     1      31.009 -11.703   2.916  1.00  0.00     0.094 A 
ATOM     10  C   UNL     1      31.010 -11.954   1.541  1.00  0.00     0.146 A 
ATOM     11  O   UNL     1      30.235 -11.221   0.749  1.00  0.00    -0.452 OA
ENDROOT
BRANCH   1  12
ATOM     12  C   UNL     1      29.278 -10.494  -1.342  1.00  0.00     0.021 A 
ATOM     13  C   UNL     1      27.892 -10.719  -1.318  1.00  0.00     0.016 A 
ATOM     14  C   UNL     1      27.024  -9.878  -2.022  1.00  0.00     0.047 A 
ATOM     15  C   UNL     1      27.530  -8.793  -2.744  1.00  0.00     0.115 A 
ATOM     16  C   UNL     1      29.779  -9.389  -2.055  1.00  0.00     0.016 A 
ATOM     17  C   UNL     1      28.909  -8.549  -2.757  1.00  0.00     0.047 A 
BRANCH  15  18
ATOM     18  O   UNL     1      26.654  -7.963  -3.442  1.00  0.00    -0.508 OA
ATOM     19  H   UNL     1      25.700  -8.243  -3.634  1.00  0.00     0.293 HD
ENDBRANCH  15  18
ENDBRANCH   1  12
BRANCH   2  20
ATOM     20  O   UNL     1      30.834 -12.619  -2.560  1.00  0.00    -0.502 OA
ATOM     21  H   UNL     1      30.329 -13.408  -2.944  1.00  0.00     0.293 HD
ENDBRANCH   2  20
BRANCH   6  22
ATOM     22  O   UNL     1      33.472 -14.746   1.386  1.00  0.00    -0.507 OA
ATOM     23  H   UNL     1      33.969 -14.653   0.507  1.00  0.00     0.293 HD
ENDBRANCH   6  22
BRANCH   8  24
ATOM     24  O   UNL     1      31.821 -12.210   5.144  1.00  0.00    -0.508 OA
ATOM     25  H   UNL     1      31.408 -11.371   5.532  1.00  0.00     0.293 HD
ENDBRANCH   8  24
TORSDOF 5
ENDMDL
MODEL 3
REMARK VINA RESULT:    -3.969      3.684      7.054
REMARK INTER + INTRA:          -4.954
REMARK INTER:                  -4.677
REMARK INTRA:                  -0.277
REMARK UNBOUND:                -0.289
REMARK SMILES O=c1c(O)c(-c2ccc(O)cc2)oc2cc(O)cc(O)c12
REMARK SMILES IDX 5 1 3 2 2 3 1 4 21 5 19 6 18 7 16 8 15 9 14 10 13 11 6 12
REMARK SMILES IDX 7 13 8 14 9 15 12 16 11 17 10 18 4 20 20 22 17 24
REMARK H PARENT 10 19 4 21 20 23 17 25
REMARK Flexibility Score: inf
ROOT
ATOM      1  C   UNL     1      36.285  -2.630  -1.671  1.00  0.00     0.180 A 
ATOM      2  C   UNL     1      37.409  -3.422  -1.972  1.00  0.00     0.208 A 
ATOM      3  C   UNL     1      38.268  -3.804  -0.929  1.00  0.00     0.238 A 
ATOM      4  O   UNL     1      39.285  -4.505  -1.187  1.00  0.00    -0.285 OA
ATOM      5  C   UNL     1      37.979  -3.407   0.392  1.00  0.00     0.111 A 
ATOM      6  C   UNL     1      38.790  -3.753   1.500  1.00  0.00     0.134 A 
ATOM      7  C   UNL     1      38.429  -3.326   2.787  1.00  0.00     0.093 A 
ATOM      8  C   UNL     1      37.277  -2.564   2.988  1.00  0.00     0.123 A 
ATOM      9  C   UNL     1      36.472  -2.220   1.898  1.00  0.00     0.094 A 
ATOM     10  C   UNL     1      36.815  -2.633   0.608  1.00  0.00     0.146 A 
ATOM     11  O   UNL     1      36.036  -2.287  -0.411  1.00  0.00    -0.452 OA
ENDROOT
BRANCH   1  12
ATOM     12  C   UNL     1      35.343  -2.171  -2.718  1.00  0.00     0.021 A 
ATOM     13  C   UNL     1      34.298  -3.016  -3.126  1.00  0.00     0.016 A 
ATOM     14  C   UNL     1      33.383  -2.595  -4.097  1.00  0.00     0.047 A 
ATOM     15  C   UNL     1      33.493  -1.321  -4.660  1.00  0.00     0.115 A 
ATOM     16  C   UNL     1      35.436  -0.883  -3.274  1.00  0.00     0.016 A 
ATOM     17  C   UNL     1      34.520  -0.463  -4.244  1.00  0.00     0.047 A 
BRANCH  15  18
ATOM     18  O   UNL     1      32.575  -0.914  -5.627  1.00  0.00    -0.508 OA
ATOM     19  H   UNL     1      31.870  -0.215  -5.426  1.00  0.00     0.293 HD
ENDBRANCH  15  18
ENDBRANCH   1  12
BRANCH   2  20
ATOM     20  O   UNL     1      37.646  -3.844  -3.283  1.00  0.00    -0.502 OA
ATOM     21  H   UNL     1      37.405  -4.773  -3.606  1.00  0.00     0.293 HD
ENDBRANCH   2  20
BRANCH   6  22
ATOM     22  O   UNL     1      39.948  -4.514   1.333  1.00  0.00    -0.507 OA
ATOM     23  H   UNL     1      39.950  -5.519   1.467  1.00  0.00     0.293 HD
ENDBRANCH   6  22
BRANCH   8  24
ATOM     24  O   UNL     1      36.940  -2.155   4.276  1.00  0.00    -0.508 OA
ATOM     25  H   UNL     1      37.076  -2.761   5.077  1.00  0.00     0.293 HD
ENDBRANCH   8  24
TORSDOF 5
ENDMDL
MODEL 4
REMARK VINA RESULT:    -3.885      3.744      5.161
REMARK INTER + INTRA:          -4.855
REMARK INTER:                  -4.560
REMARK INTRA:                  -0.295
REMARK UNBOUND:                -0.289
REMARK SMILES O=c1c(O)c(-c2ccc(O)cc2)oc2cc(O)cc(O)c12
REMARK SMILES IDX 5 1 3 2 2 3 1 4 21 5 19 6 18 7 16 8 15 9 14 10 13 11 6 12
REMARK SMILES IDX 7 13 8 14 9 15 12 16 11 17 10 18 4 20 20 22 17 24
REMARK H PARENT 10 19 4 21 20 23 17 25
REMARK Flexibility Score: inf
ROOT
ATOM      1  C   UNL     1      34.515  -3.475   6.514  1.00  0.00     0.180 A 
ATOM      2  C   UNL     1      34.577  -3.825   5.152  1.00  0.00     0.208 A 
ATOM      3  C   UNL     1      34.719  -2.808   4.195  1.00  0.00     0.238 A 
ATOM      4  O   UNL     1      34.765  -3.109   2.971  1.00  0.00    -0.285 OA
ATOM      5  C   UNL     1      34.817  -1.466   4.614  1.00  0.00     0.111 A 
ATOM      6  C   UNL     1      34.965  -0.383   3.716  1.00  0.00     0.134 A 
ATOM      7  C   UNL     1      35.065   0.925   4.213  1.00  0.00     0.093 A 
ATOM      8  C   UNL     1      35.019   1.171   5.587  1.00  0.00     0.123 A 
ATOM      9  C   UNL     1      34.872   0.105   6.479  1.00  0.00     0.094 A 
ATOM     10  C   UNL     1      34.770  -1.205   6.005  1.00  0.00     0.146 A 
ATOM     11  O   UNL     1      34.625  -2.199   6.874  1.00  0.00    -0.452 OA
ENDROOT
BRANCH   1  12
ATOM     12  C   UNL     1      34.347  -4.488   7.581  1.00  0.00     0.021 A 
ATOM     13  C   UNL     1      35.475  -4.952   8.277  1.00  0.00     0.016 A 
ATOM     14  C   UNL     1      35.338  -5.892   9.304  1.00  0.00     0.047 A 
ATOM     15  C   UNL     1      34.072  -6.367   9.657  1.00  0.00     0.115 A 
ATOM     16  C   UNL     1      33.074  -4.956   7.954  1.00  0.00     0.016 A 
ATOM     17  C   UNL     1      32.939  -5.895   8.981  1.00  0.00     0.047 A 
BRANCH  15  18
ATOM     18  O   UNL     1      33.949  -7.305  10.681  1.00  0.00    -0.508 OA
ATOM     19  H   UNL     1      34.581  -7.308  11.473  1.00  0.00     0.293 HD
ENDBRANCH  15  18
ENDBRANCH   1  12
BRANCH   2  20
ATOM     20  O   UNL     1      34.528  -5.168   4.766  1.00  0.00    -0.502 OA
ATOM     21  H   UNL     1      34.008  -5.864   5.286  1.00  0.00     0.293 HD
ENDBRANCH   2  20
BRANCH   6  22
ATOM     22  O   UNL     1      35.015  -0.594   2.337  1.00  0.00    -0.507 OA
ATOM     23  H   UNL     1      35.694  -0.125   1.749  1.00  0.00     0.293 HD
ENDBRANCH   6  22
BRANCH   8  24
ATOM     24  O   UNL     1      35.122   2.479   6.055  1.00  0.00    -0.508 OA
ATOM     25  H   UNL     1      35.699   2.712   6.854  1.00  0.00     0.293 HD
ENDBRANCH   8  24
TORSDOF 5
ENDMDL
MODEL 5
REMARK VINA RESULT:    -3.832     11.969     13.830
REMARK INTER + INTRA:          -4.793
REMARK INTER:                  -4.641
REMARK INTRA:                  -0.152
REMARK UNBOUND:                -0.289
REMARK SMILES O=c1c(O)c(-c2ccc(O)cc2)oc2cc(O)cc(O)c12
REMARK SMILES IDX 5 1 3 2 2 3 1 4 21 5 19 6 18 7 16 8 15 9 14 10 13 11 6 12
REMARK SMILES IDX 7 13 8 14 9 15 12 16 11 17 10 18 4 20 20 22 17 24
REMARK H PARENT 10 19 4 21 20 23 17 25
REMARK Flexibility Score: inf
ROOT
ATOM      1  C   UNL     1      27.338  -8.876  -2.705  1.00  0.00     0.180 A 
ATOM      2  C   UNL     1      27.112  -8.914  -4.094  1.00  0.00     0.208 A 
ATOM      3  C   UNL     1      26.091  -8.118  -4.636  1.00  0.00     0.238 A 
ATOM      4  O   UNL     1      25.871  -8.151  -5.878  1.00  0.00    -0.285 OA
ATOM      5  C   UNL     1      25.329  -7.288  -3.789  1.00  0.00     0.111 A 
ATOM      6  C   UNL     1      24.286  -6.454  -4.255  1.00  0.00     0.134 A 
ATOM      7  C   UNL     1      23.580  -5.649  -3.349  1.00  0.00     0.093 A 
ATOM      8  C   UNL     1      23.897  -5.661  -1.989  1.00  0.00     0.123 A 
ATOM      9  C   UNL     1      24.926  -6.483  -1.522  1.00  0.00     0.094 A 
ATOM     10  C   UNL     1      25.640  -7.294  -2.408  1.00  0.00     0.146 A 
ATOM     11  O   UNL     1      26.610  -8.070  -1.938  1.00  0.00    -0.452 OA
ENDROOT
BRANCH   1  12
ATOM     12  C   UNL     1      28.384  -9.700  -2.055  1.00  0.00     0.021 A 
ATOM     13  C   UNL     1      29.737  -9.414  -2.296  1.00  0.00     0.016 A 
ATOM     14  C   UNL     1      30.742 -10.165  -1.676  1.00  0.00     0.047 A 
ATOM     15  C   UNL     1      30.406 -11.197  -0.797  1.00  0.00     0.115 A 
ATOM     16  C   UNL     1      28.052 -10.728  -1.154  1.00  0.00     0.016 A 
ATOM     17  C   UNL     1      29.059 -11.476  -0.534  1.00  0.00     0.047 A 
BRANCH  15  18
ATOM     18  O   UNL     1      31.417 -11.938  -0.186  1.00  0.00    -0.508 OA
ATOM     19  H   UNL     1      31.543 -11.932   0.819  1.00  0.00     0.293 HD
ENDBRANCH  15  18
ENDBRANCH   1  12
BRANCH   2  20
ATOM     20  O   UNL     1      27.914  -9.708  -4.919  1.00  0.00    -0.502 OA
ATOM     21  H   UNL     1      28.687  -9.328  -5.451  1.00  0.00     0.293 HD
ENDBRANCH   2  20
BRANCH   6  22
ATOM     22  O   UNL     1      23.945  -6.418  -5.609  1.00  0.00    -0.507 OA
ATOM     23  H   UNL     1      24.015  -7.239  -6.199  1.00  0.00     0.293 HD
ENDBRANCH   6  22
BRANCH   8  24
ATOM     24  O   UNL     1      23.181  -4.851  -1.110  1.00  0.00    -0.508 OA
ATOM     25  H   UNL     1      22.668  -5.241  -0.328  1.00  0.00     0.293 HD
ENDBRANCH   8  24
TORSDOF 5
ENDMDL
MODEL 6
REMARK VINA RESULT:    -3.806      5.181      8.313
REMARK INTER + INTRA:          -4.762
REMARK INTER:                  -4.605
REMARK INTRA:                  -0.157
REMARK UNBOUND:                -0.289
REMARK SMILES O=c1c(O)c(-c2ccc(O)cc2)oc2cc(O)cc(O)c12
REMARK SMILES IDX 5 1 3 2 2 3 1 4 21 5 19 6 18 7 16 8 15 9 14 10 13 11 6 12
REMARK SMILES IDX 7 13 8 14 9 15 12 16 11 17 10 18 4 20 20 22 17 24
REMARK H PARENT 10 19 4 21 20 23 17 25
REMARK Flexibility Score: inf
ROOT
ATOM      1  C   UNL     1      37.161  -7.008   8.712  1.00  0.00     0.180 A 
ATOM      2  C   UNL     1      36.556  -6.430   9.844  1.00  0.00     0.208 A 
ATOM      3  C   UNL     1      35.623  -5.397   9.662  1.00  0.00     0.238 A 
ATOM      4  O   UNL     1      35.083  -4.864  10.669  1.00  0.00    -0.285 OA
ATOM      5  C   UNL     1      35.297  -4.975   8.357  1.00  0.00     0.111 A 
ATOM      6  C   UNL     1      34.366  -3.944   8.086  1.00  0.00     0.134 A 
ATOM      7  C   UNL     1      34.088  -3.588   6.758  1.00  0.00     0.093 A 
ATOM      8  C   UNL     1      34.721  -4.240   5.698  1.00  0.00     0.123 A 
ATOM      9  C   UNL     1      35.643  -5.258   5.959  1.00  0.00     0.094 A 
ATOM     10  C   UNL     1      35.935  -5.627   7.275  1.00  0.00     0.146 A 
ATOM     11  O   UNL     1      36.819  -6.594   7.496  1.00  0.00    -0.452 OA
ENDROOT
BRANCH   1  12
ATOM     12  C   UNL     1      38.168  -8.088   8.823  1.00  0.00     0.021 A 
ATOM     13  C   UNL     1      37.902  -9.343   8.250  1.00  0.00     0.016 A 
ATOM     14  C   UNL     1      38.847 -10.371   8.323  1.00  0.00     0.047 A 
ATOM     15  C   UNL     1      40.075 -10.153   8.955  1.00  0.00     0.115 A 
ATOM     16  C   UNL     1      39.413  -7.870   9.440  1.00  0.00     0.016 A 
ATOM     17  C   UNL     1      40.357  -8.899   9.511  1.00  0.00     0.047 A 
BRANCH  15  18
ATOM     18  O   UNL     1      41.008 -11.187   9.021  1.00  0.00    -0.508 OA
ATOM     19  H   UNL     1      41.644 -11.375   8.256  1.00  0.00     0.293 HD
ENDBRANCH  15  18
ENDBRANCH   1  12
BRANCH   2  20
ATOM     20  O   UNL     1      36.860  -6.900  11.125  1.00  0.00    -0.502 OA
ATOM     21  H   UNL     1      36.670  -6.361  11.960  1.00  0.00     0.293 HD
ENDBRANCH   2  20
BRANCH   6  22
ATOM     22  O   UNL     1      33.715  -3.273   9.123  1.00  0.00    -0.507 OA
ATOM     23  H   UNL     1      32.710  -3.329   9.248  1.00  0.00     0.293 HD
ENDBRANCH   6  22
BRANCH   8  24
ATOM     24  O   UNL     1      34.427  -3.868   4.388  1.00  0.00    -0.508 OA
ATOM     25  H   UNL     1      33.640  -4.265   3.889  1.00  0.00     0.293 HD
ENDBRANCH   8  24
TORSDOF 5
ENDMDL
MODEL 7
REMARK VINA RESULT:    -3.755     10.615     12.543
REMARK INTER + INTRA:          -4.702
REMARK INTER:                  -4.453
REMARK INTRA:                  -0.249
REMARK UNBOUND:                -0.289
REMARK SMILES O=c1c(O)c(-c2ccc(O)cc2)oc2cc(O)cc(O)c12
REMARK SMILES IDX 5 1 3 2 2 3 1 4 21 5 19 6 18 7 16 8 15 9 14 10 13 11 6 12
REMARK SMILES IDX 7 13 8 14 9 15 12 16 11 17 10 18 4 20 20 22 17 24
REMARK H PARENT 10 19 4 21 20 23 17 25
REMARK Flexibility Score: inf
ROOT
ATOM      1  C   UNL     1      30.523 -12.043   0.699  1.00  0.00     0.180 A 
ATOM      2  C   UNL     1      31.093 -13.307   0.455  1.00  0.00     0.208 A 
ATOM      3  C   UNL     1      31.658 -14.016   1.527  1.00  0.00     0.238 A 
ATOM      4  O   UNL     1      32.182 -15.144   1.318  1.00  0.00    -0.285 OA
ATOM      5  C   UNL     1      31.626 -13.461   2.822  1.00  0.00     0.111 A 
ATOM      6  C   UNL     1      32.169 -14.111   3.956  1.00  0.00     0.134 A 
ATOM      7  C   UNL     1      32.088 -13.497   5.215  1.00  0.00     0.093 A 
ATOM      8  C   UNL     1      31.478 -12.250   5.362  1.00  0.00     0.123 A 
ATOM      9  C   UNL     1      30.940 -11.603   4.245  1.00  0.00     0.094 A 
ATOM     10  C   UNL     1      31.011 -12.197   2.982  1.00  0.00     0.146 A 
ATOM     11  O   UNL     1      30.497 -11.558   1.937  1.00  0.00    -0.452 OA
ENDROOT
BRANCH   1  12
ATOM     12  C   UNL     1      29.925 -11.227  -0.382  1.00  0.00     0.021 A 
ATOM     13  C   UNL     1      30.764 -10.529  -1.266  1.00  0.00     0.016 A 
ATOM     14  C   UNL     1      30.222  -9.770  -2.309  1.00  0.00     0.047 A 
ATOM     15  C   UNL     1      28.837  -9.712  -2.489  1.00  0.00     0.115 A 
ATOM     16  C   UNL     1      28.533 -11.180  -0.581  1.00  0.00     0.016 A 
ATOM     17  C   UNL     1      27.993 -10.422  -1.624  1.00  0.00     0.047 A 
BRANCH  15  18
ATOM     18  O   UNL     1      28.310  -8.952  -3.531  1.00  0.00    -0.508 OA
ATOM     19  H   UNL     1      28.509  -7.962  -3.617  1.00  0.00     0.293 HD
ENDBRANCH  15  18
ENDBRANCH   1  12
BRANCH   2  20
ATOM     20  O   UNL     1      31.068 -13.856  -0.831  1.00  0.00    -0.502 OA
ATOM     21  H   UNL     1      30.203 -14.064  -1.315  1.00  0.00     0.293 HD
ENDBRANCH   2  20
BRANCH   6  22
ATOM     22  O   UNL     1      32.785 -15.358   3.844  1.00  0.00    -0.507 OA
ATOM     23  H   UNL     1      33.240 -15.654   2.987  1.00  0.00     0.293 HD
ENDBRANCH   6  22
BRANCH   8  24
ATOM     24  O   UNL     1      31.410 -11.662   6.623  1.00  0.00    -0.508 OA
ATOM     25  H   UNL     1      30.523 -11.504   7.087  1.00  0.00     0.293 HD
ENDBRANCH   8  24
TORSDOF 5
ENDMDL
MODEL 8
REMARK VINA RESULT:    -3.745      1.850      3.792
REMARK INTER + INTRA:          -4.691
REMARK INTER:                  -4.408
REMARK INTRA:                  -0.283
REMARK UNBOUND:                -0.289
REMARK SMILES O=c1c(O)c(-c2ccc(O)cc2)oc2cc(O)cc(O)c12
REMARK SMILES IDX 5 1 3 2 2 3 1 4 21 5 19 6 18 7 16 8 15 9 14 10 13 11 6 12
REMARK SMILES IDX 7 13 8 14 9 15 12 16 11 17 10 18 4 20 20 22 17 24
REMARK H PARENT 10 19 4 21 20 23 17 25
REMARK Flexibility Score: inf
ROOT
ATOM      1  C   UNL     1      35.280  -3.287   6.044  1.00  0.00     0.180 A 
ATOM      2  C   UNL     1      36.652  -3.217   6.351  1.00  0.00     0.208 A 
ATOM      3  C   UNL     1      37.567  -2.977   5.315  1.00  0.00     0.238 A 
ATOM      4  O   UNL     1      38.801  -2.923   5.576  1.00  0.00    -0.285 OA
ATOM      5  C   UNL     1      37.098  -2.793   3.999  1.00  0.00     0.111 A 
ATOM      6  C   UNL     1      37.952  -2.544   2.898  1.00  0.00     0.134 A 
ATOM      7  C   UNL     1      37.406  -2.362   1.619  1.00  0.00     0.093 A 
ATOM      8  C   UNL     1      36.025  -2.423   1.419  1.00  0.00     0.123 A 
ATOM      9  C   UNL     1      35.176  -2.669   2.502  1.00  0.00     0.094 A 
ATOM     10  C   UNL     1      35.700  -2.855   3.783  1.00  0.00     0.146 A 
ATOM     11  O   UNL     1      34.871  -3.093   4.794  1.00  0.00    -0.452 OA
ENDROOT
BRANCH   1  12
ATOM     12  C   UNL     1      34.254  -3.554   7.079  1.00  0.00     0.021 A 
ATOM     13  C   UNL     1      33.843  -4.876   7.319  1.00  0.00     0.016 A 
ATOM     14  C   UNL     1      32.893  -5.155   8.307  1.00  0.00     0.047 A 
ATOM     15  C   UNL     1      32.355  -4.119   9.076  1.00  0.00     0.115 A 
ATOM     16  C   UNL     1      33.724  -2.519   7.870  1.00  0.00     0.016 A 
ATOM     17  C   UNL     1      32.774  -2.800   8.858  1.00  0.00     0.047 A 
BRANCH  15  18
ATOM     18  O   UNL     1      31.408  -4.411  10.057  1.00  0.00    -0.508 OA
ATOM     19  H   UNL     1      31.668  -4.862  10.926  1.00  0.00     0.293 HD
ENDBRANCH  15  18
ENDBRANCH   1  12
BRANCH   2  20
ATOM     20  O   UNL     1      37.088  -3.353   7.672  1.00  0.00    -0.502 OA
ATOM     21  H   UNL     1      37.229  -2.557   8.282  1.00  0.00     0.293 HD
ENDBRANCH   2  20
BRANCH   6  22
ATOM     22  O   UNL     1      39.337  -2.475   3.065  1.00  0.00    -0.507 OA
ATOM     23  H   UNL     1      39.777  -2.670   3.957  1.00  0.00     0.293 HD
ENDBRANCH   6  22
BRANCH   8  24
ATOM     24  O   UNL     1      35.508  -2.237   0.139  1.00  0.00    -0.508 OA
ATOM     25  H   UNL     1      36.032  -1.751  -0.579  1.00  0.00     0.293 HD
ENDBRANCH   8  24
TORSDOF 5
ENDMDL
MODEL 9
REMARK VINA RESULT:    -3.733     10.361     11.366
REMARK INTER + INTRA:          -4.677
REMARK INTER:                  -4.401
REMARK INTRA:                  -0.276
REMARK UNBOUND:                -0.289
REMARK SMILES O=c1c(O)c(-c2ccc(O)cc2)oc2cc(O)cc(O)c12
REMARK SMILES IDX 5 1 3 2 2 3 1 4 21 5 19 6 18 7 16 8 15 9 14 10 13 11 6 12
REMARK SMILES IDX 7 13 8 14 9 15 12 16 11 17 10 18 4 20 20 22 17 24
REMARK H PARENT 10 19 4 21 20 23 17 25
REMARK Flexibility Score: inf
ROOT
ATOM      1  C   UNL     1      30.466 -11.801   0.848  1.00  0.00     0.180 A 
ATOM      2  C   UNL     1      29.111 -11.579   0.539  1.00  0.00     0.208 A 
ATOM      3  C   UNL     1      28.774 -11.120  -0.744  1.00  0.00     0.238 A 
ATOM      4  O   UNL     1      27.564 -10.906  -1.029  1.00  0.00    -0.285 OA
ATOM      5  C   UNL     1      29.790 -10.910  -1.698  1.00  0.00     0.111 A 
ATOM      6  C   UNL     1      29.536 -10.452  -3.013  1.00  0.00     0.134 A 
ATOM      7  C   UNL     1      30.602 -10.277  -3.907  1.00  0.00     0.093 A 
ATOM      8  C   UNL     1      31.914 -10.551  -3.515  1.00  0.00     0.123 A 
ATOM      9  C   UNL     1      32.171 -11.002  -2.217  1.00  0.00     0.094 A 
ATOM     10  C   UNL     1      31.124 -11.182  -1.310  1.00  0.00     0.146 A 
ATOM     11  O   UNL     1      31.396 -11.607  -0.081  1.00  0.00    -0.452 OA
ENDROOT
BRANCH   1  12
ATOM     12  C   UNL     1      30.903 -12.267   2.184  1.00  0.00     0.021 A 
ATOM     13  C   UNL     1      31.263 -13.613   2.363  1.00  0.00     0.016 A 
ATOM     14  C   UNL     1      31.700 -14.071   3.611  1.00  0.00     0.047 A 
ATOM     15  C   UNL     1      31.796 -13.187   4.689  1.00  0.00     0.115 A 
ATOM     16  C   UNL     1      31.021 -11.379   3.269  1.00  0.00     0.016 A 
ATOM     17  C   UNL     1      31.458 -11.838   4.515  1.00  0.00     0.047 A 
BRANCH  15  18
ATOM     18  O   UNL     1      32.232 -13.656   5.927  1.00  0.00    -0.508 OA
ATOM     19  H   UNL     1      31.718 -13.461   6.777  1.00  0.00     0.293 HD
ENDBRANCH  15  18
ENDBRANCH   1  12
BRANCH   2  20
ATOM     20  O   UNL     1      28.118 -11.842   1.487  1.00  0.00    -0.502 OA
ATOM     21  H   UNL     1      27.343 -12.467   1.302  1.00  0.00     0.293 HD
ENDBRANCH   2  20
BRANCH   6  22
ATOM     22  O   UNL     1      28.236 -10.171  -3.436  1.00  0.00    -0.507 OA
ATOM     23  H   UNL     1      27.485 -10.844  -3.339  1.00  0.00     0.293 HD
ENDBRANCH   6  22
BRANCH   8  24
ATOM     24  O   UNL     1      32.954 -10.370  -4.423  1.00  0.00    -0.508 OA
ATOM     25  H   UNL     1      32.823 -10.523  -5.416  1.00  0.00     0.293 HD
ENDBRANCH   8  24
TORSDOF 5
ENDMDL
