MODEL 1
REMARK VINA RESULT:    -4.087      0.000      0.000
REMARK INTER + INTRA:          -6.356
REMARK INTER:                  -5.640
REMARK INTRA:                  -0.716
REMARK UNBOUND:                -0.716
REMARK SMILES OC[C@@H](O)[C@@H](O)[C@@H](O)CO
REMARK SMILES IDX 5 1 3 2 2 3 1 4 4 6 7 8 9 9 10 10 8 12 6 14
REMARK H PARENT 1 5 4 7 10 11 8 13 6 15
REMARK Flexibility Score: inf
ROOT
ATOM      1  C   UNL     1     -20.784  -2.171 -13.013  1.00  0.00     0.176 C 
ENDROOT
BRANCH   1   2
ATOM      2  C   UNL     1     -19.383  -2.514 -12.439  1.00  0.00     0.171 C 
BRANCH   2   3
ATOM      3  C   UNL     1     -19.404  -3.661 -11.411  1.00  0.00     0.190 C 
BRANCH   3   4
ATOM      4  O   UNL     1     -19.883  -3.184 -10.183  1.00  0.00    -0.394 OA
ATOM      5  H   UNL     1     -20.860  -3.056 -10.299  1.00  0.00     0.210 HD
ENDBRANCH   3   4
ENDBRANCH   2   3
BRANCH   2   6
ATOM      6  O   UNL     1     -18.490  -2.806 -13.487  1.00  0.00    -0.388 OA
ATOM      7  H   UNL     1     -18.776  -2.289 -14.284  1.00  0.00     0.211 HD
ENDBRANCH   2   6
ENDBRANCH   1   2
BRANCH   1   8
ATOM      8  C   UNL     1     -21.390  -0.876 -12.414  1.00  0.00     0.171 C 
BRANCH   8   9
ATOM      9  C   UNL     1     -22.527  -1.186 -11.429  1.00  0.00     0.190 C 
BRANCH   9  10
ATOM     10  O   UNL     1     -22.013  -1.428 -10.147  1.00  0.00    -0.394 OA
ATOM     11  H   UNL     1     -21.163  -0.919 -10.090  1.00  0.00     0.210 HD
ENDBRANCH   9  10
ENDBRANCH   8   9
BRANCH   8  12
ATOM     12  O   UNL     1     -21.896  -0.054 -13.436  1.00  0.00    -0.388 OA
ATOM     13  H   UNL     1     -21.229  -0.052 -14.171  1.00  0.00     0.211 HD
ENDBRANCH   8  12
ENDBRANCH   1   8
BRANCH   1  14
ATOM     14  O   UNL     1     -21.671  -3.242 -12.792  1.00  0.00    -0.388 OA
ATOM     15  H   UNL     1     -21.127  -4.021 -12.504  1.00  0.00     0.211 HD
ENDBRANCH   1  14
TORSDOF 9
ENDMDL
MODEL 2
REMARK VINA RESULT:    -4.077      2.339      3.727
REMARK INTER + INTRA:          -6.343
REMARK INTER:                  -5.857
REMARK INTRA:                  -0.486
REMARK UNBOUND:                -0.716
REMARK SMILES OC[C@@H](O)[C@@H](O)[C@@H](O)CO
REMARK SMILES IDX 5 1 3 2 2 3 1 4 4 6 7 8 9 9 10 10 8 12 6 14
REMARK H PARENT 1 5 4 7 10 11 8 13 6 15
REMARK Flexibility Score: inf
ROOT
ATOM      1  C   UNL     1     -22.679  -2.256 -11.125  1.00  0.00     0.176 C 
ENDROOT
BRANCH   1   2
ATOM      2  C   UNL     1     -22.306  -2.110 -12.626  1.00  0.00     0.171 C 
BRANCH   2   3
ATOM      3  C   UNL     1     -21.751  -0.719 -12.988  1.00  0.00     0.190 C 
BRANCH   3   4
ATOM      4  O   UNL     1     -22.802   0.206 -13.048  1.00  0.00    -0.394 OA
ATOM      5  H   UNL     1     -23.252   0.057 -13.919  1.00  0.00     0.210 HD
ENDBRANCH   3   4
ENDBRANCH   2   3
BRANCH   2   6
ATOM      6  O   UNL     1     -21.396  -3.118 -12.998  1.00  0.00    -0.388 OA
ATOM      7  H   UNL     1     -20.777  -3.264 -12.236  1.00  0.00     0.211 HD
ENDBRANCH   2   6
ENDBRANCH   1   2
BRANCH   1   8
ATOM      8  C   UNL     1     -24.206  -2.195 -10.866  1.00  0.00     0.171 C 
BRANCH   8   9
ATOM      9  C   UNL     1     -24.742  -3.529 -10.324  1.00  0.00     0.190 C 
BRANCH   9  10
ATOM     10  O   UNL     1     -26.143  -3.517 -10.290  1.00  0.00    -0.394 OA
ATOM     11  H   UNL     1     -26.396  -2.919  -9.540  1.00  0.00     0.210 HD
ENDBRANCH   9  10
ENDBRANCH   8   9
BRANCH   8  12
ATOM     12  O   UNL     1     -24.892  -1.887 -12.054  1.00  0.00    -0.388 OA
ATOM     13  H   UNL     1     -24.812  -2.674 -12.654  1.00  0.00     0.211 HD
ENDBRANCH   8  12
ENDBRANCH   1   8
BRANCH   1  14
ATOM     14  O   UNL     1     -22.042  -1.252 -10.371  1.00  0.00    -0.388 OA
ATOM     15  H   UNL     1     -22.142  -0.399 -10.870  1.00  0.00     0.211 HD
ENDBRANCH   1  14
TORSDOF 9
ENDMDL
MODEL 3
REMARK VINA RESULT:    -4.031      1.439      4.153
REMARK INTER + INTRA:          -6.278
REMARK INTER:                  -6.089
REMARK INTRA:                  -0.189
REMARK UNBOUND:                -0.716
REMARK SMILES OC[C@@H](O)[C@@H](O)[C@@H](O)CO
REMARK SMILES IDX 5 1 3 2 2 3 1 4 4 6 7 8 9 9 10 10 8 12 6 14
REMARK H PARENT 1 5 4 7 10 11 8 13 6 15
REMARK Flexibility Score: inf
ROOT
ATOM      1  C   UNL     1     -20.266  -2.796 -12.313  1.00  0.00     0.176 C 
ENDROOT
BRANCH   1   2
ATOM      2  C   UNL     1     -20.946  -1.401 -12.247  1.00  0.00     0.171 C 
BRANCH   2   3
ATOM      3  C   UNL     1     -21.854  -1.102 -13.456  1.00  0.00     0.190 C 
BRANCH   3   4
ATOM      4  O   UNL     1     -22.538   0.102 -13.244  1.00  0.00    -0.394 OA
ATOM      5  H   UNL     1     -23.315   0.090 -13.862  1.00  0.00     0.210 HD
ENDBRANCH   3   4
ENDBRANCH   2   3
BRANCH   2   6
ATOM      6  O   UNL     1     -21.666  -1.271 -11.044  1.00  0.00    -0.388 OA
ATOM      7  H   UNL     1     -22.597  -1.012 -11.274  1.00  0.00     0.211 HD
ENDBRANCH   2   6
ENDBRANCH   1   2
BRANCH   1   8
ATOM      8  C   UNL     1     -18.784  -2.732 -12.760  1.00  0.00     0.171 C 
BRANCH   8   9
ATOM      9  C   UNL     1     -18.195  -4.135 -12.972  1.00  0.00     0.190 C 
BRANCH   9  10
ATOM     10  O   UNL     1     -18.000  -4.384 -14.337  1.00  0.00    -0.394 OA
ATOM     11  H   UNL     1     -17.162  -4.912 -14.404  1.00  0.00     0.210 HD
ENDBRANCH   9  10
ENDBRANCH   8   9
BRANCH   8  12
ATOM     12  O   UNL     1     -18.010  -2.063 -11.795  1.00  0.00    -0.388 OA
ATOM     13  H   UNL     1     -18.458  -2.187 -10.919  1.00  0.00     0.211 HD
ENDBRANCH   8  12
ENDBRANCH   1   8
BRANCH   1  14
ATOM     14  O   UNL     1     -20.977  -3.638 -13.189  1.00  0.00    -0.388 OA
ATOM     15  H   UNL     1     -21.636  -3.072 -13.672  1.00  0.00     0.211 HD
ENDBRANCH   1  14
TORSDOF 9
ENDMDL
MODEL 4
REMARK VINA RESULT:    -4.029      2.681      3.921
REMARK INTER + INTRA:          -6.276
REMARK INTER:                  -5.823
REMARK INTRA:                  -0.453
REMARK UNBOUND:                -0.716
REMARK SMILES OC[C@@H](O)[C@@H](O)[C@@H](O)CO
REMARK SMILES IDX 5 1 3 2 2 3 1 4 4 6 7 8 9 9 10 10 8 12 6 14
REMARK H PARENT 1 5 4 7 10 11 8 13 6 15
REMARK Flexibility Score: inf
ROOT
ATOM      1  C   UNL     1     -22.698  -1.533 -11.601  1.00  0.00     0.176 C 
ENDROOT
BRANCH   1   2
ATOM      2  C   UNL     1     -22.230  -0.491 -12.654  1.00  0.00     0.171 C 
BRANCH   2   3
ATOM      3  C   UNL     1     -21.721  -1.128 -13.962  1.00  0.00     0.190 C 
BRANCH   3   4
ATOM      4  O   UNL     1     -22.113  -0.339 -15.052  1.00  0.00    -0.394 OA
ATOM      5  H   UNL     1     -21.422   0.367 -15.145  1.00  0.00     0.210 HD
ENDBRANCH   3   4
ENDBRANCH   2   3
BRANCH   2   6
ATOM      6  O   UNL     1     -23.265   0.425 -12.920  1.00  0.00    -0.388 OA
ATOM      7  H   UNL     1     -23.779   0.086 -13.699  1.00  0.00     0.211 HD
ENDBRANCH   2   6
ENDBRANCH   1   2
BRANCH   1   8
ATOM      8  C   UNL     1     -24.237  -1.575 -11.426  1.00  0.00     0.171 C 
BRANCH   8   9
ATOM      9  C   UNL     1     -24.672  -2.733 -10.515  1.00  0.00     0.190 C 
BRANCH   9  10
ATOM     10  O   UNL     1     -23.593  -3.593 -10.266  1.00  0.00    -0.394 OA
ATOM     11  H   UNL     1     -23.673  -4.333 -10.922  1.00  0.00     0.210 HD
ENDBRANCH   9  10
ENDBRANCH   8   9
BRANCH   8  12
ATOM     12  O   UNL     1     -24.868  -1.726 -12.673  1.00  0.00    -0.388 OA
ATOM     13  H   UNL     1     -24.193  -1.523 -13.372  1.00  0.00     0.211 HD
ENDBRANCH   8  12
ENDBRANCH   1   8
BRANCH   1  14
ATOM     14  O   UNL     1     -22.098  -1.262 -10.356  1.00  0.00    -0.388 OA
ATOM     15  H   UNL     1     -21.140  -1.065 -10.527  1.00  0.00     0.211 HD
ENDBRANCH   1  14
TORSDOF 9
ENDMDL
MODEL 5
REMARK VINA RESULT:    -3.995      1.245      2.516
REMARK INTER + INTRA:          -6.229
REMARK INTER:                  -5.747
REMARK INTRA:                  -0.482
REMARK UNBOUND:                -0.716
REMARK SMILES OC[C@@H](O)[C@@H](O)[C@@H](O)CO
REMARK SMILES IDX 5 1 3 2 2 3 1 4 4 6 7 8 9 9 10 10 8 12 6 14
REMARK H PARENT 1 5 4 7 10 11 8 13 6 15
REMARK Flexibility Score: inf
ROOT
ATOM      1  C   UNL     1     -21.666  -0.975 -12.357  1.00  0.00     0.176 C 
ENDROOT
BRANCH   1   2
ATOM      2  C   UNL     1     -20.894  -2.098 -13.102  1.00  0.00     0.171 C 
BRANCH   2   3
ATOM      3  C   UNL     1     -19.494  -2.370 -12.519  1.00  0.00     0.190 C 
BRANCH   3   4
ATOM      4  O   UNL     1     -19.607  -2.727 -11.169  1.00  0.00    -0.394 OA
ATOM      5  H   UNL     1     -20.564  -2.944 -11.021  1.00  0.00     0.210 HD
ENDBRANCH   3   4
ENDBRANCH   2   3
BRANCH   2   6
ATOM      6  O   UNL     1     -21.659  -3.279 -13.123  1.00  0.00    -0.388 OA
ATOM      7  H   UNL     1     -22.461  -3.111 -13.683  1.00  0.00     0.211 HD
ENDBRANCH   2   6
ENDBRANCH   1   2
BRANCH   1   8
ATOM      8  C   UNL     1     -22.718  -1.518 -11.356  1.00  0.00     0.171 C 
BRANCH   8   9
ATOM      9  C   UNL     1     -24.084  -0.844 -11.548  1.00  0.00     0.190 C 
BRANCH   9  10
ATOM     10  O   UNL     1     -24.783  -1.444 -12.606  1.00  0.00    -0.394 OA
ATOM     11  H   UNL     1     -25.015  -2.358 -12.299  1.00  0.00     0.210 HD
ENDBRANCH   9  10
ENDBRANCH   8   9
BRANCH   8  12
ATOM     12  O   UNL     1     -22.293  -1.299 -10.034  1.00  0.00    -0.388 OA
ATOM     13  H   UNL     1     -23.084  -1.416  -9.446  1.00  0.00     0.211 HD
ENDBRANCH   8  12
ENDBRANCH   1   8
BRANCH   1  14
ATOM     14  O   UNL     1     -22.305  -0.131 -13.285  1.00  0.00    -0.388 OA
ATOM     15  H   UNL     1     -21.609   0.462 -13.672  1.00  0.00     0.211 HD
ENDBRANCH   1  14
TORSDOF 9
ENDMDL
MODEL 6
REMARK VINA RESULT:    -3.950      2.643      4.274
REMARK INTER + INTRA:          -6.166
REMARK INTER:                  -5.656
REMARK INTRA:                  -0.510
REMARK UNBOUND:                -0.716
REMARK SMILES OC[C@@H](O)[C@@H](O)[C@@H](O)CO
REMARK SMILES IDX 5 1 3 2 2 3 1 4 4 6 7 8 9 9 10 10 8 12 6 14
REMARK H PARENT 1 5 4 7 10 11 8 13 6 15
REMARK Flexibility Score: inf
ROOT
ATOM      1  C   UNL     1     -24.019  -1.209 -11.494  1.00  0.00     0.176 C 
ENDROOT
BRANCH   1   2
ATOM      2  C   UNL     1     -22.528  -1.585 -11.711  1.00  0.00     0.171 C 
BRANCH   2   3
ATOM      3  C   UNL     1     -21.895  -0.902 -12.939  1.00  0.00     0.190 C 
BRANCH   3   4
ATOM      4  O   UNL     1     -22.604   0.268 -13.244  1.00  0.00    -0.394 OA
ATOM      5  H   UNL     1     -23.220   0.032 -13.986  1.00  0.00     0.210 HD
ENDBRANCH   3   4
ENDBRANCH   2   3
BRANCH   2   6
ATOM      6  O   UNL     1     -21.784  -1.302 -10.550  1.00  0.00    -0.388 OA
ATOM      7  H   UNL     1     -22.396  -1.374  -9.772  1.00  0.00     0.211 HD
ENDBRANCH   2   6
ENDBRANCH   1   2
BRANCH   1   8
ATOM      8  C   UNL     1     -24.608  -1.781 -10.180  1.00  0.00     0.171 C 
BRANCH   8   9
ATOM      9  C   UNL     1     -24.847  -3.295 -10.278  1.00  0.00     0.190 C 
BRANCH   9  10
ATOM     10  O   UNL     1     -26.185  -3.561 -10.602  1.00  0.00    -0.394 OA
ATOM     11  H   UNL     1     -26.683  -3.559  -9.743  1.00  0.00     0.210 HD
ENDBRANCH   9  10
ENDBRANCH   8   9
BRANCH   8  12
ATOM     12  O   UNL     1     -25.829  -1.154  -9.877  1.00  0.00    -0.388 OA
ATOM     13  H   UNL     1     -25.706  -0.663  -9.023  1.00  0.00     0.211 HD
ENDBRANCH   8  12
ENDBRANCH   1   8
BRANCH   1  14
ATOM     14  O   UNL     1     -24.793  -1.658 -12.581  1.00  0.00    -0.388 OA
ATOM     15  H   UNL     1     -24.995  -2.618 -12.423  1.00  0.00     0.211 HD
ENDBRANCH   1  14
TORSDOF 9
ENDMDL
MODEL 7
REMARK VINA RESULT:    -3.919      2.040      3.952
REMARK INTER + INTRA:          -6.125
REMARK INTER:                  -5.467
REMARK INTRA:                  -0.657
REMARK UNBOUND:                -0.716
REMARK SMILES OC[C@@H](O)[C@@H](O)[C@@H](O)CO
REMARK SMILES IDX 5 1 3 2 2 3 1 4 4 6 7 8 9 9 10 10 8 12 6 14
REMARK H PARENT 1 5 4 7 10 11 8 13 6 15
REMARK Flexibility Score: inf
ROOT
ATOM      1  C   UNL     1     -23.383  -1.812 -12.195  1.00  0.00     0.176 C 
ENDROOT
BRANCH   1   2
ATOM      2  C   UNL     1     -23.372  -1.053 -10.840  1.00  0.00     0.171 C 
BRANCH   2   3
ATOM      3  C   UNL     1     -24.582  -1.379  -9.944  1.00  0.00     0.190 C 
BRANCH   3   4
ATOM      4  O   UNL     1     -25.667  -0.569 -10.304  1.00  0.00    -0.394 OA
ATOM      5  H   UNL     1     -26.441  -1.178 -10.418  1.00  0.00     0.210 HD
ENDBRANCH   3   4
ENDBRANCH   2   3
BRANCH   2   6
ATOM      6  O   UNL     1     -22.168  -1.303 -10.155  1.00  0.00    -0.388 OA
ATOM      7  H   UNL     1     -21.822  -2.183 -10.459  1.00  0.00     0.211 HD
ENDBRANCH   2   6
ENDBRANCH   1   2
BRANCH   1   8
ATOM      8  C   UNL     1     -22.329  -1.283 -13.200  1.00  0.00     0.171 C 
BRANCH   8   9
ATOM      9  C   UNL     1     -21.035  -2.108 -13.151  1.00  0.00     0.190 C 
BRANCH   9  10
ATOM     10  O   UNL     1     -20.177  -1.619 -12.156  1.00  0.00    -0.394 OA
ATOM     11  H   UNL     1     -19.312  -2.089 -12.281  1.00  0.00     0.210 HD
ENDBRANCH   9  10
ENDBRANCH   8   9
BRANCH   8  12
ATOM     12  O   UNL     1     -22.015   0.058 -12.920  1.00  0.00    -0.388 OA
ATOM     13  H   UNL     1     -21.035   0.164 -13.038  1.00  0.00     0.211 HD
ENDBRANCH   8  12
ENDBRANCH   1   8
BRANCH   1  14
ATOM     14  O   UNL     1     -24.660  -1.736 -12.781  1.00  0.00    -0.388 OA
ATOM     15  H   UNL     1     -25.007  -0.820 -12.614  1.00  0.00     0.211 HD
ENDBRANCH   1  14
TORSDOF 9
ENDMDL
MODEL 8
REMARK VINA RESULT:    -3.904      7.424      9.290
REMARK INTER + INTRA:          -6.103
REMARK INTER:                  -5.456
REMARK INTRA:                  -0.647
REMARK UNBOUND:                -0.716
REMARK SMILES OC[C@@H](O)[C@@H](O)[C@@H](O)CO
REMARK SMILES IDX 5 1 3 2 2 3 1 4 4 6 7 8 9 9 10 10 8 12 6 14
REMARK H PARENT 1 5 4 7 10 11 8 13 6 15
REMARK Flexibility Score: inf
ROOT
ATOM      1  C   UNL     1     -28.663   1.959 -11.416  1.00  0.00     0.176 C 
ENDROOT
BRANCH   1   2
ATOM      2  C   UNL     1     -29.151   1.129 -10.198  1.00  0.00     0.171 C 
BRANCH   2   3
ATOM      3  C   UNL     1     -30.543   0.499 -10.402  1.00  0.00     0.190 C 
BRANCH   3   4
ATOM      4  O   UNL     1     -30.964   0.705 -11.722  1.00  0.00    -0.394 OA
ATOM      5  H   UNL     1     -31.763   0.132 -11.850  1.00  0.00     0.210 HD
ENDBRANCH   3   4
ENDBRANCH   2   3
BRANCH   2   6
ATOM      6  O   UNL     1     -28.204   0.138  -9.877  1.00  0.00    -0.388 OA
ATOM      7  H   UNL     1     -27.945   0.262  -8.926  1.00  0.00     0.211 HD
ENDBRANCH   2   6
ENDBRANCH   1   2
BRANCH   1   8
ATOM      8  C   UNL     1     -27.124   2.137 -11.457  1.00  0.00     0.171 C 
BRANCH   8   9
ATOM      9  C   UNL     1     -26.705   3.205 -12.477  1.00  0.00     0.190 C 
BRANCH   9  10
ATOM     10  O   UNL     1     -27.421   3.051 -13.673  1.00  0.00    -0.394 OA
ATOM     11  H   UNL     1     -26.813   3.347 -14.399  1.00  0.00     0.210 HD
ENDBRANCH   9  10
ENDBRANCH   8   9
BRANCH   8  12
ATOM     12  O   UNL     1     -26.500   0.924 -11.798  1.00  0.00    -0.388 OA
ATOM     13  H   UNL     1     -25.526   1.100 -11.862  1.00  0.00     0.211 HD
ENDBRANCH   8  12
ENDBRANCH   1   8
BRANCH   1  14
ATOM     14  O   UNL     1     -29.275   3.227 -11.412  1.00  0.00    -0.388 OA
ATOM     15  H   UNL     1     -28.555   3.902 -11.303  1.00  0.00     0.211 HD
ENDBRANCH   1  14
TORSDOF 9
ENDMDL
MODEL 9
REMARK VINA RESULT:    -3.876      1.362      2.506
REMARK INTER + INTRA:          -6.064
REMARK INTER:                  -5.380
REMARK INTRA:                  -0.685
REMARK UNBOUND:                -0.716
REMARK SMILES OC[C@@H](O)[C@@H](O)[C@@H](O)CO
REMARK SMILES IDX 5 1 3 2 2 3 1 4 4 6 7 8 9 9 10 10 8 12 6 14
REMARK H PARENT 1 5 4 7 10 11 8 13 6 15
REMARK Flexibility Score: inf
ROOT
ATOM      1  C   UNL     1     -19.571  -3.443 -11.519  1.00  0.00     0.176 C 
ENDROOT
BRANCH   1   2
ATOM      2  C   UNL     1     -18.118  -3.584 -12.047  1.00  0.00     0.171 C 
BRANCH   2   3
ATOM      3  C   UNL     1     -17.951  -4.699 -13.097  1.00  0.00     0.190 C 
BRANCH   3   4
ATOM      4  O   UNL     1     -17.935  -4.138 -14.381  1.00  0.00    -0.394 OA
ATOM      5  H   UNL     1     -18.863  -3.836 -14.562  1.00  0.00     0.210 HD
ENDBRANCH   3   4
ENDBRANCH   2   3
BRANCH   2   6
ATOM      6  O   UNL     1     -17.668  -2.352 -12.558  1.00  0.00    -0.388 OA
ATOM      7  H   UNL     1     -18.377  -1.677 -12.393  1.00  0.00     0.211 HD
ENDBRANCH   2   6
ENDBRANCH   1   2
BRANCH   1   8
ATOM      8  C   UNL     1     -20.357  -2.290 -12.193  1.00  0.00     0.171 C 
BRANCH   8   9
ATOM      9  C   UNL     1     -21.757  -2.126 -11.585  1.00  0.00     0.190 C 
BRANCH   9  10
ATOM     10  O   UNL     1     -21.700  -1.342 -10.424  1.00  0.00    -0.394 OA
ATOM     11  H   UNL     1     -22.236  -1.821  -9.741  1.00  0.00     0.210 HD
ENDBRANCH   9  10
ENDBRANCH   8   9
BRANCH   8  12
ATOM     12  O   UNL     1     -20.494  -2.531 -13.572  1.00  0.00    -0.388 OA
ATOM     13  H   UNL     1     -21.440  -2.782 -13.735  1.00  0.00     0.211 HD
ENDBRANCH   8  12
ENDBRANCH   1   8
BRANCH   1  14
ATOM     14  O   UNL     1     -19.561  -3.242 -10.126  1.00  0.00    -0.388 OA
ATOM     15  H   UNL     1     -18.662  -3.506  -9.796  1.00  0.00     0.211 HD
ENDBRANCH   1  14
TORSDOF 9
ENDMDL
