MODEL 1
REMARK VINA RESULT:    -5.031      0.000      0.000
REMARK INTER + INTRA:          -8.125
REMARK INTER:                  -7.384
REMARK INTRA:                  -0.741
REMARK UNBOUND:                -0.741
REMARK SMILES O=c1c(O[C@@H]2O[C@H](CO)[C@H](O)[C@H](O)[C@@H]2O)c(-c2ccc(O)c(O)c2)oc2cc(O)cc(O)c12
REMARK SMILES IDX 4 1 3 2 16 3 25 4 2 5 26 6 1 7 33 8 27 9 31 10 28 11 30 12
REMARK SMILES IDX 17 13 18 14 19 15 20 16 24 17 22 18 21 19 23 21 32 23 29 25
REMARK SMILES IDX 5 27 14 28 6 29 12 30 7 31 10 32 15 33 13 35 8 37 9 38 11 40
REMARK H PARENT 21 20 23 22 32 24 29 26 15 34 13 36 9 39 11 41
REMARK Flexibility Score: inf
ROOT
ATOM      1  O   UNL     1     -11.158   9.549   5.461  1.00  0.00    -0.454 OA
ENDROOT
BRANCH   1   2
ATOM      2  C   UNL     1     -11.012   8.313   6.122  1.00  0.00     0.214 A 
ATOM      3  C   UNL     1      -9.713   7.892   6.475  1.00  0.00     0.180 A 
ATOM      4  O   UNL     1      -9.530   6.745   7.123  1.00  0.00    -0.452 OA
ATOM      5  C   UNL     1     -12.100   7.479   6.465  1.00  0.00     0.239 A 
ATOM      6  C   UNL     1     -10.524   5.930   7.453  1.00  0.00     0.146 A 
ATOM      7  O   UNL     1     -13.275   7.820   6.176  1.00  0.00    -0.285 OA
ATOM      8  C   UNL     1     -11.860   6.258   7.133  1.00  0.00     0.111 A 
ATOM      9  C   UNL     1     -10.227   4.738   8.118  1.00  0.00     0.094 A 
ATOM     10  C   UNL     1     -12.895   5.358   7.491  1.00  0.00     0.134 A 
ATOM     11  C   UNL     1     -11.251   3.854   8.471  1.00  0.00     0.123 A 
ATOM     12  C   UNL     1     -12.578   4.166   8.160  1.00  0.00     0.093 A 
BRANCH   3  13
ATOM     13  C   UNL     1      -8.519   8.723   6.200  1.00  0.00     0.025 A 
ATOM     14  C   UNL     1      -7.990   8.841   4.905  1.00  0.00     0.016 A 
ATOM     15  C   UNL     1      -6.861   9.629   4.673  1.00  0.00     0.051 A 
ATOM     16  C   UNL     1      -6.228  10.289   5.739  1.00  0.00     0.157 A 
ATOM     17  C   UNL     1      -7.879   9.380   7.266  1.00  0.00     0.062 A 
ATOM     18  C   UNL     1      -6.739  10.164   7.034  1.00  0.00     0.158 A 
BRANCH  16  19
ATOM     19  O   UNL     1      -5.096  11.074   5.517  1.00  0.00    -0.504 OA
ATOM     20  H   UNL     1      -4.167  10.669   5.521  1.00  0.00     0.293 HD
ENDBRANCH  16  19
BRANCH  18  21
ATOM     21  O   UNL     1      -6.111  10.827   8.091  1.00  0.00    -0.504 OA
ATOM     22  H   UNL     1      -5.148  10.643   8.335  1.00  0.00     0.293 HD
ENDBRANCH  18  21
ENDBRANCH   3  13
BRANCH  10  23
ATOM     23  O   UNL     1     -14.228   5.635   7.187  1.00  0.00    -0.507 OA
ATOM     24  H   UNL     1     -14.664   5.300   6.335  1.00  0.00     0.293 HD
ENDBRANCH  10  23
BRANCH  11  25
ATOM     25  O   UNL     1     -10.962   2.658   9.124  1.00  0.00    -0.508 OA
ATOM     26  H   UNL     1     -11.014   1.765   8.648  1.00  0.00     0.293 HD
ENDBRANCH  11  25
ENDBRANCH   1   2
BRANCH   1  27
ATOM     27  C   UNL     1     -11.563  10.791   6.043  1.00  0.00     0.339 C 
ATOM     28  C   UNL     1     -11.002  11.984   5.236  1.00  0.00     0.214 C 
ATOM     29  O   UNL     1     -12.975  10.870   6.194  1.00  0.00    -0.332 OA
ATOM     30  C   UNL     1     -11.667  12.094   3.861  1.00  0.00     0.180 C 
ATOM     31  C   UNL     1     -13.698  10.980   4.970  1.00  0.00     0.179 C 
ATOM     32  C   UNL     1     -13.191  12.125   4.051  1.00  0.00     0.177 C 
BRANCH  28  33
ATOM     33  O   UNL     1      -9.600  11.950   5.121  1.00  0.00    -0.384 OA
ATOM     34  H   UNL     1      -9.224  11.630   5.983  1.00  0.00     0.211 HD
ENDBRANCH  28  33
BRANCH  30  35
ATOM     35  O   UNL     1     -11.265  11.031   3.038  1.00  0.00    -0.387 OA
ATOM     36  H   UNL     1     -10.636  10.472   3.562  1.00  0.00     0.211 HD
ENDBRANCH  30  35
BRANCH  31  37
ATOM     37  C   UNL     1     -13.882   9.621   4.266  1.00  0.00     0.191 C 
BRANCH  37  38
ATOM     38  O   UNL     1     -15.091   9.033   4.664  1.00  0.00    -0.394 OA
ATOM     39  H   UNL     1     -15.105   9.080   5.655  1.00  0.00     0.210 HD
ENDBRANCH  37  38
ENDBRANCH  31  37
BRANCH  32  40
ATOM     40  O   UNL     1     -13.841  12.086   2.807  1.00  0.00    -0.387 OA
ATOM     41  H   UNL     1     -13.173  12.353   2.124  1.00  0.00     0.211 HD
ENDBRANCH  32  40
ENDBRANCH   1  27
TORSDOF 12
ENDMDL
MODEL 2
REMARK VINA RESULT:    -4.373      1.645      5.740
REMARK INTER + INTRA:          -7.159
REMARK INTER:                  -7.497
REMARK INTRA:                   0.338
REMARK UNBOUND:                -0.741
REMARK SMILES O=c1c(O[C@@H]2O[C@H](CO)[C@H](O)[C@H](O)[C@@H]2O)c(-c2ccc(O)c(O)c2)oc2cc(O)cc(O)c12
REMARK SMILES IDX 4 1 3 2 16 3 25 4 2 5 26 6 1 7 33 8 27 9 31 10 28 11 30 12
REMARK SMILES IDX 17 13 18 14 19 15 20 16 24 17 22 18 21 19 23 21 32 23 29 25
REMARK SMILES IDX 5 27 14 28 6 29 12 30 7 31 10 32 15 33 13 35 8 37 9 38 11 40
REMARK H PARENT 21 20 23 22 32 24 29 26 15 34 13 36 9 39 11 41
REMARK Flexibility Score: inf
ROOT
ATOM      1  O   UNL     1     -12.026   8.731   5.511  1.00  0.00    -0.454 OA
ENDROOT
BRANCH   1   2
ATOM      2  C   UNL     1     -10.654   8.839   5.814  1.00  0.00     0.214 A 
ATOM      3  C   UNL     1     -10.046   7.800   6.548  1.00  0.00     0.180 A 
ATOM      4  O   UNL     1      -8.748   7.849   6.834  1.00  0.00    -0.452 OA
ATOM      5  C   UNL     1      -9.850   9.927   5.406  1.00  0.00     0.239 A 
ATOM      6  C   UNL     1      -7.962   8.858   6.479  1.00  0.00     0.146 A 
ATOM      7  O   UNL     1     -10.350  10.871   4.743  1.00  0.00    -0.285 OA
ATOM      8  C   UNL     1      -8.480   9.951   5.751  1.00  0.00     0.111 A 
ATOM      9  C   UNL     1      -6.614   8.823   6.843  1.00  0.00     0.094 A 
ATOM     10  C   UNL     1      -7.614  11.016   5.398  1.00  0.00     0.134 A 
ATOM     11  C   UNL     1      -5.763   9.876   6.492  1.00  0.00     0.123 A 
ATOM     12  C   UNL     1      -6.262  10.964   5.771  1.00  0.00     0.093 A 
BRANCH   3  13
ATOM     13  C   UNL     1     -10.798   6.599   6.974  1.00  0.00     0.025 A 
ATOM     14  C   UNL     1     -11.444   6.541   8.221  1.00  0.00     0.016 A 
ATOM     15  C   UNL     1     -12.144   5.394   8.599  1.00  0.00     0.051 A 
ATOM     16  C   UNL     1     -12.187   4.278   7.748  1.00  0.00     0.157 A 
ATOM     17  C   UNL     1     -10.838   5.477   6.128  1.00  0.00     0.062 A 
ATOM     18  C   UNL     1     -11.535   4.321   6.512  1.00  0.00     0.158 A 
BRANCH  16  19
ATOM     19  O   UNL     1     -12.880   3.126   8.121  1.00  0.00    -0.504 OA
ATOM     20  H   UNL     1     -12.578   2.209   7.815  1.00  0.00     0.293 HD
ENDBRANCH  16  19
BRANCH  18  21
ATOM     21  O   UNL     1     -11.585   3.212   5.666  1.00  0.00    -0.504 OA
ATOM     22  H   UNL     1     -11.001   3.146   4.843  1.00  0.00     0.293 HD
ENDBRANCH  18  21
ENDBRANCH   3  13
BRANCH  10  23
ATOM     23  O   UNL     1      -8.083  12.121   4.688  1.00  0.00    -0.507 OA
ATOM     24  H   UNL     1      -8.343  12.059   3.710  1.00  0.00     0.293 HD
ENDBRANCH  10  23
BRANCH  11  25
ATOM     25  O   UNL     1      -4.420   9.854   6.861  1.00  0.00    -0.508 OA
ATOM     26  H   UNL     1      -3.809  10.645   6.694  1.00  0.00     0.293 HD
ENDBRANCH  11  25
ENDBRANCH   1   2
BRANCH   1  27
ATOM     27  C   UNL     1     -13.115   8.763   6.438  1.00  0.00     0.339 C 
ATOM     28  C   UNL     1     -13.128  10.095   7.222  1.00  0.00     0.214 C 
ATOM     29  O   UNL     1     -14.361   8.510   5.800  1.00  0.00    -0.332 OA
ATOM     30  C   UNL     1     -13.500  11.275   6.318  1.00  0.00     0.180 C 
ATOM     31  C   UNL     1     -14.807   9.551   4.934  1.00  0.00     0.179 C 
ATOM     32  C   UNL     1     -14.821  10.952   5.605  1.00  0.00     0.177 C 
BRANCH  28  33
ATOM     33  O   UNL     1     -11.921  10.337   7.902  1.00  0.00    -0.384 OA
ATOM     34  H   UNL     1     -12.048  10.100   8.858  1.00  0.00     0.211 HD
ENDBRANCH  28  33
BRANCH  30  35
ATOM     35  O   UNL     1     -12.464  11.537   5.408  1.00  0.00    -0.387 OA
ATOM     36  H   UNL     1     -12.325  12.518   5.392  1.00  0.00     0.211 HD
ENDBRANCH  30  35
BRANCH  31  37
ATOM     37  C   UNL     1     -14.127   9.504   3.551  1.00  0.00     0.191 C 
BRANCH  37  38
ATOM     38  O   UNL     1     -13.317  10.634   3.375  1.00  0.00    -0.394 OA
ATOM     39  H   UNL     1     -13.055  10.929   4.286  1.00  0.00     0.210 HD
ENDBRANCH  37  38
ENDBRANCH  31  37
BRANCH  32  40
ATOM     40  O   UNL     1     -15.125  11.948   4.663  1.00  0.00    -0.387 OA
ATOM     41  H   UNL     1     -14.801  11.623   3.783  1.00  0.00     0.211 HD
ENDBRANCH  32  40
ENDBRANCH   1  27
TORSDOF 12
ENDMDL
MODEL 3
REMARK VINA RESULT:    -3.651      2.087      6.392
REMARK INTER + INTRA:          -6.099
REMARK INTER:                  -5.958
REMARK INTRA:                  -0.142
REMARK UNBOUND:                -0.741
REMARK SMILES O=c1c(O[C@@H]2O[C@H](CO)[C@H](O)[C@H](O)[C@@H]2O)c(-c2ccc(O)c(O)c2)oc2cc(O)cc(O)c12
REMARK SMILES IDX 4 1 3 2 16 3 25 4 2 5 26 6 1 7 33 8 27 9 31 10 28 11 30 12
REMARK SMILES IDX 17 13 18 14 19 15 20 16 24 17 22 18 21 19 23 21 32 23 29 25
REMARK SMILES IDX 5 27 14 28 6 29 12 30 7 31 10 32 15 33 13 35 8 37 9 38 11 40
REMARK H PARENT 21 20 23 22 32 24 29 26 15 34 13 36 9 39 11 41
REMARK Flexibility Score: inf
ROOT
ATOM      1  O   UNL     1     -11.965   7.933   5.982  1.00  0.00    -0.454 OA
ENDROOT
BRANCH   1   2
ATOM      2  C   UNL     1     -10.585   8.201   6.084  1.00  0.00     0.214 A 
ATOM      3  C   UNL     1      -9.697   7.111   6.200  1.00  0.00     0.180 A 
ATOM      4  O   UNL     1      -8.385   7.318   6.274  1.00  0.00    -0.452 OA
ATOM      5  C   UNL     1     -10.041   9.505   6.061  1.00  0.00     0.239 A 
ATOM      6  C   UNL     1      -7.837   8.526   6.266  1.00  0.00     0.146 A 
ATOM      7  O   UNL     1     -10.796  10.505   5.952  1.00  0.00    -0.285 OA
ATOM      8  C   UNL     1      -8.643   9.681   6.165  1.00  0.00     0.111 A 
ATOM      9  C   UNL     1      -6.448   8.638   6.365  1.00  0.00     0.094 A 
ATOM     10  C   UNL     1      -8.024  10.956   6.171  1.00  0.00     0.134 A 
ATOM     11  C   UNL     1      -5.841   9.897   6.370  1.00  0.00     0.123 A 
ATOM     12  C   UNL     1      -6.628  11.049   6.270  1.00  0.00     0.093 A 
BRANCH   3  13
ATOM     13  C   UNL     1     -10.172   5.710   6.183  1.00  0.00     0.025 A 
ATOM     14  C   UNL     1     -10.299   4.964   7.367  1.00  0.00     0.016 A 
ATOM     15  C   UNL     1     -10.747   3.642   7.323  1.00  0.00     0.051 A 
ATOM     16  C   UNL     1     -11.049   3.038   6.092  1.00  0.00     0.157 A 
ATOM     17  C   UNL     1     -10.469   5.100   4.952  1.00  0.00     0.062 A 
ATOM     18  C   UNL     1     -10.910   3.768   4.907  1.00  0.00     0.158 A 
BRANCH  16  19
ATOM     19  O   UNL     1     -11.491   1.716   6.038  1.00  0.00    -0.504 OA
ATOM     20  H   UNL     1     -11.631   1.174   6.883  1.00  0.00     0.293 HD
ENDBRANCH  16  19
BRANCH  18  21
ATOM     21  O   UNL     1     -11.217   3.166   3.685  1.00  0.00    -0.504 OA
ATOM     22  H   UNL     1     -11.738   2.302   3.636  1.00  0.00     0.293 HD
ENDBRANCH  18  21
ENDBRANCH   3  13
BRANCH  10  23
ATOM     23  O   UNL     1      -8.781  12.124   6.083  1.00  0.00    -0.507 OA
ATOM     24  H   UNL     1      -9.760  12.150   6.344  1.00  0.00     0.293 HD
ENDBRANCH  10  23
BRANCH  11  25
ATOM     25  O   UNL     1      -4.458  10.017   6.480  1.00  0.00    -0.508 OA
ATOM     26  H   UNL     1      -3.934  10.676   5.915  1.00  0.00     0.293 HD
ENDBRANCH  11  25
ENDBRANCH   1   2
BRANCH   1  27
ATOM     27  C   UNL     1     -13.038   8.818   6.314  1.00  0.00     0.339 C 
ATOM     28  C   UNL     1     -14.378   8.290   5.752  1.00  0.00     0.214 C 
ATOM     29  O   UNL     1     -13.109   9.062   7.713  1.00  0.00    -0.332 OA
ATOM     30  C   UNL     1     -14.831   7.021   6.480  1.00  0.00     0.180 C 
ATOM     31  C   UNL     1     -13.527   7.942   8.491  1.00  0.00     0.179 C 
ATOM     32  C   UNL     1     -14.849   7.298   7.991  1.00  0.00     0.177 C 
BRANCH  28  33
ATOM     33  O   UNL     1     -14.342   8.092   4.360  1.00  0.00    -0.384 OA
ATOM     34  H   UNL     1     -13.420   8.277   4.042  1.00  0.00     0.211 HD
ENDBRANCH  28  33
BRANCH  30  35
ATOM     35  O   UNL     1     -13.990   5.946   6.156  1.00  0.00    -0.387 OA
ATOM     36  H   UNL     1     -14.460   5.394   5.480  1.00  0.00     0.211 HD
ENDBRANCH  30  35
BRANCH  31  37
ATOM     37  C   UNL     1     -12.382   6.945   8.757  1.00  0.00     0.191 C 
BRANCH  37  38
ATOM     38  O   UNL     1     -12.907   5.679   9.055  1.00  0.00    -0.394 OA
ATOM     39  H   UNL     1     -13.084   5.678  10.031  1.00  0.00     0.210 HD
ENDBRANCH  37  38
ENDBRANCH  31  37
BRANCH  32  40
ATOM     40  O   UNL     1     -15.125   6.120   8.703  1.00  0.00    -0.387 OA
ATOM     41  H   UNL     1     -15.613   5.516   8.084  1.00  0.00     0.211 HD
ENDBRANCH  32  40
ENDBRANCH   1  27
TORSDOF 12
ENDMDL
MODEL 4
REMARK VINA RESULT:    -2.964      2.061      2.606
REMARK INTER + INTRA:          -5.091
REMARK INTER:                  -5.095
REMARK INTRA:                   0.004
REMARK UNBOUND:                -0.741
REMARK SMILES O=c1c(O[C@@H]2O[C@H](CO)[C@H](O)[C@H](O)[C@@H]2O)c(-c2ccc(O)c(O)c2)oc2cc(O)cc(O)c12
REMARK SMILES IDX 4 1 3 2 16 3 25 4 2 5 26 6 1 7 33 8 27 9 31 10 28 11 30 12
REMARK SMILES IDX 17 13 18 14 19 15 20 16 24 17 22 18 21 19 23 21 32 23 29 25
REMARK SMILES IDX 5 27 14 28 6 29 12 30 7 31 10 32 15 33 13 35 8 37 9 38 11 40
REMARK H PARENT 21 20 23 22 32 24 29 26 15 34 13 36 9 39 11 41
REMARK Flexibility Score: inf
ROOT
ATOM      1  O   UNL     1     -11.066   9.561   6.934  1.00  0.00    -0.454 OA
ENDROOT
BRANCH   1   2
ATOM      2  C   UNL     1     -10.766   8.336   6.305  1.00  0.00     0.214 A 
ATOM      3  C   UNL     1      -9.454   8.131   5.829  1.00  0.00     0.180 A 
ATOM      4  O   UNL     1      -9.120   6.980   5.252  1.00  0.00    -0.452 OA
ATOM      5  C   UNL     1     -11.706   7.294   6.140  1.00  0.00     0.239 A 
ATOM      6  C   UNL     1      -9.976   5.983   5.069  1.00  0.00     0.146 A 
ATOM      7  O   UNL     1     -12.884   7.432   6.556  1.00  0.00    -0.285 OA
ATOM      8  C   UNL     1     -11.316   6.096   5.501  1.00  0.00     0.111 A 
ATOM      9  C   UNL     1      -9.531   4.820   4.437  1.00  0.00     0.094 A 
ATOM     10  C   UNL     1     -12.205   5.015   5.279  1.00  0.00     0.134 A 
ATOM     11  C   UNL     1     -10.412   3.755   4.220  1.00  0.00     0.123 A 
ATOM     12  C   UNL     1     -11.740   3.854   4.643  1.00  0.00     0.093 A 
BRANCH   3  13
ATOM     13  C   UNL     1      -8.392   9.146   6.002  1.00  0.00     0.025 A 
ATOM     14  C   UNL     1      -7.738   9.721   4.899  1.00  0.00     0.016 A 
ATOM     15  C   UNL     1      -6.737  10.675   5.090  1.00  0.00     0.051 A 
ATOM     16  C   UNL     1      -6.355  11.048   6.388  1.00  0.00     0.157 A 
ATOM     17  C   UNL     1      -8.002   9.519   7.300  1.00  0.00     0.062 A 
ATOM     18  C   UNL     1      -6.989  10.471   7.493  1.00  0.00     0.158 A 
BRANCH  16  19
ATOM     19  O   UNL     1      -5.351  11.997   6.588  1.00  0.00    -0.504 OA
ATOM     20  H   UNL     1      -5.550  12.888   7.029  1.00  0.00     0.293 HD
ENDBRANCH  16  19
BRANCH  18  21
ATOM     21  O   UNL     1      -6.611  10.850   8.782  1.00  0.00    -0.504 OA
ATOM     22  H   UNL     1      -7.142  10.568   9.595  1.00  0.00     0.293 HD
ENDBRANCH  18  21
ENDBRANCH   3  13
BRANCH  10  23
ATOM     23  O   UNL     1     -13.539   5.086   5.679  1.00  0.00    -0.507 OA
ATOM     24  H   UNL     1     -13.976   5.963   5.938  1.00  0.00     0.293 HD
ENDBRANCH  10  23
BRANCH  11  25
ATOM     25  O   UNL     1      -9.978   2.596   3.580  1.00  0.00    -0.508 OA
ATOM     26  H   UNL     1      -8.993   2.395   3.452  1.00  0.00     0.293 HD
ENDBRANCH  11  25
ENDBRANCH   1   2
BRANCH   1  27
ATOM     27  C   UNL     1     -10.930  10.870   6.373  1.00  0.00     0.339 C 
ATOM     28  C   UNL     1     -11.841  11.034   5.135  1.00  0.00     0.214 C 
ATOM     29  O   UNL     1     -11.160  11.887   7.341  1.00  0.00    -0.332 OA
ATOM     30  C   UNL     1     -13.322  11.055   5.528  1.00  0.00     0.180 C 
ATOM     31  C   UNL     1     -12.513  11.997   7.776  1.00  0.00     0.179 C 
ATOM     32  C   UNL     1     -13.531  12.125   6.609  1.00  0.00     0.177 C 
BRANCH  28  33
ATOM     33  O   UNL     1     -11.591  10.067   4.145  1.00  0.00    -0.384 OA
ATOM     34  H   UNL     1     -11.960   9.199   4.457  1.00  0.00     0.211 HD
ENDBRANCH  28  33
BRANCH  30  35
ATOM     35  O   UNL     1     -13.728   9.785   5.964  1.00  0.00    -0.387 OA
ATOM     36  H   UNL     1     -14.711   9.815   6.090  1.00  0.00     0.211 HD
ENDBRANCH  30  35
BRANCH  31  37
ATOM     37  C   UNL     1     -12.881  10.946   8.842  1.00  0.00     0.191 C 
BRANCH  37  38
ATOM     38  O   UNL     1     -13.501   9.845   8.236  1.00  0.00    -0.394 OA
ATOM     39  H   UNL     1     -13.459  10.009   7.258  1.00  0.00     0.210 HD
ENDBRANCH  37  38
ENDBRANCH  31  37
BRANCH  32  40
ATOM     40  O   UNL     1     -14.848  12.081   7.095  1.00  0.00    -0.387 OA
ATOM     41  H   UNL     1     -14.877  11.370   7.786  1.00  0.00     0.211 HD
ENDBRANCH  32  40
ENDBRANCH   1  27
TORSDOF 12
ENDMDL
MODEL 5
REMARK VINA RESULT:    -2.885      1.583      6.752
REMARK INTER + INTRA:          -4.975
REMARK INTER:                  -4.523
REMARK INTRA:                  -0.452
REMARK UNBOUND:                -0.741
REMARK SMILES O=c1c(O[C@@H]2O[C@H](CO)[C@H](O)[C@H](O)[C@@H]2O)c(-c2ccc(O)c(O)c2)oc2cc(O)cc(O)c12
REMARK SMILES IDX 4 1 3 2 16 3 25 4 2 5 26 6 1 7 33 8 27 9 31 10 28 11 30 12
REMARK SMILES IDX 17 13 18 14 19 15 20 16 24 17 22 18 21 19 23 21 32 23 29 25
REMARK SMILES IDX 5 27 14 28 6 29 12 30 7 31 10 32 15 33 13 35 8 37 9 38 11 40
REMARK H PARENT 21 20 23 22 32 24 29 26 15 34 13 36 9 39 11 41
REMARK Flexibility Score: inf
ROOT
ATOM      1  O   UNL     1     -11.209   8.000   5.852  1.00  0.00    -0.454 OA
ENDROOT
BRANCH   1   2
ATOM      2  C   UNL     1     -10.068   8.828   5.858  1.00  0.00     0.214 A 
ATOM      3  C   UNL     1     -10.188  10.138   5.353  1.00  0.00     0.180 A 
ATOM      4  O   UNL     1      -9.143  10.962   5.363  1.00  0.00    -0.452 OA
ATOM      5  C   UNL     1      -8.812   8.418   6.361  1.00  0.00     0.239 A 
ATOM      6  C   UNL     1      -7.946  10.612   5.816  1.00  0.00     0.146 A 
ATOM      7  O   UNL     1      -8.662   7.261   6.828  1.00  0.00    -0.285 OA
ATOM      8  C   UNL     1      -7.722   9.317   6.332  1.00  0.00     0.111 A 
ATOM      9  C   UNL     1      -6.908  11.545   5.768  1.00  0.00     0.094 A 
ATOM     10  C   UNL     1      -6.427   8.975   6.797  1.00  0.00     0.134 A 
ATOM     11  C   UNL     1      -5.632  11.204   6.228  1.00  0.00     0.123 A 
ATOM     12  C   UNL     1      -5.397   9.925   6.742  1.00  0.00     0.093 A 
BRANCH   3  13
ATOM     13  C   UNL     1     -11.475  10.669   4.852  1.00  0.00     0.025 A 
ATOM     14  C   UNL     1     -12.466  11.141   5.729  1.00  0.00     0.016 A 
ATOM     15  C   UNL     1     -13.673  11.633   5.229  1.00  0.00     0.051 A 
ATOM     16  C   UNL     1     -13.918  11.636   3.847  1.00  0.00     0.157 A 
ATOM     17  C   UNL     1     -11.727  10.668   3.469  1.00  0.00     0.062 A 
ATOM     18  C   UNL     1     -12.944  11.154   2.968  1.00  0.00     0.158 A 
BRANCH  16  19
ATOM     19  O   UNL     1     -15.125  12.122   3.341  1.00  0.00    -0.504 OA
ATOM     20  H   UNL     1     -15.962  12.147   3.911  1.00  0.00     0.293 HD
ENDBRANCH  16  19
BRANCH  18  21
ATOM     21  O   UNL     1     -13.189  11.164   1.593  1.00  0.00    -0.504 OA
ATOM     22  H   UNL     1     -14.120  11.291   1.221  1.00  0.00     0.293 HD
ENDBRANCH  18  21
ENDBRANCH   3  13
BRANCH  10  23
ATOM     23  O   UNL     1      -6.157   7.705   7.306  1.00  0.00    -0.507 OA
ATOM     24  H   UNL     1      -5.367   7.156   6.988  1.00  0.00     0.293 HD
ENDBRANCH  10  23
BRANCH  11  25
ATOM     25  O   UNL     1      -4.589  12.125   6.174  1.00  0.00    -0.508 OA
ATOM     26  H   UNL     1      -4.201  12.439   5.291  1.00  0.00     0.293 HD
ENDBRANCH  11  25
ENDBRANCH   1   2
BRANCH   1  27
ATOM     27  C   UNL     1     -12.346   8.100   6.714  1.00  0.00     0.339 C 
ATOM     28  C   UNL     1     -13.601   7.501   6.037  1.00  0.00     0.214 C 
ATOM     29  O   UNL     1     -12.099   7.514   7.986  1.00  0.00    -0.332 OA
ATOM     30  C   UNL     1     -13.492   5.980   5.898  1.00  0.00     0.180 C 
ATOM     31  C   UNL     1     -11.983   6.093   7.973  1.00  0.00     0.179 C 
ATOM     32  C   UNL     1     -13.174   5.380   7.276  1.00  0.00     0.177 C 
BRANCH  28  33
ATOM     33  O   UNL     1     -13.891   8.105   4.800  1.00  0.00    -0.384 OA
ATOM     34  H   UNL     1     -13.629   9.062   4.851  1.00  0.00     0.211 HD
ENDBRANCH  28  33
BRANCH  30  35
ATOM     35  O   UNL     1     -12.517   5.646   4.945  1.00  0.00    -0.387 OA
ATOM     36  H   UNL     1     -11.640   5.647   5.405  1.00  0.00     0.211 HD
ENDBRANCH  30  35
BRANCH  31  37
ATOM     37  C   UNL     1     -10.589   5.615   7.519  1.00  0.00     0.191 C 
BRANCH  37  38
ATOM     38  O   UNL     1      -9.821   5.250   8.633  1.00  0.00    -0.394 OA
ATOM     39  H   UNL     1     -10.047   5.900   9.349  1.00  0.00     0.210 HD
ENDBRANCH  37  38
ENDBRANCH  31  37
BRANCH  32  40
ATOM     40  O   UNL     1     -12.929   4.002   7.166  1.00  0.00    -0.387 OA
ATOM     41  H   UNL     1     -12.026   3.838   7.542  1.00  0.00     0.211 HD
ENDBRANCH  32  40
ENDBRANCH   1  27
TORSDOF 12
ENDMDL
MODEL 6
REMARK VINA RESULT:    -2.569      1.664      6.753
REMARK INTER + INTRA:          -4.511
REMARK INTER:                  -3.178
REMARK INTRA:                  -1.333
REMARK UNBOUND:                -0.741
REMARK SMILES O=c1c(O[C@@H]2O[C@H](CO)[C@H](O)[C@H](O)[C@@H]2O)c(-c2ccc(O)c(O)c2)oc2cc(O)cc(O)c12
REMARK SMILES IDX 4 1 3 2 16 3 25 4 2 5 26 6 1 7 33 8 27 9 31 10 28 11 30 12
REMARK SMILES IDX 17 13 18 14 19 15 20 16 24 17 22 18 21 19 23 21 32 23 29 25
REMARK SMILES IDX 5 27 14 28 6 29 12 30 7 31 10 32 15 33 13 35 8 37 9 38 11 40
REMARK H PARENT 21 20 23 22 32 24 29 26 15 34 13 36 9 39 11 41
REMARK Flexibility Score: inf
ROOT
ATOM      1  O   UNL     1     -11.058   8.173   6.477  1.00  0.00    -0.454 OA
ENDROOT
BRANCH   1   2
ATOM      2  C   UNL     1      -9.910   8.964   6.271  1.00  0.00     0.214 A 
ATOM      3  C   UNL     1     -10.060  10.207   5.622  1.00  0.00     0.180 A 
ATOM      4  O   UNL     1      -9.008  10.997   5.430  1.00  0.00    -0.452 OA
ATOM      5  C   UNL     1      -8.617   8.585   6.695  1.00  0.00     0.239 A 
ATOM      6  C   UNL     1      -7.776  10.672   5.803  1.00  0.00     0.146 A 
ATOM      7  O   UNL     1      -8.439   7.488   7.284  1.00  0.00    -0.285 OA
ATOM      8  C   UNL     1      -7.521   9.443   6.450  1.00  0.00     0.111 A 
ATOM      9  C   UNL     1      -6.734  11.564   5.540  1.00  0.00     0.094 A 
ATOM     10  C   UNL     1      -6.192   9.124   6.824  1.00  0.00     0.134 A 
ATOM     11  C   UNL     1      -5.424  11.246   5.912  1.00  0.00     0.123 A 
ATOM     12  C   UNL     1      -5.158  10.033   6.553  1.00  0.00     0.093 A 
BRANCH   3  13
ATOM     13  C   UNL     1     -11.383  10.708   5.188  1.00  0.00     0.025 A 
ATOM     14  C   UNL     1     -12.447  10.854   6.094  1.00  0.00     0.016 A 
ATOM     15  C   UNL     1     -13.686  11.326   5.657  1.00  0.00     0.051 A 
ATOM     16  C   UNL     1     -13.888  11.634   4.303  1.00  0.00     0.157 A 
ATOM     17  C   UNL     1     -11.591  11.012   3.831  1.00  0.00     0.062 A 
ATOM     18  C   UNL     1     -12.839  11.478   3.391  1.00  0.00     0.158 A 
BRANCH  16  19
ATOM     19  O   UNL     1     -15.125  12.101   3.857  1.00  0.00    -0.504 OA
ATOM     20  H   UNL     1     -15.300  12.267   2.873  1.00  0.00     0.293 HD
ENDBRANCH  16  19
BRANCH  18  21
ATOM     21  O   UNL     1     -13.042  11.792   2.045  1.00  0.00    -0.504 OA
ATOM     22  H   UNL     1     -13.232  12.738   1.744  1.00  0.00     0.293 HD
ENDBRANCH  18  21
ENDBRANCH   3  13
BRANCH  10  23
ATOM     23  O   UNL     1      -5.892   7.918   7.457  1.00  0.00    -0.507 OA
ATOM     24  H   UNL     1      -4.938   7.641   7.659  1.00  0.00     0.293 HD
ENDBRANCH  10  23
BRANCH  11  25
ATOM     25  O   UNL     1      -4.378  12.125   5.643  1.00  0.00    -0.508 OA
ATOM     26  H   UNL     1      -3.599  11.861   5.051  1.00  0.00     0.293 HD
ENDBRANCH  11  25
ENDBRANCH   1   2
BRANCH   1  27
ATOM     27  C   UNL     1     -11.646   7.256   5.550  1.00  0.00     0.339 C 
ATOM     28  C   UNL     1     -10.990   5.861   5.668  1.00  0.00     0.214 C 
ATOM     29  O   UNL     1     -13.060   7.192   5.694  1.00  0.00    -0.332 OA
ATOM     30  C   UNL     1     -11.349   5.183   6.994  1.00  0.00     0.180 C 
ATOM     31  C   UNL     1     -13.507   6.572   6.898  1.00  0.00     0.179 C 
ATOM     32  C   UNL     1     -12.877   5.174   7.146  1.00  0.00     0.177 C 
BRANCH  28  33
ATOM     33  O   UNL     1      -9.597   5.899   5.477  1.00  0.00    -0.384 OA
ATOM     34  H   UNL     1      -9.317   5.044   5.057  1.00  0.00     0.211 HD
ENDBRANCH  28  33
BRANCH  30  35
ATOM     35  O   UNL     1     -10.721   5.839   8.063  1.00  0.00    -0.387 OA
ATOM     36  H   UNL     1     -11.395   6.432   8.484  1.00  0.00     0.211 HD
ENDBRANCH  30  35
BRANCH  31  37
ATOM     37  C   UNL     1     -13.460   7.525   8.109  1.00  0.00     0.191 C 
BRANCH  37  38
ATOM     38  O   UNL     1     -14.647   7.421   8.847  1.00  0.00    -0.394 OA
ATOM     39  H   UNL     1     -14.813   8.323   9.229  1.00  0.00     0.210 HD
ENDBRANCH  37  38
ENDBRANCH  31  37
BRANCH  32  40
ATOM     40  O   UNL     1     -13.241   4.685   8.411  1.00  0.00    -0.387 OA
ATOM     41  H   UNL     1     -13.585   5.457   8.931  1.00  0.00     0.211 HD
ENDBRANCH  32  40
ENDBRANCH   1  27
TORSDOF 12
ENDMDL
MODEL 7
REMARK VINA RESULT:    -2.289      1.726      2.180
REMARK INTER + INTRA:          -4.100
REMARK INTER:                  -5.036
REMARK INTRA:                   0.936
REMARK UNBOUND:                -0.741
REMARK SMILES O=c1c(O[C@@H]2O[C@H](CO)[C@H](O)[C@H](O)[C@@H]2O)c(-c2ccc(O)c(O)c2)oc2cc(O)cc(O)c12
REMARK SMILES IDX 4 1 3 2 16 3 25 4 2 5 26 6 1 7 33 8 27 9 31 10 28 11 30 12
REMARK SMILES IDX 17 13 18 14 19 15 20 16 24 17 22 18 21 19 23 21 32 23 29 25
REMARK SMILES IDX 5 27 14 28 6 29 12 30 7 31 10 32 15 33 13 35 8 37 9 38 11 40
REMARK H PARENT 21 20 23 22 32 24 29 26 15 34 13 36 9 39 11 41
REMARK Flexibility Score: inf
ROOT
ATOM      1  O   UNL     1     -11.947   9.338   7.091  1.00  0.00    -0.454 OA
ENDROOT
BRANCH   1   2
ATOM      2  C   UNL     1     -11.636   7.980   6.876  1.00  0.00     0.214 A 
ATOM      3  C   UNL     1     -10.363   7.658   6.361  1.00  0.00     0.180 A 
ATOM      4  O   UNL     1     -10.018   6.388   6.166  1.00  0.00    -0.452 OA
ATOM      5  C   UNL     1     -12.526   6.922   7.165  1.00  0.00     0.239 A 
ATOM      6  C   UNL     1     -10.829   5.368   6.415  1.00  0.00     0.146 A 
ATOM      7  O   UNL     1     -13.668   7.163   7.634  1.00  0.00    -0.285 OA
ATOM      8  C   UNL     1     -12.128   5.588   6.922  1.00  0.00     0.111 A 
ATOM      9  C   UNL     1     -10.378   4.070   6.161  1.00  0.00     0.094 A 
ATOM     10  C   UNL     1     -12.971   4.475   7.166  1.00  0.00     0.134 A 
ATOM     11  C   UNL     1     -11.212   2.974   6.403  1.00  0.00     0.123 A 
ATOM     12  C   UNL     1     -12.501   3.178   6.906  1.00  0.00     0.093 A 
BRANCH   3  13
ATOM     13  C   UNL     1      -9.349   8.697   6.075  1.00  0.00     0.025 A 
ATOM     14  C   UNL     1      -7.997   8.516   6.411  1.00  0.00     0.016 A 
ATOM     15  C   UNL     1      -7.061   9.513   6.133  1.00  0.00     0.051 A 
ATOM     16  C   UNL     1      -7.468  10.719   5.538  1.00  0.00     0.157 A 
ATOM     17  C   UNL     1      -9.753   9.908   5.485  1.00  0.00     0.062 A 
ATOM     18  C   UNL     1      -8.814  10.914   5.214  1.00  0.00     0.158 A 
BRANCH  16  19
ATOM     19  O   UNL     1      -6.539  11.723   5.262  1.00  0.00    -0.504 OA
ATOM     20  H   UNL     1      -6.185  12.327   5.995  1.00  0.00     0.293 HD
ENDBRANCH  16  19
BRANCH  18  21
ATOM     21  O   UNL     1      -9.213  12.112   4.617  1.00  0.00    -0.504 OA
ATOM     22  H   UNL     1      -9.612  12.867   5.158  1.00  0.00     0.293 HD
ENDBRANCH  18  21
ENDBRANCH   3  13
BRANCH  10  23
ATOM     23  O   UNL     1     -14.265   4.645   7.658  1.00  0.00    -0.507 OA
ATOM     24  H   UNL     1     -15.081   4.542   7.066  1.00  0.00     0.293 HD
ENDBRANCH  10  23
BRANCH  11  25
ATOM     25  O   UNL     1     -10.774   1.679   6.142  1.00  0.00    -0.508 OA
ATOM     26  H   UNL     1      -9.848   1.365   6.410  1.00  0.00     0.293 HD
ENDBRANCH  11  25
ENDBRANCH   1   2
BRANCH   1  27
ATOM     27  C   UNL     1     -13.062   9.857   7.821  1.00  0.00     0.339 C 
ATOM     28  C   UNL     1     -12.957  11.394   7.962  1.00  0.00     0.214 C 
ATOM     29  O   UNL     1     -14.302   9.461   7.248  1.00  0.00    -0.332 OA
ATOM     30  C   UNL     1     -13.157  12.096   6.616  1.00  0.00     0.180 C 
ATOM     31  C   UNL     1     -14.592  10.061   5.987  1.00  0.00     0.179 C 
ATOM     32  C   UNL     1     -14.476  11.610   5.997  1.00  0.00     0.177 C 
BRANCH  28  33
ATOM     33  O   UNL     1     -11.759  11.802   8.576  1.00  0.00    -0.384 OA
ATOM     34  H   UNL     1     -11.624  11.253   9.392  1.00  0.00     0.211 HD
ENDBRANCH  28  33
BRANCH  30  35
ATOM     35  O   UNL     1     -12.063  11.853   5.772  1.00  0.00    -0.387 OA
ATOM     36  H   UNL     1     -12.361  12.027   4.843  1.00  0.00     0.211 HD
ENDBRANCH  30  35
BRANCH  31  37
ATOM     37  C   UNL     1     -13.866   9.366   4.818  1.00  0.00     0.191 C 
BRANCH  37  38
ATOM     38  O   UNL     1     -14.440   9.753   3.599  1.00  0.00    -0.394 OA
ATOM     39  H   UNL     1     -13.922   9.287   2.892  1.00  0.00     0.210 HD
ENDBRANCH  37  38
ENDBRANCH  31  37
BRANCH  32  40
ATOM     40  O   UNL     1     -14.628  12.125   4.699  1.00  0.00    -0.387 OA
ATOM     41  H   UNL     1     -15.283  12.867   4.759  1.00  0.00     0.211 HD
ENDBRANCH  32  40
ENDBRANCH   1  27
TORSDOF 12
ENDMDL
