MODEL 1
REMARK VINA RESULT:    -2.562      0.000      0.000
REMARK INTER + INTRA:          -3.183
REMARK INTER:                  -3.012
REMARK INTRA:                  -0.171
REMARK UNBOUND:                -0.171
REMARK SMILES O=C([O-])CCC(=O)[O-]
REMARK SMILES IDX 4 1 2 2 1 3 3 4 5 5 6 6 7 7 8 8
REMARK H PARENT
REMARK Flexibility Score: inf
ROOT
ATOM      1  C   UNL     1       3.632  -7.510  15.482  1.00  0.00     0.059 C 
ENDROOT
BRANCH   1   2
ATOM      2  C   UNL     1       4.133  -8.920  15.567  1.00  0.00     0.042 C 
ATOM      3  O   UNL     1       3.368  -9.881  15.293  1.00  0.00    -0.550 OA
ATOM      4  O   UNL     1       5.433  -9.172  15.990  1.00  0.00    -0.550 OA
ENDBRANCH   1   2
BRANCH   1   5
ATOM      5  C   UNL     1       4.573  -6.626  14.656  1.00  0.00     0.059 C 
BRANCH   5   6
ATOM      6  C   UNL     1       4.696  -7.118  13.246  1.00  0.00     0.042 C 
ATOM      7  O   UNL     1       3.672  -7.235  12.523  1.00  0.00    -0.550 OA
ATOM      8  O   UNL     1       5.948  -7.408  12.719  1.00  0.00    -0.550 OA
ENDBRANCH   5   6
ENDBRANCH   1   5
TORSDOF 3
ENDMDL
MODEL 2
REMARK VINA RESULT:    -2.560     22.266     22.949
REMARK INTER + INTRA:          -3.180
REMARK INTER:                  -3.061
REMARK INTRA:                  -0.118
REMARK UNBOUND:                -0.171
REMARK SMILES O=C([O-])CCC(=O)[O-]
REMARK SMILES IDX 4 1 2 2 1 3 3 4 5 5 6 6 7 7 8 8
REMARK H PARENT
REMARK Flexibility Score: inf
ROOT
ATOM      1  C   UNL     1      19.783  -9.929  -1.480  1.00  0.00     0.059 C 
ENDROOT
BRANCH   1   2
ATOM      2  C   UNL     1      18.741 -10.037  -2.552  1.00  0.00     0.042 C 
ATOM      3  O   UNL     1      18.254  -8.997  -3.069  1.00  0.00    -0.550 OA
ATOM      4  O   UNL     1      18.279 -11.285  -2.950  1.00  0.00    -0.550 OA
ENDBRANCH   1   2
BRANCH   1   5
ATOM      5  C   UNL     1      21.086 -10.624  -1.887  1.00  0.00     0.059 C 
BRANCH   5   6
ATOM      6  C   UNL     1      21.424 -11.750  -0.958  1.00  0.00     0.042 C 
ATOM      7  O   UNL     1      20.510 -12.467  -0.472  1.00  0.00    -0.550 OA
ATOM      8  O   UNL     1      22.752 -12.032  -0.662  1.00  0.00    -0.550 OA
ENDBRANCH   5   6
ENDBRANCH   1   5
TORSDOF 3
ENDMDL
MODEL 3
REMARK VINA RESULT:    -2.531      0.135      3.325
REMARK INTER + INTRA:          -3.146
REMARK INTER:                  -2.973
REMARK INTRA:                  -0.173
REMARK UNBOUND:                -0.171
REMARK SMILES O=C([O-])CCC(=O)[O-]
REMARK SMILES IDX 4 1 2 2 1 3 3 4 5 5 6 6 7 7 8 8
REMARK H PARENT
REMARK Flexibility Score: inf
ROOT
ATOM      1  C   UNL     1       4.438  -6.610  14.725  1.00  0.00     0.059 C 
ENDROOT
BRANCH   1   2
ATOM      2  C   UNL     1       4.619  -7.117  13.327  1.00  0.00     0.042 C 
ATOM      3  O   UNL     1       5.775  -7.340  12.879  1.00  0.00    -0.550 OA
ATOM      4  O   UNL     1       3.514  -7.302  12.505  1.00  0.00    -0.550 OA
ENDBRANCH   1   2
BRANCH   1   5
ATOM      5  C   UNL     1       3.543  -7.540  15.551  1.00  0.00     0.059 C 
BRANCH   5   6
ATOM      6  C   UNL     1       4.089  -8.936  15.593  1.00  0.00     0.042 C 
ATOM      7  O   UNL     1       3.371  -9.908  15.242  1.00  0.00    -0.550 OA
ATOM      8  O   UNL     1       5.404  -9.155  15.983  1.00  0.00    -0.550 OA
ENDBRANCH   5   6
ENDBRANCH   1   5
TORSDOF 3
ENDMDL
MODEL 4
REMARK VINA RESULT:    -2.520     22.099     23.135
REMARK INTER + INTRA:          -3.133
REMARK INTER:                  -3.022
REMARK INTRA:                  -0.111
REMARK UNBOUND:                -0.171
REMARK SMILES O=C([O-])CCC(=O)[O-]
REMARK SMILES IDX 4 1 2 2 1 3 3 4 5 5 6 6 7 7 8 8
REMARK H PARENT
REMARK Flexibility Score: inf
ROOT
ATOM      1  C   UNL     1      21.425 -10.628  -2.087  1.00  0.00     0.059 C 
ENDROOT
BRANCH   1   2
ATOM      2  C   UNL     1      21.981 -11.886  -1.493  1.00  0.00     0.042 C 
ATOM      3  O   UNL     1      21.526 -13.006  -1.844  1.00  0.00    -0.550 OA
ATOM      4  O   UNL     1      22.972 -11.819  -0.521  1.00  0.00    -0.550 OA
ENDBRANCH   1   2
BRANCH   1   5
ATOM      5  C   UNL     1      20.200 -10.131  -1.313  1.00  0.00     0.059 C 
BRANCH   5   6
ATOM      6  C   UNL     1      18.946 -10.259  -2.124  1.00  0.00     0.042 C 
ATOM      7  O   UNL     1      18.330 -11.356  -2.171  1.00  0.00    -0.550 OA
ATOM      8  O   UNL     1      18.437  -9.154  -2.795  1.00  0.00    -0.550 OA
ENDBRANCH   5   6
ENDBRANCH   1   5
TORSDOF 3
ENDMDL
MODEL 5
REMARK VINA RESULT:    -2.516     15.872     16.512
REMARK INTER + INTRA:          -3.128
REMARK INTER:                  -3.035
REMARK INTRA:                  -0.093
REMARK UNBOUND:                -0.171
REMARK SMILES O=C([O-])CCC(=O)[O-]
REMARK SMILES IDX 4 1 2 2 1 3 3 4 5 5 6 6 7 7 8 8
REMARK H PARENT
REMARK Flexibility Score: inf
ROOT
ATOM      1  C   UNL     1      18.782 -15.680  12.635  1.00  0.00     0.059 C 
ENDROOT
BRANCH   1   2
ATOM      2  C   UNL     1      17.885 -16.234  13.699  1.00  0.00     0.042 C 
ATOM      3  O   UNL     1      18.026 -15.872  14.897  1.00  0.00    -0.550 OA
ATOM      4  O   UNL     1      16.921 -17.180  13.374  1.00  0.00    -0.550 OA
ENDBRANCH   1   2
BRANCH   1   5
ATOM      5  C   UNL     1      19.274 -16.776  11.684  1.00  0.00     0.059 C 
BRANCH   5   6
ATOM      6  C   UNL     1      18.582 -16.706  10.356  1.00  0.00     0.042 C 
ATOM      7  O   UNL     1      17.867 -17.664   9.962  1.00  0.00    -0.550 OA
ATOM      8  O   UNL     1      18.695 -15.563   9.574  1.00  0.00    -0.550 OA
ENDBRANCH   5   6
ENDBRANCH   1   5
TORSDOF 3
ENDMDL
MODEL 6
REMARK VINA RESULT:    -2.502     15.852     16.736
REMARK INTER + INTRA:          -3.111
REMARK INTER:                  -3.031
REMARK INTRA:                  -0.080
REMARK UNBOUND:                -0.171
REMARK SMILES O=C([O-])CCC(=O)[O-]
REMARK SMILES IDX 4 1 2 2 1 3 3 4 5 5 6 6 7 7 8 8
REMARK H PARENT
REMARK Flexibility Score: inf
ROOT
ATOM      1  C   UNL     1      19.311 -16.686  11.725  1.00  0.00     0.059 C 
ENDROOT
BRANCH   1   2
ATOM      2  C   UNL     1      18.630 -16.644  10.391  1.00  0.00     0.042 C 
ATOM      3  O   UNL     1      18.724 -15.621   9.664  1.00  0.00    -0.550 OA
ATOM      4  O   UNL     1      17.857 -17.720   9.970  1.00  0.00    -0.550 OA
ENDBRANCH   1   2
BRANCH   1   5
ATOM      5  C   UNL     1      18.775 -15.602  12.667  1.00  0.00     0.059 C 
BRANCH   5   6
ATOM      6  C   UNL     1      17.852 -16.176  13.699  1.00  0.00     0.042 C 
ATOM      7  O   UNL     1      16.974 -17.016  13.368  1.00  0.00    -0.550 OA
ATOM      8  O   UNL     1      17.989 -15.812  15.033  1.00  0.00    -0.550 OA
ENDBRANCH   5   6
ENDBRANCH   1   5
TORSDOF 3
ENDMDL
MODEL 7
REMARK VINA RESULT:    -2.500     15.845     16.727
REMARK INTER + INTRA:          -3.110
REMARK INTER:                  -3.027
REMARK INTRA:                  -0.083
REMARK UNBOUND:                -0.171
REMARK SMILES O=C([O-])CCC(=O)[O-]
REMARK SMILES IDX 4 1 2 2 1 3 3 4 5 5 6 6 7 7 8 8
REMARK H PARENT
REMARK Flexibility Score: inf
ROOT
ATOM      1  C   UNL     1      19.298 -16.693  11.678  1.00  0.00     0.059 C 
ENDROOT
BRANCH   1   2
ATOM      2  C   UNL     1      18.597 -16.640  10.356  1.00  0.00     0.042 C 
ATOM      3  O   UNL     1      17.963 -17.644   9.935  1.00  0.00    -0.550 OA
ATOM      4  O   UNL     1      18.678 -15.497   9.570  1.00  0.00    -0.550 OA
ENDBRANCH   1   2
BRANCH   1   5
ATOM      5  C   UNL     1      18.792 -15.605  12.630  1.00  0.00     0.059 C 
BRANCH   5   6
ATOM      6  C   UNL     1      17.876 -16.168  13.674  1.00  0.00     0.042 C 
ATOM      7  O   UNL     1      17.968 -15.789  14.871  1.00  0.00    -0.550 OA
ATOM      8  O   UNL     1      16.893 -17.083  13.315  1.00  0.00    -0.550 OA
ENDBRANCH   5   6
ENDBRANCH   1   5
TORSDOF 3
ENDMDL
MODEL 8
REMARK VINA RESULT:    -2.453     22.158     22.595
REMARK INTER + INTRA:          -3.054
REMARK INTER:                  -3.020
REMARK INTRA:                  -0.035
REMARK UNBOUND:                -0.171
REMARK SMILES O=C([O-])CCC(=O)[O-]
REMARK SMILES IDX 4 1 2 2 1 3 3 4 5 5 6 6 7 7 8 8
REMARK H PARENT
REMARK Flexibility Score: inf
ROOT
ATOM      1  C   UNL     1      19.748 -12.642  -1.218  1.00  0.00     0.059 C 
ENDROOT
BRANCH   1   2
ATOM      2  C   UNL     1      19.595 -14.075  -1.625  1.00  0.00     0.042 C 
ATOM      3  O   UNL     1      19.002 -14.888  -0.867  1.00  0.00    -0.550 OA
ATOM      4  O   UNL     1      20.142 -14.522  -2.821  1.00  0.00    -0.550 OA
ENDBRANCH   1   2
BRANCH   1   5
ATOM      5  C   UNL     1      18.822 -11.724  -2.023  1.00  0.00     0.059 C 
BRANCH   5   6
ATOM      6  C   UNL     1      19.245 -10.289  -1.924  1.00  0.00     0.042 C 
ATOM      7  O   UNL     1      20.250  -9.970  -1.236  1.00  0.00    -0.550 OA
ATOM      8  O   UNL     1      18.552  -9.311  -2.626  1.00  0.00    -0.550 OA
ENDBRANCH   5   6
ENDBRANCH   1   5
TORSDOF 3
ENDMDL
MODEL 9
REMARK VINA RESULT:    -2.431     22.147     22.776
REMARK INTER + INTRA:          -3.028
REMARK INTER:                  -2.993
REMARK INTRA:                  -0.035
REMARK UNBOUND:                -0.171
REMARK SMILES O=C([O-])CCC(=O)[O-]
REMARK SMILES IDX 4 1 2 2 1 3 3 4 5 5 6 6 7 7 8 8
REMARK H PARENT
REMARK Flexibility Score: inf
ROOT
ATOM      1  C   UNL     1      18.841 -11.752  -1.968  1.00  0.00     0.059 C 
ENDROOT
BRANCH   1   2
ATOM      2  C   UNL     1      19.298 -10.326  -1.923  1.00  0.00     0.042 C 
ATOM      3  O   UNL     1      20.333 -10.013  -1.277  1.00  0.00    -0.550 OA
ATOM      4  O   UNL     1      18.557  -9.337  -2.559  1.00  0.00    -0.550 OA
ENDBRANCH   1   2
BRANCH   1   5
ATOM      5  C   UNL     1      19.809 -12.679  -1.225  1.00  0.00     0.059 C 
BRANCH   5   6
ATOM      6  C   UNL     1      19.615 -14.111  -1.622  1.00  0.00     0.042 C 
ATOM      7  O   UNL     1      18.960 -14.891  -0.883  1.00  0.00    -0.550 OA
ATOM      8  O   UNL     1      20.124 -14.571  -2.830  1.00  0.00    -0.550 OA
ENDBRANCH   5   6
ENDBRANCH   1   5
TORSDOF 3
ENDMDL
