MODEL 1
REMARK VINA RESULT:   101.112      0.000      0.000
REMARK INTER + INTRA:         159.854
REMARK INTER:                 160.221
REMARK INTRA:                  -0.367
REMARK UNBOUND:                -0.367
REMARK SMILES CC[C@H](C=C[C@@H](C)[C@H]1CC[C@H]2[C@@H]3CC=C4C[C@H](O[C@H]5O[C@H](CO)[C@H](O)[C@@H](O)[C@@H]5O)CC[C@@]4(C)[C@@H]3CC[C@]12C)C(C)C
REMARK SMILES IDX 8 1 9 2 10 3 11 4 37 5 36 6 35 7 34 8 12 9 13 10 14 11 15 12
REMARK SMILES IDX 32 13 31 14 30 15 17 16 16 17 33 18 38 19 6 20 7 21 5 22
REMARK SMILES IDX 4 23 3 24 2 25 1 26 39 27 40 28 41 29 18 30 19 31 28 32
REMARK SMILES IDX 20 33 26 34 21 35 24 36 29 37 27 39 22 41 23 42 25 44
REMARK H PARENT 29 38 27 40 23 43 25 45
REMARK Flexibility Score: inf
ROOT
ATOM      1  C   UNL     1       8.047 -12.810 -18.712  1.00  0.00     0.002 C 
ATOM      2  C   UNL     1       8.631 -11.371 -18.609  1.00  0.00     0.005 C 
ATOM      3  C   UNL     1       9.125 -11.192 -17.171  1.00  0.00     0.005 C 
ATOM      4  C   UNL     1       8.935 -12.574 -16.534  1.00  0.00    -0.001 C 
ATOM      5  C   UNL     1       7.722 -13.185 -17.240  1.00  0.00    -0.026 C 
ATOM      6  C   UNL     1       7.706 -14.732 -16.939  1.00  0.00     0.007 C 
ATOM      7  C   UNL     1       8.433 -15.108 -15.616  1.00  0.00     0.005 C 
ATOM      8  C   UNL     1       8.300 -14.029 -14.493  1.00  0.00     0.003 C 
ATOM      9  C   UNL     1       8.871 -12.638 -14.987  1.00  0.00     0.000 C 
ATOM     10  C   UNL     1      10.258 -12.284 -14.396  1.00  0.00     0.031 C 
ATOM     11  C   UNL     1      11.014 -13.425 -13.760  1.00  0.00    -0.027 C 
ATOM     12  C   UNL     1      10.381 -14.368 -13.034  1.00  0.00    -0.065 C 
ATOM     13  C   UNL     1       8.869 -14.487 -13.079  1.00  0.00    -0.008 C 
ATOM     14  C   UNL     1       8.329 -13.565 -11.940  1.00  0.00     0.014 C 
ATOM     15  C   UNL     1       8.954 -13.865 -10.547  1.00  0.00     0.033 C 
ATOM     16  C   UNL     1      10.504 -14.064 -10.561  1.00  0.00     0.125 C 
ATOM     17  C   UNL     1      11.050 -14.863 -11.780  1.00  0.00     0.063 C 
ATOM     18  C   UNL     1       8.446 -15.958 -12.785  1.00  0.00     0.016 C 
ATOM     19  C   UNL     1       6.372 -12.511 -16.802  1.00  0.00     0.012 C 
ENDROOT
BRANCH   1  20
ATOM     20  C   UNL     1       6.933 -12.939 -19.796  1.00  0.00     0.012 C 
ATOM     21  C   UNL     1       7.466 -13.494 -21.133  1.00  0.00     0.012 C 
BRANCH  20  22
ATOM     22  C   UNL     1       6.254 -11.602 -20.032  1.00  0.00    -0.028 C 
ATOM     23  C   UNL     1       5.207 -11.497 -20.857  1.00  0.00    -0.027 C 
BRANCH  23  24
ATOM     24  C   UNL     1       4.401 -10.213 -20.996  1.00  0.00     0.014 C 
BRANCH  24  25
ATOM     25  C   UNL     1       4.319  -9.837 -22.498  1.00  0.00     0.004 C 
ATOM     26  C   UNL     1       5.060 -10.787 -23.468  1.00  0.00     0.004 C 
ENDBRANCH  24  25
BRANCH  24  27
ATOM     27  C   UNL     1       3.038 -10.382 -20.262  1.00  0.00    -0.011 C 
ATOM     28  C   UNL     1       2.436 -11.799 -20.326  1.00  0.00     0.008 C 
ATOM     29  C   UNL     1       2.011  -9.372 -20.799  1.00  0.00     0.008 C 
ENDBRANCH  24  27
ENDBRANCH  23  24
ENDBRANCH  20  22
ENDBRANCH   1  20
BRANCH  16  30
ATOM     30  O   UNL     1      10.988 -14.428  -9.235  1.00  0.00    -0.346 OA
BRANCH  30  31
ATOM     31  C   UNL     1      10.582 -13.603  -8.131  1.00  0.00     0.282 C 
ATOM     32  C   UNL     1      10.186 -12.152  -8.563  1.00  0.00     0.202 C 
ATOM     33  O   UNL     1      11.543 -13.641  -7.084  1.00  0.00    -0.341 OA
ATOM     34  C   UNL     1      11.407 -11.225  -8.751  1.00  0.00     0.179 C 
ATOM     35  C   UNL     1      12.715 -12.897  -7.362  1.00  0.00     0.178 C 
ATOM     36  C   UNL     1      12.399 -11.394  -7.586  1.00  0.00     0.177 C 
BRANCH  32  37
ATOM     37  O   UNL     1       9.269 -11.602  -7.642  1.00  0.00    -0.385 OA
ATOM     38  H   UNL     1       8.692 -10.959  -8.151  1.00  0.00     0.211 HD
ENDBRANCH  32  37
BRANCH  34  39
ATOM     39  O   UNL     1      12.056 -11.566  -9.952  1.00  0.00    -0.387 OA
ATOM     40  H   UNL     1      11.463 -12.214 -10.419  1.00  0.00     0.211 HD
ENDBRANCH  34  39
BRANCH  35  41
ATOM     41  C   UNL     1      13.722 -13.084  -6.218  1.00  0.00     0.191 C 
BRANCH  41  42
ATOM     42  O   UNL     1      13.395 -12.258  -5.141  1.00  0.00    -0.394 OA
ATOM     43  H   UNL     1      14.167 -11.669  -4.978  1.00  0.00     0.210 HD
ENDBRANCH  41  42
ENDBRANCH  35  41
BRANCH  36  44
ATOM     44  O   UNL     1      11.928 -10.754  -6.414  1.00  0.00    -0.387 OA
ATOM     45  H   UNL     1      12.711 -10.499  -5.891  1.00  0.00     0.211 HD
ENDBRANCH  36  44
ENDBRANCH  30  31
ENDBRANCH  16  30
TORSDOF 12
ENDMDL
MODEL 2
REMARK VINA RESULT:   101.265      7.513     11.326
REMARK INTER + INTRA:         160.097
REMARK INTER:                 159.640
REMARK INTRA:                   0.456
REMARK UNBOUND:                -0.367
REMARK SMILES CC[C@H](C=C[C@@H](C)[C@H]1CC[C@H]2[C@@H]3CC=C4C[C@H](O[C@H]5O[C@H](CO)[C@H](O)[C@@H](O)[C@@H]5O)CC[C@@]4(C)[C@@H]3CC[C@]12C)C(C)C
REMARK SMILES IDX 8 1 9 2 10 3 11 4 37 5 36 6 35 7 34 8 12 9 13 10 14 11 15 12
REMARK SMILES IDX 32 13 31 14 30 15 17 16 16 17 33 18 38 19 6 20 7 21 5 22
REMARK SMILES IDX 4 23 3 24 2 25 1 26 39 27 40 28 41 29 18 30 19 31 28 32
REMARK SMILES IDX 20 33 26 34 21 35 24 36 29 37 27 39 22 41 23 42 25 44
REMARK H PARENT 29 38 27 40 23 43 25 45
REMARK Flexibility Score: inf
ROOT
ATOM      1  C   UNL     1      -0.628  -6.268 -15.031  1.00  0.00     0.002 C 
ATOM      2  C   UNL     1       0.483  -5.497 -15.801  1.00  0.00     0.005 C 
ATOM      3  C   UNL     1       1.525  -6.532 -16.236  1.00  0.00     0.005 C 
ATOM      4  C   UNL     1       0.914  -7.876 -15.823  1.00  0.00    -0.001 C 
ATOM      5  C   UNL     1       0.074  -7.578 -14.578  1.00  0.00    -0.026 C 
ATOM      6  C   UNL     1      -0.893  -8.797 -14.333  1.00  0.00     0.007 C 
ATOM      7  C   UNL     1      -0.360 -10.133 -14.928  1.00  0.00     0.005 C 
ATOM      8  C   UNL     1       1.196 -10.268 -14.884  1.00  0.00     0.003 C 
ATOM      9  C   UNL     1       1.881  -9.076 -15.666  1.00  0.00     0.000 C 
ATOM     10  C   UNL     1       2.439  -9.476 -17.055  1.00  0.00     0.031 C 
ATOM     11  C   UNL     1       1.944 -10.788 -17.611  1.00  0.00    -0.027 C 
ATOM     12  C   UNL     1       1.752 -11.860 -16.815  1.00  0.00    -0.065 C 
ATOM     13  C   UNL     1       1.736 -11.705 -15.306  1.00  0.00    -0.008 C 
ATOM     14  C   UNL     1       3.212 -11.900 -14.837  1.00  0.00     0.014 C 
ATOM     15  C   UNL     1       3.855 -13.226 -15.337  1.00  0.00     0.033 C 
ATOM     16  C   UNL     1       3.590 -13.546 -16.844  1.00  0.00     0.125 C 
ATOM     17  C   UNL     1       2.154 -13.212 -17.340  1.00  0.00     0.063 C 
ATOM     18  C   UNL     1       0.849 -12.817 -14.670  1.00  0.00     0.016 C 
ATOM     19  C   UNL     1       0.961  -7.297 -13.311  1.00  0.00     0.012 C 
ENDROOT
BRANCH   1  20
ATOM     20  C   UNL     1      -1.358  -5.387 -13.971  1.00  0.00     0.012 C 
ATOM     21  C   UNL     1      -2.603  -4.679 -14.543  1.00  0.00     0.012 C 
BRANCH  20  22
ATOM     22  C   UNL     1      -0.410  -4.359 -13.381  1.00  0.00    -0.028 C 
ATOM     23  C   UNL     1       0.777  -4.720 -12.885  1.00  0.00    -0.027 C 
BRANCH  23  24
ATOM     24  C   UNL     1       1.819  -3.704 -12.435  1.00  0.00     0.014 C 
BRANCH  24  25
ATOM     25  C   UNL     1       1.105  -2.577 -11.646  1.00  0.00     0.004 C 
ATOM     26  C   UNL     1       0.082  -3.046 -10.585  1.00  0.00     0.004 C 
ENDBRANCH  24  25
BRANCH  24  27
ATOM     27  C   UNL     1       2.963  -4.445 -11.680  1.00  0.00    -0.011 C 
ATOM     28  C   UNL     1       3.779  -3.566 -10.713  1.00  0.00     0.008 C 
ATOM     29  C   UNL     1       3.918  -5.115 -12.681  1.00  0.00     0.008 C 
ENDBRANCH  24  27
ENDBRANCH  23  24
ENDBRANCH  20  22
ENDBRANCH   1  20
BRANCH  16  30
ATOM     30  O   UNL     1       4.150 -14.844 -17.200  1.00  0.00    -0.346 OA
BRANCH  30  31
ATOM     31  C   UNL     1       4.424 -15.090 -18.588  1.00  0.00     0.282 C 
ATOM     32  C   UNL     1       5.320 -16.352 -18.821  1.00  0.00     0.202 C 
ATOM     33  O   UNL     1       4.915 -13.920 -19.228  1.00  0.00    -0.341 OA
ATOM     34  C   UNL     1       6.824 -16.070 -18.619  1.00  0.00     0.179 C 
ATOM     35  C   UNL     1       6.257 -13.612 -18.896  1.00  0.00     0.178 C 
ATOM     36  C   UNL     1       7.225 -14.753 -19.309  1.00  0.00     0.177 C 
BRANCH  32  37
ATOM     37  O   UNL     1       5.073 -16.895 -20.101  1.00  0.00    -0.385 OA
ATOM     38  H   UNL     1       5.555 -16.315 -20.762  1.00  0.00     0.211 HD
ENDBRANCH  32  37
BRANCH  34  39
ATOM     39  O   UNL     1       7.084 -15.955 -17.240  1.00  0.00    -0.387 OA
ATOM     40  H   UNL     1       7.413 -15.028 -17.092  1.00  0.00     0.211 HD
ENDBRANCH  34  39
BRANCH  35  41
ATOM     41  C   UNL     1       6.655 -12.285 -19.557  1.00  0.00     0.191 C 
BRANCH  41  42
ATOM     42  O   UNL     1       7.499 -11.555 -18.716  1.00  0.00    -0.394 OA
ATOM     43  H   UNL     1       8.425 -11.767 -18.974  1.00  0.00     0.210 HD
ENDBRANCH  41  42
ENDBRANCH  35  41
BRANCH  36  44
ATOM     44  O   UNL     1       7.310 -14.916 -20.713  1.00  0.00    -0.387 OA
ATOM     45  H   UNL     1       8.238 -15.133 -20.922  1.00  0.00     0.211 HD
ENDBRANCH  36  44
ENDBRANCH  30  31
ENDBRANCH  16  30
TORSDOF 12
ENDMDL
MODEL 3
REMARK VINA RESULT:   102.835      5.667     11.270
REMARK INTER + INTRA:         162.585
REMARK INTER:                 163.041
REMARK INTRA:                  -0.455
REMARK UNBOUND:                -0.367
REMARK SMILES CC[C@H](C=C[C@@H](C)[C@H]1CC[C@H]2[C@@H]3CC=C4C[C@H](O[C@H]5O[C@H](CO)[C@H](O)[C@@H](O)[C@@H]5O)CC[C@@]4(C)[C@@H]3CC[C@]12C)C(C)C
REMARK SMILES IDX 8 1 9 2 10 3 11 4 37 5 36 6 35 7 34 8 12 9 13 10 14 11 15 12
REMARK SMILES IDX 32 13 31 14 30 15 17 16 16 17 33 18 38 19 6 20 7 21 5 22
REMARK SMILES IDX 4 23 3 24 2 25 1 26 39 27 40 28 41 29 18 30 19 31 28 32
REMARK SMILES IDX 20 33 26 34 21 35 24 36 29 37 27 39 22 41 23 42 25 44
REMARK H PARENT 29 38 27 40 23 43 25 45
REMARK Flexibility Score: inf
ROOT
ATOM      1  C   UNL     1      10.727 -13.996 -13.926  1.00  0.00     0.002 C 
ATOM      2  C   UNL     1       9.523 -13.992 -12.940  1.00  0.00     0.005 C 
ATOM      3  C   UNL     1       8.309 -13.479 -13.721  1.00  0.00     0.005 C 
ATOM      4  C   UNL     1       8.821 -13.336 -15.159  1.00  0.00    -0.001 C 
ATOM      5  C   UNL     1      10.307 -12.988 -15.031  1.00  0.00    -0.026 C 
ATOM      6  C   UNL     1      10.989 -13.219 -16.432  1.00  0.00     0.007 C 
ATOM      7  C   UNL     1       9.996 -13.102 -17.625  1.00  0.00     0.005 C 
ATOM      8  C   UNL     1       8.861 -12.051 -17.402  1.00  0.00     0.003 C 
ATOM      9  C   UNL     1       8.027 -12.398 -16.104  1.00  0.00     0.000 C 
ATOM     10  C   UNL     1       6.638 -13.016 -16.398  1.00  0.00     0.031 C 
ATOM     11  C   UNL     1       6.430 -13.532 -17.801  1.00  0.00    -0.027 C 
ATOM     12  C   UNL     1       6.929 -12.879 -18.870  1.00  0.00    -0.065 C 
ATOM     13  C   UNL     1       7.962 -11.782 -18.687  1.00  0.00    -0.008 C 
ATOM     14  C   UNL     1       7.157 -10.453 -18.531  1.00  0.00     0.014 C 
ATOM     15  C   UNL     1       6.148 -10.196 -19.687  1.00  0.00     0.033 C 
ATOM     16  C   UNL     1       5.297 -11.442 -20.094  1.00  0.00     0.125 C 
ATOM     17  C   UNL     1       6.076 -12.790 -20.107  1.00  0.00     0.063 C 
ATOM     18  C   UNL     1       8.860 -11.686 -19.957  1.00  0.00     0.016 C 
ATOM     19  C   UNL     1      10.536 -11.517 -14.527  1.00  0.00     0.012 C 
ENDROOT
BRANCH   1  20
ATOM     20  C   UNL     1      12.101 -13.815 -13.210  1.00  0.00     0.012 C 
ATOM     21  C   UNL     1      13.060 -14.997 -13.458  1.00  0.00     0.012 C 
BRANCH  20  22
ATOM     22  C   UNL     1      11.908 -13.617 -11.718  1.00  0.00    -0.028 C 
ATOM     23  C   UNL     1      12.255 -12.470 -11.124  1.00  0.00    -0.027 C 
BRANCH  23  24
ATOM     24  C   UNL     1      11.930 -12.173  -9.666  1.00  0.00     0.014 C 
BRANCH  24  25
ATOM     25  C   UNL     1      11.898 -10.635  -9.467  1.00  0.00     0.004 C 
ATOM     26  C   UNL     1      12.154  -9.791 -10.737  1.00  0.00     0.004 C 
ENDBRANCH  24  25
BRANCH  24  27
ATOM     27  C   UNL     1      10.635 -12.938  -9.263  1.00  0.00    -0.011 C 
ATOM     28  C   UNL     1       9.418 -12.043  -8.962  1.00  0.00     0.008 C 
ATOM     29  C   UNL     1      10.906 -13.847  -8.054  1.00  0.00     0.008 C 
ENDBRANCH  24  27
ENDBRANCH  23  24
ENDBRANCH  20  22
ENDBRANCH   1  20
BRANCH  16  30
ATOM     30  O   UNL     1       4.449 -11.134 -21.238  1.00  0.00    -0.346 OA
BRANCH  30  31
ATOM     31  C   UNL     1       3.027 -11.236 -21.057  1.00  0.00     0.282 C 
ATOM     32  C   UNL     1       2.342  -9.852 -20.801  1.00  0.00     0.202 C 
ATOM     33  O   UNL     1       2.705 -12.217 -20.081  1.00  0.00    -0.341 OA
ATOM     34  C   UNL     1       2.453  -9.387 -19.333  1.00  0.00     0.179 C 
ATOM     35  C   UNL     1       2.963 -11.803 -18.752  1.00  0.00     0.178 C 
ATOM     36  C   UNL     1       2.135 -10.547 -18.372  1.00  0.00     0.177 C 
BRANCH  32  37
ATOM     37  O   UNL     1       0.995  -9.890 -21.221  1.00  0.00    -0.385 OA
ATOM     38  H   UNL     1       0.940  -9.366 -22.074  1.00  0.00     0.211 HD
ENDBRANCH  32  37
BRANCH  34  39
ATOM     39  O   UNL     1       3.769  -8.948 -19.093  1.00  0.00    -0.387 OA
ATOM     40  H   UNL     1       4.140  -8.676 -19.975  1.00  0.00     0.211 HD
ENDBRANCH  34  39
BRANCH  35  41
ATOM     41  C   UNL     1       2.676 -12.965 -17.789  1.00  0.00     0.191 C 
BRANCH  41  42
ATOM     42  O   UNL     1       2.383 -14.128 -18.505  1.00  0.00    -0.394 OA
ATOM     43  H   UNL     1       1.406 -14.162 -18.622  1.00  0.00     0.210 HD
ENDBRANCH  41  42
ENDBRANCH  35  41
BRANCH  36  44
ATOM     44  O   UNL     1       0.743 -10.805 -18.324  1.00  0.00    -0.387 OA
ATOM     45  H   UNL     1       0.620 -11.756 -18.502  1.00  0.00     0.211 HD
ENDBRANCH  36  44
ENDBRANCH  30  31
ENDBRANCH  16  30
TORSDOF 12
ENDMDL
MODEL 4
REMARK VINA RESULT:   103.209      1.527      2.494
REMARK INTER + INTRA:         163.177
REMARK INTER:                 159.998
REMARK INTRA:                   3.179
REMARK UNBOUND:                -0.367
REMARK SMILES CC[C@H](C=C[C@@H](C)[C@H]1CC[C@H]2[C@@H]3CC=C4C[C@H](O[C@H]5O[C@H](CO)[C@H](O)[C@@H](O)[C@@H]5O)CC[C@@]4(C)[C@@H]3CC[C@]12C)C(C)C
REMARK SMILES IDX 8 1 9 2 10 3 11 4 37 5 36 6 35 7 34 8 12 9 13 10 14 11 15 12
REMARK SMILES IDX 32 13 31 14 30 15 17 16 16 17 33 18 38 19 6 20 7 21 5 22
REMARK SMILES IDX 4 23 3 24 2 25 1 26 39 27 40 28 41 29 18 30 19 31 28 32
REMARK SMILES IDX 20 33 26 34 21 35 24 36 29 37 27 39 22 41 23 42 25 44
REMARK H PARENT 29 38 27 40 23 43 25 45
REMARK Flexibility Score: inf
ROOT
ATOM      1  C   UNL     1       8.502 -12.516 -18.568  1.00  0.00     0.002 C 
ATOM      2  C   UNL     1       9.263 -11.165 -18.438  1.00  0.00     0.005 C 
ATOM      3  C   UNL     1       9.730 -11.055 -16.983  1.00  0.00     0.005 C 
ATOM      4  C   UNL     1       9.343 -12.402 -16.362  1.00  0.00    -0.001 C 
ATOM      5  C   UNL     1       8.085 -12.851 -17.110  1.00  0.00    -0.026 C 
ATOM      6  C   UNL     1       7.860 -14.383 -16.820  1.00  0.00     0.007 C 
ATOM      7  C   UNL     1       8.490 -14.853 -15.477  1.00  0.00     0.005 C 
ATOM      8  C   UNL     1       8.461 -13.768 -14.352  1.00  0.00     0.003 C 
ATOM      9  C   UNL     1       9.221 -12.461 -14.818  1.00  0.00     0.000 C 
ATOM     10  C   UNL     1      10.623 -12.290 -14.181  1.00  0.00     0.031 C 
ATOM     11  C   UNL     1      11.205 -13.521 -13.530  1.00  0.00    -0.027 C 
ATOM     12  C   UNL     1      10.433 -14.377 -12.830  1.00  0.00    -0.065 C 
ATOM     13  C   UNL     1       8.920 -14.300 -12.923  1.00  0.00    -0.008 C 
ATOM     14  C   UNL     1       8.467 -13.319 -11.796  1.00  0.00     0.014 C 
ATOM     15  C   UNL     1       9.003 -13.700 -10.386  1.00  0.00     0.033 C 
ATOM     16  C   UNL     1      10.514 -14.096 -10.352  1.00  0.00     0.125 C 
ATOM     17  C   UNL     1      10.992 -14.956 -11.558  1.00  0.00     0.063 C 
ATOM     18  C   UNL     1       8.303 -15.705 -12.653  1.00  0.00     0.016 C 
ATOM     19  C   UNL     1       6.819 -12.009 -16.711  1.00  0.00     0.012 C 
ENDROOT
BRANCH   1  20
ATOM     20  C   UNL     1       7.417 -12.498 -19.688  1.00  0.00     0.012 C 
ATOM     21  C   UNL     1       6.545 -11.227 -19.650  1.00  0.00     0.012 C 
BRANCH  20  22
ATOM     22  C   UNL     1       6.531 -13.728 -19.600  1.00  0.00    -0.028 C 
ATOM     23  C   UNL     1       5.611 -13.847 -18.638  1.00  0.00    -0.027 C 
BRANCH  23  24
ATOM     24  C   UNL     1       4.598 -14.984 -18.610  1.00  0.00     0.014 C 
BRANCH  24  25
ATOM     25  C   UNL     1       5.344 -16.306 -18.294  1.00  0.00     0.004 C 
ATOM     26  C   UNL     1       6.860 -16.310 -18.601  1.00  0.00     0.004 C 
ENDBRANCH  24  25
BRANCH  24  27
ATOM     27  C   UNL     1       3.435 -14.611 -17.644  1.00  0.00    -0.011 C 
ATOM     28  C   UNL     1       2.511 -13.484 -18.145  1.00  0.00     0.008 C 
ATOM     29  C   UNL     1       3.989 -14.233 -16.261  1.00  0.00     0.008 C 
ENDBRANCH  24  27
ENDBRANCH  23  24
ENDBRANCH  20  22
ENDBRANCH   1  20
BRANCH  16  30
ATOM     30  O   UNL     1      10.904 -14.523  -9.014  1.00  0.00    -0.346 OA
BRANCH  30  31
ATOM     31  C   UNL     1      10.561 -13.662  -7.916  1.00  0.00     0.282 C 
ATOM     32  C   UNL     1      10.153 -12.221  -8.372  1.00  0.00     0.202 C 
ATOM     33  O   UNL     1      11.573 -13.677  -6.919  1.00  0.00    -0.341 OA
ATOM     34  C   UNL     1      11.368 -11.310  -8.650  1.00  0.00     0.179 C 
ATOM     35  C   UNL     1      12.734 -12.950  -7.279  1.00  0.00     0.178 C 
ATOM     36  C   UNL     1      12.418 -11.453  -7.532  1.00  0.00     0.177 C 
BRANCH  32  37
ATOM     37  O   UNL     1       9.287 -11.637  -7.423  1.00  0.00    -0.385 OA
ATOM     38  H   UNL     1       8.499 -12.250  -7.329  1.00  0.00     0.211 HD
ENDBRANCH  32  37
BRANCH  34  39
ATOM     39  O   UNL     1      11.953 -11.693  -9.871  1.00  0.00    -0.387 OA
ATOM     40  H   UNL     1      12.933 -11.553  -9.771  1.00  0.00     0.211 HD
ENDBRANCH  34  39
BRANCH  35  41
ATOM     41  C   UNL     1      13.797 -13.111  -6.182  1.00  0.00     0.191 C 
BRANCH  41  42
ATOM     42  O   UNL     1      13.504 -12.285  -5.095  1.00  0.00    -0.394 OA
ATOM     43  H   UNL     1      12.990 -11.519  -5.439  1.00  0.00     0.210 HD
ENDBRANCH  41  42
ENDBRANCH  35  41
BRANCH  36  44
ATOM     44  O   UNL     1      12.010 -10.774  -6.358  1.00  0.00    -0.387 OA
ATOM     45  H   UNL     1      12.771 -10.245  -6.053  1.00  0.00     0.211 HD
ENDBRANCH  36  44
ENDBRANCH  30  31
ENDBRANCH  16  30
TORSDOF 12
ENDMDL
MODEL 5
REMARK VINA RESULT:   103.811      0.878      1.804
REMARK INTER + INTRA:         164.131
REMARK INTER:                 164.462
REMARK INTRA:                  -0.331
REMARK UNBOUND:                -0.367
REMARK SMILES CC[C@H](C=C[C@@H](C)[C@H]1CC[C@H]2[C@@H]3CC=C4C[C@H](O[C@H]5O[C@H](CO)[C@H](O)[C@@H](O)[C@@H]5O)CC[C@@]4(C)[C@@H]3CC[C@]12C)C(C)C
REMARK SMILES IDX 8 1 9 2 10 3 11 4 37 5 36 6 35 7 34 8 12 9 13 10 14 11 15 12
REMARK SMILES IDX 32 13 31 14 30 15 17 16 16 17 33 18 38 19 6 20 7 21 5 22
REMARK SMILES IDX 4 23 3 24 2 25 1 26 39 27 40 28 41 29 18 30 19 31 28 32
REMARK SMILES IDX 20 33 26 34 21 35 24 36 29 37 27 39 22 41 23 42 25 44
REMARK H PARENT 29 38 27 40 23 43 25 45
REMARK Flexibility Score: inf
ROOT
ATOM      1  C   UNL     1       7.988 -12.735 -18.862  1.00  0.00     0.002 C 
ATOM      2  C   UNL     1       8.525 -11.284 -18.694  1.00  0.00     0.005 C 
ATOM      3  C   UNL     1       8.972 -11.141 -17.236  1.00  0.00     0.005 C 
ATOM      4  C   UNL     1       8.805 -12.549 -16.653  1.00  0.00    -0.001 C 
ATOM      5  C   UNL     1       7.632 -13.171 -17.415  1.00  0.00    -0.026 C 
ATOM      6  C   UNL     1       7.654 -14.726 -17.167  1.00  0.00     0.007 C 
ATOM      7  C   UNL     1       8.354 -15.127 -15.836  1.00  0.00     0.005 C 
ATOM      8  C   UNL     1       8.157 -14.093 -14.682  1.00  0.00     0.003 C 
ATOM      9  C   UNL     1       8.699 -12.669 -15.111  1.00  0.00     0.000 C 
ATOM     10  C   UNL     1      10.057 -12.296 -14.468  1.00  0.00     0.031 C 
ATOM     11  C   UNL     1      10.829 -13.436 -13.849  1.00  0.00    -0.027 C 
ATOM     12  C   UNL     1      10.204 -14.422 -13.174  1.00  0.00    -0.065 C 
ATOM     13  C   UNL     1       8.698 -14.583 -13.268  1.00  0.00    -0.008 C 
ATOM     14  C   UNL     1       8.098 -13.718 -12.115  1.00  0.00     0.014 C 
ATOM     15  C   UNL     1       8.692 -14.048 -10.715  1.00  0.00     0.033 C 
ATOM     16  C   UNL     1      10.247 -14.200 -10.690  1.00  0.00     0.125 C 
ATOM     17  C   UNL     1      10.851 -14.940 -11.918  1.00  0.00     0.063 C 
ATOM     18  C   UNL     1       8.312 -16.075 -13.037  1.00  0.00     0.016 C 
ATOM     19  C   UNL     1       6.250 -12.551 -16.995  1.00  0.00     0.012 C 
ENDROOT
BRANCH   1  20
ATOM     20  C   UNL     1       6.910 -12.858 -19.983  1.00  0.00     0.012 C 
ATOM     21  C   UNL     1       7.509 -13.283 -21.340  1.00  0.00     0.012 C 
BRANCH  20  22
ATOM     22  C   UNL     1       6.150 -11.555 -20.146  1.00  0.00    -0.028 C 
ATOM     23  C   UNL     1       5.293 -11.377 -21.156  1.00  0.00    -0.027 C 
BRANCH  23  24
ATOM     24  C   UNL     1       4.395 -10.152 -21.262  1.00  0.00     0.014 C 
BRANCH  24  25
ATOM     25  C   UNL     1       4.125  -9.861 -22.761  1.00  0.00     0.004 C 
ATOM     26  C   UNL     1       5.042 -10.602 -23.762  1.00  0.00     0.004 C 
ENDBRANCH  24  25
BRANCH  24  27
ATOM     27  C   UNL     1       3.135 -10.362 -20.372  1.00  0.00    -0.011 C 
ATOM     28  C   UNL     1       2.579 -11.799 -20.361  1.00  0.00     0.008 C 
ATOM     29  C   UNL     1       2.018  -9.391 -20.787  1.00  0.00     0.008 C 
ENDBRANCH  24  27
ENDBRANCH  23  24
ENDBRANCH  20  22
ENDBRANCH   1  20
BRANCH  16  30
ATOM     30  O   UNL     1      10.703 -14.596  -9.364  1.00  0.00    -0.346 OA
BRANCH  30  31
ATOM     31  C   UNL     1      11.687 -13.766  -8.725  1.00  0.00     0.282 C 
ATOM     32  C   UNL     1      11.097 -12.900  -7.563  1.00  0.00     0.202 C 
ATOM     33  O   UNL     1      12.418 -13.012  -9.682  1.00  0.00    -0.341 OA
ATOM     34  C   UNL     1      10.401 -11.615  -8.063  1.00  0.00     0.179 C 
ATOM     35  C   UNL     1      11.688 -11.928 -10.228  1.00  0.00     0.178 C 
ATOM     36  C   UNL     1      11.261 -10.915  -9.132  1.00  0.00     0.177 C 
BRANCH  32  37
ATOM     37  O   UNL     1      12.104 -12.598  -6.621  1.00  0.00    -0.385 OA
ATOM     38  H   UNL     1      12.599 -11.798  -6.969  1.00  0.00     0.211 HD
ENDBRANCH  32  37
BRANCH  34  39
ATOM     39  O   UNL     1       9.163 -11.962  -8.635  1.00  0.00    -0.387 OA
ATOM     40  H   UNL     1       8.695 -12.533  -7.968  1.00  0.00     0.211 HD
ENDBRANCH  34  39
BRANCH  35  41
ATOM     41  C   UNL     1      12.527 -11.242 -11.316  1.00  0.00     0.191 C 
BRANCH  41  42
ATOM     42  O   UNL     1      13.245 -12.191 -12.047  1.00  0.00    -0.394 OA
ATOM     43  H   UNL     1      12.688 -13.001 -12.102  1.00  0.00     0.210 HD
ENDBRANCH  41  42
ENDBRANCH  35  41
BRANCH  36  44
ATOM     44  O   UNL     1      12.364 -10.248  -8.546  1.00  0.00    -0.387 OA
ATOM     45  H   UNL     1      12.453  -9.388  -8.998  1.00  0.00     0.211 HD
ENDBRANCH  36  44
ENDBRANCH  30  31
ENDBRANCH  16  30
TORSDOF 12
ENDMDL
