MODEL 1
REMARK VINA RESULT:    -3.291      0.000      0.000
REMARK INTER + INTRA:          -5.177
REMARK INTER:                  -5.022
REMARK INTRA:                  -0.155
REMARK UNBOUND:                -0.155
REMARK SMILES CC1=CCC[C@@H](C)C(=O)C[C@H](C(C)C)C(=O)C1
REMARK SMILES IDX 8 1 9 2 6 3 7 4 5 5 4 6 3 7 2 8 1 9 10 11 11 12 15 13 16 14
REMARK SMILES IDX 17 15 12 17 13 18 14 19
REMARK H PARENT
REMARK Flexibility Score: 70.00
ROOT
ATOM      1  C   UNL     1      16.015  16.422  16.594  1.00  0.00     0.136 C 
ATOM      2  O   UNL     1      17.204  16.430  16.308  1.00  0.00    -0.299 OA
ENDROOT
BRANCH   1   3
ATOM      3  C   UNL     1      15.359  15.110  17.045  1.00  0.00     0.053 C 
ATOM      4  C   UNL     1      15.742  13.934  16.131  1.00  0.00     0.016 C 
BRANCH   3   5
ATOM      5  C   UNL     1      13.810  15.223  17.141  1.00  0.00     0.015 C 
BRANCH   5   6
ATOM      6  C   UNL     1      13.008  14.732  15.916  1.00  0.00     0.028 C 
BRANCH   6   7
ATOM      7  C   UNL     1      11.800  15.529  15.459  1.00  0.00    -0.028 C 
ATOM      8  C   UNL     1      11.742  16.474  14.486  1.00  0.00    -0.070 CG0
ATOM      9  C   UNL     1      10.374  16.965  14.077  1.00  0.00     0.039 C 
ATOM     10  G   UNL     1      12.950  17.176  13.886  1.00  0.00     0.000 G0
ENDBRANCH   6   7
ENDBRANCH   5   6
ENDBRANCH   3   5
ENDBRANCH   1   3
BRANCH   1  11
ATOM     11  C   UNL     1      15.273  17.753  16.567  1.00  0.00     0.087 C 
BRANCH  11  12
ATOM     12  C   UNL     1      15.001  18.329  15.151  1.00  0.00     0.066 C 
BRANCH  12  13
ATOM     13  C   UNL     1      13.513  18.258  14.813  1.00  0.00     0.140 C 
ATOM     14  O   UNL     1      12.745  19.071  15.312  1.00  0.00    -0.299 OA
BRANCH  13  15
ATOM     15  C   UNL     1      12.954  17.199  13.878  1.00  0.00     0.106 CG0
ATOM     16  G   UNL     1      11.757  16.499  14.502  1.00  0.00     0.000 G0
ENDBRANCH  13  15
ENDBRANCH  12  13
BRANCH  12  17
ATOM     17  C   UNL     1      15.597  19.765  14.927  1.00  0.00    -0.006 C 
ATOM     18  C   UNL     1      15.467  20.186  13.449  1.00  0.00     0.008 C 
ATOM     19  C   UNL     1      17.080  19.882  15.329  1.00  0.00     0.008 C 
ENDBRANCH  12  17
ENDBRANCH  11  12
ENDBRANCH   1  11
TORSDOF 1
ENDMDL
MODEL 2
REMARK VINA RESULT:    -3.242      5.903      8.880
REMARK INTER + INTRA:          -5.102
REMARK INTER:                  -5.052
REMARK INTRA:                  -0.050
REMARK UNBOUND:                -0.155
REMARK SMILES CC1=CCC[C@@H](C)C(=O)C[C@H](C(C)C)C(=O)C1
REMARK SMILES IDX 8 1 9 2 6 3 7 4 5 5 4 6 3 7 2 8 1 9 10 11 11 12 15 13 16 14
REMARK SMILES IDX 17 15 12 17 13 18 14 19
REMARK H PARENT
REMARK Flexibility Score: 70.00
ROOT
ATOM      1  C   UNL     1       5.970  21.401  14.393  1.00  0.00     0.136 C 
ATOM      2  O   UNL     1       6.064  22.503  14.915  1.00  0.00    -0.299 OA
ENDROOT
BRANCH   1   3
ATOM      3  C   UNL     1       4.594  20.902  13.934  1.00  0.00     0.053 C 
ATOM      4  C   UNL     1       3.822  21.981  13.158  1.00  0.00     0.016 C 
BRANCH   3   5
ATOM      5  C   UNL     1       3.727  20.379  15.116  1.00  0.00     0.015 C 
BRANCH   5   6
ATOM      6  C   UNL     1       4.250  19.124  15.849  1.00  0.00     0.028 C 
BRANCH   6   7
ATOM      7  C   UNL     1       4.196  17.782  15.145  1.00  0.00    -0.028 C 
ATOM      8  C   UNL     1       5.171  17.181  14.416  1.00  0.00    -0.070 CG0
ATOM      9  C   UNL     1       4.941  15.748  13.998  1.00  0.00     0.039 C 
ATOM     10  G   UNL     1       6.402  17.886  13.869  1.00  0.00     0.000 G0
ENDBRANCH   6   7
ENDBRANCH   5   6
ENDBRANCH   3   5
ENDBRANCH   1   3
BRANCH   1  11
ATOM     11  C   UNL     1       7.258  20.624  14.149  1.00  0.00     0.087 C 
BRANCH  11  12
ATOM     12  C   UNL     1       7.699  19.695  15.312  1.00  0.00     0.066 C 
BRANCH  12  13
ATOM     13  C   UNL     1       7.372  18.237  14.996  1.00  0.00     0.140 C 
ATOM     14  O   UNL     1       7.890  17.347  15.660  1.00  0.00    -0.299 OA
BRANCH  13  15
ATOM     15  C   UNL     1       6.424  17.854  13.871  1.00  0.00     0.106 CG0
ATOM     16  G   UNL     1       5.169  17.193  14.419  1.00  0.00     0.000 G0
ENDBRANCH  13  15
ENDBRANCH  12  13
BRANCH  12  17
ATOM     17  C   UNL     1       9.195  19.891  15.747  1.00  0.00    -0.006 C 
ATOM     18  C   UNL     1       9.421  21.312  16.305  1.00  0.00     0.008 C 
ATOM     19  C   UNL     1      10.200  19.661  14.603  1.00  0.00     0.008 C 
ENDBRANCH  12  17
ENDBRANCH  11  12
ENDBRANCH   1  11
TORSDOF 1
ENDMDL
MODEL 3
REMARK VINA RESULT:    -3.161      4.157      7.942
REMARK INTER + INTRA:          -4.979
REMARK INTER:                  -4.803
REMARK INTRA:                  -0.176
REMARK UNBOUND:                -0.155
REMARK SMILES CC1=CCC[C@@H](C)C(=O)C[C@H](C(C)C)C(=O)C1
REMARK SMILES IDX 8 1 9 2 6 3 7 4 5 5 4 6 3 7 2 8 1 9 10 11 11 12 15 13 16 14
REMARK SMILES IDX 17 15 12 17 13 18 14 19
REMARK H PARENT
REMARK Flexibility Score: 70.00
ROOT
ATOM      1  C   UNL     1       6.456  19.645  15.620  1.00  0.00     0.136 C 
ATOM      2  O   UNL     1       5.256  19.757  15.832  1.00  0.00    -0.299 OA
ENDROOT
BRANCH   1   3
ATOM      3  C   UNL     1       7.282  20.897  15.297  1.00  0.00     0.053 C 
ATOM      4  C   UNL     1       7.184  21.282  13.812  1.00  0.00     0.016 C 
BRANCH   3   5
ATOM      5  C   UNL     1       8.775  20.745  15.706  1.00  0.00     0.015 C 
BRANCH   5   6
ATOM      6  C   UNL     1       9.796  20.629  14.552  1.00  0.00     0.028 C 
BRANCH   6   7
ATOM      7  C   UNL     1      10.812  19.503  14.577  1.00  0.00    -0.028 C 
ATOM      8  C   UNL     1      10.777  18.331  13.893  1.00  0.00    -0.070 CG0
ATOM      9  C   UNL     1      12.018  17.471  13.926  1.00  0.00     0.039 C 
ATOM     10  G   UNL     1       9.539  17.757  13.221  1.00  0.00     0.000 G0
ENDBRANCH   6   7
ENDBRANCH   5   6
ENDBRANCH   3   5
ENDBRANCH   1   3
BRANCH   1  11
ATOM     11  C   UNL     1       7.075  18.262  15.781  1.00  0.00     0.087 C 
BRANCH  11  12
ATOM     12  C   UNL     1       7.205  17.441  14.470  1.00  0.00     0.066 C 
BRANCH  12  13
ATOM     13  C   UNL     1       8.655  17.021  14.234  1.00  0.00     0.140 C 
ATOM     14  O   UNL     1       9.121  16.086  14.873  1.00  0.00    -0.299 OA
BRANCH  13  15
ATOM     15  C   UNL     1       9.544  17.737  13.231  1.00  0.00     0.106 CG0
ATOM     16  G   UNL     1      10.776  18.316  13.910  1.00  0.00     0.000 G0
ENDBRANCH  13  15
ENDBRANCH  12  13
BRANCH  12  17
ATOM     17  C   UNL     1       6.210  16.228  14.381  1.00  0.00    -0.006 C 
ATOM     18  C   UNL     1       6.324  15.527  13.012  1.00  0.00     0.008 C 
ATOM     19  C   UNL     1       4.738  16.629  14.592  1.00  0.00     0.008 C 
ENDBRANCH  12  17
ENDBRANCH  11  12
ENDBRANCH   1  11
TORSDOF 1
ENDMDL
MODEL 4
REMARK VINA RESULT:    -3.140      4.796      7.142
REMARK INTER + INTRA:          -4.946
REMARK INTER:                  -4.854
REMARK INTRA:                  -0.092
REMARK UNBOUND:                -0.155
REMARK SMILES CC1=CCC[C@@H](C)C(=O)C[C@H](C(C)C)C(=O)C1
REMARK SMILES IDX 8 1 9 2 6 3 7 4 5 5 4 6 3 7 2 8 1 9 10 11 11 12 15 13 16 14
REMARK SMILES IDX 17 15 12 17 13 18 14 19
REMARK H PARENT
REMARK Flexibility Score: 70.00
ROOT
ATOM      1  C   UNL     1       9.678  19.369  14.453  1.00  0.00     0.136 C 
ATOM      2  O   UNL     1      10.880  19.571  14.556  1.00  0.00    -0.299 OA
ENDROOT
BRANCH   1   3
ATOM      3  C   UNL     1       8.704  20.170  15.327  1.00  0.00     0.053 C 
ATOM      4  C   UNL     1       9.439  21.000  16.392  1.00  0.00     0.016 C 
BRANCH   3   5
ATOM      5  C   UNL     1       7.635  19.267  16.005  1.00  0.00     0.015 C 
BRANCH   5   6
ATOM      6  C   UNL     1       6.163  19.538  15.624  1.00  0.00     0.028 C 
BRANCH   6   7
ATOM      7  C   UNL     1       5.250  18.363  15.329  1.00  0.00    -0.028 C 
ATOM      8  C   UNL     1       5.436  17.366  14.426  1.00  0.00    -0.070 CG0
ATOM      9  C   UNL     1       4.481  16.197  14.477  1.00  0.00     0.039 C 
ATOM     10  G   UNL     1       6.437  17.409  13.282  1.00  0.00     0.000 G0
ENDBRANCH   6   7
ENDBRANCH   5   6
ENDBRANCH   3   5
ENDBRANCH   1   3
BRANCH   1  11
ATOM     11  C   UNL     1       9.217  18.384  13.385  1.00  0.00     0.087 C 
BRANCH  11  12
ATOM     12  C   UNL     1       8.978  16.934  13.884  1.00  0.00     0.066 C 
BRANCH  12  13
ATOM     13  C   UNL     1       7.590  16.442  13.478  1.00  0.00     0.140 C 
ATOM     14  O   UNL     1       7.402  15.243  13.312  1.00  0.00    -0.299 OA
BRANCH  13  15
ATOM     15  C   UNL     1       6.431  17.402  13.264  1.00  0.00     0.106 CG0
ATOM     16  G   UNL     1       5.467  17.360  14.440  1.00  0.00     0.000 G0
ENDBRANCH  13  15
ENDBRANCH  12  13
BRANCH  12  17
ATOM     17  C   UNL     1      10.113  15.928  13.473  1.00  0.00    -0.006 C 
ATOM     18  C   UNL     1      10.869  15.418  14.717  1.00  0.00     0.008 C 
ATOM     19  C   UNL     1      11.143  16.533  12.501  1.00  0.00     0.008 C 
ENDBRANCH  12  17
ENDBRANCH  11  12
ENDBRANCH   1  11
TORSDOF 1
ENDMDL
MODEL 5
REMARK VINA RESULT:    -3.024      4.782      7.772
REMARK INTER + INTRA:          -4.770
REMARK INTER:                  -4.450
REMARK INTRA:                  -0.320
REMARK UNBOUND:                -0.155
REMARK SMILES CC1=CCC[C@@H](C)C(=O)C[C@H](C(C)C)C(=O)C1
REMARK SMILES IDX 8 1 9 2 6 3 7 4 5 5 4 6 3 7 2 8 1 9 10 11 11 12 15 13 16 14
REMARK SMILES IDX 17 15 12 17 13 18 14 19
REMARK H PARENT
REMARK Flexibility Score: 70.00
ROOT
ATOM      1  C   UNL     1       6.722  18.123  15.342  1.00  0.00     0.136 C 
ATOM      2  O   UNL     1       6.165  17.068  15.074  1.00  0.00    -0.299 OA
ENDROOT
BRANCH   1   3
ATOM      3  C   UNL     1       5.880  19.392  15.526  1.00  0.00     0.053 C 
ATOM      4  C   UNL     1       4.423  19.065  15.895  1.00  0.00     0.016 C 
BRANCH   3   5
ATOM      5  C   UNL     1       5.913  20.315  14.274  1.00  0.00     0.015 C 
BRANCH   5   6
ATOM      6  C   UNL     1       6.525  21.719  14.470  1.00  0.00     0.028 C 
BRANCH   6   7
ATOM      7  C   UNL     1       7.734  22.117  13.645  1.00  0.00    -0.028 C 
ATOM      8  C   UNL     1       9.006  21.655  13.749  1.00  0.00    -0.070 CG0
ATOM      9  C   UNL     1       9.981  22.054  12.667  1.00  0.00     0.039 C 
ATOM     10  G   UNL     1       9.555  20.890  14.944  1.00  0.00     0.000 G0
ENDBRANCH   6   7
ENDBRANCH   5   6
ENDBRANCH   3   5
ENDBRANCH   1   3
BRANCH   1  11
ATOM     11  C   UNL     1       8.230  18.089  15.564  1.00  0.00     0.087 C 
BRANCH  11  12
ATOM     12  C   UNL     1       9.090  18.338  14.297  1.00  0.00     0.066 C 
BRANCH  12  13
ATOM     13  C   UNL     1      10.055  19.502  14.515  1.00  0.00     0.140 C 
ATOM     14  O   UNL     1      11.256  19.325  14.353  1.00  0.00    -0.299 OA
BRANCH  13  15
ATOM     15  C   UNL     1       9.567  20.878  14.937  1.00  0.00     0.106 CG0
ATOM     16  G   UNL     1       9.012  21.647  13.748  1.00  0.00     0.000 G0
ENDBRANCH  13  15
ENDBRANCH  12  13
BRANCH  12  17
ATOM     17  C   UNL     1       9.817  17.052  13.763  1.00  0.00    -0.006 C 
ATOM     18  C   UNL     1       8.919  16.289  12.767  1.00  0.00     0.008 C 
ATOM     19  C   UNL     1      10.231  16.075  14.880  1.00  0.00     0.008 C 
ENDBRANCH  12  17
ENDBRANCH  11  12
ENDBRANCH   1  11
TORSDOF 1
ENDMDL
MODEL 6
REMARK VINA RESULT:    -3.005      6.402      8.578
REMARK INTER + INTRA:          -4.741
REMARK INTER:                  -4.620
REMARK INTRA:                  -0.121
REMARK UNBOUND:                -0.155
REMARK SMILES CC1=CCC[C@@H](C)C(=O)C[C@H](C(C)C)C(=O)C1
REMARK SMILES IDX 8 1 9 2 6 3 7 4 5 5 4 6 3 7 2 8 1 9 10 11 11 12 15 13 16 14
REMARK SMILES IDX 17 15 12 17 13 18 14 19
REMARK H PARENT
REMARK Flexibility Score: 70.00
ROOT
ATOM      1  C   UNL     1       5.051  19.533  14.767  1.00  0.00     0.136 C 
ATOM      2  O   UNL     1       5.157  19.741  15.968  1.00  0.00    -0.299 OA
ENDROOT
BRANCH   1   3
ATOM      3  C   UNL     1       3.689  19.124  14.192  1.00  0.00     0.053 C 
ATOM      4  C   UNL     1       2.525  19.781  14.953  1.00  0.00     0.016 C 
BRANCH   3   5
ATOM      5  C   UNL     1       3.496  17.581  14.161  1.00  0.00     0.015 C 
BRANCH   5   6
ATOM      6  C   UNL     1       4.697  16.728  14.626  1.00  0.00     0.028 C 
BRANCH   6   7
ATOM      7  C   UNL     1       5.513  15.979  13.590  1.00  0.00    -0.028 C 
ATOM      8  C   UNL     1       6.859  15.809  13.550  1.00  0.00    -0.070 CG0
ATOM      9  C   UNL     1       7.407  14.840  12.530  1.00  0.00     0.039 C 
ATOM     10  G   UNL     1       7.860  16.626  14.354  1.00  0.00     0.000 G0
ENDBRANCH   6   7
ENDBRANCH   5   6
ENDBRANCH   3   5
ENDBRANCH   1   3
BRANCH   1  11
ATOM     11  C   UNL     1       6.277  19.783  13.897  1.00  0.00     0.087 C 
BRANCH  11  12
ATOM     12  C   UNL     1       7.620  19.273  14.485  1.00  0.00     0.066 C 
BRANCH  12  13
ATOM     13  C   UNL     1       8.082  18.007  13.765  1.00  0.00     0.140 C 
ATOM     14  O   UNL     1       8.630  18.103  12.674  1.00  0.00    -0.299 OA
BRANCH  13  15
ATOM     15  C   UNL     1       7.876  16.625  14.363  1.00  0.00     0.106 CG0
ATOM     16  G   UNL     1       6.868  15.826  13.551  1.00  0.00     0.000 G0
ENDBRANCH  13  15
ENDBRANCH  12  13
BRANCH  12  17
ATOM     17  C   UNL     1       8.742  20.370  14.545  1.00  0.00    -0.006 C 
ATOM     18  C   UNL     1       9.030  20.780  16.005  1.00  0.00     0.008 C 
ATOM     19  C   UNL     1       8.396  21.643  13.750  1.00  0.00     0.008 C 
ENDBRANCH  12  17
ENDBRANCH  11  12
ENDBRANCH   1  11
TORSDOF 1
ENDMDL
MODEL 7
REMARK VINA RESULT:    -2.960      6.406      8.867
REMARK INTER + INTRA:          -4.672
REMARK INTER:                  -4.480
REMARK INTRA:                  -0.192
REMARK UNBOUND:                -0.155
REMARK SMILES CC1=CCC[C@@H](C)C(=O)C[C@H](C(C)C)C(=O)C1
REMARK SMILES IDX 8 1 9 2 6 3 7 4 5 5 4 6 3 7 2 8 1 9 10 11 11 12 15 13 16 14
REMARK SMILES IDX 17 15 12 17 13 18 14 19
REMARK H PARENT
REMARK Flexibility Score: 70.00
ROOT
ATOM      1  C   UNL     1       7.014  19.249  15.861  1.00  0.00     0.136 C 
ATOM      2  O   UNL     1       7.666  18.358  16.387  1.00  0.00    -0.299 OA
ENDROOT
BRANCH   1   3
ATOM      3  C   UNL     1       7.729  20.516  15.373  1.00  0.00     0.053 C 
ATOM      4  C   UNL     1       6.742  21.546  14.798  1.00  0.00     0.016 C 
BRANCH   3   5
ATOM      5  C   UNL     1       8.838  20.206  14.326  1.00  0.00     0.015 C 
BRANCH   5   6
ATOM      6  C   UNL     1       8.430  19.311  13.136  1.00  0.00     0.028 C 
BRANCH   6   7
ATOM      7  C   UNL     1       8.688  17.818  13.214  1.00  0.00    -0.028 C 
ATOM      8  C   UNL     1       7.869  16.807  12.829  1.00  0.00    -0.070 CG0
ATOM      9  C   UNL     1       8.447  15.412  12.813  1.00  0.00     0.039 C 
ATOM     10  G   UNL     1       6.380  16.955  12.557  1.00  0.00     0.000 G0
ENDBRANCH   6   7
ENDBRANCH   5   6
ENDBRANCH   3   5
ENDBRANCH   1   3
BRANCH   1  11
ATOM     11  C   UNL     1       5.527  18.999  15.641  1.00  0.00     0.087 C 
BRANCH  11  12
ATOM     12  C   UNL     1       5.127  18.629  14.188  1.00  0.00     0.066 C 
BRANCH  12  13
ATOM     13  C   UNL     1       5.605  17.221  13.836  1.00  0.00     0.140 C 
ATOM     14  O   UNL     1       5.363  16.296  14.601  1.00  0.00    -0.299 OA
BRANCH  13  15
ATOM     15  C   UNL     1       6.381  16.933  12.561  1.00  0.00     0.106 CG0
ATOM     16  G   UNL     1       7.869  16.803  12.848  1.00  0.00     0.000 G0
ENDBRANCH  13  15
ENDBRANCH  12  13
BRANCH  12  17
ATOM     17  C   UNL     1       3.601  18.837  13.878  1.00  0.00    -0.006 C 
ATOM     18  C   UNL     1       3.411  19.571  12.534  1.00  0.00     0.008 C 
ATOM     19  C   UNL     1       2.859  19.633  14.968  1.00  0.00     0.008 C 
ENDBRANCH  12  17
ENDBRANCH  11  12
ENDBRANCH   1  11
TORSDOF 1
ENDMDL
MODEL 8
REMARK VINA RESULT:    -2.928      5.860      8.905
REMARK INTER + INTRA:          -4.624
REMARK INTER:                  -4.416
REMARK INTRA:                  -0.208
REMARK UNBOUND:                -0.155
REMARK SMILES CC1=CCC[C@@H](C)C(=O)C[C@H](C(C)C)C(=O)C1
REMARK SMILES IDX 8 1 9 2 6 3 7 4 5 5 4 6 3 7 2 8 1 9 10 11 11 12 15 13 16 14
REMARK SMILES IDX 17 15 12 17 13 18 14 19
REMARK H PARENT
REMARK Flexibility Score: 70.00
ROOT
ATOM      1  C   UNL     1       4.773  18.051  14.682  1.00  0.00     0.136 C 
ATOM      2  O   UNL     1       3.921  17.673  13.891  1.00  0.00    -0.299 OA
ENDROOT
BRANCH   1   3
ATOM      3  C   UNL     1       4.632  19.431  15.338  1.00  0.00     0.053 C 
ATOM      4  C   UNL     1       3.167  19.757  15.677  1.00  0.00     0.016 C 
BRANCH   3   5
ATOM      5  C   UNL     1       5.238  20.568  14.467  1.00  0.00     0.015 C 
BRANCH   5   6
ATOM      6  C   UNL     1       6.513  21.248  15.014  1.00  0.00     0.028 C 
BRANCH   6   7
ATOM      7  C   UNL     1       7.833  21.019  14.304  1.00  0.00    -0.028 C 
ATOM      8  C   UNL     1       8.645  19.933  14.378  1.00  0.00    -0.070 CG0
ATOM      9  C   UNL     1       9.798  19.861  13.406  1.00  0.00     0.039 C 
ATOM     10  G   UNL     1       8.565  18.865  15.457  1.00  0.00     0.000 G0
ENDBRANCH   6   7
ENDBRANCH   5   6
ENDBRANCH   3   5
ENDBRANCH   1   3
BRANCH   1  11
ATOM     11  C   UNL     1       5.890  17.076  15.036  1.00  0.00     0.087 C 
BRANCH  11  12
ATOM     12  C   UNL     1       7.108  17.090  14.075  1.00  0.00     0.066 C 
BRANCH  12  13
ATOM     13  C   UNL     1       8.384  17.474  14.821  1.00  0.00     0.140 C 
ATOM     14  O   UNL     1       9.286  16.653  14.933  1.00  0.00    -0.299 OA
BRANCH  13  15
ATOM     15  C   UNL     1       8.567  18.851  15.439  1.00  0.00     0.106 CG0
ATOM     16  G   UNL     1       8.639  19.925  14.364  1.00  0.00     0.000 G0
ENDBRANCH  13  15
ENDBRANCH  12  13
BRANCH  12  17
ATOM     17  C   UNL     1       7.277  15.765  13.247  1.00  0.00    -0.006 C 
ATOM     18  C   UNL     1       7.919  16.055  11.875  1.00  0.00     0.008 C 
ATOM     19  C   UNL     1       5.949  15.021  13.007  1.00  0.00     0.008 C 
ENDBRANCH  12  17
ENDBRANCH  11  12
ENDBRANCH   1  11
TORSDOF 1
ENDMDL
MODEL 9
REMARK VINA RESULT:    -2.748      1.862      2.289
REMARK INTER + INTRA:          -4.349
REMARK INTER:                  -4.242
REMARK INTRA:                  -0.107
REMARK UNBOUND:                -0.155
REMARK SMILES CC1=CCC[C@@H](C)C(=O)C[C@H](C(C)C)C(=O)C1
REMARK SMILES IDX 8 1 9 2 6 3 7 4 5 5 4 6 3 7 2 8 1 9 10 11 11 12 15 13 16 14
REMARK SMILES IDX 17 15 12 17 13 18 14 19
REMARK H PARENT
REMARK Flexibility Score: 70.00
ROOT
ATOM      1  C   UNL     1      15.012  16.477  16.841  1.00  0.00     0.136 C 
ATOM      2  O   UNL     1      14.379  17.460  17.199  1.00  0.00    -0.299 OA
ENDROOT
BRANCH   1   3
ATOM      3  C   UNL     1      14.504  15.078  17.215  1.00  0.00     0.053 C 
ATOM      4  C   UNL     1      15.461  13.973  16.738  1.00  0.00     0.016 C 
BRANCH   3   5
ATOM      5  C   UNL     1      13.070  14.803  16.677  1.00  0.00     0.015 C 
BRANCH   5   6
ATOM      6  C   UNL     1      12.863  14.968  15.156  1.00  0.00     0.028 C 
BRANCH   6   7
ATOM      7  C   UNL     1      12.152  16.204  14.638  1.00  0.00    -0.028 C 
ATOM      8  C   UNL     1      12.506  16.995  13.593  1.00  0.00    -0.070 CG0
ATOM      9  C   UNL     1      11.512  18.041  13.147  1.00  0.00     0.039 C 
ATOM     10  G   UNL     1      13.878  17.003  12.938  1.00  0.00     0.000 G0
ENDBRANCH   6   7
ENDBRANCH   5   6
ENDBRANCH   3   5
ENDBRANCH   1   3
BRANCH   1  11
ATOM     11  C   UNL     1      16.232  16.706  15.957  1.00  0.00     0.087 C 
BRANCH  11  12
ATOM     12  C   UNL     1      16.002  16.468  14.440  1.00  0.00     0.066 C 
BRANCH  12  13
ATOM     13  C   UNL     1      14.963  17.443  13.889  1.00  0.00     0.140 C 
ATOM     14  O   UNL     1      14.997  18.617  14.237  1.00  0.00    -0.299 OA
BRANCH  13  15
ATOM     15  C   UNL     1      13.878  16.997  12.923  1.00  0.00     0.106 CG0
ATOM     16  G   UNL     1      12.514  17.003  13.596  1.00  0.00     0.000 G0
ENDBRANCH  13  15
ENDBRANCH  12  13
BRANCH  12  17
ATOM     17  C   UNL     1      17.325  16.463  13.592  1.00  0.00    -0.006 C 
ATOM     18  C   UNL     1      18.033  15.096  13.693  1.00  0.00     0.008 C 
ATOM     19  C   UNL     1      18.326  17.554  14.015  1.00  0.00     0.008 C 
ENDBRANCH  12  17
ENDBRANCH  11  12
ENDBRANCH   1  11
TORSDOF 1
ENDMDL
