MODEL 1
REMARK VINA RESULT:    -4.215      0.000      0.000
REMARK INTER + INTRA:          -7.754
REMARK INTER:                  -6.433
REMARK INTRA:                  -1.322
REMARK UNBOUND:                -1.322
REMARK SMILES CCCCCCCCCCC(=O)[O-]
REMARK SMILES IDX 7 1 8 2 9 3 10 4 11 5 12 6 13 7 6 8 5 9 4 10 3 11 2 12 1 13
REMARK H PARENT
REMARK Flexibility Score: inf
ROOT
ATOM      1  C   UNL     1       3.617   2.611  14.797  1.00  0.00     0.000 C 
ENDROOT
BRANCH   1   2
ATOM      2  C   UNL     1       4.369   2.789  16.125  1.00  0.00     0.000 C 
BRANCH   2   3
ATOM      3  C   UNL     1       4.206   1.583  17.067  1.00  0.00     0.006 C 
BRANCH   3   4
ATOM      4  C   UNL     1       5.428   0.657  17.040  1.00  0.00     0.053 C 
BRANCH   4   5
ATOM      5  C   UNL     1       5.367  -0.375  18.124  1.00  0.00     0.041 C 
ATOM      6  O   UNL     1       5.010  -0.051  19.287  1.00  0.00    -0.550 OA
ATOM      7  O   UNL     1       5.738  -1.687  17.858  1.00  0.00    -0.550 OA
ENDBRANCH   4   5
ENDBRANCH   3   4
ENDBRANCH   2   3
ENDBRANCH   1   2
BRANCH   1   8
ATOM      8  C   UNL     1       4.568   2.425  13.601  1.00  0.00     0.000 C 
BRANCH   8   9
ATOM      9  C   UNL     1       4.853   0.945  13.298  1.00  0.00    -0.000 C 
BRANCH   9  10
ATOM     10  C   UNL     1       3.580   0.082  13.312  1.00  0.00    -0.000 C 
BRANCH  10  11
ATOM     11  C   UNL     1       3.686  -1.113  14.273  1.00  0.00    -0.000 C 
BRANCH  11  12
ATOM     12  C   UNL     1       2.520  -1.176  15.272  1.00  0.00    -0.003 C 
ATOM     13  C   UNL     1       1.319  -0.385  14.764  1.00  0.00     0.004 C 
ENDBRANCH  11  12
ENDBRANCH  10  11
ENDBRANCH   9  10
ENDBRANCH   8   9
ENDBRANCH   1   8
TORSDOF 9
ENDMDL
MODEL 2
REMARK VINA RESULT:    -4.109      1.096      2.401
REMARK INTER + INTRA:          -7.592
REMARK INTER:                  -6.198
REMARK INTRA:                  -1.394
REMARK UNBOUND:                -1.322
REMARK SMILES CCCCCCCCCCC(=O)[O-]
REMARK SMILES IDX 7 1 8 2 9 3 10 4 11 5 12 6 13 7 6 8 5 9 4 10 3 11 2 12 1 13
REMARK H PARENT
REMARK Flexibility Score: inf
ROOT
ATOM      1  C   UNL     1       3.139   2.286  15.045  1.00  0.00     0.000 C 
ENDROOT
BRANCH   1   2
ATOM      2  C   UNL     1       4.199   2.637  16.100  1.00  0.00     0.000 C 
BRANCH   2   3
ATOM      3  C   UNL     1       4.334   1.557  17.189  1.00  0.00     0.006 C 
BRANCH   3   4
ATOM      4  C   UNL     1       5.602   0.712  17.012  1.00  0.00     0.053 C 
BRANCH   4   5
ATOM      5  C   UNL     1       5.455  -0.646  17.626  1.00  0.00     0.041 C 
ATOM      6  O   UNL     1       4.627  -1.468  17.152  1.00  0.00    -0.550 OA
ATOM      7  O   UNL     1       6.207  -0.991  18.742  1.00  0.00    -0.550 OA
ENDBRANCH   4   5
ENDBRANCH   3   4
ENDBRANCH   2   3
ENDBRANCH   1   2
BRANCH   1   8
ATOM      8  C   UNL     1       2.330   1.031  15.416  1.00  0.00     0.000 C 
BRANCH   8   9
ATOM      9  C   UNL     1       2.462  -0.088  14.370  1.00  0.00    -0.000 C 
BRANCH   9  10
ATOM     10  C   UNL     1       3.638   0.141  13.405  1.00  0.00    -0.000 C 
BRANCH  10  11
ATOM     11  C   UNL     1       4.805  -0.829  13.653  1.00  0.00    -0.000 C 
BRANCH  11  12
ATOM     12  C   UNL     1       6.175  -0.194  13.369  1.00  0.00    -0.003 C 
ATOM     13  C   UNL     1       6.032   1.283  13.013  1.00  0.00     0.004 C 
ENDBRANCH  11  12
ENDBRANCH  10  11
ENDBRANCH   9  10
ENDBRANCH   8   9
ENDBRANCH   1   8
TORSDOF 9
ENDMDL
MODEL 3
REMARK VINA RESULT:    -4.084      1.326      2.189
REMARK INTER + INTRA:          -7.554
REMARK INTER:                  -6.273
REMARK INTRA:                  -1.281
REMARK UNBOUND:                -1.322
REMARK SMILES CCCCCCCCCCC(=O)[O-]
REMARK SMILES IDX 7 1 8 2 9 3 10 4 11 5 12 6 13 7 6 8 5 9 4 10 3 11 2 12 1 13
REMARK H PARENT
REMARK Flexibility Score: inf
ROOT
ATOM      1  C   UNL     1       6.226   0.527  14.831  1.00  0.00     0.000 C 
ENDROOT
BRANCH   1   2
ATOM      2  C   UNL     1       5.863  -0.966  14.863  1.00  0.00     0.000 C 
BRANCH   2   3
ATOM      3  C   UNL     1       5.459  -1.449  16.268  1.00  0.00     0.006 C 
BRANCH   3   4
ATOM      4  C   UNL     1       5.151  -0.282  17.215  1.00  0.00     0.053 C 
BRANCH   4   5
ATOM      5  C   UNL     1       5.504  -0.609  18.633  1.00  0.00     0.041 C 
ATOM      6  O   UNL     1       4.964   0.020  19.581  1.00  0.00    -0.550 OA
ATOM      7  O   UNL     1       6.455  -1.584  18.907  1.00  0.00    -0.550 OA
ENDBRANCH   4   5
ENDBRANCH   3   4
ENDBRANCH   2   3
ENDBRANCH   1   2
BRANCH   1   8
ATOM      8  C   UNL     1       5.550   1.273  13.668  1.00  0.00     0.000 C 
BRANCH   8   9
ATOM      9  C   UNL     1       4.044   0.978  13.572  1.00  0.00    -0.000 C 
BRANCH   9  10
ATOM     10  C   UNL     1       3.235   1.662  14.687  1.00  0.00    -0.000 C 
BRANCH  10  11
ATOM     11  C   UNL     1       2.159   0.742  15.286  1.00  0.00    -0.000 C 
BRANCH  11  12
ATOM     12  C   UNL     1       1.781  -0.417  14.351  1.00  0.00    -0.003 C 
ATOM     13  C   UNL     1       2.026  -1.764  15.022  1.00  0.00     0.004 C 
ENDBRANCH  11  12
ENDBRANCH  10  11
ENDBRANCH   9  10
ENDBRANCH   8   9
ENDBRANCH   1   8
TORSDOF 9
ENDMDL
MODEL 4
REMARK VINA RESULT:    -4.003      2.615      4.246
REMARK INTER + INTRA:          -7.431
REMARK INTER:                  -6.333
REMARK INTRA:                  -1.098
REMARK UNBOUND:                -1.322
REMARK SMILES CCCCCCCCCCC(=O)[O-]
REMARK SMILES IDX 7 1 8 2 9 3 10 4 11 5 12 6 13 7 6 8 5 9 4 10 3 11 2 12 1 13
REMARK H PARENT
REMARK Flexibility Score: inf
ROOT
ATOM      1  C   UNL     1       6.085   0.573  14.327  1.00  0.00     0.000 C 
ENDROOT
BRANCH   1   2
ATOM      2  C   UNL     1       4.827   1.449  14.215  1.00  0.00     0.000 C 
BRANCH   2   3
ATOM      3  C   UNL     1       3.554   0.627  13.944  1.00  0.00     0.006 C 
BRANCH   3   4
ATOM      4  C   UNL     1       2.515   0.783  15.062  1.00  0.00     0.053 C 
BRANCH   4   5
ATOM      5  C   UNL     1       1.515  -0.332  15.051  1.00  0.00     0.041 C 
ATOM      6  O   UNL     1       0.283  -0.077  14.988  1.00  0.00    -0.550 OA
ATOM      7  O   UNL     1       1.941  -1.651  15.145  1.00  0.00    -0.550 OA
ENDBRANCH   4   5
ENDBRANCH   3   4
ENDBRANCH   2   3
ENDBRANCH   1   2
BRANCH   1   8
ATOM      8  C   UNL     1       5.775  -0.927  14.178  1.00  0.00     0.000 C 
BRANCH   8   9
ATOM      9  C   UNL     1       6.105  -1.728  15.448  1.00  0.00    -0.000 C 
BRANCH   9  10
ATOM     10  C   UNL     1       5.120  -1.447  16.597  1.00  0.00    -0.000 C 
BRANCH  10  11
ATOM     11  C   UNL     1       5.779  -1.557  17.981  1.00  0.00    -0.000 C 
BRANCH  11  12
ATOM     12  C   UNL     1       5.596  -0.288  18.827  1.00  0.00    -0.003 C 
ATOM     13  C   UNL     1       4.883   0.802  18.034  1.00  0.00     0.004 C 
ENDBRANCH  11  12
ENDBRANCH  10  11
ENDBRANCH   9  10
ENDBRANCH   8   9
ENDBRANCH   1   8
TORSDOF 9
ENDMDL
MODEL 5
REMARK VINA RESULT:    -3.963      2.442      4.400
REMARK INTER + INTRA:          -7.370
REMARK INTER:                  -6.178
REMARK INTRA:                  -1.192
REMARK UNBOUND:                -1.322
REMARK SMILES CCCCCCCCCCC(=O)[O-]
REMARK SMILES IDX 7 1 8 2 9 3 10 4 11 5 12 6 13 7 6 8 5 9 4 10 3 11 2 12 1 13
REMARK H PARENT
REMARK Flexibility Score: inf
ROOT
ATOM      1  C   UNL     1       4.745   0.046  13.035  1.00  0.00     0.000 C 
ENDROOT
BRANCH   1   2
ATOM      2  C   UNL     1       4.670  -1.270  13.824  1.00  0.00     0.000 C 
BRANCH   2   3
ATOM      3  C   UNL     1       3.227  -1.782  13.989  1.00  0.00     0.006 C 
BRANCH   3   4
ATOM      4  C   UNL     1       2.597  -1.322  15.310  1.00  0.00     0.053 C 
BRANCH   4   5
ATOM      5  C   UNL     1       1.656  -0.175  15.107  1.00  0.00     0.041 C 
ATOM      6  O   UNL     1       0.436  -0.390  14.877  1.00  0.00    -0.550 OA
ATOM      7  O   UNL     1       2.131   1.130  15.137  1.00  0.00    -0.550 OA
ENDBRANCH   4   5
ENDBRANCH   3   4
ENDBRANCH   2   3
ENDBRANCH   1   2
BRANCH   1   8
ATOM      8  C   UNL     1       5.666   1.083  13.702  1.00  0.00     0.000 C 
BRANCH   8   9
ATOM      9  C   UNL     1       6.051   0.692  15.139  1.00  0.00    -0.000 C 
BRANCH   9  10
ATOM     10  C   UNL     1       5.335   1.550  16.197  1.00  0.00    -0.000 C 
BRANCH  10  11
ATOM     11  C   UNL     1       4.980   0.753  17.462  1.00  0.00    -0.000 C 
BRANCH  11  12
ATOM     12  C   UNL     1       5.535  -0.680  17.437  1.00  0.00    -0.003 C 
ATOM     13  C   UNL     1       6.102  -1.072  18.797  1.00  0.00     0.004 C 
ENDBRANCH  11  12
ENDBRANCH  10  11
ENDBRANCH   9  10
ENDBRANCH   8   9
ENDBRANCH   1   8
TORSDOF 9
ENDMDL
MODEL 6
REMARK VINA RESULT:    -3.920      2.059      4.153
REMARK INTER + INTRA:          -7.305
REMARK INTER:                  -6.320
REMARK INTRA:                  -0.984
REMARK UNBOUND:                -1.322
REMARK SMILES CCCCCCCCCCC(=O)[O-]
REMARK SMILES IDX 7 1 8 2 9 3 10 4 11 5 12 6 13 7 6 8 5 9 4 10 3 11 2 12 1 13
REMARK H PARENT
REMARK Flexibility Score: inf
ROOT
ATOM      1  C   UNL     1       3.797   2.500  14.486  1.00  0.00     0.000 C 
ENDROOT
BRANCH   1   2
ATOM      2  C   UNL     1       4.733   1.664  13.599  1.00  0.00     0.000 C 
BRANCH   2   3
ATOM      3  C   UNL     1       4.093   0.342  13.140  1.00  0.00     0.006 C 
BRANCH   3   4
ATOM      4  C   UNL     1       2.863  -0.028  13.978  1.00  0.00     0.053 C 
BRANCH   4   5
ATOM      5  C   UNL     1       2.918  -1.449  14.449  1.00  0.00     0.041 C 
ATOM      6  O   UNL     1       3.970  -2.125  14.299  1.00  0.00    -0.550 OA
ATOM      7  O   UNL     1       1.797  -2.038  15.020  1.00  0.00    -0.550 OA
ENDBRANCH   4   5
ENDBRANCH   3   4
ENDBRANCH   2   3
ENDBRANCH   1   2
BRANCH   1   8
ATOM      8  C   UNL     1       4.394   2.778  15.876  1.00  0.00     0.000 C 
BRANCH   8   9
ATOM      9  C   UNL     1       3.747   1.925  16.979  1.00  0.00    -0.000 C 
BRANCH   9  10
ATOM     10  C   UNL     1       4.770   1.058  17.734  1.00  0.00    -0.000 C 
BRANCH  10  11
ATOM     11  C   UNL     1       5.385  -0.038  16.849  1.00  0.00    -0.000 C 
BRANCH  11  12
ATOM     12  C   UNL     1       5.377  -1.419  17.523  1.00  0.00    -0.003 C 
ATOM     13  C   UNL     1       6.219  -1.413  18.795  1.00  0.00     0.004 C 
ENDBRANCH  11  12
ENDBRANCH  10  11
ENDBRANCH   9  10
ENDBRANCH   8   9
ENDBRANCH   1   8
TORSDOF 9
ENDMDL
MODEL 7
REMARK VINA RESULT:    -3.857      2.823      4.553
REMARK INTER + INTRA:          -7.208
REMARK INTER:                  -6.326
REMARK INTRA:                  -0.881
REMARK UNBOUND:                -1.322
REMARK SMILES CCCCCCCCCCC(=O)[O-]
REMARK SMILES IDX 7 1 8 2 9 3 10 4 11 5 12 6 13 7 6 8 5 9 4 10 3 11 2 12 1 13
REMARK H PARENT
REMARK Flexibility Score: inf
ROOT
ATOM      1  C   UNL     1       6.096   0.204  14.453  1.00  0.00     0.000 C 
ENDROOT
BRANCH   1   2
ATOM      2  C   UNL     1       6.067   0.967  13.119  1.00  0.00     0.000 C 
BRANCH   2   3
ATOM      3  C   UNL     1       4.945   2.019  13.061  1.00  0.00     0.006 C 
BRANCH   3   4
ATOM      4  C   UNL     1       3.995   1.918  14.261  1.00  0.00     0.053 C 
BRANCH   4   5
ATOM      5  C   UNL     1       3.714   3.261  14.862  1.00  0.00     0.041 C 
ATOM      6  O   UNL     1       2.643   3.866  14.587  1.00  0.00    -0.550 OA
ATOM      7  O   UNL     1       4.648   3.861  15.696  1.00  0.00    -0.550 OA
ENDBRANCH   4   5
ENDBRANCH   3   4
ENDBRANCH   2   3
ENDBRANCH   1   2
BRANCH   1   8
ATOM      8  C   UNL     1       6.423  -1.289  14.271  1.00  0.00     0.000 C 
BRANCH   8   9
ATOM      9  C   UNL     1       6.087  -2.124  15.517  1.00  0.00    -0.000 C 
BRANCH   9  10
ATOM     10  C   UNL     1       5.029  -1.452  16.411  1.00  0.00    -0.000 C 
BRANCH  10  11
ATOM     11  C   UNL     1       5.347  -1.590  17.908  1.00  0.00    -0.000 C 
BRANCH  11  12
ATOM     12  C   UNL     1       5.504  -0.231  18.609  1.00  0.00    -0.003 C 
ATOM     13  C   UNL     1       4.785   0.870  17.836  1.00  0.00     0.004 C 
ENDBRANCH  11  12
ENDBRANCH  10  11
ENDBRANCH   9  10
ENDBRANCH   8   9
ENDBRANCH   1   8
TORSDOF 9
ENDMDL
MODEL 8
REMARK VINA RESULT:    -3.793      2.502      4.667
REMARK INTER + INTRA:          -7.110
REMARK INTER:                  -5.887
REMARK INTRA:                  -1.222
REMARK UNBOUND:                -1.322
REMARK SMILES CCCCCCCCCCC(=O)[O-]
REMARK SMILES IDX 7 1 8 2 9 3 10 4 11 5 12 6 13 7 6 8 5 9 4 10 3 11 2 12 1 13
REMARK H PARENT
REMARK Flexibility Score: inf
ROOT
ATOM      1  C   UNL     1       4.823  -0.827  17.038  1.00  0.00     0.000 C 
ENDROOT
BRANCH   1   2
ATOM      2  C   UNL     1       5.320  -1.244  15.645  1.00  0.00     0.000 C 
BRANCH   2   3
ATOM      3  C   UNL     1       4.179  -1.705  14.721  1.00  0.00     0.006 C 
BRANCH   3   4
ATOM      4  C   UNL     1       2.801  -1.530  15.371  1.00  0.00     0.053 C 
BRANCH   4   5
ATOM      5  C   UNL     1       1.922  -0.617  14.572  1.00  0.00     0.041 C 
ATOM      6  O   UNL     1       2.354  -0.089  13.513  1.00  0.00    -0.550 OA
ATOM      7  O   UNL     1       0.639  -0.321  15.016  1.00  0.00    -0.550 OA
ENDBRANCH   4   5
ENDBRANCH   3   4
ENDBRANCH   2   3
ENDBRANCH   1   2
BRANCH   1   8
ATOM      8  C   UNL     1       5.420   0.513  17.502  1.00  0.00     0.000 C 
BRANCH   8   9
ATOM      9  C   UNL     1       4.345   1.582  17.758  1.00  0.00    -0.000 C 
BRANCH   9  10
ATOM     10  C   UNL     1       3.609   2.001  16.473  1.00  0.00    -0.000 C 
BRANCH  10  11
ATOM     11  C   UNL     1       4.385   3.051  15.663  1.00  0.00    -0.000 C 
BRANCH  11  12
ATOM     12  C   UNL     1       4.186   2.896  14.147  1.00  0.00    -0.003 C 
ATOM     13  C   UNL     1       5.184   1.901  13.562  1.00  0.00     0.004 C 
ENDBRANCH  11  12
ENDBRANCH  10  11
ENDBRANCH   9  10
ENDBRANCH   8   9
ENDBRANCH   1   8
TORSDOF 9
ENDMDL
MODEL 9
REMARK VINA RESULT:    -3.769      1.343      3.212
REMARK INTER + INTRA:          -7.074
REMARK INTER:                  -6.039
REMARK INTRA:                  -1.035
REMARK UNBOUND:                -1.322
REMARK SMILES CCCCCCCCCCC(=O)[O-]
REMARK SMILES IDX 7 1 8 2 9 3 10 4 11 5 12 6 13 7 6 8 5 9 4 10 3 11 2 12 1 13
REMARK H PARENT
REMARK Flexibility Score: inf
ROOT
ATOM      1  C   UNL     1       4.669  -1.848  14.228  1.00  0.00     0.000 C 
ENDROOT
BRANCH   1   2
ATOM      2  C   UNL     1       5.870  -1.697  15.176  1.00  0.00     0.000 C 
BRANCH   2   3
ATOM      3  C   UNL     1       5.449  -1.368  16.619  1.00  0.00     0.006 C 
BRANCH   3   4
ATOM      4  C   UNL     1       5.607   0.123  16.944  1.00  0.00     0.053 C 
BRANCH   4   5
ATOM      5  C   UNL     1       5.048   0.460  18.291  1.00  0.00     0.041 C 
ATOM      6  O   UNL     1       5.236  -0.314  19.267  1.00  0.00    -0.550 OA
ATOM      7  O   UNL     1       4.290   1.612  18.463  1.00  0.00    -0.550 OA
ENDBRANCH   4   5
ENDBRANCH   3   4
ENDBRANCH   2   3
ENDBRANCH   1   2
BRANCH   1   8
ATOM      8  C   UNL     1       4.730  -0.874  13.038  1.00  0.00     0.000 C 
BRANCH   8   9
ATOM      9  C   UNL     1       4.125   0.500  13.369  1.00  0.00    -0.000 C 
BRANCH   9  10
ATOM     10  C   UNL     1       2.877   0.398  14.263  1.00  0.00    -0.000 C 
BRANCH  10  11
ATOM     11  C   UNL     1       2.799   1.528  15.301  1.00  0.00    -0.000 C 
BRANCH  11  12
ATOM     12  C   UNL     1       3.211   2.892  14.726  1.00  0.00    -0.003 C 
ATOM     13  C   UNL     1       4.398   3.472  15.488  1.00  0.00     0.004 C 
ENDBRANCH  11  12
ENDBRANCH  10  11
ENDBRANCH   9  10
ENDBRANCH   8   9
ENDBRANCH   1   8
TORSDOF 9
ENDMDL
