MODEL 1
REMARK VINA RESULT:    21.038      0.000      0.000
REMARK INTER + INTRA:          44.536
REMARK INTER:                  45.635
REMARK INTRA:                  -1.099
REMARK UNBOUND:                -1.099
REMARK SMILES CCCCCCCCCCCCCCCCCCCCCC(=O)[O-]
REMARK SMILES IDX 12 1 11 2 10 3 9 4 8 5 7 6 6 7 5 8 4 9 3 10 2 11 1 12 13 13
REMARK SMILES IDX 14 14 15 15 16 16 17 17 18 18 19 19 20 20 21 21 22 22 23 23
REMARK SMILES IDX 24 24
REMARK H PARENT
REMARK Flexibility Score: inf
ROOT
ATOM      1  C   UNL     1      -8.849 -14.029  20.780  1.00  0.00     0.000 C 
ENDROOT
BRANCH   1   2
ATOM      2  C   UNL     1      -8.290 -14.049  19.346  1.00  0.00     0.000 C 
BRANCH   2   3
ATOM      3  C   UNL     1      -9.231 -13.477  18.265  1.00  0.00     0.000 C 
BRANCH   3   4
ATOM      4  C   UNL     1      -9.921 -14.523  17.371  1.00  0.00    -0.000 C 
BRANCH   4   5
ATOM      5  C   UNL     1      -9.233 -15.897  17.414  1.00  0.00    -0.000 C 
BRANCH   5   6
ATOM      6  C   UNL     1     -10.121 -16.992  18.033  1.00  0.00    -0.000 C 
BRANCH   6   7
ATOM      7  C   UNL     1      -9.755 -18.435  17.638  1.00  0.00    -0.000 C 
BRANCH   7   8
ATOM      8  C   UNL     1      -8.603 -18.505  16.625  1.00  0.00    -0.000 C 
BRANCH   8   9
ATOM      9  C   UNL     1      -7.553 -19.536  17.057  1.00  0.00    -0.000 C 
BRANCH   9  10
ATOM     10  C   UNL     1      -6.328 -19.499  16.131  1.00  0.00    -0.000 C 
BRANCH  10  11
ATOM     11  C   UNL     1      -6.526 -20.340  14.862  1.00  0.00    -0.003 C 
ATOM     12  C   UNL     1      -5.899 -19.698  13.625  1.00  0.00     0.004 C 
ENDBRANCH  10  11
ENDBRANCH   9  10
ENDBRANCH   8   9
ENDBRANCH   7   8
ENDBRANCH   6   7
ENDBRANCH   5   6
ENDBRANCH   4   5
ENDBRANCH   3   4
ENDBRANCH   2   3
ENDBRANCH   1   2
BRANCH   1  13
ATOM     13  C   UNL     1      -8.602 -12.695  21.500  1.00  0.00     0.000 C 
BRANCH  13  14
ATOM     14  C   UNL     1      -7.219 -12.673  22.168  1.00  0.00     0.000 C 
BRANCH  14  15
ATOM     15  C   UNL     1      -7.275 -12.242  23.646  1.00  0.00     0.000 C 
BRANCH  15  16
ATOM     16  C   UNL     1      -5.976 -12.478  24.437  1.00  0.00     0.000 C 
BRANCH  16  17
ATOM     17  C   UNL     1      -6.168 -13.426  25.632  1.00  0.00     0.000 C 
BRANCH  17  18
ATOM     18  C   UNL     1      -4.944 -14.320  25.883  1.00  0.00     0.000 C 
BRANCH  18  19
ATOM     19  C   UNL     1      -5.276 -15.565  26.720  1.00  0.00     0.000 C 
BRANCH  19  20
ATOM     20  C   UNL     1      -4.547 -16.801  26.179  1.00  0.00     0.006 C 
BRANCH  20  21
ATOM     21  C   UNL     1      -5.540 -17.910  25.822  1.00  0.00     0.053 C 
BRANCH  21  22
ATOM     22  C   UNL     1      -5.415 -18.286  24.379  1.00  0.00     0.041 C 
ATOM     23  O   UNL     1      -4.723 -17.584  23.595  1.00  0.00    -0.550 OA
ATOM     24  O   UNL     1      -6.053 -19.421  23.900  1.00  0.00    -0.550 OA
ENDBRANCH  21  22
ENDBRANCH  20  21
ENDBRANCH  19  20
ENDBRANCH  18  19
ENDBRANCH  17  18
ENDBRANCH  16  17
ENDBRANCH  15  16
ENDBRANCH  14  15
ENDBRANCH  13  14
ENDBRANCH   1  13
TORSDOF 20
ENDMDL
MODEL 2
REMARK VINA RESULT:    21.234      0.732      1.632
REMARK INTER + INTRA:          44.961
REMARK INTER:                  46.078
REMARK INTRA:                  -1.116
REMARK UNBOUND:                -1.099
REMARK SMILES CCCCCCCCCCCCCCCCCCCCCC(=O)[O-]
REMARK SMILES IDX 12 1 11 2 10 3 9 4 8 5 7 6 6 7 5 8 4 9 3 10 2 11 1 12 13 13
REMARK SMILES IDX 14 14 15 15 16 16 17 17 18 18 19 19 20 20 21 21 22 22 23 23
REMARK SMILES IDX 24 24
REMARK H PARENT
REMARK Flexibility Score: inf
ROOT
ATOM      1  C   UNL     1      -8.280 -12.417  21.898  1.00  0.00     0.000 C 
ENDROOT
BRANCH   1   2
ATOM      2  C   UNL     1      -9.059 -13.566  21.232  1.00  0.00     0.000 C 
BRANCH   2   3
ATOM      3  C   UNL     1      -8.404 -14.158  19.967  1.00  0.00     0.000 C 
BRANCH   3   4
ATOM      4  C   UNL     1      -8.919 -13.592  18.631  1.00  0.00    -0.000 C 
BRANCH   4   5
ATOM      5  C   UNL     1      -8.623 -14.512  17.435  1.00  0.00    -0.000 C 
BRANCH   5   6
ATOM      6  C   UNL     1      -9.718 -15.570  17.211  1.00  0.00    -0.000 C 
BRANCH   6   7
ATOM      7  C   UNL     1      -9.697 -16.755  18.195  1.00  0.00    -0.000 C 
BRANCH   7   8
ATOM      8  C   UNL     1     -10.156 -18.074  17.555  1.00  0.00    -0.000 C 
BRANCH   8   9
ATOM      9  C   UNL     1      -8.990 -19.062  17.435  1.00  0.00    -0.000 C 
BRANCH   9  10
ATOM     10  C   UNL     1      -8.027 -18.646  16.312  1.00  0.00    -0.000 C 
BRANCH  10  11
ATOM     11  C   UNL     1      -6.741 -19.487  16.300  1.00  0.00    -0.003 C 
ATOM     12  C   UNL     1      -6.381 -19.992  14.904  1.00  0.00     0.004 C 
ENDBRANCH  10  11
ENDBRANCH   9  10
ENDBRANCH   8   9
ENDBRANCH   7   8
ENDBRANCH   6   7
ENDBRANCH   5   6
ENDBRANCH   4   5
ENDBRANCH   3   4
ENDBRANCH   2   3
ENDBRANCH   1   2
BRANCH   1  13
ATOM     13  C   UNL     1      -7.035 -12.900  22.658  1.00  0.00     0.000 C 
BRANCH  13  14
ATOM     14  C   UNL     1      -6.433 -11.772  23.509  1.00  0.00     0.000 C 
BRANCH  14  15
ATOM     15  C   UNL     1      -6.735 -11.929  25.012  1.00  0.00     0.000 C 
BRANCH  15  16
ATOM     16  C   UNL     1      -6.646 -13.371  25.540  1.00  0.00     0.000 C 
BRANCH  16  17
ATOM     17  C   UNL     1      -5.296 -13.681  26.206  1.00  0.00     0.000 C 
BRANCH  17  18
ATOM     18  C   UNL     1      -4.741 -15.058  25.809  1.00  0.00     0.000 C 
BRANCH  18  19
ATOM     19  C   UNL     1      -5.106 -16.160  26.816  1.00  0.00     0.000 C 
BRANCH  19  20
ATOM     20  C   UNL     1      -4.705 -17.542  26.287  1.00  0.00     0.006 C 
BRANCH  20  21
ATOM     21  C   UNL     1      -5.879 -18.215  25.571  1.00  0.00     0.053 C 
BRANCH  21  22
ATOM     22  C   UNL     1      -5.608 -18.327  24.103  1.00  0.00     0.041 C 
ATOM     23  O   UNL     1      -6.376 -18.998  23.363  1.00  0.00    -0.550 OA
ATOM     24  O   UNL     1      -4.515 -17.679  23.548  1.00  0.00    -0.550 OA
ENDBRANCH  21  22
ENDBRANCH  20  21
ENDBRANCH  19  20
ENDBRANCH  18  19
ENDBRANCH  17  18
ENDBRANCH  16  17
ENDBRANCH  15  16
ENDBRANCH  14  15
ENDBRANCH  13  14
ENDBRANCH   1  13
TORSDOF 20
ENDMDL
MODEL 3
REMARK VINA RESULT:    22.270      4.343      5.625
REMARK INTER + INTRA:          47.210
REMARK INTER:                  48.113
REMARK INTRA:                  -0.903
REMARK UNBOUND:                -1.099
REMARK SMILES CCCCCCCCCCCCCCCCCCCCCC(=O)[O-]
REMARK SMILES IDX 12 1 11 2 10 3 9 4 8 5 7 6 6 7 5 8 4 9 3 10 2 11 1 12 13 13
REMARK SMILES IDX 14 14 15 15 16 16 17 17 18 18 19 19 20 20 21 21 22 22 23 23
REMARK SMILES IDX 24 24
REMARK H PARENT
REMARK Flexibility Score: inf
ROOT
ATOM      1  C   UNL     1      -7.967 -13.212  21.996  1.00  0.00     0.000 C 
ENDROOT
BRANCH   1   2
ATOM      2  C   UNL     1      -8.396 -13.038  20.528  1.00  0.00     0.000 C 
BRANCH   2   3
ATOM      3  C   UNL     1      -8.842 -14.332  19.815  1.00  0.00     0.000 C 
BRANCH   3   4
ATOM      4  C   UNL     1      -9.297 -14.157  18.355  1.00  0.00    -0.000 C 
BRANCH   4   5
ATOM      5  C   UNL     1      -9.356 -15.486  17.582  1.00  0.00    -0.000 C 
BRANCH   5   6
ATOM      6  C   UNL     1      -9.866 -16.655  18.442  1.00  0.00    -0.000 C 
BRANCH   6   7
ATOM      7  C   UNL     1     -10.200 -17.944  17.667  1.00  0.00    -0.000 C 
BRANCH   7   8
ATOM      8  C   UNL     1      -8.985 -18.866  17.487  1.00  0.00    -0.000 C 
BRANCH   8   9
ATOM      9  C   UNL     1      -8.649 -19.048  16.002  1.00  0.00    -0.000 C 
BRANCH   9  10
ATOM     10  C   UNL     1      -7.129 -19.023  15.772  1.00  0.00    -0.000 C 
BRANCH  10  11
ATOM     11  C   UNL     1      -6.720 -19.741  14.477  1.00  0.00    -0.003 C 
ATOM     12  C   UNL     1      -5.976 -21.050  14.739  1.00  0.00     0.004 C 
ENDBRANCH  10  11
ENDBRANCH   9  10
ENDBRANCH   8   9
ENDBRANCH   7   8
ENDBRANCH   6   7
ENDBRANCH   5   6
ENDBRANCH   4   5
ENDBRANCH   3   4
ENDBRANCH   2   3
ENDBRANCH   1   2
BRANCH   1  13
ATOM     13  C   UNL     1      -7.047 -12.084  22.488  1.00  0.00     0.000 C 
BRANCH  13  14
ATOM     14  C   UNL     1      -6.425 -12.431  23.849  1.00  0.00     0.000 C 
BRANCH  14  15
ATOM     15  C   UNL     1      -6.242 -11.198  24.755  1.00  0.00     0.000 C 
BRANCH  15  16
ATOM     16  C   UNL     1      -5.389 -10.071  24.145  1.00  0.00     0.000 C 
BRANCH  16  17
ATOM     17  C   UNL     1      -5.155  -8.906  25.120  1.00  0.00     0.000 C 
BRANCH  17  18
ATOM     18  C   UNL     1      -3.669  -8.540  25.260  1.00  0.00     0.000 C 
BRANCH  18  19
ATOM     19  C   UNL     1      -2.882  -8.733  23.955  1.00  0.00     0.000 C 
BRANCH  19  20
ATOM     20  C   UNL     1      -1.442  -9.175  24.242  1.00  0.00     0.006 C 
BRANCH  20  21
ATOM     21  C   UNL     1      -1.150  -9.144  25.744  1.00  0.00     0.053 C 
BRANCH  21  22
ATOM     22  C   UNL     1       0.170  -8.489  26.012  1.00  0.00     0.041 C 
ATOM     23  O   UNL     1       1.016  -9.045  26.761  1.00  0.00    -0.550 OA
ATOM     24  O   UNL     1       0.471  -7.269  25.424  1.00  0.00    -0.550 OA
ENDBRANCH  21  22
ENDBRANCH  20  21
ENDBRANCH  19  20
ENDBRANCH  18  19
ENDBRANCH  17  18
ENDBRANCH  16  17
ENDBRANCH  15  16
ENDBRANCH  14  15
ENDBRANCH  13  14
ENDBRANCH   1  13
TORSDOF 20
ENDMDL
MODEL 4
REMARK VINA RESULT:    22.444      3.023      8.808
REMARK INTER + INTRA:          47.587
REMARK INTER:                  48.756
REMARK INTRA:                  -1.169
REMARK UNBOUND:                -1.099
REMARK SMILES CCCCCCCCCCCCCCCCCCCCCC(=O)[O-]
REMARK SMILES IDX 12 1 11 2 10 3 9 4 8 5 7 6 6 7 5 8 4 9 3 10 2 11 1 12 13 13
REMARK SMILES IDX 14 14 15 15 16 16 17 17 18 18 19 19 20 20 21 21 22 22 23 23
REMARK SMILES IDX 24 24
REMARK H PARENT
REMARK Flexibility Score: inf
ROOT
ATOM      1  C   UNL     1      -8.835 -13.731  20.747  1.00  0.00     0.000 C 
ENDROOT
BRANCH   1   2
ATOM      2  C   UNL     1      -8.215 -12.574  21.551  1.00  0.00     0.000 C 
BRANCH   2   3
ATOM      3  C   UNL     1      -7.234 -12.998  22.664  1.00  0.00     0.000 C 
BRANCH   3   4
ATOM      4  C   UNL     1      -6.921 -11.917  23.714  1.00  0.00    -0.000 C 
BRANCH   4   5
ATOM      5  C   UNL     1      -6.549 -12.503  25.087  1.00  0.00    -0.000 C 
BRANCH   5   6
ATOM      6  C   UNL     1      -5.472 -13.598  24.997  1.00  0.00    -0.000 C 
BRANCH   6   7
ATOM      7  C   UNL     1      -5.333 -14.487  26.247  1.00  0.00    -0.000 C 
BRANCH   7   8
ATOM      8  C   UNL     1      -4.515 -15.761  25.989  1.00  0.00    -0.000 C 
BRANCH   8   9
ATOM      9  C   UNL     1      -5.233 -16.997  26.544  1.00  0.00    -0.000 C 
BRANCH   9  10
ATOM     10  C   UNL     1      -5.320 -18.107  25.485  1.00  0.00    -0.000 C 
BRANCH  10  11
ATOM     11  C   UNL     1      -4.876 -17.627  24.095  1.00  0.00    -0.003 C 
ATOM     12  C   UNL     1      -5.838 -18.059  22.988  1.00  0.00     0.004 C 
ENDBRANCH  10  11
ENDBRANCH   9  10
ENDBRANCH   8   9
ENDBRANCH   7   8
ENDBRANCH   6   7
ENDBRANCH   5   6
ENDBRANCH   4   5
ENDBRANCH   3   4
ENDBRANCH   2   3
ENDBRANCH   1   2
BRANCH   1  13
ATOM     13  C   UNL     1      -8.260 -13.850  19.328  1.00  0.00     0.000 C 
BRANCH  13  14
ATOM     14  C   UNL     1      -9.372 -13.773  18.271  1.00  0.00     0.000 C 
BRANCH  14  15
ATOM     15  C   UNL     1      -9.459 -15.042  17.401  1.00  0.00     0.000 C 
BRANCH  15  16
ATOM     16  C   UNL     1     -10.040 -16.275  18.116  1.00  0.00     0.000 C 
BRANCH  16  17
ATOM     17  C   UNL     1      -9.167 -17.529  17.947  1.00  0.00     0.000 C 
BRANCH  17  18
ATOM     18  C   UNL     1      -9.936 -18.708  17.331  1.00  0.00     0.000 C 
BRANCH  18  19
ATOM     19  C   UNL     1      -9.082 -19.531  16.353  1.00  0.00     0.000 C 
BRANCH  19  20
ATOM     20  C   UNL     1      -7.706 -18.886  16.149  1.00  0.00     0.006 C 
BRANCH  20  21
ATOM     21  C   UNL     1      -6.641 -19.950  15.869  1.00  0.00     0.053 C 
BRANCH  21  22
ATOM     22  C   UNL     1      -6.228 -19.917  14.430  1.00  0.00     0.041 C 
ATOM     23  O   UNL     1      -6.480 -18.908  13.718  1.00  0.00    -0.550 OA
ATOM     24  O   UNL     1      -5.552 -20.994  13.877  1.00  0.00    -0.550 OA
ENDBRANCH  21  22
ENDBRANCH  20  21
ENDBRANCH  19  20
ENDBRANCH  18  19
ENDBRANCH  17  18
ENDBRANCH  16  17
ENDBRANCH  15  16
ENDBRANCH  14  15
ENDBRANCH  13  14
ENDBRANCH   1  13
TORSDOF 20
ENDMDL
MODEL 5
REMARK VINA RESULT:    22.720      4.187     10.599
REMARK INTER + INTRA:          48.185
REMARK INTER:                  49.110
REMARK INTRA:                  -0.925
REMARK UNBOUND:                -1.099
REMARK SMILES CCCCCCCCCCCCCCCCCCCCCC(=O)[O-]
REMARK SMILES IDX 12 1 11 2 10 3 9 4 8 5 7 6 6 7 5 8 4 9 3 10 2 11 1 12 13 13
REMARK SMILES IDX 14 14 15 15 16 16 17 17 18 18 19 19 20 20 21 21 22 22 23 23
REMARK SMILES IDX 24 24
REMARK H PARENT
REMARK Flexibility Score: inf
ROOT
ATOM      1  C   UNL     1      -8.666 -12.738  21.591  1.00  0.00     0.000 C 
ENDROOT
BRANCH   1   2
ATOM      2  C   UNL     1      -7.277 -12.437  22.183  1.00  0.00     0.000 C 
BRANCH   2   3
ATOM      3  C   UNL     1      -7.259 -12.130  23.695  1.00  0.00     0.000 C 
BRANCH   3   4
ATOM      4  C   UNL     1      -5.891 -11.713  24.266  1.00  0.00    -0.000 C 
BRANCH   4   5
ATOM      5  C   UNL     1      -5.906 -10.310  24.897  1.00  0.00    -0.000 C 
BRANCH   5   6
ATOM      6  C   UNL     1      -5.104  -9.280  24.081  1.00  0.00    -0.000 C 
BRANCH   6   7
ATOM      7  C   UNL     1      -3.792  -8.806  24.734  1.00  0.00    -0.000 C 
BRANCH   7   8
ATOM      8  C   UNL     1      -2.854  -8.096  23.746  1.00  0.00    -0.000 C 
BRANCH   8   9
ATOM      9  C   UNL     1      -1.410  -8.098  24.260  1.00  0.00    -0.000 C 
BRANCH   9  10
ATOM     10  C   UNL     1      -1.171  -9.267  25.229  1.00  0.00    -0.000 C 
BRANCH  10  11
ATOM     11  C   UNL     1       0.006  -9.007  26.182  1.00  0.00    -0.003 C 
ATOM     12  C   UNL     1       0.582  -7.599  26.037  1.00  0.00     0.004 C 
ENDBRANCH  10  11
ENDBRANCH   9  10
ENDBRANCH   8   9
ENDBRANCH   7   8
ENDBRANCH   6   7
ENDBRANCH   5   6
ENDBRANCH   4   5
ENDBRANCH   3   4
ENDBRANCH   2   3
ENDBRANCH   1   2
BRANCH   1  13
ATOM     13  C   UNL     1      -8.672 -13.972  20.677  1.00  0.00     0.000 C 
BRANCH  13  14
ATOM     14  C   UNL     1      -9.209 -13.624  19.280  1.00  0.00     0.000 C 
BRANCH  14  15
ATOM     15  C   UNL     1      -8.521 -14.426  18.158  1.00  0.00     0.000 C 
BRANCH  15  16
ATOM     16  C   UNL     1      -9.438 -15.414  17.416  1.00  0.00     0.000 C 
BRANCH  16  17
ATOM     17  C   UNL     1      -9.948 -16.549  18.321  1.00  0.00     0.000 C 
BRANCH  17  18
ATOM     18  C   UNL     1      -9.869 -17.927  17.645  1.00  0.00     0.000 C 
BRANCH  18  19
ATOM     19  C   UNL     1      -8.466 -18.248  17.108  1.00  0.00     0.000 C 
BRANCH  19  20
ATOM     20  C   UNL     1      -8.518 -19.384  16.079  1.00  0.00     0.006 C 
BRANCH  20  21
ATOM     21  C   UNL     1      -7.438 -19.202  15.009  1.00  0.00     0.053 C 
BRANCH  21  22
ATOM     22  C   UNL     1      -6.373 -20.245  15.151  1.00  0.00     0.041 C 
ATOM     23  O   UNL     1      -5.775 -20.686  14.134  1.00  0.00    -0.550 OA
ATOM     24  O   UNL     1      -6.032 -20.722  16.408  1.00  0.00    -0.550 OA
ENDBRANCH  21  22
ENDBRANCH  20  21
ENDBRANCH  19  20
ENDBRANCH  18  19
ENDBRANCH  17  18
ENDBRANCH  16  17
ENDBRANCH  15  16
ENDBRANCH  14  15
ENDBRANCH  13  14
ENDBRANCH   1  13
TORSDOF 20
ENDMDL
MODEL 6
REMARK VINA RESULT:    22.752      5.037      7.171
REMARK INTER + INTRA:          48.255
REMARK INTER:                  49.215
REMARK INTRA:                  -0.960
REMARK UNBOUND:                -1.099
REMARK SMILES CCCCCCCCCCCCCCCCCCCCCC(=O)[O-]
REMARK SMILES IDX 12 1 11 2 10 3 9 4 8 5 7 6 6 7 5 8 4 9 3 10 2 11 1 12 13 13
REMARK SMILES IDX 14 14 15 15 16 16 17 17 18 18 19 19 20 20 21 21 22 22 23 23
REMARK SMILES IDX 24 24
REMARK H PARENT
REMARK Flexibility Score: inf
ROOT
ATOM      1  C   UNL     1      -7.494 -12.335  22.051  1.00  0.00     0.000 C 
ENDROOT
BRANCH   1   2
ATOM      2  C   UNL     1      -8.727 -13.046  21.464  1.00  0.00     0.000 C 
BRANCH   2   3
ATOM      3  C   UNL     1      -8.439 -13.991  20.279  1.00  0.00     0.000 C 
BRANCH   3   4
ATOM      4  C   UNL     1      -9.284 -13.742  19.016  1.00  0.00    -0.000 C 
BRANCH   4   5
ATOM      5  C   UNL     1      -8.752 -14.489  17.782  1.00  0.00    -0.000 C 
BRANCH   5   6
ATOM      6  C   UNL     1      -9.859 -14.827  16.766  1.00  0.00    -0.000 C 
BRANCH   6   7
ATOM      7  C   UNL     1     -10.497 -13.614  16.064  1.00  0.00    -0.000 C 
BRANCH   7   8
ATOM      8  C   UNL     1      -9.492 -12.808  15.228  1.00  0.00    -0.000 C 
BRANCH   8   9
ATOM      9  C   UNL     1      -9.640 -13.123  13.735  1.00  0.00    -0.000 C 
BRANCH   9  10
ATOM     10  C   UNL     1      -9.787 -11.835  12.910  1.00  0.00    -0.000 C 
BRANCH  10  11
ATOM     11  C   UNL     1      -9.726 -10.571  13.781  1.00  0.00    -0.003 C 
ATOM     12  C   UNL     1      -9.820  -9.285  12.960  1.00  0.00     0.004 C 
ENDBRANCH  10  11
ENDBRANCH   9  10
ENDBRANCH   8   9
ENDBRANCH   7   8
ENDBRANCH   6   7
ENDBRANCH   5   6
ENDBRANCH   4   5
ENDBRANCH   3   4
ENDBRANCH   2   3
ENDBRANCH   1   2
BRANCH   1  13
ATOM     13  C   UNL     1      -7.504 -12.292  23.587  1.00  0.00     0.000 C 
BRANCH  13  14
ATOM     14  C   UNL     1      -6.084 -12.104  24.144  1.00  0.00     0.000 C 
BRANCH  14  15
ATOM     15  C   UNL     1      -5.517 -10.696  23.876  1.00  0.00     0.000 C 
BRANCH  15  16
ATOM     16  C   UNL     1      -5.894  -9.638  24.928  1.00  0.00     0.000 C 
BRANCH  16  17
ATOM     17  C   UNL     1      -4.740  -8.671  25.241  1.00  0.00     0.000 C 
BRANCH  17  18
ATOM     18  C   UNL     1      -3.378  -9.197  24.761  1.00  0.00     0.000 C 
BRANCH  18  19
ATOM     19  C   UNL     1      -2.642  -8.203  23.850  1.00  0.00     0.000 C 
BRANCH  19  20
ATOM     20  C   UNL     1      -1.139  -8.191  24.151  1.00  0.00     0.006 C 
BRANCH  20  21
ATOM     21  C   UNL     1      -0.816  -9.078  25.357  1.00  0.00     0.053 C 
BRANCH  21  22
ATOM     22  C   UNL     1       0.304  -8.491  26.159  1.00  0.00     0.041 C 
ATOM     23  O   UNL     1       0.664  -7.298  25.972  1.00  0.00    -0.550 OA
ATOM     24  O   UNL     1       0.941  -9.256  27.125  1.00  0.00    -0.550 OA
ENDBRANCH  21  22
ENDBRANCH  20  21
ENDBRANCH  19  20
ENDBRANCH  18  19
ENDBRANCH  17  18
ENDBRANCH  16  17
ENDBRANCH  15  16
ENDBRANCH  14  15
ENDBRANCH  13  14
ENDBRANCH   1  13
TORSDOF 20
ENDMDL
MODEL 7
REMARK VINA RESULT:    22.978      2.776      4.453
REMARK INTER + INTRA:          48.745
REMARK INTER:                  49.529
REMARK INTRA:                  -0.784
REMARK UNBOUND:                -1.099
REMARK SMILES CCCCCCCCCCCCCCCCCCCCCC(=O)[O-]
REMARK SMILES IDX 12 1 11 2 10 3 9 4 8 5 7 6 6 7 5 8 4 9 3 10 2 11 1 12 13 13
REMARK SMILES IDX 14 14 15 15 16 16 17 17 18 18 19 19 20 20 21 21 22 22 23 23
REMARK SMILES IDX 24 24
REMARK H PARENT
REMARK Flexibility Score: inf
ROOT
ATOM      1  C   UNL     1      -7.960 -13.697  21.417  1.00  0.00     0.000 C 
ENDROOT
BRANCH   1   2
ATOM      2  C   UNL     1      -9.070 -13.677  20.351  1.00  0.00     0.000 C 
BRANCH   2   3
ATOM      3  C   UNL     1      -8.585 -13.477  18.900  1.00  0.00     0.000 C 
BRANCH   3   4
ATOM      4  C   UNL     1      -8.448 -14.764  18.067  1.00  0.00    -0.000 C 
BRANCH   4   5
ATOM      5  C   UNL     1      -9.765 -15.189  17.396  1.00  0.00    -0.000 C 
BRANCH   5   6
ATOM      6  C   UNL     1     -10.620 -13.990  16.947  1.00  0.00    -0.000 C 
BRANCH   6   7
ATOM      7  C   UNL     1     -10.630 -13.724  15.430  1.00  0.00    -0.000 C 
BRANCH   7   8
ATOM      8  C   UNL     1      -9.459 -12.844  14.968  1.00  0.00    -0.000 C 
BRANCH   8   9
ATOM      9  C   UNL     1      -9.215 -12.998  13.462  1.00  0.00    -0.000 C 
BRANCH   9  10
ATOM     10  C   UNL     1      -9.646 -11.735  12.701  1.00  0.00    -0.000 C 
BRANCH  10  11
ATOM     11  C   UNL     1      -9.951 -10.558  13.640  1.00  0.00    -0.003 C 
ATOM     12  C   UNL     1      -9.543  -9.210  13.048  1.00  0.00     0.004 C 
ENDBRANCH  10  11
ENDBRANCH   9  10
ENDBRANCH   8   9
ENDBRANCH   7   8
ENDBRANCH   6   7
ENDBRANCH   5   6
ENDBRANCH   4   5
ENDBRANCH   3   4
ENDBRANCH   2   3
ENDBRANCH   1   2
BRANCH   1  13
ATOM     13  C   UNL     1      -7.898 -12.402  22.241  1.00  0.00     0.000 C 
BRANCH  13  14
ATOM     14  C   UNL     1      -6.655 -12.379  23.145  1.00  0.00     0.000 C 
BRANCH  14  15
ATOM     15  C   UNL     1      -6.950 -11.831  24.554  1.00  0.00     0.000 C 
BRANCH  15  16
ATOM     16  C   UNL     1      -6.536 -12.761  25.708  1.00  0.00     0.000 C 
BRANCH  16  17
ATOM     17  C   UNL     1      -5.344 -13.663  25.347  1.00  0.00     0.000 C 
BRANCH  17  18
ATOM     18  C   UNL     1      -5.039 -14.705  26.435  1.00  0.00     0.000 C 
BRANCH  18  19
ATOM     19  C   UNL     1      -4.674 -16.081  25.856  1.00  0.00     0.000 C 
BRANCH  19  20
ATOM     20  C   UNL     1      -5.648 -17.159  26.346  1.00  0.00     0.006 C 
BRANCH  20  21
ATOM     21  C   UNL     1      -5.309 -18.521  25.733  1.00  0.00     0.053 C 
BRANCH  21  22
ATOM     22  C   UNL     1      -5.539 -18.506  24.254  1.00  0.00     0.041 C 
ATOM     23  O   UNL     1      -6.469 -19.188  23.747  1.00  0.00    -0.550 OA
ATOM     24  O   UNL     1      -4.733 -17.729  23.434  1.00  0.00    -0.550 OA
ENDBRANCH  21  22
ENDBRANCH  20  21
ENDBRANCH  19  20
ENDBRANCH  18  19
ENDBRANCH  17  18
ENDBRANCH  16  17
ENDBRANCH  15  16
ENDBRANCH  14  15
ENDBRANCH  13  14
ENDBRANCH   1  13
TORSDOF 20
ENDMDL
MODEL 8
REMARK VINA RESULT:    23.033      4.280      5.772
REMARK INTER + INTRA:          48.864
REMARK INTER:                  49.813
REMARK INTRA:                  -0.949
REMARK UNBOUND:                -1.099
REMARK SMILES CCCCCCCCCCCCCCCCCCCCCC(=O)[O-]
REMARK SMILES IDX 12 1 11 2 10 3 9 4 8 5 7 6 6 7 5 8 4 9 3 10 2 11 1 12 13 13
REMARK SMILES IDX 14 14 15 15 16 16 17 17 18 18 19 19 20 20 21 21 22 22 23 23
REMARK SMILES IDX 24 24
REMARK H PARENT
REMARK Flexibility Score: inf
ROOT
ATOM      1  C   UNL     1      -7.770 -13.511  21.764  1.00  0.00     0.000 C 
ENDROOT
BRANCH   1   2
ATOM      2  C   UNL     1      -8.596 -13.222  20.497  1.00  0.00     0.000 C 
BRANCH   2   3
ATOM      3  C   UNL     1      -8.528 -14.310  19.405  1.00  0.00     0.000 C 
BRANCH   3   4
ATOM      4  C   UNL     1      -9.318 -14.004  18.120  1.00  0.00    -0.000 C 
BRANCH   4   5
ATOM      5  C   UNL     1      -9.817 -15.271  17.405  1.00  0.00    -0.000 C 
BRANCH   5   6
ATOM      6  C   UNL     1      -9.406 -16.566  18.129  1.00  0.00    -0.000 C 
BRANCH   6   7
ATOM      7  C   UNL     1     -10.293 -17.790  17.838  1.00  0.00    -0.000 C 
BRANCH   7   8
ATOM      8  C   UNL     1      -9.513 -18.965  17.229  1.00  0.00    -0.000 C 
BRANCH   8   9
ATOM      9  C   UNL     1      -8.301 -18.466  16.433  1.00  0.00    -0.000 C 
BRANCH   9  10
ATOM     10  C   UNL     1      -7.086 -19.382  16.644  1.00  0.00    -0.000 C 
BRANCH  10  11
ATOM     11  C   UNL     1      -6.395 -19.754  15.324  1.00  0.00    -0.003 C 
ATOM     12  C   UNL     1      -7.387 -20.000  14.188  1.00  0.00     0.004 C 
ENDBRANCH  10  11
ENDBRANCH   9  10
ENDBRANCH   8   9
ENDBRANCH   7   8
ENDBRANCH   6   7
ENDBRANCH   5   6
ENDBRANCH   4   5
ENDBRANCH   3   4
ENDBRANCH   2   3
ENDBRANCH   1   2
BRANCH   1  13
ATOM     13  C   UNL     1      -7.546 -12.262  22.630  1.00  0.00     0.000 C 
BRANCH  13  14
ATOM     14  C   UNL     1      -6.451 -12.505  23.680  1.00  0.00     0.000 C 
BRANCH  14  15
ATOM     15  C   UNL     1      -6.449 -11.445  24.798  1.00  0.00     0.000 C 
BRANCH  15  16
ATOM     16  C   UNL     1      -6.058 -10.028  24.343  1.00  0.00     0.000 C 
BRANCH  16  17
ATOM     17  C   UNL     1      -4.983  -9.389  25.237  1.00  0.00     0.000 C 
BRANCH  17  18
ATOM     18  C   UNL     1      -4.092  -8.396  24.475  1.00  0.00     0.000 C 
BRANCH  18  19
ATOM     19  C   UNL     1      -2.619  -8.832  24.427  1.00  0.00     0.000 C 
BRANCH  19  20
ATOM     20  C   UNL     1      -1.837  -8.013  23.393  1.00  0.00     0.006 C 
BRANCH  20  21
ATOM     21  C   UNL     1      -2.785  -7.188  22.519  1.00  0.00     0.053 C 
BRANCH  21  22
ATOM     22  C   UNL     1      -2.473  -7.387  21.068  1.00  0.00     0.041 C 
ATOM     23  O   UNL     1      -3.314  -7.067  20.186  1.00  0.00    -0.550 OA
ATOM     24  O   UNL     1      -1.248  -7.914  20.687  1.00  0.00    -0.550 OA
ENDBRANCH  21  22
ENDBRANCH  20  21
ENDBRANCH  19  20
ENDBRANCH  18  19
ENDBRANCH  17  18
ENDBRANCH  16  17
ENDBRANCH  15  16
ENDBRANCH  14  15
ENDBRANCH  13  14
ENDBRANCH   1  13
TORSDOF 20
ENDMDL
MODEL 9
REMARK VINA RESULT:    23.559      3.140      4.546
REMARK INTER + INTRA:          50.005
REMARK INTER:                  51.093
REMARK INTRA:                  -1.088
REMARK UNBOUND:                -1.099
REMARK SMILES CCCCCCCCCCCCCCCCCCCCCC(=O)[O-]
REMARK SMILES IDX 12 1 11 2 10 3 9 4 8 5 7 6 6 7 5 8 4 9 3 10 2 11 1 12 13 13
REMARK SMILES IDX 14 14 15 15 16 16 17 17 18 18 19 19 20 20 21 21 22 22 23 23
REMARK SMILES IDX 24 24
REMARK H PARENT
REMARK Flexibility Score: inf
ROOT
ATOM      1  C   UNL     1      -8.602 -14.070  20.146  1.00  0.00     0.000 C 
ENDROOT
BRANCH   1   2
ATOM      2  C   UNL     1      -8.397 -14.028  18.621  1.00  0.00     0.000 C 
BRANCH   2   3
ATOM      3  C   UNL     1      -9.492 -14.728  17.790  1.00  0.00     0.000 C 
BRANCH   3   4
ATOM      4  C   UNL     1     -10.500 -13.789  17.102  1.00  0.00    -0.000 C 
BRANCH   4   5
ATOM      5  C   UNL     1     -10.212 -13.593  15.604  1.00  0.00    -0.000 C 
BRANCH   5   6
ATOM      6  C   UNL     1      -9.857 -12.138  15.250  1.00  0.00    -0.000 C 
BRANCH   6   7
ATOM      7  C   UNL     1      -9.576 -11.875  13.759  1.00  0.00    -0.000 C 
BRANCH   7   8
ATOM      8  C   UNL     1      -8.788 -13.011  13.089  1.00  0.00    -0.000 C 
BRANCH   8   9
ATOM      9  C   UNL     1      -9.376 -13.353  11.715  1.00  0.00    -0.000 C 
BRANCH   9  10
ATOM     10  C   UNL     1     -10.874 -13.675  11.820  1.00  0.00    -0.000 C 
BRANCH  10  11
ATOM     11  C   UNL     1     -11.726 -12.823  10.868  1.00  0.00    -0.003 C 
ATOM     12  C   UNL     1     -13.069 -13.472  10.538  1.00  0.00     0.004 C 
ENDBRANCH  10  11
ENDBRANCH   9  10
ENDBRANCH   8   9
ENDBRANCH   7   8
ENDBRANCH   6   7
ENDBRANCH   5   6
ENDBRANCH   4   5
ENDBRANCH   3   4
ENDBRANCH   2   3
ENDBRANCH   1   2
BRANCH   1  13
ATOM     13  C   UNL     1      -8.694 -12.672  20.776  1.00  0.00     0.000 C 
BRANCH  13  14
ATOM     14  C   UNL     1      -8.423 -12.728  22.288  1.00  0.00     0.000 C 
BRANCH  14  15
ATOM     15  C   UNL     1      -6.923 -12.656  22.630  1.00  0.00     0.000 C 
BRANCH  15  16
ATOM     16  C   UNL     1      -6.597 -11.949  23.958  1.00  0.00     0.000 C 
BRANCH  16  17
ATOM     17  C   UNL     1      -6.513 -12.921  25.146  1.00  0.00     0.000 C 
BRANCH  17  18
ATOM     18  C   UNL     1      -5.289 -13.847  25.069  1.00  0.00     0.000 C 
BRANCH  18  19
ATOM     19  C   UNL     1      -5.217 -14.839  26.240  1.00  0.00     0.000 C 
BRANCH  19  20
ATOM     20  C   UNL     1      -4.405 -16.082  25.858  1.00  0.00     0.006 C 
BRANCH  20  21
ATOM     21  C   UNL     1      -5.291 -17.331  25.845  1.00  0.00     0.053 C 
BRANCH  21  22
ATOM     22  C   UNL     1      -5.234 -18.004  24.508  1.00  0.00     0.041 C 
ATOM     23  O   UNL     1      -4.497 -17.546  23.596  1.00  0.00    -0.550 OA
ATOM     24  O   UNL     1      -5.985 -19.146  24.275  1.00  0.00    -0.550 OA
ENDBRANCH  21  22
ENDBRANCH  20  21
ENDBRANCH  19  20
ENDBRANCH  18  19
ENDBRANCH  17  18
ENDBRANCH  16  17
ENDBRANCH  15  16
ENDBRANCH  14  15
ENDBRANCH  13  14
ENDBRANCH   1  13
TORSDOF 20
ENDMDL
