MODEL 1
REMARK VINA RESULT:    -3.665      0.000      0.000
REMARK INTER + INTRA:          -3.223
REMARK INTER:                  -4.522
REMARK INTRA:                   1.299
REMARK UNBOUND:                 1.299
REMARK SMILES C=C1[C@H]2CC[C@@H]3[C@H]2C(C)(C)CCC[C@]13C
REMARK SMILES IDX 14 1 6 2 7 3 3 4 2 5 1 6 4 7 5 8 15 9 8 10 9 11 10 12 11 13
REMARK SMILES IDX 13 15 12 16
REMARK H PARENT
REMARK Flexibility Score: 80.00
ROOT
ATOM      1  C   UNL     1      30.190  24.168  12.916  1.00  0.00    -0.008 C 
ATOM      2  C   UNL     1      28.862  25.001  12.982  1.00  0.00     0.003 C 
ATOM      3  C   UNL     1      28.862  25.791  11.669  1.00  0.00     0.006 C 
ATOM      4  C   UNL     1      29.034  24.545  10.796  1.00  0.00     0.019 C 
ATOM      5  C   UNL     1      30.221  23.872  11.439  1.00  0.00    -0.068 C 
ATOM      6  C   UNL     1      31.106  23.091  10.805  1.00  0.00     0.009 C 
ATOM      7  C   UNL     1      27.798  23.722  11.216  1.00  0.00     0.008 C 
ATOM      8  C   UNL     1      27.633  24.089  12.709  1.00  0.00     0.005 C 
ATOM      9  C   UNL     1      30.120  22.855  13.741  1.00  0.00     0.016 C 
ENDROOT
BRANCH   3  10
ATOM     10  C   UNL     1      29.872  26.985  11.473  1.00  0.00    -0.032 C 
ATOM     11  C   UNL     1      29.751  27.988  12.643  1.00  0.00     0.011 C 
ATOM     12  C   UNL     1      29.448  27.740  10.186  1.00  0.00     0.011 C 
BRANCH  10  13
ATOM     13  C   UNL     1      31.354  26.564  11.269  1.00  0.00     0.007 CG0
ATOM     14  G   UNL     1      32.111  25.995  12.482  1.00  0.00     0.000 G0
ENDBRANCH  10  13
ENDBRANCH   3  10
BRANCH   1  15
ATOM     15  C   UNL     1      31.395  25.013  13.431  1.00  0.00     0.011 C 
BRANCH  15  16
ATOM     16  C   UNL     1      32.111  25.991  12.473  1.00  0.00     0.001 CG0
ATOM     17  G   UNL     1      31.352  26.563  11.263  1.00  0.00     0.000 G0
ENDBRANCH  15  16
ENDBRANCH   1  15
TORSDOF 0
ENDMDL
MODEL 2
REMARK VINA RESULT:    -3.579      1.427      3.889
REMARK INTER + INTRA:          -3.117
REMARK INTER:                  -4.615
REMARK INTRA:                   1.498
REMARK UNBOUND:                 1.299
REMARK SMILES C=C1[C@H]2CC[C@@H]3[C@H]2C(C)(C)CCC[C@]13C
REMARK SMILES IDX 14 1 6 2 7 3 3 4 2 5 1 6 4 7 5 8 15 9 8 10 9 11 10 12 11 13
REMARK SMILES IDX 13 15 12 16
REMARK H PARENT
REMARK Flexibility Score: 80.00
ROOT
ATOM      1  C   UNL     1      31.238  26.860  10.780  1.00  0.00    -0.008 C 
ATOM      2  C   UNL     1      29.716  26.730  10.423  1.00  0.00     0.003 C 
ATOM      3  C   UNL     1      29.101  26.094  11.674  1.00  0.00     0.006 C 
ATOM      4  C   UNL     1      29.658  27.161  12.619  1.00  0.00     0.019 C 
ATOM      5  C   UNL     1      31.120  27.179  12.248  1.00  0.00    -0.068 C 
ATOM      6  C   UNL     1      32.125  27.494  13.075  1.00  0.00     0.009 C 
ATOM      7  C   UNL     1      29.047  28.439  12.009  1.00  0.00     0.008 C 
ATOM      8  C   UNL     1      29.019  28.118  10.496  1.00  0.00     0.005 C 
ATOM      9  C   UNL     1      31.941  28.016  10.018  1.00  0.00     0.016 C 
ENDROOT
BRANCH   3  10
ATOM     10  C   UNL     1      29.389  24.580  12.004  1.00  0.00    -0.032 C 
ATOM     11  C   UNL     1      28.118  23.903  12.568  1.00  0.00     0.011 C 
ATOM     12  C   UNL     1      30.453  24.550  13.133  1.00  0.00     0.011 C 
BRANCH  10  13
ATOM     13  C   UNL     1      29.970  23.750  10.826  1.00  0.00     0.007 CG0
ATOM     14  G   UNL     1      31.176  24.329  10.068  1.00  0.00     0.000 G0
ENDBRANCH  10  13
ENDBRANCH   3  10
BRANCH   1  15
ATOM     15  C   UNL     1      31.992  25.531  10.468  1.00  0.00     0.011 C 
BRANCH  15  16
ATOM     16  C   UNL     1      31.198  24.289  10.005  1.00  0.00     0.001 CG0
ATOM     17  G   UNL     1      30.009  23.791  10.844  1.00  0.00     0.000 G0
ENDBRANCH  15  16
ENDBRANCH   1  15
TORSDOF 0
ENDMDL
MODEL 3
REMARK VINA RESULT:    -3.335      2.160      4.420
REMARK INTER + INTRA:          -2.816
REMARK INTER:                  -4.296
REMARK INTRA:                   1.480
REMARK UNBOUND:                 1.299
REMARK SMILES C=C1[C@H]2CC[C@@H]3[C@H]2C(C)(C)CCC[C@]13C
REMARK SMILES IDX 14 1 6 2 7 3 3 4 2 5 1 6 4 7 5 8 15 9 8 10 9 11 10 12 11 13
REMARK SMILES IDX 13 15 12 16
REMARK H PARENT
REMARK Flexibility Score: 80.00
ROOT
ATOM      1  C   UNL     1      30.836  24.126  11.455  1.00  0.00    -0.008 C 
ATOM      2  C   UNL     1      29.643  23.113  11.570  1.00  0.00     0.003 C 
ATOM      3  C   UNL     1      29.831  22.483  12.954  1.00  0.00     0.006 C 
ATOM      4  C   UNL     1      29.866  23.830  13.679  1.00  0.00     0.019 C 
ATOM      5  C   UNL     1      30.905  24.587  12.888  1.00  0.00    -0.068 C 
ATOM      6  C   UNL     1      31.699  25.549  13.374  1.00  0.00     0.009 C 
ATOM      7  C   UNL     1      28.502  24.420  13.266  1.00  0.00     0.008 C 
ATOM      8  C   UNL     1      28.310  23.869  11.833  1.00  0.00     0.005 C 
ATOM      9  C   UNL     1      30.528  25.316  10.507  1.00  0.00     0.016 C 
ENDROOT
BRANCH   3  10
ATOM     10  C   UNL     1      31.015  21.471  13.199  1.00  0.00    -0.032 C 
ATOM     11  C   UNL     1      30.552  20.316  14.116  1.00  0.00     0.011 C 
ATOM     12  C   UNL     1      32.124  22.239  13.967  1.00  0.00     0.011 C 
BRANCH  10  13
ATOM     13  C   UNL     1      31.677  20.911  11.910  1.00  0.00     0.007 CG0
ATOM     14  G   UNL     1      32.076  21.914  10.814  1.00  0.00     0.000 G0
ENDBRANCH  10  13
ENDBRANCH   3  10
BRANCH   1  15
ATOM     15  C   UNL     1      32.122  23.406  10.946  1.00  0.00     0.011 C 
BRANCH  15  16
ATOM     16  C   UNL     1      32.118  21.873  10.755  1.00  0.00     0.001 CG0
ATOM     17  G   UNL     1      31.688  20.963  11.918  1.00  0.00     0.000 G0
ENDBRANCH  15  16
ENDBRANCH   1  15
TORSDOF 0
ENDMDL
MODEL 4
REMARK VINA RESULT:    -2.816      1.228      2.088
REMARK INTER + INTRA:          -2.176
REMARK INTER:                  -3.457
REMARK INTRA:                   1.281
REMARK UNBOUND:                 1.299
REMARK SMILES C=C1[C@H]2CC[C@@H]3[C@H]2C(C)(C)CCC[C@]13C
REMARK SMILES IDX 14 1 6 2 7 3 3 4 2 5 1 6 4 7 5 8 15 9 8 10 9 11 10 12 11 13
REMARK SMILES IDX 13 15 12 16
REMARK H PARENT
REMARK Flexibility Score: 80.00
ROOT
ATOM      1  C   UNL     1      31.083  23.909  11.518  1.00  0.00    -0.008 C 
ATOM      2  C   UNL     1      31.052  24.514  12.965  1.00  0.00     0.003 C 
ATOM      3  C   UNL     1      30.088  25.698  12.845  1.00  0.00     0.006 C 
ATOM      4  C   UNL     1      28.955  24.853  12.259  1.00  0.00     0.019 C 
ATOM      5  C   UNL     1      29.647  24.141  11.124  1.00  0.00    -0.068 C 
ATOM      6  C   UNL     1      29.059  23.730   9.994  1.00  0.00     0.009 C 
ATOM      7  C   UNL     1      28.769  23.802  13.373  1.00  0.00     0.008 C 
ATOM      8  C   UNL     1      30.206  23.616  13.912  1.00  0.00     0.005 C 
ATOM      9  C   UNL     1      31.423  22.395  11.503  1.00  0.00     0.016 C 
ENDROOT
BRANCH   3  10
ATOM     10  C   UNL     1      30.534  26.994  12.066  1.00  0.00    -0.032 C 
ATOM     11  C   UNL     1      31.882  27.514  12.616  1.00  0.00     0.011 C 
ATOM     12  C   UNL     1      29.476  28.091  12.356  1.00  0.00     0.011 C 
BRANCH  10  13
ATOM     13  C   UNL     1      30.599  26.841  10.521  1.00  0.00     0.007 CG0
ATOM     14  G   UNL     1      31.719  25.964   9.934  1.00  0.00     0.000 G0
ENDBRANCH  10  13
ENDBRANCH   3  10
BRANCH   1  15
ATOM     15  C   UNL     1      32.125  24.659  10.632  1.00  0.00     0.011 C 
BRANCH  15  16
ATOM     16  C   UNL     1      31.725  25.972   9.923  1.00  0.00     0.001 CG0
ATOM     17  G   UNL     1      30.602  26.842  10.512  1.00  0.00     0.000 G0
ENDBRANCH  15  16
ENDBRANCH   1  15
TORSDOF 0
ENDMDL
MODEL 5
REMARK VINA RESULT:    -1.903      1.329      3.951
REMARK INTER + INTRA:          -1.050
REMARK INTER:                  -2.514
REMARK INTRA:                   1.464
REMARK UNBOUND:                 1.299
REMARK SMILES C=C1[C@H]2CC[C@@H]3[C@H]2C(C)(C)CCC[C@]13C
REMARK SMILES IDX 14 1 6 2 7 3 3 4 2 5 1 6 4 7 5 8 15 9 8 10 9 11 10 12 11 13
REMARK SMILES IDX 13 15 12 16
REMARK H PARENT
REMARK Flexibility Score: 80.00
ROOT
ATOM      1  C   UNL     1      31.342  27.645  12.118  1.00  0.00    -0.008 C 
ATOM      2  C   UNL     1      31.704  26.877  10.799  1.00  0.00     0.003 C 
ATOM      3  C   UNL     1      30.443  26.062  10.493  1.00  0.00     0.006 C 
ATOM      4  C   UNL     1      29.517  27.281  10.534  1.00  0.00     0.019 C 
ATOM      5  C   UNL     1      29.882  27.909  11.856  1.00  0.00    -0.068 C 
ATOM      6  C   UNL     1      29.057  28.634  12.623  1.00  0.00     0.009 C 
ATOM      7  C   UNL     1      30.158  28.170   9.448  1.00  0.00     0.008 C 
ATOM      8  C   UNL     1      31.663  27.841   9.579  1.00  0.00     0.005 C 
ATOM      9  C   UNL     1      32.125  28.976  12.276  1.00  0.00     0.016 C 
ENDROOT
BRANCH   3  10
ATOM     10  C   UNL     1      30.078  24.818  11.390  1.00  0.00    -0.032 C 
ATOM     11  C   UNL     1      29.522  23.671  10.515  1.00  0.00     0.011 C 
ATOM     12  C   UNL     1      28.933  25.255  12.341  1.00  0.00     0.011 C 
BRANCH  10  13
ATOM     13  C   UNL     1      31.231  24.301  12.295  1.00  0.00     0.007 CG0
ATOM     14  G   UNL     1      32.002  25.334  13.133  1.00  0.00     0.000 G0
ENDBRANCH  10  13
ENDBRANCH   3  10
BRANCH   1  15
ATOM     15  C   UNL     1      31.623  26.753  13.367  1.00  0.00     0.011 C 
BRANCH  15  16
ATOM     16  C   UNL     1      32.059  25.284  13.178  1.00  0.00     0.001 CG0
ATOM     17  G   UNL     1      31.215  24.347  12.298  1.00  0.00     0.000 G0
ENDBRANCH  15  16
ENDBRANCH   1  15
TORSDOF 0
ENDMDL
MODEL 6
REMARK VINA RESULT:    -1.896      1.645      4.098
REMARK INTER + INTRA:          -1.041
REMARK INTER:                  -2.526
REMARK INTRA:                   1.485
REMARK UNBOUND:                 1.299
REMARK SMILES C=C1[C@H]2CC[C@@H]3[C@H]2C(C)(C)CCC[C@]13C
REMARK SMILES IDX 14 1 6 2 7 3 3 4 2 5 1 6 4 7 5 8 15 9 8 10 9 11 10 12 11 13
REMARK SMILES IDX 13 15 12 16
REMARK H PARENT
REMARK Flexibility Score: 80.00
ROOT
ATOM      1  C   UNL     1      29.299  26.919  11.997  1.00  0.00    -0.008 C 
ATOM      2  C   UNL     1      30.336  26.496  13.095  1.00  0.00     0.003 C 
ATOM      3  C   UNL     1      31.321  25.598  12.341  1.00  0.00     0.006 C 
ATOM      4  C   UNL     1      31.613  26.644  11.263  1.00  0.00     0.019 C 
ATOM      5  C   UNL     1      30.226  27.031  10.814  1.00  0.00    -0.068 C 
ATOM      6  C   UNL     1      29.900  27.463   9.589  1.00  0.00     0.009 C 
ATOM      7  C   UNL     1      32.125  27.817  12.125  1.00  0.00     0.008 C 
ATOM      8  C   UNL     1      31.295  27.676  13.422  1.00  0.00     0.005 C 
ATOM      9  C   UNL     1      28.622  28.283  12.298  1.00  0.00     0.016 C 
ENDROOT
BRANCH   3  10
ATOM     10  C   UNL     1      30.874  24.158  11.882  1.00  0.00    -0.032 C 
ATOM     11  C   UNL     1      32.035  23.153  12.062  1.00  0.00     0.011 C 
ATOM     12  C   UNL     1      30.574  24.232  10.361  1.00  0.00     0.011 C 
BRANCH  10  13
ATOM     13  C   UNL     1      29.582  23.624  12.561  1.00  0.00     0.007 CG0
ATOM     14  G   UNL     1      28.355  24.551  12.597  1.00  0.00     0.000 G0
ENDBRANCH  10  13
ENDBRANCH   3  10
BRANCH   1  15
ATOM     15  C   UNL     1      28.186  25.837  11.845  1.00  0.00     0.011 C 
BRANCH  15  16
ATOM     16  C   UNL     1      28.294  24.511  12.630  1.00  0.00     0.001 CG0
ATOM     17  G   UNL     1      29.578  23.670  12.531  1.00  0.00     0.000 G0
ENDBRANCH  15  16
ENDBRANCH   1  15
TORSDOF 0
ENDMDL
MODEL 7
REMARK VINA RESULT:    -1.770      2.000      4.282
REMARK INTER + INTRA:          -0.886
REMARK INTER:                  -2.375
REMARK INTRA:                   1.489
REMARK UNBOUND:                 1.299
REMARK SMILES C=C1[C@H]2CC[C@@H]3[C@H]2C(C)(C)CCC[C@]13C
REMARK SMILES IDX 14 1 6 2 7 3 3 4 2 5 1 6 4 7 5 8 15 9 8 10 9 11 10 12 11 13
REMARK SMILES IDX 13 15 12 16
REMARK H PARENT
REMARK Flexibility Score: 80.00
ROOT
ATOM      1  C   UNL     1      30.619  24.872  12.662  1.00  0.00    -0.008 C 
ATOM      2  C   UNL     1      31.952  24.365  12.010  1.00  0.00     0.003 C 
ATOM      3  C   UNL     1      31.638  22.918  11.616  1.00  0.00     0.006 C 
ATOM      4  C   UNL     1      30.394  23.296  10.808  1.00  0.00     0.019 C 
ATOM      5  C   UNL     1      29.627  24.146  11.791  1.00  0.00    -0.068 C 
ATOM      6  C   UNL     1      28.295  24.276  11.827  1.00  0.00     0.009 C 
ATOM      7  C   UNL     1      31.000  24.274   9.780  1.00  0.00     0.008 C 
ATOM      8  C   UNL     1      32.125  24.965  10.586  1.00  0.00     0.005 C 
ATOM      9  C   UNL     1      30.436  26.409  12.545  1.00  0.00     0.016 C 
ENDROOT
BRANCH   3  10
ATOM     10  C   UNL     1      31.496  21.815  12.733  1.00  0.00    -0.032 C 
ATOM     11  C   UNL     1      32.125  20.485  12.257  1.00  0.00     0.011 C 
ATOM     12  C   UNL     1      29.980  21.552  12.929  1.00  0.00     0.011 C 
BRANCH  10  13
ATOM     13  C   UNL     1      32.059  22.215  14.125  1.00  0.00     0.007 CG0
ATOM     14  G   UNL     1      31.636  23.575  14.706  1.00  0.00     0.000 G0
ENDBRANCH  10  13
ENDBRANCH   3  10
BRANCH   1  15
ATOM     15  C   UNL     1      30.561  24.480  14.171  1.00  0.00     0.011 C 
BRANCH  15  16
ATOM     16  C   UNL     1      31.672  23.594  14.776  1.00  0.00     0.001 CG0
ATOM     17  G   UNL     1      32.037  22.263  14.097  1.00  0.00     0.000 G0
ENDBRANCH  15  16
ENDBRANCH   1  15
TORSDOF 0
ENDMDL
MODEL 8
REMARK VINA RESULT:    -0.667      1.736      3.441
REMARK INTER + INTRA:           0.476
REMARK INTER:                  -1.014
REMARK INTRA:                   1.489
REMARK UNBOUND:                 1.299
REMARK SMILES C=C1[C@H]2CC[C@@H]3[C@H]2C(C)(C)CCC[C@]13C
REMARK SMILES IDX 14 1 6 2 7 3 3 4 2 5 1 6 4 7 5 8 15 9 8 10 9 11 10 12 11 13
REMARK SMILES IDX 13 15 12 16
REMARK H PARENT
REMARK Flexibility Score: 80.00
ROOT
ATOM      1  C   UNL     1      30.653  25.790  11.846  1.00  0.00    -0.008 C 
ATOM      2  C   UNL     1      31.848  26.760  12.152  1.00  0.00     0.003 C 
ATOM      3  C   UNL     1      31.395  28.096  11.554  1.00  0.00     0.006 C 
ATOM      4  C   UNL     1      30.074  28.116  12.326  1.00  0.00     0.019 C 
ATOM      5  C   UNL     1      29.506  26.753  12.013  1.00  0.00    -0.068 C 
ATOM      6  C   UNL     1      28.203  26.451  11.962  1.00  0.00     0.009 C 
ATOM      7  C   UNL     1      30.584  28.041  13.779  1.00  0.00     0.008 C 
ATOM      8  C   UNL     1      31.851  27.164  13.654  1.00  0.00     0.005 C 
ATOM      9  C   UNL     1      30.547  24.624  12.865  1.00  0.00     0.016 C 
ENDROOT
BRANCH   3  10
ATOM     10  C   UNL     1      31.348  28.277   9.988  1.00  0.00    -0.032 C 
ATOM     11  C   UNL     1      31.823  29.696   9.598  1.00  0.00     0.011 C 
ATOM     12  C   UNL     1      29.862  28.165   9.557  1.00  0.00     0.011 C 
BRANCH  10  13
ATOM     13  C   UNL     1      32.125  27.201   9.179  1.00  0.00     0.007 CG0
ATOM     14  G   UNL     1      31.883  25.724   9.534  1.00  0.00     0.000 G0
ENDBRANCH  10  13
ENDBRANCH   3  10
BRANCH   1  15
ATOM     15  C   UNL     1      30.787  25.187  10.414  1.00  0.00     0.011 C 
BRANCH  15  16
ATOM     16  C   UNL     1      31.919  25.670   9.481  1.00  0.00     0.001 CG0
ATOM     17  G   UNL     1      32.083  27.173   9.199  1.00  0.00     0.000 G0
ENDBRANCH  15  16
ENDBRANCH   1  15
TORSDOF 0
ENDMDL
