MODEL 1
REMARK VINA RESULT:    -8.523      0.000      0.000
REMARK INTER + INTRA:         -10.042
REMARK INTER:                  -9.769
REMARK INTRA:                  -0.273
REMARK UNBOUND:                -0.273
REMARK SMILES CC1(C)CC[C@@]23CO[C@]4(C=C[C@@H]5[C@@]6(C)CC[C@H](O)[C@](C)(CO)[C@@H]6CC[C@@]5(C)[C@]4(C)C[C@H]2O)[C@H]3C1
REMARK SMILES IDX 1 1 2 2 4 3 5 4 6 5 7 6 8 7 9 8 33 9 34 10 10 11 11 12 12 13
REMARK SMILES IDX 13 14 15 15 16 16 17 17 19 18 23 19 24 20 25 21 26 22 28 23
REMARK SMILES IDX 30 24 31 25 29 26 27 27 20 28 14 29 3 30 32 31 21 33 22 34
REMARK SMILES IDX 18 36
REMARK H PARENT 32 32 22 35 18 37
REMARK Flexibility Score: inf
ROOT
ATOM      1  C   UNL     1      37.554  11.434  33.559  1.00  0.00     0.011 C 
ATOM      2  C   UNL     1      38.252  11.744  32.211  1.00  0.00    -0.035 C 
ATOM      3  C   UNL     1      39.379  12.804  32.432  1.00  0.00     0.007 C 
ATOM      4  C   UNL     1      38.867  14.256  32.590  1.00  0.00     0.013 C 
ATOM      5  C   UNL     1      37.867  14.654  31.474  1.00  0.00     0.026 C 
ATOM      6  C   UNL     1      37.030  15.899  31.820  1.00  0.00     0.171 C 
ATOM      7  O   UNL     1      35.741  15.730  31.252  1.00  0.00    -0.369 OA
ATOM      8  C   UNL     1      35.725  14.471  30.587  1.00  0.00     0.096 C 
ATOM      9  C   UNL     1      36.742  13.660  31.426  1.00  0.00     0.037 C 
ATOM     10  C   UNL     1      37.216  12.222  31.141  1.00  0.00     0.014 C 
ATOM     11  C   UNL     1      34.322  13.912  30.780  1.00  0.00     0.005 C 
ATOM     12  C   UNL     1      33.423  13.739  29.798  1.00  0.00    -0.024 C 
ATOM     13  C   UNL     1      33.735  14.028  28.341  1.00  0.00     0.024 C 
ATOM     14  C   UNL     1      32.672  13.433  27.318  1.00  0.00    -0.022 C 
ATOM     15  C   UNL     1      31.294  14.129  27.587  1.00  0.00     0.010 C 
ATOM     16  C   UNL     1      30.243  13.877  26.498  1.00  0.00     0.033 C 
ATOM     17  C   UNL     1      30.739  14.308  25.114  1.00  0.00     0.123 C 
ATOM     18  C   UNL     1      32.075  13.601  24.699  1.00  0.00     0.020 C 
ATOM     19  C   UNL     1      33.133  13.832  25.862  1.00  0.00     0.006 C 
ATOM     20  C   UNL     1      34.579  13.354  25.571  1.00  0.00     0.005 C 
ATOM     21  C   UNL     1      35.577  14.002  26.545  1.00  0.00     0.008 C 
ATOM     22  C   UNL     1      35.260  13.741  28.056  1.00  0.00    -0.017 C 
ATOM     23  C   UNL     1      36.132  14.703  29.043  1.00  0.00     0.009 C 
ATOM     24  C   UNL     1      37.679  14.516  28.835  1.00  0.00     0.043 C 
ATOM     25  C   UNL     1      38.579  14.815  30.074  1.00  0.00     0.124 C 
ATOM     26  C   UNL     1      35.886  16.229  28.708  1.00  0.00     0.015 C 
ATOM     27  C   UNL     1      35.564  12.226  28.315  1.00  0.00     0.013 C 
ATOM     28  C   UNL     1      32.560  14.305  23.399  1.00  0.00     0.017 C 
ATOM     29  C   UNL     1      32.496  11.891  27.516  1.00  0.00     0.012 C 
ATOM     30  C   UNL     1      38.898  10.434  31.711  1.00  0.00     0.011 C 
ENDROOT
BRANCH  25  31
ATOM     31  O   UNL     1      39.155  16.095  29.961  1.00  0.00    -0.392 OA
ATOM     32  H   UNL     1      39.565  16.313  30.838  1.00  0.00     0.210 HD
ENDBRANCH  25  31
BRANCH  18  33
ATOM     33  C   UNL     1      31.804  12.102  24.350  1.00  0.00     0.165 C 
BRANCH  33  34
ATOM     34  O   UNL     1      31.351  11.937  23.033  1.00  0.00    -0.396 OA
ATOM     35  H   UNL     1      31.156  10.972  22.905  1.00  0.00     0.210 HD
ENDBRANCH  33  34
ENDBRANCH  18  33
BRANCH  17  36
ATOM     36  O   UNL     1      29.719  14.053  24.180  1.00  0.00    -0.392 OA
ATOM     37  H   UNL     1      29.466  13.096  24.262  1.00  0.00     0.210 HD
ENDBRANCH  17  36
TORSDOF 4
ENDMDL
MODEL 2
REMARK VINA RESULT:    -8.458      3.360      8.973
REMARK INTER + INTRA:          -9.968
REMARK INTER:                  -9.701
REMARK INTRA:                  -0.267
REMARK UNBOUND:                -0.273
REMARK SMILES CC1(C)CC[C@@]23CO[C@]4(C=C[C@@H]5[C@@]6(C)CC[C@H](O)[C@](C)(CO)[C@@H]6CC[C@@]5(C)[C@]4(C)C[C@H]2O)[C@H]3C1
REMARK SMILES IDX 1 1 2 2 4 3 5 4 6 5 7 6 8 7 9 8 33 9 34 10 10 11 11 12 12 13
REMARK SMILES IDX 13 14 15 15 16 16 17 17 19 18 23 19 24 20 25 21 26 22 28 23
REMARK SMILES IDX 30 24 31 25 29 26 27 27 20 28 14 29 3 30 32 31 21 33 22 34
REMARK SMILES IDX 18 36
REMARK H PARENT 32 32 22 35 18 37
REMARK Flexibility Score: inf
ROOT
ATOM      1  C   UNL     1      30.261  13.882  24.824  1.00  0.00     0.011 C 
ATOM      2  C   UNL     1      31.260  12.886  24.185  1.00  0.00    -0.035 C 
ATOM      3  C   UNL     1      30.485  11.849  23.310  1.00  0.00     0.007 C 
ATOM      4  C   UNL     1      29.773  10.738  24.119  1.00  0.00     0.013 C 
ATOM      5  C   UNL     1      30.711  10.075  25.161  1.00  0.00     0.026 C 
ATOM      6  C   UNL     1      29.956   9.287  26.247  1.00  0.00     0.171 C 
ATOM      7  O   UNL     1      30.677   9.417  27.463  1.00  0.00    -0.369 OA
ATOM      8  C   UNL     1      31.816  10.231  27.201  1.00  0.00     0.096 C 
ATOM      9  C   UNL     1      31.303  11.130  26.050  1.00  0.00     0.037 C 
ATOM     10  C   UNL     1      32.126  12.180  25.279  1.00  0.00     0.014 C 
ATOM     11  C   UNL     1      32.035  11.062  28.459  1.00  0.00     0.005 C 
ATOM     12  C   UNL     1      33.087  10.942  29.284  1.00  0.00    -0.024 C 
ATOM     13  C   UNL     1      34.235   9.985  29.015  1.00  0.00     0.024 C 
ATOM     14  C   UNL     1      35.523  10.248  29.912  1.00  0.00    -0.022 C 
ATOM     15  C   UNL     1      35.131  10.006  31.410  1.00  0.00     0.010 C 
ATOM     16  C   UNL     1      36.329   9.935  32.365  1.00  0.00     0.033 C 
ATOM     17  C   UNL     1      37.330   8.854  31.948  1.00  0.00     0.123 C 
ATOM     18  C   UNL     1      37.863   9.047  30.487  1.00  0.00     0.020 C 
ATOM     19  C   UNL     1      36.607   9.168  29.521  1.00  0.00     0.006 C 
ATOM     20  C   UNL     1      36.916   9.196  28.001  1.00  0.00     0.005 C 
ATOM     21  C   UNL     1      35.656   8.878  27.179  1.00  0.00     0.008 C 
ATOM     22  C   UNL     1      34.449   9.834  27.459  1.00  0.00    -0.017 C 
ATOM     23  C   UNL     1      33.056   9.270  26.827  1.00  0.00     0.009 C 
ATOM     24  C   UNL     1      33.156   9.060  25.272  1.00  0.00     0.043 C 
ATOM     25  C   UNL     1      31.819   9.183  24.476  1.00  0.00     0.124 C 
ATOM     26  C   UNL     1      32.727   7.826  27.382  1.00  0.00     0.015 C 
ATOM     27  C   UNL     1      34.836  11.224  26.848  1.00  0.00     0.013 C 
ATOM     28  C   UNL     1      38.672   7.766  30.139  1.00  0.00     0.017 C 
ATOM     29  C   UNL     1      36.028  11.721  29.763  1.00  0.00     0.012 C 
ATOM     30  C   UNL     1      32.202  13.697  23.269  1.00  0.00     0.011 C 
ENDROOT
BRANCH  25  31
ATOM     31  O   UNL     1      31.307   7.906  24.181  1.00  0.00    -0.392 OA
ATOM     32  H   UNL     1      30.371   8.026  23.876  1.00  0.00     0.210 HD
ENDBRANCH  25  31
BRANCH  18  33
ATOM     33  C   UNL     1      38.849  10.257  30.430  1.00  0.00     0.165 C 
BRANCH  33  34
ATOM     34  O   UNL     1      40.177   9.872  30.668  1.00  0.00    -0.396 OA
ATOM     35  H   UNL     1      40.154   8.964  31.070  1.00  0.00     0.210 HD
ENDBRANCH  33  34
ENDBRANCH  18  33
BRANCH  17  36
ATOM     36  O   UNL     1      38.388   8.848  32.876  1.00  0.00    -0.392 OA
ATOM     37  H   UNL     1      37.996   8.727  33.780  1.00  0.00     0.210 HD
ENDBRANCH  17  36
TORSDOF 4
ENDMDL
MODEL 3
REMARK VINA RESULT:    -8.427      2.919      8.704
REMARK INTER + INTRA:          -9.932
REMARK INTER:                 -10.033
REMARK INTRA:                   0.101
REMARK UNBOUND:                -0.273
REMARK SMILES CC1(C)CC[C@@]23CO[C@]4(C=C[C@@H]5[C@@]6(C)CC[C@H](O)[C@](C)(CO)[C@@H]6CC[C@@]5(C)[C@]4(C)C[C@H]2O)[C@H]3C1
REMARK SMILES IDX 1 1 2 2 4 3 5 4 6 5 7 6 8 7 9 8 33 9 34 10 10 11 11 12 12 13
REMARK SMILES IDX 13 14 15 15 16 16 17 17 19 18 23 19 24 20 25 21 26 22 28 23
REMARK SMILES IDX 30 24 31 25 29 26 27 27 20 28 14 29 3 30 32 31 21 33 22 34
REMARK SMILES IDX 18 36
REMARK H PARENT 32 32 22 35 18 37
REMARK Flexibility Score: inf
ROOT
ATOM      1  C   UNL     1      29.853   7.140  25.148  1.00  0.00     0.011 C 
ATOM      2  C   UNL     1      29.758   8.648  25.492  1.00  0.00    -0.035 C 
ATOM      3  C   UNL     1      29.591   9.479  24.178  1.00  0.00     0.007 C 
ATOM      4  C   UNL     1      30.898   9.664  23.371  1.00  0.00     0.013 C 
ATOM      5  C   UNL     1      32.073  10.154  24.255  1.00  0.00     0.026 C 
ATOM      6  C   UNL     1      33.454   9.949  23.604  1.00  0.00     0.171 C 
ATOM      7  O   UNL     1      34.382   9.649  24.635  1.00  0.00    -0.369 OA
ATOM      8  C   UNL     1      33.671   9.652  25.868  1.00  0.00     0.096 C 
ATOM      9  C   UNL     1      32.255   9.219  25.416  1.00  0.00     0.037 C 
ATOM     10  C   UNL     1      31.005   9.116  26.311  1.00  0.00     0.014 C 
ATOM     11  C   UNL     1      34.305   8.560  26.721  1.00  0.00     0.005 C 
ATOM     12  C   UNL     1      35.010   8.776  27.843  1.00  0.00    -0.024 C 
ATOM     13  C   UNL     1      35.202  10.159  28.437  1.00  0.00     0.024 C 
ATOM     14  C   UNL     1      35.757  10.155  29.929  1.00  0.00    -0.022 C 
ATOM     15  C   UNL     1      37.186   9.512  29.916  1.00  0.00     0.010 C 
ATOM     16  C   UNL     1      37.967   9.699  31.222  1.00  0.00     0.033 C 
ATOM     17  C   UNL     1      38.106  11.178  31.599  1.00  0.00     0.123 C 
ATOM     18  C   UNL     1      36.724  11.906  31.729  1.00  0.00     0.020 C 
ATOM     19  C   UNL     1      35.912  11.657  30.386  1.00  0.00     0.006 C 
ATOM     20  C   UNL     1      34.579  12.438  30.243  1.00  0.00     0.005 C 
ATOM     21  C   UNL     1      34.116  12.466  28.776  1.00  0.00     0.008 C 
ATOM     22  C   UNL     1      33.937  11.050  28.133  1.00  0.00    -0.017 C 
ATOM     23  C   UNL     1      33.771  11.127  26.513  1.00  0.00     0.009 C 
ATOM     24  C   UNL     1      32.542  12.011  26.086  1.00  0.00     0.043 C 
ATOM     25  C   UNL     1      31.879  11.651  24.720  1.00  0.00     0.124 C 
ATOM     26  C   UNL     1      35.009  11.856  25.851  1.00  0.00     0.015 C 
ATOM     27  C   UNL     1      32.675  10.415  28.810  1.00  0.00     0.013 C 
ATOM     28  C   UNL     1      37.037  13.422  31.883  1.00  0.00     0.017 C 
ATOM     29  C   UNL     1      34.840   9.307  30.872  1.00  0.00     0.012 C 
ATOM     30  C   UNL     1      28.501   8.848  26.365  1.00  0.00     0.011 C 
ENDROOT
BRANCH  25  31
ATOM     31  O   UNL     1      32.315  12.536  23.717  1.00  0.00    -0.392 OA
ATOM     32  H   UNL     1      32.439  12.006  22.887  1.00  0.00     0.210 HD
ENDBRANCH  25  31
BRANCH  18  33
ATOM     33  C   UNL     1      35.993  11.442  33.030  1.00  0.00     0.165 C 
BRANCH  33  34
ATOM     34  O   UNL     1      34.873  12.236  33.321  1.00  0.00    -0.396 OA
ATOM     35  H   UNL     1      34.969  13.082  32.809  1.00  0.00     0.210 HD
ENDBRANCH  33  34
ENDBRANCH  18  33
BRANCH  17  36
ATOM     36  O   UNL     1      38.838  11.262  32.798  1.00  0.00    -0.392 OA
ATOM     37  H   UNL     1      39.300  12.140  32.807  1.00  0.00     0.210 HD
ENDBRANCH  17  36
TORSDOF 4
ENDMDL
MODEL 4
REMARK VINA RESULT:    -8.395      3.397      9.102
REMARK INTER + INTRA:          -9.895
REMARK INTER:                  -9.622
REMARK INTRA:                  -0.274
REMARK UNBOUND:                -0.273
REMARK SMILES CC1(C)CC[C@@]23CO[C@]4(C=C[C@@H]5[C@@]6(C)CC[C@H](O)[C@](C)(CO)[C@@H]6CC[C@@]5(C)[C@]4(C)C[C@H]2O)[C@H]3C1
REMARK SMILES IDX 1 1 2 2 4 3 5 4 6 5 7 6 8 7 9 8 33 9 34 10 10 11 11 12 12 13
REMARK SMILES IDX 13 14 15 15 16 16 17 17 19 18 23 19 24 20 25 21 26 22 28 23
REMARK SMILES IDX 30 24 31 25 29 26 27 27 20 28 14 29 3 30 32 31 21 33 22 34
REMARK SMILES IDX 18 36
REMARK H PARENT 32 32 22 35 18 37
REMARK Flexibility Score: inf
ROOT
ATOM      1  C   UNL     1      29.994  12.056  24.028  1.00  0.00     0.011 C 
ATOM      2  C   UNL     1      30.766  10.716  24.109  1.00  0.00    -0.035 C 
ATOM      3  C   UNL     1      29.767   9.522  23.966  1.00  0.00     0.007 C 
ATOM      4  C   UNL     1      28.948   9.219  25.244  1.00  0.00     0.013 C 
ATOM      5  C   UNL     1      29.842   9.117  26.506  1.00  0.00     0.026 C 
ATOM      6  C   UNL     1      29.054   9.238  27.824  1.00  0.00     0.171 C 
ATOM      7  O   UNL     1      29.877   9.909  28.765  1.00  0.00    -0.369 OA
ATOM      8  C   UNL     1      31.110  10.210  28.120  1.00  0.00     0.096 C 
ATOM      9  C   UNL     1      30.664  10.365  26.645  1.00  0.00     0.037 C 
ATOM     10  C   UNL     1      31.586  10.621  25.437  1.00  0.00     0.014 C 
ATOM     11  C   UNL     1      31.558  11.556  28.676  1.00  0.00     0.005 C 
ATOM     12  C   UNL     1      32.636  11.744  29.454  1.00  0.00    -0.024 C 
ATOM     13  C   UNL     1      33.589  10.621  29.820  1.00  0.00     0.024 C 
ATOM     14  C   UNL     1      34.967  11.115  30.444  1.00  0.00    -0.022 C 
ATOM     15  C   UNL     1      34.657  11.845  31.795  1.00  0.00     0.010 C 
ATOM     16  C   UNL     1      35.896  12.122  32.655  1.00  0.00     0.033 C 
ATOM     17  C   UNL     1      36.673  10.839  32.967  1.00  0.00     0.123 C 
ATOM     18  C   UNL     1      37.117  10.066  31.678  1.00  0.00     0.020 C 
ATOM     19  C   UNL     1      35.827   9.834  30.779  1.00  0.00     0.006 C 
ATOM     20  C   UNL     1      36.020   8.934  29.531  1.00  0.00     0.005 C 
ATOM     21  C   UNL     1      34.666   8.433  29.001  1.00  0.00     0.008 C 
ATOM     22  C   UNL     1      33.655   9.574  28.642  1.00  0.00    -0.017 C 
ATOM     23  C   UNL     1      32.145   9.006  28.406  1.00  0.00     0.009 C 
ATOM     24  C   UNL     1      32.090   7.933  27.258  1.00  0.00     0.043 C 
ATOM     25  C   UNL     1      30.735   7.814  26.494  1.00  0.00     0.124 C 
ATOM     26  C   UNL     1      31.628   8.224  29.680  1.00  0.00     0.015 C 
ATOM     27  C   UNL     1      34.216  10.270  27.355  1.00  0.00     0.013 C 
ATOM     28  C   UNL     1      37.678   8.696  32.156  1.00  0.00     0.017 C 
ATOM     29  C   UNL     1      35.692  12.121  29.490  1.00  0.00     0.012 C 
ATOM     30  C   UNL     1      31.754  10.676  22.924  1.00  0.00     0.011 C 
ENDROOT
BRANCH  25  31
ATOM     31  O   UNL     1      30.000   6.712  26.971  1.00  0.00    -0.392 OA
ATOM     32  H   UNL     1      29.095   7.041  27.210  1.00  0.00     0.210 HD
ENDBRANCH  25  31
BRANCH  18  33
ATOM     33  C   UNL     1      38.280  10.829  30.967  1.00  0.00     0.165 C 
BRANCH  33  34
ATOM     34  O   UNL     1      39.533  10.511  31.510  1.00  0.00    -0.396 OA
ATOM     35  H   UNL     1      40.192  10.530  30.767  1.00  0.00     0.210 HD
ENDBRANCH  33  34
ENDBRANCH  18  33
BRANCH  17  36
ATOM     36  O   UNL     1      37.784  11.177  33.762  1.00  0.00    -0.392 OA
ATOM     37  H   UNL     1      38.253  11.932  33.320  1.00  0.00     0.210 HD
ENDBRANCH  17  36
TORSDOF 4
ENDMDL
MODEL 5
REMARK VINA RESULT:    -8.361      3.239      5.148
REMARK INTER + INTRA:          -9.857
REMARK INTER:                  -9.615
REMARK INTRA:                  -0.241
REMARK UNBOUND:                -0.273
REMARK SMILES CC1(C)CC[C@@]23CO[C@]4(C=C[C@@H]5[C@@]6(C)CC[C@H](O)[C@](C)(CO)[C@@H]6CC[C@@]5(C)[C@]4(C)C[C@H]2O)[C@H]3C1
REMARK SMILES IDX 1 1 2 2 4 3 5 4 6 5 7 6 8 7 9 8 33 9 34 10 10 11 11 12 12 13
REMARK SMILES IDX 13 14 15 15 16 16 17 17 19 18 23 19 24 20 25 21 26 22 28 23
REMARK SMILES IDX 30 24 31 25 29 26 27 27 20 28 14 29 3 30 32 31 21 33 22 34
REMARK SMILES IDX 18 36
REMARK H PARENT 32 32 22 35 18 37
REMARK Flexibility Score: inf
ROOT
ATOM      1  C   UNL     1      38.197  15.031  29.774  1.00  0.00     0.011 C 
ATOM      2  C   UNL     1      37.126  14.573  30.795  1.00  0.00    -0.035 C 
ATOM      3  C   UNL     1      37.822  14.081  32.105  1.00  0.00     0.007 C 
ATOM      4  C   UNL     1      38.444  12.667  32.004  1.00  0.00     0.013 C 
ATOM      5  C   UNL     1      37.456  11.629  31.414  1.00  0.00     0.026 C 
ATOM      6  C   UNL     1      38.146  10.347  30.912  1.00  0.00     0.171 C 
ATOM      7  O   UNL     1      37.433   9.884  29.774  1.00  0.00    -0.369 OA
ATOM      8  C   UNL     1      36.361  10.791  29.541  1.00  0.00     0.096 C 
ATOM      9  C   UNL     1      36.944  12.116  30.089  1.00  0.00     0.037 C 
ATOM     10  C   UNL     1      36.206  13.465  30.184  1.00  0.00     0.014 C 
ATOM     11  C   UNL     1      36.202  10.873  28.028  1.00  0.00     0.005 C 
ATOM     12  C   UNL     1      35.142  10.417  27.342  1.00  0.00    -0.024 C 
ATOM     13  C   UNL     1      33.925   9.813  28.020  1.00  0.00     0.024 C 
ATOM     14  C   UNL     1      32.659   9.664  27.068  1.00  0.00    -0.022 C 
ATOM     15  C   UNL     1      33.027   8.664  25.920  1.00  0.00     0.010 C 
ATOM     16  C   UNL     1      31.825   8.194  25.091  1.00  0.00     0.033 C 
ATOM     17  C   UNL     1      30.745   7.549  25.965  1.00  0.00     0.123 C 
ATOM     18  C   UNL     1      30.233   8.499  27.101  1.00  0.00     0.020 C 
ATOM     19  C   UNL     1      31.497   9.013  27.915  1.00  0.00     0.006 C 
ATOM     20  C   UNL     1      31.194   9.836  29.194  1.00  0.00     0.005 C 
ATOM     21  C   UNL     1      32.428   9.901  30.110  1.00  0.00     0.008 C 
ATOM     22  C   UNL     1      33.705  10.495  29.425  1.00  0.00    -0.017 C 
ATOM     23  C   UNL     1      35.051  10.243  30.308  1.00  0.00     0.009 C 
ATOM     24  C   UNL     1      34.940  10.867  31.747  1.00  0.00     0.043 C 
ATOM     25  C   UNL     1      36.284  11.291  32.417  1.00  0.00     0.124 C 
ATOM     26  C   UNL     1      35.268   8.700  30.581  1.00  0.00     0.015 C 
ATOM     27  C   UNL     1      33.427  12.024  29.225  1.00  0.00     0.013 C 
ATOM     28  C   UNL     1      29.328   7.634  28.025  1.00  0.00     0.017 C 
ATOM     29  C   UNL     1      32.268  11.036  26.424  1.00  0.00     0.012 C 
ATOM     30  C   UNL     1      36.250  15.799  31.133  1.00  0.00     0.011 C 
ENDROOT
BRANCH  25  31
ATOM     31  O   UNL     1      36.698  10.314  33.342  1.00  0.00    -0.392 OA
ATOM     32  H   UNL     1      37.605  10.568  33.655  1.00  0.00     0.210 HD
ENDBRANCH  25  31
BRANCH  18  33
ATOM     33  C   UNL     1      29.342   9.630  26.495  1.00  0.00     0.165 C 
BRANCH  33  34
ATOM     34  O   UNL     1      27.974   9.329  26.574  1.00  0.00    -0.396 OA
ATOM     35  H   UNL     1      27.500   9.939  25.951  1.00  0.00     0.210 HD
ENDBRANCH  33  34
ENDBRANCH  18  33
BRANCH  17  36
ATOM     36  O   UNL     1      29.687   7.139  25.132  1.00  0.00    -0.392 OA
ATOM     37  H   UNL     1      29.412   7.923  24.588  1.00  0.00     0.210 HD
ENDBRANCH  17  36
TORSDOF 4
ENDMDL
MODEL 6
REMARK VINA RESULT:    -8.358      2.781      3.583
REMARK INTER + INTRA:          -9.853
REMARK INTER:                  -9.598
REMARK INTRA:                  -0.255
REMARK UNBOUND:                -0.273
REMARK SMILES CC1(C)CC[C@@]23CO[C@]4(C=C[C@@H]5[C@@]6(C)CC[C@H](O)[C@](C)(CO)[C@@H]6CC[C@@]5(C)[C@]4(C)C[C@H]2O)[C@H]3C1
REMARK SMILES IDX 1 1 2 2 4 3 5 4 6 5 7 6 8 7 9 8 33 9 34 10 10 11 11 12 12 13
REMARK SMILES IDX 13 14 15 15 16 16 17 17 19 18 23 19 24 20 25 21 26 22 28 23
REMARK SMILES IDX 30 24 31 25 29 26 27 27 20 28 14 29 3 30 32 31 21 33 22 34
REMARK SMILES IDX 18 36
REMARK H PARENT 32 32 22 35 18 37
REMARK Flexibility Score: inf
ROOT
ATOM      1  C   UNL     1      37.705  11.680  33.735  1.00  0.00     0.011 C 
ATOM      2  C   UNL     1      38.041  11.694  32.223  1.00  0.00    -0.035 C 
ATOM      3  C   UNL     1      38.699  13.059  31.840  1.00  0.00     0.007 C 
ATOM      4  C   UNL     1      37.699  14.233  31.709  1.00  0.00     0.013 C 
ATOM      5  C   UNL     1      36.481  13.874  30.819  1.00  0.00     0.026 C 
ATOM      6  C   UNL     1      35.289  14.831  31.001  1.00  0.00     0.171 C 
ATOM      7  O   UNL     1      34.096  14.075  30.852  1.00  0.00    -0.369 OA
ATOM      8  C   UNL     1      34.471  12.726  30.597  1.00  0.00     0.096 C 
ATOM      9  C   UNL     1      35.824  12.628  31.342  1.00  0.00     0.037 C 
ATOM     10  C   UNL     1      36.767  11.410  31.362  1.00  0.00     0.014 C 
ATOM     11  C   UNL     1      33.427  11.861  31.291  1.00  0.00     0.005 C 
ATOM     12  C   UNL     1      32.537  11.078  30.660  1.00  0.00    -0.024 C 
ATOM     13  C   UNL     1      32.514  10.914  29.151  1.00  0.00     0.024 C 
ATOM     14  C   UNL     1      31.628   9.693  28.644  1.00  0.00    -0.022 C 
ATOM     15  C   UNL     1      30.140   9.969  29.048  1.00  0.00     0.010 C 
ATOM     16  C   UNL     1      29.127   9.031  28.381  1.00  0.00     0.033 C 
ATOM     17  C   UNL     1      29.228   9.075  26.853  1.00  0.00     0.123 C 
ATOM     18  C   UNL     1      30.662   8.724  26.327  1.00  0.00     0.020 C 
ATOM     19  C   UNL     1      31.700   9.672  27.068  1.00  0.00     0.006 C 
ATOM     20  C   UNL     1      33.165   9.602  26.564  1.00  0.00     0.005 C 
ATOM     21  C   UNL     1      33.964  10.832  27.028  1.00  0.00     0.008 C 
ATOM     22  C   UNL     1      33.979  11.039  28.580  1.00  0.00    -0.017 C 
ATOM     23  C   UNL     1      34.544  12.509  28.999  1.00  0.00     0.009 C 
ATOM     24  C   UNL     1      36.002  12.756  28.465  1.00  0.00     0.043 C 
ATOM     25  C   UNL     1      36.880  13.743  29.297  1.00  0.00     0.124 C 
ATOM     26  C   UNL     1      33.693  13.657  28.322  1.00  0.00     0.015 C 
ATOM     27  C   UNL     1      34.869   9.892  29.169  1.00  0.00     0.013 C 
ATOM     28  C   UNL     1      30.660   9.034  24.803  1.00  0.00     0.017 C 
ATOM     29  C   UNL     1      32.082   8.350  29.307  1.00  0.00     0.012 C 
ATOM     30  C   UNL     1      39.063  10.565  31.964  1.00  0.00     0.011 C 
ENDROOT
BRANCH  25  31
ATOM     31  O   UNL     1      36.904  15.010  28.685  1.00  0.00    -0.392 OA
ATOM     32  H   UNL     1      36.887  15.688  29.409  1.00  0.00     0.210 HD
ENDBRANCH  25  31
BRANCH  18  33
ATOM     33  C   UNL     1      30.937   7.196  26.496  1.00  0.00     0.165 C 
BRANCH  33  34
ATOM     34  O   UNL     1      30.617   6.467  25.340  1.00  0.00    -0.396 OA
ATOM     35  H   UNL     1      31.433   5.974  25.065  1.00  0.00     0.210 HD
ENDBRANCH  33  34
ENDBRANCH  18  33
BRANCH  17  36
ATOM     36  O   UNL     1      28.264   8.198  26.320  1.00  0.00    -0.392 OA
ATOM     37  H   UNL     1      27.504   8.747  25.995  1.00  0.00     0.210 HD
ENDBRANCH  17  36
TORSDOF 4
ENDMDL
MODEL 7
REMARK VINA RESULT:    -8.169      2.324      3.342
REMARK INTER + INTRA:          -9.637
REMARK INTER:                  -9.855
REMARK INTRA:                   0.219
REMARK UNBOUND:                -0.273
REMARK SMILES CC1(C)CC[C@@]23CO[C@]4(C=C[C@@H]5[C@@]6(C)CC[C@H](O)[C@](C)(CO)[C@@H]6CC[C@@]5(C)[C@]4(C)C[C@H]2O)[C@H]3C1
REMARK SMILES IDX 1 1 2 2 4 3 5 4 6 5 7 6 8 7 9 8 33 9 34 10 10 11 11 12 12 13
REMARK SMILES IDX 13 14 15 15 16 16 17 17 19 18 23 19 24 20 25 21 26 22 28 23
REMARK SMILES IDX 30 24 31 25 29 26 27 27 20 28 14 29 3 30 32 31 21 33 22 34
REMARK SMILES IDX 18 36
REMARK H PARENT 32 32 22 35 18 37
REMARK Flexibility Score: inf
ROOT
ATOM      1  C   UNL     1      38.212   8.842  32.764  1.00  0.00     0.011 C 
ATOM      2  C   UNL     1      38.422  10.014  31.773  1.00  0.00    -0.035 C 
ATOM      3  C   UNL     1      38.664  11.339  32.566  1.00  0.00     0.007 C 
ATOM      4  C   UNL     1      37.381  11.968  33.161  1.00  0.00     0.013 C 
ATOM      5  C   UNL     1      36.241  12.083  32.117  1.00  0.00     0.026 C 
ATOM      6  C   UNL     1      34.854  12.300  32.748  1.00  0.00     0.171 C 
ATOM      7  O   UNL     1      33.897  11.630  31.941  1.00  0.00    -0.369 OA
ATOM      8  C   UNL     1      34.598  11.016  30.865  1.00  0.00     0.096 C 
ATOM      9  C   UNL     1      35.979  10.737  31.506  1.00  0.00     0.037 C 
ATOM     10  C   UNL     1      37.210  10.144  30.794  1.00  0.00     0.014 C 
ATOM     11  C   UNL     1      33.874   9.705  30.586  1.00  0.00     0.005 C 
ATOM     12  C   UNL     1      33.181   9.434  29.469  1.00  0.00    -0.024 C 
ATOM     13  C   UNL     1      33.093  10.402  28.303  1.00  0.00     0.024 C 
ATOM     14  C   UNL     1      32.530   9.756  26.962  1.00  0.00    -0.022 C 
ATOM     15  C   UNL     1      31.055   9.296  27.225  1.00  0.00     0.010 C 
ATOM     16  C   UNL     1      30.281   8.921  25.955  1.00  0.00     0.033 C 
ATOM     17  C   UNL     1      30.256  10.069  24.941  1.00  0.00     0.123 C 
ATOM     18  C   UNL     1      31.689  10.554  24.533  1.00  0.00     0.020 C 
ATOM     19  C   UNL     1      32.489  10.889  25.865  1.00  0.00     0.006 C 
ATOM     20  C   UNL     1      33.880  11.550  25.675  1.00  0.00     0.005 C 
ATOM     21  C   UNL     1      34.354  12.212  26.980  1.00  0.00     0.008 C 
ATOM     22  C   UNL     1      34.427  11.239  28.204  1.00  0.00    -0.017 C 
ATOM     23  C   UNL     1      34.610  12.036  29.614  1.00  0.00     0.009 C 
ATOM     24  C   UNL     1      35.906  12.925  29.627  1.00  0.00     0.043 C 
ATOM     25  C   UNL     1      36.549  13.183  31.025  1.00  0.00     0.124 C 
ATOM     26  C   UNL     1      33.437  13.075  29.834  1.00  0.00     0.015 C 
ATOM     27  C   UNL     1      35.630  10.273  27.930  1.00  0.00     0.013 C 
ATOM     28  C   UNL     1      31.495  11.850  23.695  1.00  0.00     0.017 C 
ATOM     29  C   UNL     1      33.370   8.506  26.538  1.00  0.00     0.012 C 
ATOM     30  C   UNL     1      39.686   9.700  30.943  1.00  0.00     0.011 C 
ENDROOT
BRANCH  25  31
ATOM     31  O   UNL     1      36.190  14.458  31.500  1.00  0.00    -0.392 OA
ATOM     32  H   UNL     1      35.808  14.339  32.408  1.00  0.00     0.210 HD
ENDBRANCH  25  31
BRANCH  18  33
ATOM     33  C   UNL     1      32.373   9.495  23.610  1.00  0.00     0.165 C 
BRANCH  33  34
ATOM     34  O   UNL     1      33.672   9.873  23.239  1.00  0.00    -0.396 OA
ATOM     35  H   UNL     1      33.715   9.851  22.247  1.00  0.00     0.210 HD
ENDBRANCH  33  34
ENDBRANCH  18  33
BRANCH  17  36
ATOM     36  O   UNL     1      29.524   9.648  23.815  1.00  0.00    -0.392 OA
ATOM     37  H   UNL     1      28.683  10.174  23.789  1.00  0.00     0.210 HD
ENDBRANCH  17  36
TORSDOF 4
ENDMDL
MODEL 8
REMARK VINA RESULT:    -8.074      3.272      5.150
REMARK INTER + INTRA:          -9.528
REMARK INTER:                  -9.261
REMARK INTRA:                  -0.267
REMARK UNBOUND:                -0.273
REMARK SMILES CC1(C)CC[C@@]23CO[C@]4(C=C[C@@H]5[C@@]6(C)CC[C@H](O)[C@](C)(CO)[C@@H]6CC[C@@]5(C)[C@]4(C)C[C@H]2O)[C@H]3C1
REMARK SMILES IDX 1 1 2 2 4 3 5 4 6 5 7 6 8 7 9 8 33 9 34 10 10 11 11 12 12 13
REMARK SMILES IDX 13 14 15 15 16 16 17 17 19 18 23 19 24 20 25 21 26 22 28 23
REMARK SMILES IDX 30 24 31 25 29 26 27 27 20 28 14 29 3 30 32 31 21 33 22 34
REMARK SMILES IDX 18 36
REMARK H PARENT 32 32 22 35 18 37
REMARK Flexibility Score: inf
ROOT
ATOM      1  C   UNL     1      38.575  13.638  31.560  1.00  0.00     0.011 C 
ATOM      2  C   UNL     1      37.690  12.494  32.115  1.00  0.00    -0.035 C 
ATOM      3  C   UNL     1      38.584  11.442  32.847  1.00  0.00     0.007 C 
ATOM      4  C   UNL     1      39.355  10.492  31.899  1.00  0.00     0.013 C 
ATOM      5  C   UNL     1      38.438   9.865  30.818  1.00  0.00     0.026 C 
ATOM      6  C   UNL     1      39.214   9.268  29.630  1.00  0.00     0.171 C 
ATOM      7  O   UNL     1      38.438   9.464  28.458  1.00  0.00    -0.369 OA
ATOM      8  C   UNL     1      37.245  10.140  28.841  1.00  0.00     0.096 C 
ATOM      9  C   UNL     1      37.724  10.953  30.069  1.00  0.00     0.037 C 
ATOM     10  C   UNL     1      36.845  11.836  30.975  1.00  0.00     0.014 C 
ATOM     11  C   UNL     1      36.907  11.080  27.690  1.00  0.00     0.005 C 
ATOM     12  C   UNL     1      35.837  10.955  26.888  1.00  0.00    -0.024 C 
ATOM     13  C   UNL     1      34.786   9.877  27.083  1.00  0.00     0.024 C 
ATOM     14  C   UNL     1      33.447  10.119  26.259  1.00  0.00    -0.022 C 
ATOM     15  C   UNL     1      33.799  10.076  24.733  1.00  0.00     0.010 C 
ATOM     16  C   UNL     1      32.575  10.002  23.811  1.00  0.00     0.033 C 
ATOM     17  C   UNL     1      31.686   8.798  24.136  1.00  0.00     0.123 C 
ATOM     18  C   UNL     1      31.197   8.785  25.624  1.00  0.00     0.020 C 
ATOM     19  C   UNL     1      32.475   8.912  26.560  1.00  0.00     0.006 C 
ATOM     20  C   UNL     1      32.223   8.749  28.082  1.00  0.00     0.005 C 
ATOM     21  C   UNL     1      33.537   8.457  28.827  1.00  0.00     0.008 C 
ATOM     22  C   UNL     1      34.647   9.542  28.618  1.00  0.00    -0.017 C 
ATOM     23  C   UNL     1      36.106   9.038  29.143  1.00  0.00     0.009 C 
ATOM     24  C   UNL     1      36.085   8.655  30.668  1.00  0.00     0.043 C 
ATOM     25  C   UNL     1      37.437   8.809  31.433  1.00  0.00     0.124 C 
ATOM     26  C   UNL     1      36.535   7.697  28.422  1.00  0.00     0.015 C 
ATOM     27  C   UNL     1      34.167  10.817  29.391  1.00  0.00     0.013 C 
ATOM     28  C   UNL     1      30.513   7.406  25.852  1.00  0.00     0.017 C 
ATOM     29  C   UNL     1      32.824  11.517  26.585  1.00  0.00     0.012 C 
ATOM     30  C   UNL     1      36.718  13.115  33.143  1.00  0.00     0.011 C 
ENDROOT
BRANCH  25  31
ATOM     31  O   UNL     1      38.066   7.558  31.570  1.00  0.00    -0.392 OA
ATOM     32  H   UNL     1      38.508   7.544  32.458  1.00  0.00     0.210 HD
ENDBRANCH  25  31
BRANCH  18  33
ATOM     33  C   UNL     1      30.114   9.889  25.844  1.00  0.00     0.165 C 
BRANCH  33  34
ATOM     34  O   UNL     1      28.859   9.508  25.347  1.00  0.00    -0.396 OA
ATOM     35  H   UNL     1      29.004   9.114  24.447  1.00  0.00     0.210 HD
ENDBRANCH  33  34
ENDBRANCH  18  33
BRANCH  17  36
ATOM     36  O   UNL     1      30.597   8.798  23.244  1.00  0.00    -0.392 OA
ATOM     37  H   UNL     1      30.688   8.003  22.658  1.00  0.00     0.210 HD
ENDBRANCH  17  36
TORSDOF 4
ENDMDL
MODEL 9
REMARK VINA RESULT:    -7.966      2.934      7.852
REMARK INTER + INTRA:          -9.403
REMARK INTER:                  -9.152
REMARK INTRA:                  -0.251
REMARK UNBOUND:                -0.273
REMARK SMILES CC1(C)CC[C@@]23CO[C@]4(C=C[C@@H]5[C@@]6(C)CC[C@H](O)[C@](C)(CO)[C@@H]6CC[C@@]5(C)[C@]4(C)C[C@H]2O)[C@H]3C1
REMARK SMILES IDX 1 1 2 2 4 3 5 4 6 5 7 6 8 7 9 8 33 9 34 10 10 11 11 12 12 13
REMARK SMILES IDX 13 14 15 15 16 16 17 17 19 18 23 19 24 20 25 21 26 22 28 23
REMARK SMILES IDX 30 24 31 25 29 26 27 27 20 28 14 29 3 30 32 31 21 33 22 34
REMARK SMILES IDX 18 36
REMARK H PARENT 32 32 22 35 18 37
REMARK Flexibility Score: inf
ROOT
ATOM      1  C   UNL     1      30.273   9.960  24.872  1.00  0.00     0.011 C 
ATOM      2  C   UNL     1      31.374   9.205  25.658  1.00  0.00    -0.035 C 
ATOM      3  C   UNL     1      30.746   7.989  26.412  1.00  0.00     0.007 C 
ATOM      4  C   UNL     1      29.975   8.368  27.700  1.00  0.00     0.013 C 
ATOM      5  C   UNL     1      30.797   9.300  28.626  1.00  0.00     0.026 C 
ATOM      6  C   UNL     1      29.939  10.024  29.680  1.00  0.00     0.171 C 
ATOM      7  O   UNL     1      30.500  11.311  29.891  1.00  0.00    -0.369 OA
ATOM      8  C   UNL     1      31.636  11.428  29.041  1.00  0.00     0.096 C 
ATOM      9  C   UNL     1      31.242  10.511  27.858  1.00  0.00     0.037 C 
ATOM     10  C   UNL     1      32.120  10.167  26.640  1.00  0.00     0.014 C 
ATOM     11  C   UNL     1      31.673  12.882  28.587  1.00  0.00     0.005 C 
ATOM     12  C   UNL     1      32.618  13.770  28.934  1.00  0.00    -0.024 C 
ATOM     13  C   UNL     1      33.819  13.399  29.784  1.00  0.00     0.024 C 
ATOM     14  C   UNL     1      34.978  14.490  29.783  1.00  0.00    -0.022 C 
ATOM     15  C   UNL     1      34.412  15.802  30.425  1.00  0.00     0.010 C 
ATOM     16  C   UNL     1      35.484  16.847  30.761  1.00  0.00     0.033 C 
ATOM     17  C   UNL     1      36.563  16.281  31.689  1.00  0.00     0.123 C 
ATOM     18  C   UNL     1      37.265  15.009  31.104  1.00  0.00     0.020 C 
ATOM     19  C   UNL     1      36.135  13.961  30.718  1.00  0.00     0.006 C 
ATOM     20  C   UNL     1      36.629  12.559  30.275  1.00  0.00     0.005 C 
ATOM     21  C   UNL     1      35.490  11.527  30.351  1.00  0.00     0.008 C 
ATOM     22  C   UNL     1      34.228  11.902  29.503  1.00  0.00    -0.017 C 
ATOM     23  C   UNL     1      32.943  10.967  29.867  1.00  0.00     0.009 C 
ATOM     24  C   UNL     1      33.240   9.440  29.642  1.00  0.00     0.043 C 
ATOM     25  C   UNL     1      32.009   8.544  29.300  1.00  0.00     0.124 C 
ATOM     26  C   UNL     1      32.593  11.061  31.407  1.00  0.00     0.015 C 
ATOM     27  C   UNL     1      34.644  11.747  28.001  1.00  0.00     0.013 C 
ATOM     28  C   UNL     1      38.152  14.430  32.244  1.00  0.00     0.017 C 
ATOM     29  C   UNL     1      35.451  14.814  28.328  1.00  0.00     0.012 C 
ATOM     30  C   UNL     1      32.397   8.673  24.630  1.00  0.00     0.011 C 
ENDROOT
BRANCH  25  31
ATOM     31  O   UNL     1      31.578   7.849  30.446  1.00  0.00    -0.392 OA
ATOM     32  H   UNL     1      30.805   8.347  30.820  1.00  0.00     0.210 HD
ENDBRANCH  25  31
BRANCH  18  33
ATOM     33  C   UNL     1      38.213  15.410  29.929  1.00  0.00     0.165 C 
BRANCH  33  34
ATOM     34  O   UNL     1      39.371  16.061  30.379  1.00  0.00    -0.396 OA
ATOM     35  H   UNL     1      39.091  16.723  31.064  1.00  0.00     0.210 HD
ENDBRANCH  33  34
ENDBRANCH  18  33
BRANCH  17  36
ATOM     36  O   UNL     1      37.498  17.300  31.953  1.00  0.00    -0.392 OA
ATOM     37  H   UNL     1      37.121  17.877  32.667  1.00  0.00     0.210 HD
ENDBRANCH  17  36
TORSDOF 4
ENDMDL
