MODEL 1
REMARK VINA RESULT:    -3.085      0.000      0.000
REMARK INTER + INTRA:          -4.902
REMARK INTER:                  -4.708
REMARK INTRA:                  -0.194
REMARK UNBOUND:                -0.194
REMARK SMILES CC1=CCC[C@@H](C)C(=O)C[C@@H](C(C)C)C(=O)C1
REMARK SMILES IDX 8 1 9 2 6 3 7 4 5 5 4 6 3 7 2 8 1 9 10 11 11 12 15 13 16 14
REMARK SMILES IDX 17 15 12 17 13 18 14 19
REMARK H PARENT
REMARK Flexibility Score: 70.00
ROOT
ATOM      1  C   UNL     1     150.572 151.969 165.288  1.00  0.00     0.136 C 
ATOM      2  O   UNL     1     150.994 150.852 165.026  1.00  0.00    -0.299 OA
ENDROOT
BRANCH   1   3
ATOM      3  C   UNL     1     150.889 152.576 166.646  1.00  0.00     0.053 C 
ATOM      4  C   UNL     1     152.408 152.549 166.864  1.00  0.00     0.016 C 
BRANCH   3   5
ATOM      5  C   UNL     1     150.154 151.869 167.816  1.00  0.00     0.015 C 
BRANCH   5   6
ATOM      6  C   UNL     1     148.920 152.605 168.379  1.00  0.00     0.028 C 
BRANCH   6   7
ATOM      7  C   UNL     1     147.586 151.915 168.226  1.00  0.00    -0.028 C 
ATOM      8  C   UNL     1     146.616 152.241 167.341  1.00  0.00    -0.070 CG0
ATOM      9  C   UNL     1     145.489 151.253 167.156  1.00  0.00     0.039 C 
ATOM     10  G   UNL     1     146.610 153.526 166.527  1.00  0.00     0.000 G0
ENDBRANCH   6   7
ENDBRANCH   5   6
ENDBRANCH   3   5
ENDBRANCH   1   3
BRANCH   1  11
ATOM     11  C   UNL     1     149.638 152.653 164.309  1.00  0.00     0.087 C 
BRANCH  11  12
ATOM     12  C   UNL     1     148.732 153.770 164.908  1.00  0.00     0.066 C 
BRANCH  12  13
ATOM     13  C   UNL     1     147.299 153.328 165.174  1.00  0.00     0.140 C 
ATOM     14  O   UNL     1     146.715 152.714 164.291  1.00  0.00    -0.299 OA
BRANCH  13  15
ATOM     15  C   UNL     1     146.603 153.534 166.502  1.00  0.00     0.106 CG0
ATOM     16  G   UNL     1     146.617 152.251 167.318  1.00  0.00     0.000 G0
ENDBRANCH  13  15
ENDBRANCH  12  13
BRANCH  12  17
ATOM     17  C   UNL     1     148.770 155.073 164.049  1.00  0.00    -0.006 C 
ATOM     18  C   UNL     1     148.654 154.764 162.545  1.00  0.00     0.008 C 
ATOM     19  C   UNL     1     150.058 155.882 164.291  1.00  0.00     0.008 C 
ENDBRANCH  12  17
ENDBRANCH  11  12
ENDBRANCH   1  11
TORSDOF 1
ENDMDL
MODEL 2
REMARK VINA RESULT:    -3.084      2.357      4.669
REMARK INTER + INTRA:          -4.901
REMARK INTER:                  -4.404
REMARK INTRA:                  -0.497
REMARK UNBOUND:                -0.194
REMARK SMILES CC1=CCC[C@@H](C)C(=O)C[C@@H](C(C)C)C(=O)C1
REMARK SMILES IDX 8 1 9 2 6 3 7 4 5 5 4 6 3 7 2 8 1 9 10 11 11 12 15 13 16 14
REMARK SMILES IDX 17 15 12 17 13 18 14 19
REMARK H PARENT
REMARK Flexibility Score: 70.00
ROOT
ATOM      1  C   UNL     1     145.059 152.127 168.651  1.00  0.00     0.136 C 
ATOM      2  O   UNL     1     144.387 152.233 169.667  1.00  0.00    -0.299 OA
ENDROOT
BRANCH   1   3
ATOM      3  C   UNL     1     145.775 150.814 168.376  1.00  0.00     0.053 C 
ATOM      4  C   UNL     1     144.732 149.707 168.177  1.00  0.00     0.016 C 
BRANCH   3   5
ATOM      5  C   UNL     1     146.784 150.424 169.490  1.00  0.00     0.015 C 
BRANCH   5   6
ATOM      6  C   UNL     1     148.100 151.228 169.518  1.00  0.00     0.028 C 
BRANCH   6   7
ATOM      7  C   UNL     1     148.938 151.210 168.263  1.00  0.00    -0.028 C 
ATOM      8  C   UNL     1     149.159 152.257 167.437  1.00  0.00    -0.070 CG0
ATOM      9  C   UNL     1     150.252 152.104 166.405  1.00  0.00     0.039 C 
ATOM     10  G   UNL     1     148.386 153.565 167.501  1.00  0.00     0.000 G0
ENDBRANCH   6   7
ENDBRANCH   5   6
ENDBRANCH   3   5
ENDBRANCH   1   3
BRANCH   1  11
ATOM     11  C   UNL     1     145.265 153.345 167.772  1.00  0.00     0.087 C 
BRANCH  11  12
ATOM     12  C   UNL     1     145.989 153.085 166.417  1.00  0.00     0.066 C 
BRANCH  12  13
ATOM     13  C   UNL     1     147.392 153.673 166.342  1.00  0.00     0.140 C 
ATOM     14  O   UNL     1     147.696 154.305 165.340  1.00  0.00    -0.299 OA
BRANCH  13  15
ATOM     15  C   UNL     1     148.386 153.586 167.480  1.00  0.00     0.106 CG0
ATOM     16  G   UNL     1     149.134 152.262 167.437  1.00  0.00     0.000 G0
ENDBRANCH  13  15
ENDBRANCH  12  13
BRANCH  12  17
ATOM     17  C   UNL     1     145.122 153.536 165.199  1.00  0.00    -0.006 C 
ATOM     18  C   UNL     1     143.698 153.930 165.631  1.00  0.00     0.008 C 
ATOM     19  C   UNL     1     145.028 152.438 164.123  1.00  0.00     0.008 C 
ENDBRANCH  12  17
ENDBRANCH  11  12
ENDBRANCH   1  11
TORSDOF 1
ENDMDL
MODEL 3
REMARK VINA RESULT:    -2.972      2.341      3.546
REMARK INTER + INTRA:          -4.730
REMARK INTER:                  -4.499
REMARK INTRA:                  -0.231
REMARK UNBOUND:                -0.194
REMARK SMILES CC1=CCC[C@@H](C)C(=O)C[C@@H](C(C)C)C(=O)C1
REMARK SMILES IDX 8 1 9 2 6 3 7 4 5 5 4 6 3 7 2 8 1 9 10 11 11 12 15 13 16 14
REMARK SMILES IDX 17 15 12 17 13 18 14 19
REMARK H PARENT
REMARK Flexibility Score: 70.00
ROOT
ATOM      1  C   UNL     1     148.486 153.184 166.851  1.00  0.00     0.136 C 
ATOM      2  O   UNL     1     147.300 153.200 167.147  1.00  0.00    -0.299 OA
ENDROOT
BRANCH   1   3
ATOM      3  C   UNL     1     149.330 151.986 167.256  1.00  0.00     0.053 C 
ATOM      4  C   UNL     1     149.063 151.663 168.732  1.00  0.00     0.016 C 
BRANCH   3   5
ATOM      5  C   UNL     1     150.847 152.196 167.005  1.00  0.00     0.015 C 
BRANCH   5   6
ATOM      6  C   UNL     1     151.379 151.703 165.644  1.00  0.00     0.028 C 
BRANCH   6   7
ATOM      7  C   UNL     1     150.449 150.851 164.816  1.00  0.00    -0.028 C 
ATOM      8  C   UNL     1     149.791 151.240 163.700  1.00  0.00    -0.070 CG0
ATOM      9  C   UNL     1     149.145 150.160 162.866  1.00  0.00     0.039 C 
ATOM     10  G   UNL     1     149.683 152.687 163.243  1.00  0.00     0.000 G0
ENDBRANCH   6   7
ENDBRANCH   5   6
ENDBRANCH   3   5
ENDBRANCH   1   3
BRANCH   1  11
ATOM     11  C   UNL     1     149.103 154.413 166.211  1.00  0.00     0.087 C 
BRANCH  11  12
ATOM     12  C   UNL     1     148.709 154.672 164.726  1.00  0.00     0.066 C 
BRANCH  12  13
ATOM     13  C   UNL     1     148.526 153.403 163.903  1.00  0.00     0.140 C 
ATOM     14  O   UNL     1     147.388 152.994 163.726  1.00  0.00    -0.299 OA
BRANCH  13  15
ATOM     15  C   UNL     1     149.674 152.684 163.228  1.00  0.00     0.106 CG0
ATOM     16  G   UNL     1     149.780 151.253 163.733  1.00  0.00     0.000 G0
ENDBRANCH  13  15
ENDBRANCH  12  13
BRANCH  12  17
ATOM     17  C   UNL     1     149.693 155.662 164.027  1.00  0.00    -0.006 C 
ATOM     18  C   UNL     1     150.464 156.513 165.053  1.00  0.00     0.008 C 
ATOM     19  C   UNL     1     148.964 156.603 163.050  1.00  0.00     0.008 C 
ENDBRANCH  12  17
ENDBRANCH  11  12
ENDBRANCH   1  11
TORSDOF 1
ENDMDL
MODEL 4
REMARK VINA RESULT:    -2.856      2.262      5.050
REMARK INTER + INTRA:          -4.552
REMARK INTER:                  -4.550
REMARK INTRA:                  -0.002
REMARK UNBOUND:                -0.194
REMARK SMILES CC1=CCC[C@@H](C)C(=O)C[C@@H](C(C)C)C(=O)C1
REMARK SMILES IDX 8 1 9 2 6 3 7 4 5 5 4 6 3 7 2 8 1 9 10 11 11 12 15 13 16 14
REMARK SMILES IDX 17 15 12 17 13 18 14 19
REMARK H PARENT
REMARK Flexibility Score: 70.00
ROOT
ATOM      1  C   UNL     1     149.471 155.211 164.992  1.00  0.00     0.136 C 
ATOM      2  O   UNL     1     150.219 155.986 165.571  1.00  0.00    -0.299 OA
ENDROOT
BRANCH   1   3
ATOM      3  C   UNL     1     149.179 155.434 163.517  1.00  0.00     0.053 C 
ATOM      4  C   UNL     1     149.585 156.865 163.137  1.00  0.00     0.016 C 
BRANCH   3   5
ATOM      5  C   UNL     1     147.698 155.166 163.140  1.00  0.00     0.015 C 
BRANCH   5   6
ATOM      6  C   UNL     1     147.401 153.788 162.513  1.00  0.00     0.028 C 
BRANCH   6   7
ATOM      7  C   UNL     1     148.583 153.001 162.004  1.00  0.00    -0.028 C 
ATOM      8  C   UNL     1     149.140 151.922 162.600  1.00  0.00    -0.070 CG0
ATOM      9  C   UNL     1     150.124 151.114 161.787  1.00  0.00     0.039 C 
ATOM     10  G   UNL     1     148.822 151.481 164.020  1.00  0.00     0.000 G0
ENDBRANCH   6   7
ENDBRANCH   5   6
ENDBRANCH   3   5
ENDBRANCH   1   3
BRANCH   1  11
ATOM     11  C   UNL     1     148.756 154.139 165.791  1.00  0.00     0.087 C 
BRANCH  11  12
ATOM     12  C   UNL     1     149.613 152.893 166.168  1.00  0.00     0.066 C 
BRANCH  12  13
ATOM     13  C   UNL     1     149.891 151.957 165.000  1.00  0.00     0.140 C 
ATOM     14  O   UNL     1     151.022 151.506 164.883  1.00  0.00    -0.299 OA
BRANCH  13  15
ATOM     15  C   UNL     1     148.817 151.493 164.039  1.00  0.00     0.106 CG0
ATOM     16  G   UNL     1     149.158 151.909 162.616  1.00  0.00     0.000 G0
ENDBRANCH  13  15
ENDBRANCH  12  13
BRANCH  12  17
ATOM     17  C   UNL     1     149.010 152.118 167.382  1.00  0.00    -0.006 C 
ATOM     18  C   UNL     1     148.101 153.021 168.236  1.00  0.00     0.008 C 
ATOM     19  C   UNL     1     150.107 151.524 168.285  1.00  0.00     0.008 C 
ENDBRANCH  12  17
ENDBRANCH  11  12
ENDBRANCH   1  11
TORSDOF 1
ENDMDL
MODEL 5
REMARK VINA RESULT:    -2.839      4.465      6.383
REMARK INTER + INTRA:          -4.527
REMARK INTER:                  -4.354
REMARK INTRA:                  -0.172
REMARK UNBOUND:                -0.194
REMARK SMILES CC1=CCC[C@@H](C)C(=O)C[C@@H](C(C)C)C(=O)C1
REMARK SMILES IDX 8 1 9 2 6 3 7 4 5 5 4 6 3 7 2 8 1 9 10 11 11 12 15 13 16 14
REMARK SMILES IDX 17 15 12 17 13 18 14 19
REMARK H PARENT
REMARK Flexibility Score: 70.00
ROOT
ATOM      1  C   UNL     1     149.626 156.944 163.243  1.00  0.00     0.136 C 
ATOM      2  O   UNL     1     150.431 156.688 162.359  1.00  0.00    -0.299 OA
ENDROOT
BRANCH   1   3
ATOM      3  C   UNL     1     149.330 155.889 164.297  1.00  0.00     0.053 C 
ATOM      4  C   UNL     1     150.570 155.703 165.182  1.00  0.00     0.016 C 
BRANCH   3   5
ATOM      5  C   UNL     1     148.879 154.533 163.691  1.00  0.00     0.015 C 
BRANCH   5   6
ATOM      6  C   UNL     1     147.680 154.593 162.722  1.00  0.00     0.028 C 
BRANCH   6   7
ATOM      7  C   UNL     1     147.987 154.470 161.250  1.00  0.00    -0.028 C 
ATOM      8  C   UNL     1     147.687 155.380 160.294  1.00  0.00    -0.070 CG0
ATOM      9  C   UNL     1     148.333 155.199 158.941  1.00  0.00     0.039 C 
ATOM     10  G   UNL     1     146.759 156.564 160.514  1.00  0.00     0.000 G0
ENDBRANCH   6   7
ENDBRANCH   5   6
ENDBRANCH   3   5
ENDBRANCH   1   3
BRANCH   1  11
ATOM     11  C   UNL     1     148.854 158.248 163.183  1.00  0.00     0.087 C 
BRANCH  11  12
ATOM     12  C   UNL     1     147.457 158.175 162.496  1.00  0.00     0.066 C 
BRANCH  12  13
ATOM     13  C   UNL     1     147.508 157.759 161.033  1.00  0.00     0.140 C 
ATOM     14  O   UNL     1     148.258 158.374 160.288  1.00  0.00    -0.299 OA
BRANCH  13  15
ATOM     15  C   UNL     1     146.747 156.572 160.483  1.00  0.00     0.106 CG0
ATOM     16  G   UNL     1     147.675 155.382 160.293  1.00  0.00     0.000 G0
ENDBRANCH  13  15
ENDBRANCH  12  13
BRANCH  12  17
ATOM     17  C   UNL     1     146.649 159.498 162.680  1.00  0.00    -0.006 C 
ATOM     18  C   UNL     1     146.963 160.172 164.028  1.00  0.00     0.008 C 
ATOM     19  C   UNL     1     145.130 159.261 162.586  1.00  0.00     0.008 C 
ENDBRANCH  12  17
ENDBRANCH  11  12
ENDBRANCH   1  11
TORSDOF 1
ENDMDL
MODEL 6
REMARK VINA RESULT:    -2.833      2.433      3.231
REMARK INTER + INTRA:          -4.517
REMARK INTER:                  -4.232
REMARK INTRA:                  -0.285
REMARK UNBOUND:                -0.194
REMARK SMILES CC1=CCC[C@@H](C)C(=O)C[C@@H](C(C)C)C(=O)C1
REMARK SMILES IDX 8 1 9 2 6 3 7 4 5 5 4 6 3 7 2 8 1 9 10 11 11 12 15 13 16 14
REMARK SMILES IDX 17 15 12 17 13 18 14 19
REMARK H PARENT
REMARK Flexibility Score: 70.00
ROOT
ATOM      1  C   UNL     1     150.039 155.122 165.169  1.00  0.00     0.136 C 
ATOM      2  O   UNL     1     150.698 156.055 165.607  1.00  0.00    -0.299 OA
ENDROOT
BRANCH   1   3
ATOM      3  C   UNL     1     149.817 153.902 166.047  1.00  0.00     0.053 C 
ATOM      4  C   UNL     1     149.935 152.637 165.186  1.00  0.00     0.016 C 
BRANCH   3   5
ATOM      5  C   UNL     1     148.459 153.930 166.798  1.00  0.00     0.015 C 
BRANCH   5   6
ATOM      6  C   UNL     1     147.392 152.935 166.299  1.00  0.00     0.028 C 
BRANCH   6   7
ATOM      7  C   UNL     1     146.095 153.520 165.796  1.00  0.00    -0.028 C 
ATOM      8  C   UNL     1     145.806 153.834 164.513  1.00  0.00    -0.070 CG0
ATOM      9  C   UNL     1     144.363 154.134 164.182  1.00  0.00     0.039 C 
ATOM     10  G   UNL     1     146.842 153.885 163.400  1.00  0.00     0.000 G0
ENDBRANCH   6   7
ENDBRANCH   5   6
ENDBRANCH   3   5
ENDBRANCH   1   3
BRANCH   1  11
ATOM     11  C   UNL     1     149.583 155.157 163.723  1.00  0.00     0.087 C 
BRANCH  11  12
ATOM     12  C   UNL     1     148.359 156.073 163.423  1.00  0.00     0.066 C 
BRANCH  12  13
ATOM     13  C   UNL     1     147.113 155.317 162.981  1.00  0.00     0.140 C 
ATOM     14  O   UNL     1     146.347 155.876 162.208  1.00  0.00    -0.299 OA
BRANCH  13  15
ATOM     15  C   UNL     1     146.829 153.885 163.380  1.00  0.00     0.106 CG0
ATOM     16  G   UNL     1     145.798 153.836 164.497  1.00  0.00     0.000 G0
ENDBRANCH  13  15
ENDBRANCH  12  13
BRANCH  12  17
ATOM     17  C   UNL     1     148.717 157.210 162.415  1.00  0.00    -0.006 C 
ATOM     18  C   UNL     1     150.026 156.909 161.662  1.00  0.00     0.008 C 
ATOM     19  C   UNL     1     148.850 158.576 163.114  1.00  0.00     0.008 C 
ENDBRANCH  12  17
ENDBRANCH  11  12
ENDBRANCH   1  11
TORSDOF 1
ENDMDL
MODEL 7
REMARK VINA RESULT:    -2.800      2.264      4.701
REMARK INTER + INTRA:          -4.467
REMARK INTER:                  -4.514
REMARK INTRA:                   0.047
REMARK UNBOUND:                -0.194
REMARK SMILES CC1=CCC[C@@H](C)C(=O)C[C@@H](C(C)C)C(=O)C1
REMARK SMILES IDX 8 1 9 2 6 3 7 4 5 5 4 6 3 7 2 8 1 9 10 11 11 12 15 13 16 14
REMARK SMILES IDX 17 15 12 17 13 18 14 19
REMARK H PARENT
REMARK Flexibility Score: 70.00
ROOT
ATOM      1  C   UNL     1     147.973 151.813 168.469  1.00  0.00     0.136 C 
ATOM      2  O   UNL     1     148.473 151.128 169.350  1.00  0.00    -0.299 OA
ENDROOT
BRANCH   1   3
ATOM      3  C   UNL     1     148.854 152.313 167.336  1.00  0.00     0.053 C 
ATOM      4  C   UNL     1     150.324 152.052 167.693  1.00  0.00     0.016 C 
BRANCH   3   5
ATOM      5  C   UNL     1     148.627 153.811 167.002  1.00  0.00     0.015 C 
BRANCH   5   6
ATOM      6  C   UNL     1     148.233 154.125 165.544  1.00  0.00     0.028 C 
BRANCH   6   7
ATOM      7  C   UNL     1     147.451 153.066 164.806  1.00  0.00    -0.028 C 
ATOM      8  C   UNL     1     146.112 152.881 164.860  1.00  0.00    -0.070 CG0
ATOM      9  C   UNL     1     145.500 151.960 163.831  1.00  0.00     0.039 C 
ATOM     10  G   UNL     1     145.204 153.553 165.878  1.00  0.00     0.000 G0
ENDBRANCH   6   7
ENDBRANCH   5   6
ENDBRANCH   3   5
ENDBRANCH   1   3
BRANCH   1  11
ATOM     11  C   UNL     1     146.527 152.250 168.605  1.00  0.00     0.087 C 
BRANCH  11  12
ATOM     12  C   UNL     1     145.518 151.559 167.640  1.00  0.00     0.066 C 
BRANCH  12  13
ATOM     13  C   UNL     1     144.648 152.531 166.854  1.00  0.00     0.140 C 
ATOM     14  O   UNL     1     143.445 152.531 167.075  1.00  0.00    -0.299 OA
BRANCH  13  15
ATOM     15  C   UNL     1     145.212 153.549 165.886  1.00  0.00     0.106 CG0
ATOM     16  G   UNL     1     146.105 152.871 164.858  1.00  0.00     0.000 G0
ENDBRANCH  13  15
ENDBRANCH  12  13
BRANCH  12  17
ATOM     17  C   UNL     1     144.649 150.491 168.376  1.00  0.00    -0.006 C 
ATOM     18  C   UNL     1     145.321 150.010 169.675  1.00  0.00     0.008 C 
ATOM     19  C   UNL     1     144.364 149.269 167.483  1.00  0.00     0.008 C 
ENDBRANCH  12  17
ENDBRANCH  11  12
ENDBRANCH   1  11
TORSDOF 1
ENDMDL
MODEL 8
REMARK VINA RESULT:    -2.774      1.888      4.012
REMARK INTER + INTRA:          -4.427
REMARK INTER:                  -3.996
REMARK INTRA:                  -0.431
REMARK UNBOUND:                -0.194
REMARK SMILES CC1=CCC[C@@H](C)C(=O)C[C@@H](C(C)C)C(=O)C1
REMARK SMILES IDX 8 1 9 2 6 3 7 4 5 5 4 6 3 7 2 8 1 9 10 11 11 12 15 13 16 14
REMARK SMILES IDX 17 15 12 17 13 18 14 19
REMARK H PARENT
REMARK Flexibility Score: 70.00
ROOT
ATOM      1  C   UNL     1     149.473 155.040 164.426  1.00  0.00     0.136 C 
ATOM      2  O   UNL     1     149.938 156.154 164.233  1.00  0.00    -0.299 OA
ENDROOT
BRANCH   1   3
ATOM      3  C   UNL     1     148.678 154.372 163.315  1.00  0.00     0.053 C 
ATOM      4  C   UNL     1     149.587 154.180 162.094  1.00  0.00     0.016 C 
BRANCH   3   5
ATOM      5  C   UNL     1     147.395 155.156 162.927  1.00  0.00     0.015 C 
BRANCH   5   6
ATOM      6  C   UNL     1     146.112 154.771 163.692  1.00  0.00     0.028 C 
BRANCH   6   7
ATOM      7  C   UNL     1     145.890 153.301 163.954  1.00  0.00    -0.028 C 
ATOM      8  C   UNL     1     145.983 152.681 165.153  1.00  0.00    -0.070 CG0
ATOM      9  C   UNL     1     145.443 151.274 165.247  1.00  0.00     0.039 C 
ATOM     10  G   UNL     1     146.581 153.324 166.394  1.00  0.00     0.000 G0
ENDBRANCH   6   7
ENDBRANCH   5   6
ENDBRANCH   3   5
ENDBRANCH   1   3
BRANCH   1  11
ATOM     11  C   UNL     1     149.589 154.422 165.805  1.00  0.00     0.087 C 
BRANCH  11  12
ATOM     12  C   UNL     1     149.165 152.926 165.913  1.00  0.00     0.066 C 
BRANCH  12  13
ATOM     13  C   UNL     1     147.911 152.697 166.746  1.00  0.00     0.140 C 
ATOM     14  O   UNL     1     148.017 152.040 167.772  1.00  0.00    -0.299 OA
BRANCH  13  15
ATOM     15  C   UNL     1     146.570 153.313 166.410  1.00  0.00     0.106 CG0
ATOM     16  G   UNL     1     145.983 152.669 165.164  1.00  0.00     0.000 G0
ENDBRANCH  13  15
ENDBRANCH  12  13
BRANCH  12  17
ATOM     17  C   UNL     1     150.340 152.022 166.400  1.00  0.00    -0.006 C 
ATOM     18  C   UNL     1     151.613 152.845 166.672  1.00  0.00     0.008 C 
ATOM     19  C   UNL     1     150.673 150.915 165.383  1.00  0.00     0.008 C 
ENDBRANCH  12  17
ENDBRANCH  11  12
ENDBRANCH   1  11
TORSDOF 1
ENDMDL
MODEL 9
REMARK VINA RESULT:    -2.769      2.265      4.336
REMARK INTER + INTRA:          -4.420
REMARK INTER:                  -3.983
REMARK INTRA:                  -0.438
REMARK UNBOUND:                -0.194
REMARK SMILES CC1=CCC[C@@H](C)C(=O)C[C@@H](C(C)C)C(=O)C1
REMARK SMILES IDX 8 1 9 2 6 3 7 4 5 5 4 6 3 7 2 8 1 9 10 11 11 12 15 13 16 14
REMARK SMILES IDX 17 15 12 17 13 18 14 19
REMARK H PARENT
REMARK Flexibility Score: 70.00
ROOT
ATOM      1  C   UNL     1     148.051 153.145 167.762  1.00  0.00     0.136 C 
ATOM      2  O   UNL     1     148.505 154.134 168.320  1.00  0.00    -0.299 OA
ENDROOT
BRANCH   1   3
ATOM      3  C   UNL     1     148.922 151.904 167.641  1.00  0.00     0.053 C 
ATOM      4  C   UNL     1     149.109 151.286 169.033  1.00  0.00     0.016 C 
BRANCH   3   5
ATOM      5  C   UNL     1     150.296 152.185 166.976  1.00  0.00     0.015 C 
BRANCH   5   6
ATOM      6  C   UNL     1     150.257 152.546 165.476  1.00  0.00     0.028 C 
BRANCH   6   7
ATOM      7  C   UNL     1     149.721 151.496 164.535  1.00  0.00    -0.028 C 
ATOM      8  C   UNL     1     148.547 151.549 163.865  1.00  0.00    -0.070 CG0
ATOM      9  C   UNL     1     148.334 150.540 162.762  1.00  0.00     0.039 C 
ATOM     10  G   UNL     1     147.453 152.566 164.152  1.00  0.00     0.000 G0
ENDBRANCH   6   7
ENDBRANCH   5   6
ENDBRANCH   3   5
ENDBRANCH   1   3
BRANCH   1  11
ATOM     11  C   UNL     1     146.693 153.232 167.095  1.00  0.00     0.087 C 
BRANCH  11  12
ATOM     12  C   UNL     1     146.181 151.919 166.430  1.00  0.00     0.066 C 
BRANCH  12  13
ATOM     13  C   UNL     1     146.294 151.910 164.911  1.00  0.00     0.140 C 
ATOM     14  O   UNL     1     145.377 151.413 164.272  1.00  0.00    -0.299 OA
BRANCH  13  15
ATOM     15  C   UNL     1     147.437 152.560 164.163  1.00  0.00     0.106 CG0
ATOM     16  G   UNL     1     148.534 151.547 163.875  1.00  0.00     0.000 G0
ENDBRANCH  13  15
ENDBRANCH  12  13
BRANCH  12  17
ATOM     17  C   UNL     1     144.733 151.560 166.891  1.00  0.00    -0.006 C 
ATOM     18  C   UNL     1     143.858 152.818 167.042  1.00  0.00     0.008 C 
ATOM     19  C   UNL     1     144.730 150.791 168.225  1.00  0.00     0.008 C 
ENDBRANCH  12  17
ENDBRANCH  11  12
ENDBRANCH   1  11
TORSDOF 1
ENDMDL
