MODEL 1
REMARK VINA RESULT:    29.253      0.000      0.000
REMARK INTER + INTRA:          34.137
REMARK INTER:                  34.383
REMARK INTRA:                  -0.246
REMARK UNBOUND:                -0.246
REMARK SMILES O=c1c(O)c(-c2ccc(O)cc2)oc2cc(O)cc(O)c12
REMARK SMILES IDX 5 1 3 2 2 3 1 4 21 5 19 6 18 7 16 8 15 9 14 10 13 11 6 12
REMARK SMILES IDX 7 13 8 14 9 15 12 16 11 17 10 18 4 20 20 22 17 24
REMARK H PARENT 10 19 4 21 20 23 17 25
REMARK Flexibility Score: inf
ROOT
ATOM      1  C   UNL     1      12.769   5.154  18.377  1.00  0.00     0.180 A 
ATOM      2  C   UNL     1      13.682   6.057  18.948  1.00  0.00     0.208 A 
ATOM      3  C   UNL     1      13.616   7.413  18.587  1.00  0.00     0.238 A 
ATOM      4  O   UNL     1      14.471   8.207  19.060  1.00  0.00    -0.285 OA
ATOM      5  C   UNL     1      12.627   7.851  17.675  1.00  0.00     0.111 A 
ATOM      6  C   UNL     1      12.442   9.207  17.270  1.00  0.00     0.134 A 
ATOM      7  C   UNL     1      11.516   9.507  16.262  1.00  0.00     0.093 A 
ATOM      8  C   UNL     1      10.725   8.511  15.691  1.00  0.00     0.123 A 
ATOM      9  C   UNL     1      10.855   7.190  16.123  1.00  0.00     0.094 A 
ATOM     10  C   UNL     1      11.795   6.854  17.100  1.00  0.00     0.146 A 
ATOM     11  O   UNL     1      11.895   5.585  17.475  1.00  0.00    -0.452 OA
ENDROOT
BRANCH   1  12
ATOM     12  C   UNL     1      12.761   3.715  18.726  1.00  0.00     0.021 A 
ATOM     13  C   UNL     1      12.207   3.302  19.949  1.00  0.00     0.016 A 
ATOM     14  C   UNL     1      12.209   1.951  20.308  1.00  0.00     0.047 A 
ATOM     15  C   UNL     1      12.778   0.998  19.458  1.00  0.00     0.115 A 
ATOM     16  C   UNL     1      13.350   2.754  17.883  1.00  0.00     0.016 A 
ATOM     17  C   UNL     1      13.352   1.403  18.246  1.00  0.00     0.047 A 
BRANCH  15  18
ATOM     18  O   UNL     1      12.773  -0.345  19.828  1.00  0.00    -0.508 OA
ATOM     19  H   UNL     1      13.496  -0.733  20.423  1.00  0.00     0.293 HD
ENDBRANCH  15  18
ENDBRANCH   1  12
BRANCH   2  20
ATOM     20  O   UNL     1      14.665   5.599  19.830  1.00  0.00    -0.502 OA
ATOM     21  H   UNL     1      14.807   6.009  20.746  1.00  0.00     0.293 HD
ENDBRANCH   2  20
BRANCH   6  22
ATOM     22  O   UNL     1      13.115  10.291  17.840  1.00  0.00    -0.507 OA
ATOM     23  H   UNL     1      13.954  10.218  18.396  1.00  0.00     0.293 HD
ENDBRANCH   6  22
BRANCH   8  24
ATOM     24  O   UNL     1       9.803   8.848  14.702  1.00  0.00    -0.508 OA
ATOM     25  H   UNL     1      10.075   8.925  13.729  1.00  0.00     0.293 HD
ENDBRANCH   8  24
TORSDOF 5
ENDMDL
MODEL 2
REMARK VINA RESULT:    30.102      1.205      3.046
REMARK INTER + INTRA:          35.135
REMARK INTER:                  35.273
REMARK INTRA:                  -0.138
REMARK UNBOUND:                -0.246
REMARK SMILES O=c1c(O)c(-c2ccc(O)cc2)oc2cc(O)cc(O)c12
REMARK SMILES IDX 5 1 3 2 2 3 1 4 21 5 19 6 18 7 16 8 15 9 14 10 13 11 6 12
REMARK SMILES IDX 7 13 8 14 9 15 12 16 11 17 10 18 4 20 20 22 17 24
REMARK H PARENT 10 19 4 21 20 23 17 25
REMARK Flexibility Score: inf
ROOT
ATOM      1  C   UNL     1      12.270   5.110  17.983  1.00  0.00     0.180 A 
ATOM      2  C   UNL     1      11.449   5.283  16.856  1.00  0.00     0.208 A 
ATOM      3  C   UNL     1      11.266   6.576  16.338  1.00  0.00     0.238 A 
ATOM      4  O   UNL     1      10.487   6.732  15.362  1.00  0.00    -0.285 OA
ATOM      5  C   UNL     1      11.921   7.675  16.943  1.00  0.00     0.111 A 
ATOM      6  C   UNL     1      11.841   9.022  16.478  1.00  0.00     0.134 A 
ATOM      7  C   UNL     1      12.424  10.049  17.231  1.00  0.00     0.093 A 
ATOM      8  C   UNL     1      13.139   9.772  18.396  1.00  0.00     0.123 A 
ATOM      9  C   UNL     1      13.275   8.452  18.827  1.00  0.00     0.094 A 
ATOM     10  C   UNL     1      12.673   7.409  18.117  1.00  0.00     0.146 A 
ATOM     11  O   UNL     1      12.818   6.169  18.568  1.00  0.00    -0.452 OA
ENDROOT
BRANCH   1  12
ATOM     12  C   UNL     1      12.530   3.776  18.572  1.00  0.00     0.021 A 
ATOM     13  C   UNL     1      13.221   2.811  17.821  1.00  0.00     0.016 A 
ATOM     14  C   UNL     1      13.457   1.538  18.349  1.00  0.00     0.047 A 
ATOM     15  C   UNL     1      12.992   1.208  19.624  1.00  0.00     0.115 A 
ATOM     16  C   UNL     1      12.046   3.431  19.848  1.00  0.00     0.016 A 
ATOM     17  C   UNL     1      12.282   2.156  20.372  1.00  0.00     0.047 A 
BRANCH  15  18
ATOM     18  O   UNL     1      13.235  -0.064  20.138  1.00  0.00    -0.508 OA
ATOM     19  H   UNL     1      13.845  -0.719  19.663  1.00  0.00     0.293 HD
ENDBRANCH  15  18
ENDBRANCH   1  12
BRANCH   2  20
ATOM     20  O   UNL     1      10.794   4.187  16.287  1.00  0.00    -0.502 OA
ATOM     21  H   UNL     1      11.284   3.475  15.758  1.00  0.00     0.293 HD
ENDBRANCH   2  20
BRANCH   6  22
ATOM     22  O   UNL     1      11.229   9.399  15.279  1.00  0.00    -0.507 OA
ATOM     23  H   UNL     1      10.619   8.808  14.735  1.00  0.00     0.293 HD
ENDBRANCH   6  22
BRANCH   8  24
ATOM     24  O   UNL     1      13.719  10.816  19.111  1.00  0.00    -0.508 OA
ATOM     25  H   UNL     1      14.338  10.643  19.895  1.00  0.00     0.293 HD
ENDBRANCH   8  24
TORSDOF 5
ENDMDL
MODEL 3
REMARK VINA RESULT:    30.140      4.650      7.508
REMARK INTER + INTRA:          35.179
REMARK INTER:                  35.431
REMARK INTRA:                  -0.252
REMARK UNBOUND:                -0.246
REMARK SMILES O=c1c(O)c(-c2ccc(O)cc2)oc2cc(O)cc(O)c12
REMARK SMILES IDX 5 1 3 2 2 3 1 4 21 5 19 6 18 7 16 8 15 9 14 10 13 11 6 12
REMARK SMILES IDX 7 13 8 14 9 15 12 16 11 17 10 18 4 20 20 22 17 24
REMARK H PARENT 10 19 4 21 20 23 17 25
REMARK Flexibility Score: inf
ROOT
ATOM      1  C   UNL     1       9.292   9.860  19.494  1.00  0.00     0.180 A 
ATOM      2  C   UNL     1       8.798   9.429  18.251  1.00  0.00     0.208 A 
ATOM      3  C   UNL     1       9.704   9.003  17.267  1.00  0.00     0.238 A 
ATOM      4  O   UNL     1       9.258   8.670  16.138  1.00  0.00    -0.285 OA
ATOM      5  C   UNL     1      11.092   8.999  17.544  1.00  0.00     0.111 A 
ATOM      6  C   UNL     1      12.098   8.550  16.636  1.00  0.00     0.134 A 
ATOM      7  C   UNL     1      13.449   8.712  16.966  1.00  0.00     0.093 A 
ATOM      8  C   UNL     1      13.831   9.246  18.197  1.00  0.00     0.123 A 
ATOM      9  C   UNL     1      12.856   9.632  19.117  1.00  0.00     0.094 A 
ATOM     10  C   UNL     1      11.499   9.517  18.801  1.00  0.00     0.146 A 
ATOM     11  O   UNL     1      10.604   9.906  19.700  1.00  0.00    -0.452 OA
ENDROOT
BRANCH   1  12
ATOM     12  C   UNL     1       8.398  10.300  20.589  1.00  0.00     0.021 A 
ATOM     13  C   UNL     1       7.720   9.340  21.358  1.00  0.00     0.016 A 
ATOM     14  C   UNL     1       6.854   9.734  22.382  1.00  0.00     0.047 A 
ATOM     15  C   UNL     1       6.641  11.091  22.640  1.00  0.00     0.115 A 
ATOM     16  C   UNL     1       8.165  11.665  20.841  1.00  0.00     0.016 A 
ATOM     17  C   UNL     1       7.296  12.056  21.865  1.00  0.00     0.047 A 
BRANCH  15  18
ATOM     18  O   UNL     1       5.776  11.469  23.664  1.00  0.00    -0.508 OA
ATOM     19  H   UNL     1       5.970  11.243  24.633  1.00  0.00     0.293 HD
ENDBRANCH  15  18
ENDBRANCH   1  12
BRANCH   2  20
ATOM     20  O   UNL     1       7.424   9.463  17.992  1.00  0.00    -0.502 OA
ATOM     21  H   UNL     1       7.036   9.919  17.175  1.00  0.00     0.293 HD
ENDBRANCH   2  20
BRANCH   6  22
ATOM     22  O   UNL     1      11.825   7.918  15.419  1.00  0.00    -0.507 OA
ATOM     23  H   UNL     1      12.497   7.387  14.884  1.00  0.00     0.293 HD
ENDBRANCH   6  22
BRANCH   8  24
ATOM     24  O   UNL     1      15.184   9.378  18.498  1.00  0.00    -0.508 OA
ATOM     25  H   UNL     1      15.743  10.128  18.108  1.00  0.00     0.293 HD
ENDBRANCH   8  24
TORSDOF 5
ENDMDL
MODEL 4
REMARK VINA RESULT:    30.737      4.600      6.854
REMARK INTER + INTRA:          35.881
REMARK INTER:                  36.016
REMARK INTRA:                  -0.135
REMARK UNBOUND:                -0.246
REMARK SMILES O=c1c(O)c(-c2ccc(O)cc2)oc2cc(O)cc(O)c12
REMARK SMILES IDX 5 1 3 2 2 3 1 4 21 5 19 6 18 7 16 8 15 9 14 10 13 11 6 12
REMARK SMILES IDX 7 13 8 14 9 15 12 16 11 17 10 18 4 20 20 22 17 24
REMARK H PARENT 10 19 4 21 20 23 17 25
REMARK Flexibility Score: inf
ROOT
ATOM      1  C   UNL     1       9.862   9.957  19.765  1.00  0.00     0.180 A 
ATOM      2  C   UNL     1      11.176  10.315  20.111  1.00  0.00     0.208 A 
ATOM      3  C   UNL     1      12.225   9.986  19.238  1.00  0.00     0.238 A 
ATOM      4  O   UNL     1      13.405  10.261  19.579  1.00  0.00    -0.285 OA
ATOM      5  C   UNL     1      11.945   9.317  18.023  1.00  0.00     0.111 A 
ATOM      6  C   UNL     1      12.925   8.970  17.044  1.00  0.00     0.134 A 
ATOM      7  C   UNL     1      12.553   8.194  15.939  1.00  0.00     0.093 A 
ATOM      8  C   UNL     1      11.227   7.808  15.743  1.00  0.00     0.123 A 
ATOM      9  C   UNL     1      10.251   8.193  16.662  1.00  0.00     0.094 A 
ATOM     10  C   UNL     1      10.597   8.936  17.794  1.00  0.00     0.146 A 
ATOM     11  O   UNL     1       9.639   9.273  18.649  1.00  0.00    -0.452 OA
ENDROOT
BRANCH   1  12
ATOM     12  C   UNL     1       8.702  10.292  20.622  1.00  0.00     0.021 A 
ATOM     13  C   UNL     1       8.366  11.639  20.838  1.00  0.00     0.016 A 
ATOM     14  C   UNL     1       7.288  11.977  21.661  1.00  0.00     0.047 A 
ATOM     15  C   UNL     1       6.543  10.977  22.291  1.00  0.00     0.115 A 
ATOM     16  C   UNL     1       7.960   9.290  21.276  1.00  0.00     0.016 A 
ATOM     17  C   UNL     1       6.884   9.632  22.100  1.00  0.00     0.047 A 
BRANCH  15  18
ATOM     18  O   UNL     1       5.471  11.329  23.109  1.00  0.00    -0.508 OA
ATOM     19  H   UNL     1       5.573  11.399  24.115  1.00  0.00     0.293 HD
ENDBRANCH  15  18
ENDBRANCH   1  12
BRANCH   2  20
ATOM     20  O   UNL     1      11.433  10.956  21.327  1.00  0.00    -0.502 OA
ATOM     21  H   UNL     1      11.098  11.890  21.531  1.00  0.00     0.293 HD
ENDBRANCH   2  20
BRANCH   6  22
ATOM     22  O   UNL     1      14.260   9.382  17.096  1.00  0.00    -0.507 OA
ATOM     23  H   UNL     1      14.906   9.333  16.322  1.00  0.00     0.293 HD
ENDBRANCH   6  22
BRANCH   8  24
ATOM     24  O   UNL     1      10.891   7.049  14.624  1.00  0.00    -0.508 OA
ATOM     25  H   UNL     1      10.769   6.045  14.682  1.00  0.00     0.293 HD
ENDBRANCH   8  24
TORSDOF 5
ENDMDL
