MODEL 1
REMARK VINA RESULT:    -3.027      0.000      0.000
REMARK INTER + INTRA:          -4.816
REMARK INTER:                  -4.620
REMARK INTRA:                  -0.196
REMARK UNBOUND:                -0.196
REMARK SMILES CC1=CCC[C@H](C)C(=O)C[C@H](C(C)C)C(=O)C1
REMARK SMILES IDX 8 1 9 2 6 3 7 4 5 5 4 6 3 7 2 8 1 9 10 11 11 12 15 13 16 14
REMARK SMILES IDX 17 15 12 17 13 18 14 19
REMARK H PARENT
REMARK Flexibility Score: 70.00
ROOT
ATOM      1  C   UNL     1      -1.574   4.220  64.981  1.00  0.00     0.136 C 
ATOM      2  O   UNL     1      -2.198   3.408  65.650  1.00  0.00    -0.299 OA
ENDROOT
BRANCH   1   3
ATOM      3  C   UNL     1      -2.369   5.121  64.045  1.00  0.00     0.053 C 
ATOM      4  C   UNL     1      -3.571   4.333  63.505  1.00  0.00     0.016 C 
BRANCH   3   5
ATOM      5  C   UNL     1      -2.866   6.475  64.622  1.00  0.00     0.015 C 
BRANCH   5   6
ATOM      6  C   UNL     1      -2.839   6.632  66.158  1.00  0.00     0.028 C 
BRANCH   6   7
ATOM      7  C   UNL     1      -2.075   7.847  66.627  1.00  0.00    -0.028 C 
ATOM      8  C   UNL     1      -0.880   7.834  67.261  1.00  0.00    -0.070 CG0
ATOM      9  C   UNL     1      -0.265   9.161  67.629  1.00  0.00     0.039 C 
ATOM     10  G   UNL     1      -0.107   6.567  67.588  1.00  0.00     0.000 G0
ENDBRANCH   6   7
ENDBRANCH   5   6
ENDBRANCH   3   5
ENDBRANCH   1   3
BRANCH   1  11
ATOM     11  C   UNL     1      -0.074   4.292  65.184  1.00  0.00     0.087 C 
BRANCH  11  12
ATOM     12  C   UNL     1       0.479   5.743  65.113  1.00  0.00     0.066 C 
BRANCH  12  13
ATOM     13  C   UNL     1       0.896   6.264  66.485  1.00  0.00     0.140 C 
ATOM     14  O   UNL     1       2.088   6.415  66.713  1.00  0.00    -0.299 OA
BRANCH  13  15
ATOM     15  C   UNL     1      -0.088   6.586  67.582  1.00  0.00     0.106 CG0
ATOM     16  G   UNL     1      -0.897   7.828  67.242  1.00  0.00     0.000 G0
ENDBRANCH  13  15
ENDBRANCH  12  13
BRANCH  12  17
ATOM     17  C   UNL     1       1.610   5.899  64.047  1.00  0.00    -0.006 C 
ATOM     18  C   UNL     1       2.071   4.537  63.498  1.00  0.00     0.008 C 
ATOM     19  C   UNL     1       1.156   6.782  62.871  1.00  0.00     0.008 C 
ENDBRANCH  12  17
ENDBRANCH  11  12
ENDBRANCH   1  11
TORSDOF 1
ENDMDL
MODEL 2
REMARK VINA RESULT:    -2.965     12.109     15.264
REMARK INTER + INTRA:          -4.720
REMARK INTER:                  -4.515
REMARK INTRA:                  -0.206
REMARK UNBOUND:                -0.196
REMARK SMILES CC1=CCC[C@H](C)C(=O)C[C@H](C(C)C)C(=O)C1
REMARK SMILES IDX 8 1 9 2 6 3 7 4 5 5 4 6 3 7 2 8 1 9 10 11 11 12 15 13 16 14
REMARK SMILES IDX 17 15 12 17 13 18 14 19
REMARK H PARENT
REMARK Flexibility Score: 70.00
ROOT
ATOM      1  C   UNL     1       4.327  18.517  75.095  1.00  0.00     0.136 C 
ATOM      2  O   UNL     1       4.232  18.882  76.259  1.00  0.00    -0.299 OA
ENDROOT
BRANCH   1   3
ATOM      3  C   UNL     1       5.370  19.206  74.224  1.00  0.00     0.053 C 
ATOM      4  C   UNL     1       6.073  20.286  75.057  1.00  0.00     0.016 C 
BRANCH   3   5
ATOM      5  C   UNL     1       6.440  18.300  73.556  1.00  0.00     0.015 C 
BRANCH   5   6
ATOM      6  C   UNL     1       6.432  18.230  72.013  1.00  0.00     0.028 C 
BRANCH   6   7
ATOM      7  C   UNL     1       6.395  16.820  71.474  1.00  0.00    -0.028 C 
ATOM      8  C   UNL     1       5.293  16.171  71.031  1.00  0.00    -0.070 CG0
ATOM      9  C   UNL     1       5.467  14.769  70.505  1.00  0.00     0.039 C 
ATOM     10  G   UNL     1       3.903  16.784  70.998  1.00  0.00     0.000 G0
ENDBRANCH   6   7
ENDBRANCH   5   6
ENDBRANCH   3   5
ENDBRANCH   1   3
BRANCH   1  11
ATOM     11  C   UNL     1       3.436  17.378  74.642  1.00  0.00     0.087 C 
BRANCH  11  12
ATOM     12  C   UNL     1       2.786  17.632  73.253  1.00  0.00     0.066 C 
BRANCH  12  13
ATOM     13  C   UNL     1       3.120  16.528  72.256  1.00  0.00     0.140 C 
ATOM     14  O   UNL     1       2.763  15.386  72.510  1.00  0.00    -0.299 OA
BRANCH  13  15
ATOM     15  C   UNL     1       3.883  16.769  70.977  1.00  0.00     0.106 CG0
ATOM     16  G   UNL     1       5.281  16.179  71.056  1.00  0.00     0.000 G0
ENDBRANCH  13  15
ENDBRANCH  12  13
BRANCH  12  17
ATOM     17  C   UNL     1       1.251  17.903  73.352  1.00  0.00    -0.006 C 
ATOM     18  C   UNL     1       0.644  17.290  74.627  1.00  0.00     0.008 C 
ATOM     19  C   UNL     1       0.943  19.411  73.328  1.00  0.00     0.008 C 
ENDBRANCH  12  17
ENDBRANCH  11  12
ENDBRANCH   1  11
TORSDOF 1
ENDMDL
MODEL 3
REMARK VINA RESULT:    -2.952      1.942      3.231
REMARK INTER + INTRA:          -4.700
REMARK INTER:                  -4.417
REMARK INTRA:                  -0.283
REMARK UNBOUND:                -0.196
REMARK SMILES CC1=CCC[C@H](C)C(=O)C[C@H](C(C)C)C(=O)C1
REMARK SMILES IDX 8 1 9 2 6 3 7 4 5 5 4 6 3 7 2 8 1 9 10 11 11 12 15 13 16 14
REMARK SMILES IDX 17 15 12 17 13 18 14 19
REMARK H PARENT
REMARK Flexibility Score: 70.00
ROOT
ATOM      1  C   UNL     1       0.443   4.933  65.003  1.00  0.00     0.136 C 
ATOM      2  O   UNL     1       1.246   4.016  64.908  1.00  0.00    -0.299 OA
ENDROOT
BRANCH   1   3
ATOM      3  C   UNL     1      -0.300   5.353  63.741  1.00  0.00     0.053 C 
ATOM      4  C   UNL     1       0.627   5.153  62.534  1.00  0.00     0.016 C 
BRANCH   3   5
ATOM      5  C   UNL     1      -1.661   4.660  63.459  1.00  0.00     0.015 C 
BRANCH   5   6
ATOM      6  C   UNL     1      -2.674   4.610  64.623  1.00  0.00     0.028 C 
BRANCH   6   7
ATOM      7  C   UNL     1      -3.499   5.868  64.760  1.00  0.00    -0.028 C 
ATOM      8  C   UNL     1      -3.428   6.752  65.782  1.00  0.00    -0.070 CG0
ATOM      9  C   UNL     1      -4.322   7.966  65.724  1.00  0.00     0.039 C 
ATOM     10  G   UNL     1      -2.478   6.615  66.960  1.00  0.00     0.000 G0
ENDBRANCH   6   7
ENDBRANCH   5   6
ENDBRANCH   3   5
ENDBRANCH   1   3
BRANCH   1  11
ATOM     11  C   UNL     1       0.221   5.531  66.378  1.00  0.00     0.087 C 
BRANCH  11  12
ATOM     12  C   UNL     1       0.071   7.078  66.348  1.00  0.00     0.066 C 
BRANCH  12  13
ATOM     13  C   UNL     1      -1.287   7.531  66.876  1.00  0.00     0.140 C 
ATOM     14  O   UNL     1      -1.414   8.692  67.240  1.00  0.00    -0.299 OA
BRANCH  13  15
ATOM     15  C   UNL     1      -2.480   6.613  66.987  1.00  0.00     0.106 CG0
ATOM     16  G   UNL     1      -3.399   6.765  65.786  1.00  0.00     0.000 G0
ENDBRANCH  13  15
ENDBRANCH  12  13
BRANCH  12  17
ATOM     17  C   UNL     1       1.258   7.807  67.055  1.00  0.00    -0.006 C 
ATOM     18  C   UNL     1       2.093   6.840  67.914  1.00  0.00     0.008 C 
ATOM     19  C   UNL     1       2.184   8.493  66.035  1.00  0.00     0.008 C 
ENDBRANCH  12  17
ENDBRANCH  11  12
ENDBRANCH   1  11
TORSDOF 1
ENDMDL
MODEL 4
REMARK VINA RESULT:    -2.915     13.339     15.877
REMARK INTER + INTRA:          -4.644
REMARK INTER:                  -4.402
REMARK INTRA:                  -0.243
REMARK UNBOUND:                -0.196
REMARK SMILES CC1=CCC[C@H](C)C(=O)C[C@H](C(C)C)C(=O)C1
REMARK SMILES IDX 8 1 9 2 6 3 7 4 5 5 4 6 3 7 2 8 1 9 10 11 11 12 15 13 16 14
REMARK SMILES IDX 17 15 12 17 13 18 14 19
REMARK H PARENT
REMARK Flexibility Score: 70.00
ROOT
ATOM      1  C   UNL     1       0.858  19.647  73.257  1.00  0.00     0.136 C 
ATOM      2  O   UNL     1      -0.261  20.120  73.401  1.00  0.00    -0.299 OA
ENDROOT
BRANCH   1   3
ATOM      3  C   UNL     1       1.549  19.869  71.918  1.00  0.00     0.053 C 
ATOM      4  C   UNL     1       0.512  20.373  70.904  1.00  0.00     0.016 C 
BRANCH   3   5
ATOM      5  C   UNL     1       2.777  20.820  71.907  1.00  0.00     0.015 C 
BRANCH   5   6
ATOM      6  C   UNL     1       4.167  20.166  71.757  1.00  0.00     0.028 C 
BRANCH   6   7
ATOM      7  C   UNL     1       5.119  20.506  72.879  1.00  0.00    -0.028 C 
ATOM      8  C   UNL     1       5.537  19.657  73.847  1.00  0.00    -0.070 CG0
ATOM      9  C   UNL     1       6.512  20.182  74.870  1.00  0.00     0.039 C 
ATOM     10  G   UNL     1       5.112  18.200  73.938  1.00  0.00     0.000 G0
ENDBRANCH   6   7
ENDBRANCH   5   6
ENDBRANCH   3   5
ENDBRANCH   1   3
BRANCH   1  11
ATOM     11  C   UNL     1       1.474  18.930  74.441  1.00  0.00     0.087 C 
BRANCH  11  12
ATOM     12  C   UNL     1       2.487  17.828  74.023  1.00  0.00     0.066 C 
BRANCH  12  13
ATOM     13  C   UNL     1       3.840  18.007  74.703  1.00  0.00     0.140 C 
ATOM     14  O   UNL     1       3.881  18.023  75.926  1.00  0.00    -0.299 OA
BRANCH  13  15
ATOM     15  C   UNL     1       5.132  18.183  73.944  1.00  0.00     0.106 CG0
ATOM     16  G   UNL     1       5.520  19.651  73.859  1.00  0.00     0.000 G0
ENDBRANCH  13  15
ENDBRANCH  12  13
BRANCH  12  17
ATOM     17  C   UNL     1       1.913  16.388  74.208  1.00  0.00    -0.006 C 
ATOM     18  C   UNL     1       0.475  16.412  74.759  1.00  0.00     0.008 C 
ATOM     19  C   UNL     1       1.925  15.602  72.884  1.00  0.00     0.008 C 
ENDBRANCH  12  17
ENDBRANCH  11  12
ENDBRANCH   1  11
TORSDOF 1
ENDMDL
MODEL 5
REMARK VINA RESULT:    -2.914     12.589     15.092
REMARK INTER + INTRA:          -4.643
REMARK INTER:                  -4.314
REMARK INTRA:                  -0.329
REMARK UNBOUND:                -0.196
REMARK SMILES CC1=CCC[C@H](C)C(=O)C[C@H](C(C)C)C(=O)C1
REMARK SMILES IDX 8 1 9 2 6 3 7 4 5 5 4 6 3 7 2 8 1 9 10 11 11 12 15 13 16 14
REMARK SMILES IDX 17 15 12 17 13 18 14 19
REMARK H PARENT
REMARK Flexibility Score: 70.00
ROOT
ATOM      1  C   UNL     1       5.146  19.682  72.980  1.00  0.00     0.136 C 
ATOM      2  O   UNL     1       5.271  20.855  72.657  1.00  0.00    -0.299 OA
ENDROOT
BRANCH   1   3
ATOM      3  C   UNL     1       5.464  19.312  74.423  1.00  0.00     0.053 C 
ATOM      4  C   UNL     1       6.156  20.504  75.098  1.00  0.00     0.016 C 
BRANCH   3   5
ATOM      5  C   UNL     1       4.277  18.843  75.309  1.00  0.00     0.015 C 
BRANCH   5   6
ATOM      6  C   UNL     1       3.993  17.326  75.352  1.00  0.00     0.028 C 
BRANCH   6   7
ATOM      7  C   UNL     1       2.714  16.931  74.653  1.00  0.00    -0.028 C 
ATOM      8  C   UNL     1       2.616  16.082  73.604  1.00  0.00    -0.070 CG0
ATOM      9  C   UNL     1       1.241  15.794  73.058  1.00  0.00     0.039 C 
ATOM     10  G   UNL     1       3.803  15.375  72.971  1.00  0.00     0.000 G0
ENDBRANCH   6   7
ENDBRANCH   5   6
ENDBRANCH   3   5
ENDBRANCH   1   3
BRANCH   1  11
ATOM     11  C   UNL     1       4.636  18.715  71.930  1.00  0.00     0.087 C 
BRANCH  11  12
ATOM     12  C   UNL     1       5.333  17.328  71.995  1.00  0.00     0.066 C 
BRANCH  12  13
ATOM     13  C   UNL     1       4.344  16.182  71.803  1.00  0.00     0.140 C 
ATOM     14  O   UNL     1       3.965  15.922  70.670  1.00  0.00    -0.299 OA
BRANCH  13  15
ATOM     15  C   UNL     1       3.796  15.362  72.945  1.00  0.00     0.106 CG0
ATOM     16  G   UNL     1       2.634  16.072  73.619  1.00  0.00     0.000 G0
ENDBRANCH  13  15
ENDBRANCH  12  13
BRANCH  12  17
ATOM     17  C   UNL     1       6.555  17.227  71.028  1.00  0.00    -0.006 C 
ATOM     18  C   UNL     1       6.425  18.197  69.839  1.00  0.00     0.008 C 
ATOM     19  C   UNL     1       7.878  17.514  71.761  1.00  0.00     0.008 C 
ENDBRANCH  12  17
ENDBRANCH  11  12
ENDBRANCH   1  11
TORSDOF 1
ENDMDL
MODEL 6
REMARK VINA RESULT:    -2.892     12.436     14.887
REMARK INTER + INTRA:          -4.609
REMARK INTER:                  -4.806
REMARK INTRA:                   0.197
REMARK UNBOUND:                -0.196
REMARK SMILES CC1=CCC[C@H](C)C(=O)C[C@H](C(C)C)C(=O)C1
REMARK SMILES IDX 8 1 9 2 6 3 7 4 5 5 4 6 3 7 2 8 1 9 10 11 11 12 15 13 16 14
REMARK SMILES IDX 17 15 12 17 13 18 14 19
REMARK H PARENT
REMARK Flexibility Score: 70.00
ROOT
ATOM      1  C   UNL     1       5.576  16.779  72.235  1.00  0.00     0.136 C 
ATOM      2  O   UNL     1       6.431  17.144  71.440  1.00  0.00    -0.299 OA
ENDROOT
BRANCH   1   3
ATOM      3  C   UNL     1       4.605  15.698  71.777  1.00  0.00     0.053 C 
ATOM      4  C   UNL     1       5.381  14.645  70.974  1.00  0.00     0.016 C 
BRANCH   3   5
ATOM      5  C   UNL     1       3.772  14.986  72.878  1.00  0.00     0.015 C 
BRANCH   5   6
ATOM      6  C   UNL     1       2.237  15.136  72.799  1.00  0.00     0.028 C 
BRANCH   6   7
ATOM      7  C   UNL     1       1.783  16.539  72.476  1.00  0.00    -0.028 C 
ATOM      8  C   UNL     1       1.805  17.593  73.325  1.00  0.00    -0.070 CG0
ATOM      9  C   UNL     1       1.330  18.925  72.804  1.00  0.00     0.039 C 
ATOM     10  G   UNL     1       2.316  17.520  74.755  1.00  0.00     0.000 G0
ENDBRANCH   6   7
ENDBRANCH   5   6
ENDBRANCH   3   5
ENDBRANCH   1   3
BRANCH   1  11
ATOM     11  C   UNL     1       5.594  17.397  73.618  1.00  0.00     0.087 C 
BRANCH  11  12
ATOM     12  C   UNL     1       4.569  18.555  73.778  1.00  0.00     0.066 C 
BRANCH  12  13
ATOM     13  C   UNL     1       3.595  18.302  74.924  1.00  0.00     0.140 C 
ATOM     14  O   UNL     1       3.884  18.717  76.038  1.00  0.00    -0.299 OA
BRANCH  13  15
ATOM     15  C   UNL     1       2.298  17.549  74.758  1.00  0.00     0.106 CG0
ATOM     16  G   UNL     1       1.823  17.594  73.315  1.00  0.00     0.000 G0
ENDBRANCH  13  15
ENDBRANCH  12  13
BRANCH  12  17
ATOM     17  C   UNL     1       5.258  19.953  73.880  1.00  0.00    -0.006 C 
ATOM     18  C   UNL     1       6.711  19.839  74.378  1.00  0.00     0.008 C 
ATOM     19  C   UNL     1       5.252  20.683  72.524  1.00  0.00     0.008 C 
ENDBRANCH  12  17
ENDBRANCH  11  12
ENDBRANCH   1  11
TORSDOF 1
ENDMDL
MODEL 7
REMARK VINA RESULT:    -2.839     13.826     15.674
REMARK INTER + INTRA:          -4.529
REMARK INTER:                  -4.051
REMARK INTRA:                  -0.478
REMARK UNBOUND:                -0.196
REMARK SMILES CC1=CCC[C@H](C)C(=O)C[C@H](C(C)C)C(=O)C1
REMARK SMILES IDX 8 1 9 2 6 3 7 4 5 5 4 6 3 7 2 8 1 9 10 11 11 12 15 13 16 14
REMARK SMILES IDX 17 15 12 17 13 18 14 19
REMARK H PARENT
REMARK Flexibility Score: 70.00
ROOT
ATOM      1  C   UNL     1       2.587  19.548  71.335  1.00  0.00     0.136 C 
ATOM      2  O   UNL     1       2.090  19.262  70.255  1.00  0.00    -0.299 OA
ENDROOT
BRANCH   1   3
ATOM      3  C   UNL     1       1.847  20.556  72.206  1.00  0.00     0.053 C 
ATOM      4  C   UNL     1       1.663  21.855  71.410  1.00  0.00     0.016 C 
BRANCH   3   5
ATOM      5  C   UNL     1       0.475  20.114  72.785  1.00  0.00     0.015 C 
BRANCH   5   6
ATOM      6  C   UNL     1       0.485  19.452  74.180  1.00  0.00     0.028 C 
BRANCH   6   7
ATOM      7  C   UNL     1       0.668  17.954  74.136  1.00  0.00    -0.028 C 
ATOM      8  C   UNL     1       1.770  17.280  74.538  1.00  0.00    -0.070 CG0
ATOM      9  C   UNL     1       1.749  15.775  74.436  1.00  0.00     0.039 C 
ATOM     10  G   UNL     1       3.007  17.944  75.119  1.00  0.00     0.000 G0
ENDBRANCH   6   7
ENDBRANCH   5   6
ENDBRANCH   3   5
ENDBRANCH   1   3
BRANCH   1  11
ATOM     11  C   UNL     1       3.865  18.836  71.731  1.00  0.00     0.087 C 
BRANCH  11  12
ATOM     12  C   UNL     1       4.335  19.188  73.170  1.00  0.00     0.066 C 
BRANCH  12  13
ATOM     13  C   UNL     1       4.151  18.020  74.134  1.00  0.00     0.140 C 
ATOM     14  O   UNL     1       4.949  17.094  74.086  1.00  0.00    -0.299 OA
BRANCH  13  15
ATOM     15  C   UNL     1       3.024  17.940  75.133  1.00  0.00     0.106 CG0
ATOM     16  G   UNL     1       1.798  17.282  74.522  1.00  0.00     0.000 G0
ENDBRANCH  13  15
ENDBRANCH  12  13
BRANCH  12  17
ATOM     17  C   UNL     1       5.786  19.764  73.201  1.00  0.00    -0.006 C 
ATOM     18  C   UNL     1       5.985  20.868  72.146  1.00  0.00     0.008 C 
ATOM     19  C   UNL     1       6.137  20.332  74.588  1.00  0.00     0.008 C 
ENDBRANCH  12  17
ENDBRANCH  11  12
ENDBRANCH   1  11
TORSDOF 1
ENDMDL
MODEL 8
REMARK VINA RESULT:    -2.750     10.352     13.109
REMARK INTER + INTRA:          -4.393
REMARK INTER:                  -4.282
REMARK INTRA:                  -0.111
REMARK UNBOUND:                -0.196
REMARK SMILES CC1=CCC[C@H](C)C(=O)C[C@H](C(C)C)C(=O)C1
REMARK SMILES IDX 8 1 9 2 6 3 7 4 5 5 4 6 3 7 2 8 1 9 10 11 11 12 15 13 16 14
REMARK SMILES IDX 17 15 12 17 13 18 14 19
REMARK H PARENT
REMARK Flexibility Score: 70.00
ROOT
ATOM      1  C   UNL     1       2.627  15.474  70.773  1.00  0.00     0.136 C 
ATOM      2  O   UNL     1       2.556  15.547  69.554  1.00  0.00    -0.299 OA
ENDROOT
BRANCH   1   3
ATOM      3  C   UNL     1       3.941  14.988  71.373  1.00  0.00     0.053 C 
ATOM      4  C   UNL     1       4.681  14.146  70.324  1.00  0.00     0.016 C 
BRANCH   3   5
ATOM      5  C   UNL     1       4.905  16.070  71.931  1.00  0.00     0.015 C 
BRANCH   5   6
ATOM      6  C   UNL     1       4.849  16.341  73.450  1.00  0.00     0.028 C 
BRANCH   6   7
ATOM      7  C   UNL     1       4.097  17.600  73.811  1.00  0.00    -0.028 C 
ATOM      8  C   UNL     1       2.929  17.656  74.493  1.00  0.00    -0.070 CG0
ATOM      9  C   UNL     1       2.346  19.016  74.778  1.00  0.00     0.039 C 
ATOM     10  G   UNL     1       2.195  16.434  75.019  1.00  0.00     0.000 G0
ENDBRANCH   6   7
ENDBRANCH   5   6
ENDBRANCH   3   5
ENDBRANCH   1   3
BRANCH   1  11
ATOM     11  C   UNL     1       1.423  15.924  71.575  1.00  0.00     0.087 C 
BRANCH  11  12
ATOM     12  C   UNL     1       1.248  15.132  72.901  1.00  0.00     0.066 C 
BRANCH  12  13
ATOM     13  C   UNL     1       1.058  16.058  74.098  1.00  0.00     0.140 C 
ATOM     14  O   UNL     1      -0.055  16.522  74.306  1.00  0.00    -0.299 OA
BRANCH  13  15
ATOM     15  C   UNL     1       2.178  16.445  75.032  1.00  0.00     0.106 CG0
ATOM     16  G   UNL     1       2.942  17.647  74.500  1.00  0.00     0.000 G0
ENDBRANCH  13  15
ENDBRANCH  12  13
BRANCH  12  17
ATOM     17  C   UNL     1       0.131  14.045  72.805  1.00  0.00    -0.006 C 
ATOM     18  C   UNL     1       0.462  12.978  71.745  1.00  0.00     0.008 C 
ATOM     19  C   UNL     1      -0.096  13.350  74.159  1.00  0.00     0.008 C 
ENDBRANCH  12  17
ENDBRANCH  11  12
ENDBRANCH   1  11
TORSDOF 1
ENDMDL
MODEL 9
REMARK VINA RESULT:    -2.570     11.232     13.489
REMARK INTER + INTRA:          -4.118
REMARK INTER:                  -4.169
REMARK INTRA:                   0.051
REMARK UNBOUND:                -0.196
REMARK SMILES CC1=CCC[C@H](C)C(=O)C[C@H](C(C)C)C(=O)C1
REMARK SMILES IDX 8 1 9 2 6 3 7 4 5 5 4 6 3 7 2 8 1 9 10 11 11 12 15 13 16 14
REMARK SMILES IDX 17 15 12 17 13 18 14 19
REMARK H PARENT
REMARK Flexibility Score: 70.00
ROOT
ATOM      1  C   UNL     1       4.593  15.894  71.816  1.00  0.00     0.136 C 
ATOM      2  O   UNL     1       5.700  16.116  71.346  1.00  0.00    -0.299 OA
ENDROOT
BRANCH   1   3
ATOM      3  C   UNL     1       3.566  15.225  70.910  1.00  0.00     0.053 C 
ATOM      4  C   UNL     1       4.302  14.316  69.917  1.00  0.00     0.016 C 
BRANCH   3   5
ATOM      5  C   UNL     1       2.437  14.414  71.604  1.00  0.00     0.015 C 
BRANCH   5   6
ATOM      6  C   UNL     1       1.035  15.059  71.641  1.00  0.00     0.028 C 
BRANCH   6   7
ATOM      7  C   UNL     1       0.234  14.692  72.867  1.00  0.00    -0.028 C 
ATOM      8  C   UNL     1       0.069  15.465  73.965  1.00  0.00    -0.070 CG0
ATOM      9  C   UNL     1      -0.792  14.928  75.080  1.00  0.00     0.039 C 
ATOM     10  G   UNL     1       0.666  16.854  74.123  1.00  0.00     0.000 G0
ENDBRANCH   6   7
ENDBRANCH   5   6
ENDBRANCH   3   5
ENDBRANCH   1   3
BRANCH   1  11
ATOM     11  C   UNL     1       4.360  16.257  73.268  1.00  0.00     0.087 C 
BRANCH  11  12
ATOM     12  C   UNL     1       3.215  17.290  73.459  1.00  0.00     0.066 C 
BRANCH  12  13
ATOM     13  C   UNL     1       2.144  16.786  74.421  1.00  0.00     0.140 C 
ATOM     14  O   UNL     1       2.500  16.282  75.478  1.00  0.00    -0.299 OA
BRANCH  13  15
ATOM     15  C   UNL     1       0.666  16.861  74.128  1.00  0.00     0.106 CG0
ATOM     16  G   UNL     1       0.073  15.472  73.953  1.00  0.00     0.000 G0
ENDBRANCH  13  15
ENDBRANCH  12  13
BRANCH  12  17
ATOM     17  C   UNL     1       3.747  18.706  73.849  1.00  0.00    -0.006 C 
ATOM     18  C   UNL     1       5.138  18.633  74.505  1.00  0.00     0.008 C 
ATOM     19  C   UNL     1       3.822  19.636  72.625  1.00  0.00     0.008 C 
ENDBRANCH  12  17
ENDBRANCH  11  12
ENDBRANCH   1  11
TORSDOF 1
ENDMDL
