MODEL 1
REMARK VINA RESULT:    -5.588      0.000      0.000
REMARK INTER + INTRA:          -9.560
REMARK INTER:                  -8.528
REMARK INTRA:                  -1.033
REMARK UNBOUND:                -1.033
REMARK SMILES CCCCCCCCCCC(=O)[O-]
REMARK SMILES IDX 7 1 8 2 9 3 10 4 11 5 12 6 13 7 6 8 5 9 4 10 3 11 2 12 1 13
REMARK H PARENT
REMARK Flexibility Score: inf
ROOT
ATOM      1  C   UNL     1     -22.842  36.641   5.902  1.00  0.00     0.000 C 
ENDROOT
BRANCH   1   2
ATOM      2  C   UNL     1     -22.510  38.137   5.749  1.00  0.00     0.000 C 
BRANCH   2   3
ATOM      3  C   UNL     1     -21.219  38.374   4.949  1.00  0.00     0.006 C 
BRANCH   3   4
ATOM      4  C   UNL     1     -20.406  39.562   5.481  1.00  0.00     0.053 C 
BRANCH   4   5
ATOM      5  C   UNL     1     -20.605  40.761   4.609  1.00  0.00     0.041 C 
ATOM      6  O   UNL     1     -19.812  41.737   4.683  1.00  0.00    -0.550 OA
ATOM      7  O   UNL     1     -21.637  40.782   3.679  1.00  0.00    -0.550 OA
ENDBRANCH   4   5
ENDBRANCH   3   4
ENDBRANCH   2   3
ENDBRANCH   1   2
BRANCH   1   8
ATOM      8  C   UNL     1     -23.412  36.299   7.288  1.00  0.00     0.000 C 
BRANCH   8   9
ATOM      9  C   UNL     1     -23.314  37.478   8.273  1.00  0.00    -0.000 C 
BRANCH   9  10
ATOM     10  C   UNL     1     -22.139  37.339   9.258  1.00  0.00    -0.000 C 
BRANCH  10  11
ATOM     11  C   UNL     1     -21.339  36.025   9.146  1.00  0.00    -0.000 C 
BRANCH  11  12
ATOM     12  C   UNL     1     -19.824  36.200   8.946  1.00  0.00    -0.003 C 
ATOM     13  C   UNL     1     -19.416  36.217   7.474  1.00  0.00     0.004 C 
ENDBRANCH  11  12
ENDBRANCH  10  11
ENDBRANCH   9  10
ENDBRANCH   8   9
ENDBRANCH   1   8
TORSDOF 9
ENDMDL
MODEL 2
REMARK VINA RESULT:    -5.496      0.753      1.467
REMARK INTER + INTRA:          -9.421
REMARK INTER:                  -8.497
REMARK INTRA:                  -0.924
REMARK UNBOUND:                -1.033
REMARK SMILES CCCCCCCCCCC(=O)[O-]
REMARK SMILES IDX 7 1 8 2 9 3 10 4 11 5 12 6 13 7 6 8 5 9 4 10 3 11 2 12 1 13
REMARK H PARENT
REMARK Flexibility Score: inf
ROOT
ATOM      1  C   UNL     1     -22.318  38.900   6.902  1.00  0.00     0.000 C 
ENDROOT
BRANCH   1   2
ATOM      2  C   UNL     1     -22.380  38.235   5.514  1.00  0.00     0.000 C 
BRANCH   2   3
ATOM      3  C   UNL     1     -21.248  38.705   4.585  1.00  0.00     0.006 C 
BRANCH   3   4
ATOM      4  C   UNL     1     -20.389  39.809   5.215  1.00  0.00     0.053 C 
BRANCH   4   5
ATOM      5  C   UNL     1     -20.465  41.059   4.398  1.00  0.00     0.041 C 
ATOM      6  O   UNL     1     -21.327  41.169   3.486  1.00  0.00    -0.550 OA
ATOM      7  O   UNL     1     -19.618  42.124   4.675  1.00  0.00    -0.550 OA
ENDBRANCH   4   5
ENDBRANCH   3   4
ENDBRANCH   2   3
ENDBRANCH   1   2
BRANCH   1   8
ATOM      8  C   UNL     1     -23.024  38.072   7.987  1.00  0.00     0.000 C 
BRANCH   8   9
ATOM      9  C   UNL     1     -23.335  36.637   7.526  1.00  0.00    -0.000 C 
BRANCH   9  10
ATOM     10  C   UNL     1     -22.175  35.660   7.790  1.00  0.00    -0.000 C 
BRANCH  10  11
ATOM     11  C   UNL     1     -21.426  35.873   9.120  1.00  0.00    -0.000 C 
BRANCH  11  12
ATOM     12  C   UNL     1     -19.934  36.223   8.979  1.00  0.00    -0.003 C 
ATOM     13  C   UNL     1     -19.460  36.233   7.527  1.00  0.00     0.004 C 
ENDBRANCH  11  12
ENDBRANCH  10  11
ENDBRANCH   9  10
ENDBRANCH   8   9
ENDBRANCH   1   8
TORSDOF 9
ENDMDL
MODEL 3
REMARK VINA RESULT:    -5.331      0.805      2.410
REMARK INTER + INTRA:          -9.168
REMARK INTER:                  -7.982
REMARK INTRA:                  -1.186
REMARK UNBOUND:                -1.033
REMARK SMILES CCCCCCCCCCC(=O)[O-]
REMARK SMILES IDX 7 1 8 2 9 3 10 4 11 5 12 6 13 7 6 8 5 9 4 10 3 11 2 12 1 13
REMARK H PARENT
REMARK Flexibility Score: inf
ROOT
ATOM      1  C   UNL     1     -20.250  37.440   6.089  1.00  0.00     0.000 C 
ENDROOT
BRANCH   1   2
ATOM      2  C   UNL     1     -21.505  37.671   5.226  1.00  0.00     0.000 C 
BRANCH   2   3
ATOM      3  C   UNL     1     -22.190  39.013   5.530  1.00  0.00     0.006 C 
BRANCH   3   4
ATOM      4  C   UNL     1     -21.189  40.114   5.902  1.00  0.00     0.053 C 
BRANCH   4   5
ATOM      5  C   UNL     1     -20.833  40.925   4.696  1.00  0.00     0.041 C 
ATOM      6  O   UNL     1     -19.786  41.625   4.689  1.00  0.00    -0.550 OA
ATOM      7  O   UNL     1     -21.631  40.869   3.561  1.00  0.00    -0.550 OA
ENDBRANCH   4   5
ENDBRANCH   3   4
ENDBRANCH   2   3
ENDBRANCH   1   2
BRANCH   1   8
ATOM      8  C   UNL     1     -20.235  36.054   6.754  1.00  0.00     0.000 C 
BRANCH   8   9
ATOM      9  C   UNL     1     -20.169  36.138   8.289  1.00  0.00    -0.000 C 
BRANCH   9  10
ATOM     10  C   UNL     1     -21.552  36.013   8.954  1.00  0.00    -0.000 C 
BRANCH  10  11
ATOM     11  C   UNL     1     -22.295  37.344   9.182  1.00  0.00    -0.000 C 
BRANCH  11  12
ATOM     12  C   UNL     1     -23.657  37.459   8.476  1.00  0.00    -0.003 C 
ATOM     13  C   UNL     1     -23.910  36.325   7.483  1.00  0.00     0.004 C 
ENDBRANCH  11  12
ENDBRANCH  10  11
ENDBRANCH   9  10
ENDBRANCH   8   9
ENDBRANCH   1   8
TORSDOF 9
ENDMDL
MODEL 4
REMARK VINA RESULT:    -5.327      2.621      4.954
REMARK INTER + INTRA:          -9.162
REMARK INTER:                  -8.390
REMARK INTRA:                  -0.772
REMARK UNBOUND:                -1.033
REMARK SMILES CCCCCCCCCCC(=O)[O-]
REMARK SMILES IDX 7 1 8 2 9 3 10 4 11 5 12 6 13 7 6 8 5 9 4 10 3 11 2 12 1 13
REMARK H PARENT
REMARK Flexibility Score: inf
ROOT
ATOM      1  C   UNL     1     -23.434  37.859   7.812  1.00  0.00     0.000 C 
ENDROOT
BRANCH   1   2
ATOM      2  C   UNL     1     -23.339  36.409   7.301  1.00  0.00     0.000 C 
BRANCH   2   3
ATOM      3  C   UNL     1     -22.142  35.651   7.898  1.00  0.00     0.006 C 
BRANCH   3   4
ATOM      4  C   UNL     1     -20.958  35.562   6.926  1.00  0.00     0.053 C 
BRANCH   4   5
ATOM      5  C   UNL     1     -19.746  36.205   7.521  1.00  0.00     0.041 C 
ATOM      6  O   UNL     1     -19.519  36.110   8.756  1.00  0.00    -0.550 OA
ATOM      7  O   UNL     1     -18.839  36.868   6.703  1.00  0.00    -0.550 OA
ENDBRANCH   4   5
ENDBRANCH   3   4
ENDBRANCH   2   3
ENDBRANCH   1   2
BRANCH   1   8
ATOM      8  C   UNL     1     -22.492  38.814   7.063  1.00  0.00     0.000 C 
BRANCH   8   9
ATOM      9  C   UNL     1     -22.520  38.596   5.539  1.00  0.00    -0.000 C 
BRANCH   9  10
ATOM     10  C   UNL     1     -21.120  38.645   4.902  1.00  0.00    -0.000 C 
BRANCH  10  11
ATOM     11  C   UNL     1     -20.300  39.913   5.214  1.00  0.00    -0.000 C 
BRANCH  11  12
ATOM     12  C   UNL     1     -20.575  41.111   4.289  1.00  0.00    -0.003 C 
ATOM     13  C   UNL     1     -19.457  42.152   4.316  1.00  0.00     0.004 C 
ENDBRANCH  11  12
ENDBRANCH  10  11
ENDBRANCH   9  10
ENDBRANCH   8   9
ENDBRANCH   1   8
TORSDOF 9
ENDMDL
MODEL 5
REMARK VINA RESULT:    -5.276      0.941      2.163
REMARK INTER + INTRA:          -9.085
REMARK INTER:                  -8.089
REMARK INTRA:                  -0.996
REMARK UNBOUND:                -1.033
REMARK SMILES CCCCCCCCCCC(=O)[O-]
REMARK SMILES IDX 7 1 8 2 9 3 10 4 11 5 12 6 13 7 6 8 5 9 4 10 3 11 2 12 1 13
REMARK H PARENT
REMARK Flexibility Score: inf
ROOT
ATOM      1  C   UNL     1     -22.234  37.569   5.516  1.00  0.00     0.000 C 
ENDROOT
BRANCH   1   2
ATOM      2  C   UNL     1     -22.735  38.633   6.510  1.00  0.00     0.000 C 
BRANCH   2   3
ATOM      3  C   UNL     1     -21.972  39.961   6.386  1.00  0.00     0.006 C 
BRANCH   3   4
ATOM      4  C   UNL     1     -20.669  39.820   5.588  1.00  0.00     0.053 C 
BRANCH   4   5
ATOM      5  C   UNL     1     -20.616  40.837   4.493  1.00  0.00     0.041 C 
ATOM      6  O   UNL     1     -21.553  40.916   3.655  1.00  0.00    -0.550 OA
ATOM      7  O   UNL     1     -19.555  41.732   4.426  1.00  0.00    -0.550 OA
ENDBRANCH   4   5
ENDBRANCH   3   4
ENDBRANCH   2   3
ENDBRANCH   1   2
BRANCH   1   8
ATOM      8  C   UNL     1     -22.476  36.134   6.011  1.00  0.00     0.000 C 
BRANCH   8   9
ATOM      9  C   UNL     1     -21.166  35.386   6.313  1.00  0.00    -0.000 C 
BRANCH   9  10
ATOM     10  C   UNL     1     -20.065  36.307   6.869  1.00  0.00    -0.000 C 
BRANCH  10  11
ATOM     11  C   UNL     1     -19.843  36.221   8.393  1.00  0.00    -0.000 C 
BRANCH  11  12
ATOM     12  C   UNL     1     -21.091  35.849   9.212  1.00  0.00    -0.003 C 
ATOM     13  C   UNL     1     -21.914  37.067   9.630  1.00  0.00     0.004 C 
ENDBRANCH  11  12
ENDBRANCH  10  11
ENDBRANCH   9  10
ENDBRANCH   8   9
ENDBRANCH   1   8
TORSDOF 9
ENDMDL
MODEL 6
REMARK VINA RESULT:    -5.263     12.286     13.577
REMARK INTER + INTRA:          -9.065
REMARK INTER:                  -8.041
REMARK INTRA:                  -1.024
REMARK UNBOUND:                -1.033
REMARK SMILES CCCCCCCCCCC(=O)[O-]
REMARK SMILES IDX 7 1 8 2 9 3 10 4 11 5 12 6 13 7 6 8 5 9 4 10 3 11 2 12 1 13
REMARK H PARENT
REMARK Flexibility Score: inf
ROOT
ATOM      1  C   UNL     1     -18.202  41.921  -7.004  1.00  0.00     0.000 C 
ENDROOT
BRANCH   1   2
ATOM      2  C   UNL     1     -19.278  40.820  -6.968  1.00  0.00     0.000 C 
BRANCH   2   3
ATOM      3  C   UNL     1     -20.286  41.020  -5.825  1.00  0.00     0.006 C 
BRANCH   3   4
ATOM      4  C   UNL     1     -21.664  40.424  -6.144  1.00  0.00     0.053 C 
BRANCH   4   5
ATOM      5  C   UNL     1     -22.641  41.510  -6.463  1.00  0.00     0.041 C 
ATOM      6  O   UNL     1     -23.875  41.262  -6.503  1.00  0.00    -0.550 OA
ATOM      7  O   UNL     1     -22.194  42.810  -6.668  1.00  0.00    -0.550 OA
ENDBRANCH   4   5
ENDBRANCH   3   4
ENDBRANCH   2   3
ENDBRANCH   1   2
BRANCH   1   8
ATOM      8  C   UNL     1     -18.731  43.283  -6.528  1.00  0.00     0.000 C 
BRANCH   8   9
ATOM      9  C   UNL     1     -17.863  43.896  -5.414  1.00  0.00    -0.000 C 
BRANCH   9  10
ATOM     10  C   UNL     1     -17.653  42.940  -4.226  1.00  0.00    -0.000 C 
BRANCH  10  11
ATOM     11  C   UNL     1     -16.183  42.609  -3.901  1.00  0.00    -0.000 C 
BRANCH  11  12
ATOM     12  C   UNL     1     -15.777  41.144  -4.141  1.00  0.00    -0.003 C 
ATOM     13  C   UNL     1     -16.950  40.173  -4.013  1.00  0.00     0.004 C 
ENDBRANCH  11  12
ENDBRANCH  10  11
ENDBRANCH   9  10
ENDBRANCH   8   9
ENDBRANCH   1   8
TORSDOF 9
ENDMDL
MODEL 7
REMARK VINA RESULT:    -5.152      1.749      3.045
REMARK INTER + INTRA:          -8.895
REMARK INTER:                  -8.399
REMARK INTRA:                  -0.496
REMARK UNBOUND:                -1.033
REMARK SMILES CCCCCCCCCCC(=O)[O-]
REMARK SMILES IDX 7 1 8 2 9 3 10 4 11 5 12 6 13 7 6 8 5 9 4 10 3 11 2 12 1 13
REMARK H PARENT
REMARK Flexibility Score: inf
ROOT
ATOM      1  C   UNL     1     -20.287  39.426   5.231  1.00  0.00     0.000 C 
ENDROOT
BRANCH   1   2
ATOM      2  C   UNL     1     -21.327  40.091   4.310  1.00  0.00     0.000 C 
BRANCH   2   3
ATOM      3  C   UNL     1     -20.876  41.474   3.815  1.00  0.00     0.006 C 
BRANCH   3   4
ATOM      4  C   UNL     1     -19.475  41.852   4.315  1.00  0.00     0.053 C 
BRANCH   4   5
ATOM      5  C   UNL     1     -19.178  43.284   4.002  1.00  0.00     0.041 C 
ATOM      6  O   UNL     1     -19.310  43.716   2.827  1.00  0.00    -0.550 OA
ATOM      7  O   UNL     1     -18.804  44.155   5.018  1.00  0.00    -0.550 OA
ENDBRANCH   4   5
ENDBRANCH   3   4
ENDBRANCH   2   3
ENDBRANCH   1   2
BRANCH   1   8
ATOM      8  C   UNL     1     -20.899  38.338   6.128  1.00  0.00     0.000 C 
BRANCH   8   9
ATOM      9  C   UNL     1     -22.244  37.818   5.590  1.00  0.00    -0.000 C 
BRANCH   9  10
ATOM     10  C   UNL     1     -22.681  36.497   6.248  1.00  0.00    -0.000 C 
BRANCH  10  11
ATOM     11  C   UNL     1     -21.554  35.699   6.933  1.00  0.00    -0.000 C 
BRANCH  11  12
ATOM     12  C   UNL     1     -21.596  35.700   8.471  1.00  0.00    -0.003 C 
ATOM     13  C   UNL     1     -20.297  36.198   9.102  1.00  0.00     0.004 C 
ENDBRANCH  11  12
ENDBRANCH  10  11
ENDBRANCH   9  10
ENDBRANCH   8   9
ENDBRANCH   1   8
TORSDOF 9
ENDMDL
MODEL 8
REMARK VINA RESULT:    -5.122     12.211     13.560
REMARK INTER + INTRA:          -8.849
REMARK INTER:                  -7.781
REMARK INTRA:                  -1.068
REMARK UNBOUND:                -1.033
REMARK SMILES CCCCCCCCCCC(=O)[O-]
REMARK SMILES IDX 7 1 8 2 9 3 10 4 11 5 12 6 13 7 6 8 5 9 4 10 3 11 2 12 1 13
REMARK H PARENT
REMARK Flexibility Score: inf
ROOT
ATOM      1  C   UNL     1     -18.265  42.195  -6.873  1.00  0.00     0.000 C 
ENDROOT
BRANCH   1   2
ATOM      2  C   UNL     1     -19.692  42.760  -6.748  1.00  0.00     0.000 C 
BRANCH   2   3
ATOM      3  C   UNL     1     -20.521  42.033  -5.676  1.00  0.00     0.006 C 
BRANCH   3   4
ATOM      4  C   UNL     1     -21.965  41.775  -6.124  1.00  0.00     0.053 C 
BRANCH   4   5
ATOM      5  C   UNL     1     -22.075  40.438  -6.784  1.00  0.00     0.041 C 
ATOM      6  O   UNL     1     -22.645  39.483  -6.192  1.00  0.00    -0.550 OA
ATOM      7  O   UNL     1     -21.593  40.257  -8.074  1.00  0.00    -0.550 OA
ENDBRANCH   4   5
ENDBRANCH   3   4
ENDBRANCH   2   3
ENDBRANCH   1   2
BRANCH   1   8
ATOM      8  C   UNL     1     -18.242  40.662  -6.984  1.00  0.00     0.000 C 
BRANCH   8   9
ATOM      9  C   UNL     1     -17.116  40.027  -6.147  1.00  0.00    -0.000 C 
BRANCH   9  10
ATOM     10  C   UNL     1     -17.334  40.187  -4.632  1.00  0.00    -0.000 C 
BRANCH  10  11
ATOM     11  C   UNL     1     -16.181  40.871  -3.871  1.00  0.00    -0.000 C 
BRANCH  11  12
ATOM     12  C   UNL     1     -16.318  42.395  -3.713  1.00  0.00    -0.003 C 
ATOM     13  C   UNL     1     -17.724  42.826  -3.297  1.00  0.00     0.004 C 
ENDBRANCH  11  12
ENDBRANCH  10  11
ENDBRANCH   9  10
ENDBRANCH   8   9
ENDBRANCH   1   8
TORSDOF 9
ENDMDL
MODEL 9
REMARK VINA RESULT:    -5.109      2.905      5.602
REMARK INTER + INTRA:          -8.830
REMARK INTER:                  -8.243
REMARK INTRA:                  -0.587
REMARK UNBOUND:                -1.033
REMARK SMILES CCCCCCCCCCC(=O)[O-]
REMARK SMILES IDX 7 1 8 2 9 3 10 4 11 5 12 6 13 7 6 8 5 9 4 10 3 11 2 12 1 13
REMARK H PARENT
REMARK Flexibility Score: inf
ROOT
ATOM      1  C   UNL     1     -22.419  38.941   6.966  1.00  0.00     0.000 C 
ENDROOT
BRANCH   1   2
ATOM      2  C   UNL     1     -22.928  37.741   7.785  1.00  0.00     0.000 C 
BRANCH   2   3
ATOM      3  C   UNL     1     -22.639  36.395   7.101  1.00  0.00     0.006 C 
BRANCH   3   4
ATOM      4  C   UNL     1     -21.737  35.486   7.946  1.00  0.00     0.053 C 
BRANCH   4   5
ATOM      5  C   UNL     1     -20.362  36.065   8.047  1.00  0.00     0.041 C 
ATOM      6  O   UNL     1     -19.806  36.184   9.171  1.00  0.00    -0.550 OA
ATOM      7  O   UNL     1     -19.673  36.427   6.896  1.00  0.00    -0.550 OA
ENDBRANCH   4   5
ENDBRANCH   3   4
ENDBRANCH   2   3
ENDBRANCH   1   2
BRANCH   1   8
ATOM      8  C   UNL     1     -22.149  38.583   5.495  1.00  0.00     0.000 C 
BRANCH   8   9
ATOM      9  C   UNL     1     -20.888  39.271   4.943  1.00  0.00    -0.000 C 
BRANCH   9  10
ATOM     10  C   UNL     1     -20.913  40.799   5.122  1.00  0.00    -0.000 C 
BRANCH  10  11
ATOM     11  C   UNL     1     -20.245  41.605   3.990  1.00  0.00    -0.000 C 
BRANCH  11  12
ATOM     12  C   UNL     1     -18.898  42.251   4.357  1.00  0.00    -0.003 C 
ATOM     13  C   UNL     1     -18.997  43.762   4.560  1.00  0.00     0.004 C 
ENDBRANCH  11  12
ENDBRANCH  10  11
ENDBRANCH   9  10
ENDBRANCH   8   9
ENDBRANCH   1   8
TORSDOF 9
ENDMDL
