MODEL 1
REMARK VINA RESULT:    -5.830      0.000      0.000
REMARK INTER + INTRA:          -8.890
REMARK INTER:                  -8.557
REMARK INTRA:                  -0.333
REMARK UNBOUND:                -0.333
REMARK SMILES Cc1cc2c(C(C)C)c(O)c(O)c(C=O)c2c(O)c1-c1c(C)cc2c(C(C)C)c(O)c(O)c(C=O)c2c1O
REMARK SMILES IDX 1 1 2 2 3 3 4 4 16 5 13 6 11 7 9 8 5 9 17 10 19 11 20 12
REMARK SMILES IDX 37 13 21 14 36 15 23 16 22 17 24 18 33 19 25 20 31 21 29 22
REMARK SMILES IDX 38 23 34 25 35 26 26 27 27 28 28 29 32 30 30 32 18 34 6 36
REMARK SMILES IDX 7 37 8 38 14 39 15 40 10 41 12 43
REMARK H PARENT 38 24 32 31 30 33 18 35 10 42 12 44
REMARK Flexibility Score: inf
ROOT
ATOM      1  C   UNL     1      11.098 -18.900  40.782  1.00  0.00     0.045 C 
ATOM      2  C   UNL     1      11.925 -18.053  39.844  1.00  0.00    -0.039 A 
ATOM      3  C   UNL     1      11.777 -16.667  39.867  1.00  0.00     0.013 A 
ATOM      4  C   UNL     1      12.501 -15.823  38.994  1.00  0.00    -0.006 A 
ATOM      5  C   UNL     1      13.465 -16.408  38.116  1.00  0.00     0.039 A 
ATOM      6  C   UNL     1      14.233 -15.553  37.270  1.00  0.00     0.072 A 
ATOM      7  C   UNL     1      14.166 -14.157  37.441  1.00  0.00     0.169 A 
ATOM      8  C   UNL     1      13.242 -13.594  38.327  1.00  0.00     0.162 A 
ATOM      9  C   UNL     1      12.309 -14.406  39.007  1.00  0.00     0.008 A 
ATOM     10  C   UNL     1      13.668 -17.820  38.154  1.00  0.00     0.132 A 
ATOM     11  C   UNL     1      12.880 -18.635  38.994  1.00  0.00     0.031 A 
ENDROOT
BRANCH  11  12
ATOM     12  C   UNL     1      13.087 -20.107  39.016  1.00  0.00     0.031 A 
ATOM     13  C   UNL     1      12.160 -20.962  38.380  1.00  0.00     0.132 A 
ATOM     14  C   UNL     1      14.199 -20.646  39.682  1.00  0.00    -0.039 A 
ATOM     15  C   UNL     1      12.332 -22.379  38.433  1.00  0.00     0.039 A 
ATOM     16  C   UNL     1      14.422 -22.023  39.646  1.00  0.00     0.013 A 
ATOM     17  C   UNL     1      15.190 -19.755  40.392  1.00  0.00     0.045 C 
ATOM     18  C   UNL     1      13.543 -22.903  38.976  1.00  0.00    -0.006 A 
ATOM     19  C   UNL     1      11.342 -23.288  37.951  1.00  0.00     0.072 A 
ATOM     20  C   UNL     1      13.838 -24.295  38.861  1.00  0.00     0.008 A 
ATOM     21  C   UNL     1      11.574 -24.678  38.023  1.00  0.00     0.169 A 
ATOM     22  C   UNL     1      12.807 -25.171  38.464  1.00  0.00     0.162 A 
BRANCH  13  23
ATOM     23  O   UNL     1      11.088 -20.405  37.674  1.00  0.00    -0.507 OA
ATOM     24  H   UNL     1      10.961 -19.411  37.533  1.00  0.00     0.293 HD
ENDBRANCH  13  23
BRANCH  19  25
ATOM     25  C   UNL     1      10.028 -22.823  37.464  1.00  0.00     0.264 C 
ATOM     26  O   UNL     1       9.875 -22.477  36.263  1.00  0.00    -0.298 OA
ENDBRANCH  19  25
BRANCH  20  27
ATOM     27  C   UNL     1      15.238 -24.853  39.173  1.00  0.00     0.017 C 
ATOM     28  C   UNL     1      15.145 -26.107  40.047  1.00  0.00     0.012 C 
ATOM     29  C   UNL     1      16.097 -25.106  37.920  1.00  0.00     0.012 C 
ENDBRANCH  20  27
BRANCH  21  30
ATOM     30  O   UNL     1      10.582 -25.604  37.680  1.00  0.00    -0.504 OA
ATOM     31  H   UNL     1       9.780 -25.817  38.257  1.00  0.00     0.293 HD
ENDBRANCH  21  30
BRANCH  22  32
ATOM     32  O   UNL     1      13.002 -26.553  38.535  1.00  0.00    -0.504 OA
ATOM     33  H   UNL     1      13.831 -26.975  38.935  1.00  0.00     0.293 HD
ENDBRANCH  22  32
ENDBRANCH  11  12
BRANCH  10  34
ATOM     34  O   UNL     1      14.680 -18.408  37.387  1.00  0.00    -0.507 OA
ATOM     35  H   UNL     1      15.489 -18.876  37.777  1.00  0.00     0.293 HD
ENDBRANCH  10  34
BRANCH   9  36
ATOM     36  C   UNL     1      11.143 -13.751  39.770  1.00  0.00     0.017 C 
ATOM     37  C   UNL     1       9.892 -13.671  38.891  1.00  0.00     0.012 C 
ATOM     38  C   UNL     1      10.833 -14.416  41.125  1.00  0.00     0.012 C 
ENDBRANCH   9  36
BRANCH   6  39
ATOM     39  C   UNL     1      15.079 -16.073  36.177  1.00  0.00     0.264 C 
ATOM     40  O   UNL     1      16.312 -16.255  36.358  1.00  0.00    -0.298 OA
ENDBRANCH   6  39
BRANCH   8  41
ATOM     41  O   UNL     1      13.244 -12.212  38.530  1.00  0.00    -0.504 OA
ATOM     42  H   UNL     1      12.936 -11.551  37.829  1.00  0.00     0.293 HD
ENDBRANCH   8  41
BRANCH   7  43
ATOM     43  O   UNL     1      14.992 -13.289  36.715  1.00  0.00    -0.504 OA
ATOM     44  H   UNL     1      15.305 -12.389  37.053  1.00  0.00     0.293 HD
ENDBRANCH   7  43
TORSDOF 11
ENDMDL
MODEL 2
REMARK VINA RESULT:    -5.197      1.765      9.070
REMARK INTER + INTRA:          -7.960
REMARK INTER:                  -8.549
REMARK INTRA:                   0.589
REMARK UNBOUND:                -0.333
REMARK SMILES Cc1cc2c(C(C)C)c(O)c(O)c(C=O)c2c(O)c1-c1c(C)cc2c(C(C)C)c(O)c(O)c(C=O)c2c1O
REMARK SMILES IDX 1 1 2 2 3 3 4 4 16 5 13 6 11 7 9 8 5 9 17 10 19 11 20 12
REMARK SMILES IDX 37 13 21 14 36 15 23 16 22 17 24 18 33 19 25 20 31 21 29 22
REMARK SMILES IDX 38 23 34 25 35 26 26 27 27 28 28 29 32 30 30 32 18 34 6 36
REMARK SMILES IDX 7 37 8 38 14 39 15 40 10 41 12 43
REMARK H PARENT 38 24 32 31 30 33 18 35 10 42 12 44
REMARK Flexibility Score: inf
ROOT
ATOM      1  C   UNL     1       9.919 -21.471  38.186  1.00  0.00     0.045 C 
ATOM      2  C   UNL     1      11.177 -22.302  38.269  1.00  0.00    -0.039 A 
ATOM      3  C   UNL     1      11.110 -23.672  38.015  1.00  0.00     0.013 A 
ATOM      4  C   UNL     1      12.247 -24.506  38.107  1.00  0.00    -0.006 A 
ATOM      5  C   UNL     1      13.514 -23.911  38.394  1.00  0.00     0.039 A 
ATOM      6  C   UNL     1      14.671 -24.745  38.437  1.00  0.00     0.072 A 
ATOM      7  C   UNL     1      14.582 -26.086  38.017  1.00  0.00     0.169 A 
ATOM      8  C   UNL     1      13.342 -26.651  37.706  1.00  0.00     0.162 A 
ATOM      9  C   UNL     1      12.150 -25.914  37.878  1.00  0.00     0.008 A 
ATOM     10  C   UNL     1      13.589 -22.498  38.575  1.00  0.00     0.132 A 
ATOM     11  C   UNL     1      12.421 -21.707  38.540  1.00  0.00     0.031 A 
ENDROOT
BRANCH  11  12
ATOM     12  C   UNL     1      12.506 -20.237  38.745  1.00  0.00     0.031 A 
ATOM     13  C   UNL     1      12.959 -19.402  37.701  1.00  0.00     0.132 A 
ATOM     14  C   UNL     1      12.147 -19.683  39.984  1.00  0.00    -0.039 A 
ATOM     15  C   UNL     1      13.083 -17.993  37.905  1.00  0.00     0.039 A 
ATOM     16  C   UNL     1      12.170 -18.297  40.150  1.00  0.00     0.013 A 
ATOM     17  C   UNL     1      11.685 -20.558  41.125  1.00  0.00     0.045 C 
ATOM     18  C   UNL     1      12.569 -17.429  39.111  1.00  0.00    -0.006 A 
ATOM     19  C   UNL     1      13.688 -17.131  36.942  1.00  0.00     0.072 A 
ATOM     20  C   UNL     1      12.489 -16.012  39.262  1.00  0.00     0.008 A 
ATOM     21  C   UNL     1      13.772 -15.746  37.199  1.00  0.00     0.169 A 
ATOM     22  C   UNL     1      13.175 -15.196  38.337  1.00  0.00     0.162 A 
BRANCH  13  23
ATOM     23  O   UNL     1      13.259 -19.965  36.455  1.00  0.00    -0.507 OA
ATOM     24  H   UNL     1      13.999 -20.639  36.304  1.00  0.00     0.293 HD
ENDBRANCH  13  23
BRANCH  19  25
ATOM     25  C   UNL     1      14.324 -17.655  35.716  1.00  0.00     0.264 C 
ATOM     26  O   UNL     1      15.448 -17.227  35.345  1.00  0.00    -0.298 OA
ENDBRANCH  19  25
BRANCH  20  27
ATOM     27  C   UNL     1      11.693 -15.364  40.410  1.00  0.00     0.017 C 
ATOM     28  C   UNL     1      10.981 -14.095  39.933  1.00  0.00     0.012 C 
ATOM     29  C   UNL     1      10.714 -16.329  41.105  1.00  0.00     0.012 C 
ENDBRANCH  20  27
BRANCH  21  30
ATOM     30  O   UNL     1      14.468 -14.884  36.342  1.00  0.00    -0.504 OA
ATOM     31  H   UNL     1      14.762 -13.950  36.592  1.00  0.00     0.293 HD
ENDBRANCH  21  30
BRANCH  22  32
ATOM     32  O   UNL     1      13.285 -13.822  38.569  1.00  0.00    -0.504 OA
ATOM     33  H   UNL     1      12.719 -13.133  38.090  1.00  0.00     0.293 HD
ENDBRANCH  22  32
ENDBRANCH  11  12
BRANCH  10  34
ATOM     34  O   UNL     1      14.829 -21.874  38.749  1.00  0.00    -0.507 OA
ATOM     35  H   UNL     1      15.313 -21.810  39.637  1.00  0.00     0.293 HD
ENDBRANCH  10  34
BRANCH   9  36
ATOM     36  C   UNL     1      10.790 -26.630  37.778  1.00  0.00     0.017 C 
ATOM     37  C   UNL     1      10.713 -27.480  36.507  1.00  0.00     0.012 C 
ATOM     38  C   UNL     1      10.429 -27.459  39.026  1.00  0.00     0.012 C 
ENDBRANCH   9  36
BRANCH   6  39
ATOM     39  C   UNL     1      15.972 -24.267  38.947  1.00  0.00     0.264 C 
ATOM     40  O   UNL     1      16.704 -25.027  39.635  1.00  0.00    -0.298 OA
ENDBRANCH   6  39
BRANCH   8  41
ATOM     41  O   UNL     1      13.289 -27.962  37.225  1.00  0.00    -0.504 OA
ATOM     42  H   UNL     1      13.718 -28.743  37.705  1.00  0.00     0.293 HD
ENDBRANCH   8  41
BRANCH   7  43
ATOM     43  O   UNL     1      15.716 -26.903  37.929  1.00  0.00    -0.504 OA
ATOM     44  H   UNL     1      15.749 -27.864  38.241  1.00  0.00     0.293 HD
ENDBRANCH   7  43
TORSDOF 11
ENDMDL
MODEL 3
REMARK VINA RESULT:    -4.849      1.681      3.260
REMARK INTER + INTRA:          -7.450
REMARK INTER:                  -7.557
REMARK INTRA:                   0.107
REMARK UNBOUND:                -0.333
REMARK SMILES Cc1cc2c(C(C)C)c(O)c(O)c(C=O)c2c(O)c1-c1c(C)cc2c(C(C)C)c(O)c(O)c(C=O)c2c1O
REMARK SMILES IDX 1 1 2 2 3 3 4 4 16 5 13 6 11 7 9 8 5 9 17 10 19 11 20 12
REMARK SMILES IDX 37 13 21 14 36 15 23 16 22 17 24 18 33 19 25 20 31 21 29 22
REMARK SMILES IDX 38 23 34 25 35 26 26 27 27 28 28 29 32 30 30 32 18 34 6 36
REMARK SMILES IDX 7 37 8 38 14 39 15 40 10 41 12 43
REMARK H PARENT 38 24 32 31 30 33 18 35 10 42 12 44
REMARK Flexibility Score: inf
ROOT
ATOM      1  C   UNL     1      10.964 -20.266  40.855  1.00  0.00     0.045 C 
ATOM      2  C   UNL     1      11.673 -19.420  39.825  1.00  0.00    -0.039 A 
ATOM      3  C   UNL     1      11.795 -18.046  40.037  1.00  0.00     0.013 A 
ATOM      4  C   UNL     1      12.420 -17.197  39.096  1.00  0.00    -0.006 A 
ATOM      5  C   UNL     1      13.009 -17.778  37.931  1.00  0.00     0.039 A 
ATOM      6  C   UNL     1      13.685 -16.929  37.005  1.00  0.00     0.072 A 
ATOM      7  C   UNL     1      13.923 -15.582  37.338  1.00  0.00     0.169 A 
ATOM      8  C   UNL     1      13.370 -15.029  38.498  1.00  0.00     0.162 A 
ATOM      9  C   UNL     1      12.503 -15.786  39.314  1.00  0.00     0.008 A 
ATOM     10  C   UNL     1      12.950 -19.194  37.759  1.00  0.00     0.132 A 
ATOM     11  C   UNL     1      12.260 -20.001  38.689  1.00  0.00     0.031 A 
ENDROOT
BRANCH  11  12
ATOM     12  C   UNL     1      12.189 -21.473  38.494  1.00  0.00     0.031 A 
ATOM     13  C   UNL     1      13.279 -22.290  38.869  1.00  0.00     0.132 A 
ATOM     14  C   UNL     1      11.042 -22.048  37.925  1.00  0.00    -0.039 A 
ATOM     15  C   UNL     1      13.234 -23.700  38.646  1.00  0.00     0.039 A 
ATOM     16  C   UNL     1      10.956 -23.435  37.802  1.00  0.00     0.013 A 
ATOM     17  C   UNL     1       9.875 -21.193  37.491  1.00  0.00     0.045 C 
ATOM     18  C   UNL     1      12.007 -24.286  38.213  1.00  0.00    -0.006 A 
ATOM     19  C   UNL     1      14.365 -24.544  38.853  1.00  0.00     0.072 A 
ATOM     20  C   UNL     1      11.864 -25.706  38.176  1.00  0.00     0.008 A 
ATOM     21  C   UNL     1      14.255 -25.931  38.624  1.00  0.00     0.169 A 
ATOM     22  C   UNL     1      13.021 -26.503  38.298  1.00  0.00     0.162 A 
BRANCH  13  23
ATOM     23  O   UNL     1      14.391 -21.706  39.486  1.00  0.00    -0.507 OA
ATOM     24  H   UNL     1      14.682 -20.748  39.336  1.00  0.00     0.293 HD
ENDBRANCH  13  23
BRANCH  19  25
ATOM     25  C   UNL     1      15.691 -23.998  39.209  1.00  0.00     0.264 C 
ATOM     26  O   UNL     1      16.501 -24.675  39.895  1.00  0.00    -0.298 OA
ENDBRANCH  19  25
BRANCH  20  27
ATOM     27  C   UNL     1      10.489 -26.375  37.991  1.00  0.00     0.017 C 
ATOM     28  C   UNL     1      10.483 -27.278  36.754  1.00  0.00     0.012 C 
ATOM     29  C   UNL     1       9.997 -27.131  39.239  1.00  0.00     0.012 C 
ENDBRANCH  20  27
BRANCH  21  30
ATOM     30  O   UNL     1      15.371 -26.776  38.693  1.00  0.00    -0.504 OA
ATOM     31  H   UNL     1      16.240 -26.608  38.206  1.00  0.00     0.293 HD
ENDBRANCH  21  30
BRANCH  22  32
ATOM     32  O   UNL     1      12.946 -27.879  38.066  1.00  0.00    -0.504 OA
ATOM     33  H   UNL     1      13.289 -28.317  37.220  1.00  0.00     0.293 HD
ENDBRANCH  22  32
ENDBRANCH  11  12
BRANCH  10  34
ATOM     34  O   UNL     1      13.611 -19.803  36.687  1.00  0.00    -0.507 OA
ATOM     35  H   UNL     1      14.537 -19.543  36.369  1.00  0.00     0.293 HD
ENDBRANCH  10  34
BRANCH   9  36
ATOM     36  C   UNL     1      11.707 -15.088  40.433  1.00  0.00     0.017 C 
ATOM     37  C   UNL     1      11.056 -13.802  39.918  1.00  0.00     0.012 C 
ATOM     38  C   UNL     1      10.675 -15.999  41.125  1.00  0.00     0.012 C 
ENDBRANCH   9  36
BRANCH   6  39
ATOM     39  C   UNL     1      14.120 -17.397  35.674  1.00  0.00     0.264 C 
ATOM     40  O   UNL     1      15.341 -17.400  35.368  1.00  0.00    -0.298 OA
ENDBRANCH   6  39
BRANCH   8  41
ATOM     41  O   UNL     1      13.679 -13.711  38.841  1.00  0.00    -0.504 OA
ATOM     42  H   UNL     1      13.624 -12.943  38.185  1.00  0.00     0.293 HD
ENDBRANCH   8  41
BRANCH   7  43
ATOM     43  O   UNL     1      14.687 -14.747  36.513  1.00  0.00    -0.504 OA
ATOM     44  H   UNL     1      14.968 -14.984  35.571  1.00  0.00     0.293 HD
ENDBRANCH   7  43
TORSDOF 11
ENDMDL
MODEL 4
REMARK VINA RESULT:    -4.346      1.575      3.017
REMARK INTER + INTRA:          -6.712
REMARK INTER:                  -7.519
REMARK INTRA:                   0.807
REMARK UNBOUND:                -0.333
REMARK SMILES Cc1cc2c(C(C)C)c(O)c(O)c(C=O)c2c(O)c1-c1c(C)cc2c(C(C)C)c(O)c(O)c(C=O)c2c1O
REMARK SMILES IDX 1 1 2 2 3 3 4 4 16 5 13 6 11 7 9 8 5 9 17 10 19 11 20 12
REMARK SMILES IDX 37 13 21 14 36 15 23 16 22 17 24 18 33 19 25 20 31 21 29 22
REMARK SMILES IDX 38 23 34 25 35 26 26 27 27 28 28 29 32 30 30 32 18 34 6 36
REMARK SMILES IDX 7 37 8 38 14 39 15 40 10 41 12 43
REMARK H PARENT 38 24 32 31 30 33 18 35 10 42 12 44
REMARK Flexibility Score: inf
ROOT
ATOM      1  C   UNL     1      15.848 -18.719  38.115  1.00  0.00     0.045 C 
ATOM      2  C   UNL     1      14.670 -17.826  38.422  1.00  0.00    -0.039 A 
ATOM      3  C   UNL     1      14.791 -16.448  38.238  1.00  0.00     0.013 A 
ATOM      4  C   UNL     1      13.735 -15.558  38.537  1.00  0.00    -0.006 A 
ATOM      5  C   UNL     1      12.484 -16.097  38.968  1.00  0.00     0.039 A 
ATOM      6  C   UNL     1      11.401 -15.203  39.221  1.00  0.00     0.072 A 
ATOM      7  C   UNL     1      11.518 -13.845  38.869  1.00  0.00     0.169 A 
ATOM      8  C   UNL     1      12.738 -13.332  38.416  1.00  0.00     0.162 A 
ATOM      9  C   UNL     1      13.892 -14.146  38.376  1.00  0.00     0.008 A 
ATOM     10  C   UNL     1      12.342 -17.512  39.079  1.00  0.00     0.132 A 
ATOM     11  C   UNL     1      13.440 -18.364  38.834  1.00  0.00     0.031 A 
ENDROOT
BRANCH  11  12
ATOM     12  C   UNL     1      13.287 -19.837  38.966  1.00  0.00     0.031 A 
ATOM     13  C   UNL     1      12.329 -20.523  38.188  1.00  0.00     0.132 A 
ATOM     14  C   UNL     1      14.090 -20.543  39.877  1.00  0.00    -0.039 A 
ATOM     15  C   UNL     1      12.150 -21.932  38.341  1.00  0.00     0.039 A 
ATOM     16  C   UNL     1      13.986 -21.933  39.952  1.00  0.00     0.013 A 
ATOM     17  C   UNL     1      15.102 -19.829  40.740  1.00  0.00     0.045 C 
ATOM     18  C   UNL     1      13.074 -22.656  39.152  1.00  0.00    -0.006 A 
ATOM     19  C   UNL     1      11.090 -22.642  37.702  1.00  0.00     0.072 A 
ATOM     20  C   UNL     1      13.051 -24.083  39.166  1.00  0.00     0.008 A 
ATOM     21  C   UNL     1      10.970 -24.035  37.885  1.00  0.00     0.169 A 
ATOM     22  C   UNL     1      11.941 -24.745  38.600  1.00  0.00     0.162 A 
BRANCH  13  23
ATOM     23  O   UNL     1      11.577 -19.812  37.246  1.00  0.00    -0.507 OA
ATOM     24  H   UNL     1      11.740 -18.841  37.010  1.00  0.00     0.293 HD
ENDBRANCH  13  23
BRANCH  19  25
ATOM     25  C   UNL     1      10.042 -21.947  36.926  1.00  0.00     0.264 C 
ATOM     26  O   UNL     1      10.105 -21.893  35.669  1.00  0.00    -0.298 OA
ENDBRANCH  19  25
BRANCH  20  27
ATOM     27  C   UNL     1      14.192 -24.904  39.794  1.00  0.00     0.017 C 
ATOM     28  C   UNL     1      13.638 -26.054  40.640  1.00  0.00     0.012 C 
ATOM     29  C   UNL     1      15.226 -25.410  38.770  1.00  0.00     0.012 C 
ENDBRANCH  20  27
BRANCH  21  30
ATOM     30  O   UNL     1       9.875 -24.749  37.382  1.00  0.00    -0.504 OA
ATOM     31  H   UNL     1       8.992 -24.329  37.128  1.00  0.00     0.293 HD
ENDBRANCH  21  30
BRANCH  22  32
ATOM     32  O   UNL     1      11.789 -26.123  38.774  1.00  0.00    -0.504 OA
ATOM     33  H   UNL     1      12.444 -26.803  38.407  1.00  0.00     0.293 HD
ENDBRANCH  22  32
ENDBRANCH  11  12
BRANCH  10  34
ATOM     34  O   UNL     1      11.099 -18.074  39.393  1.00  0.00    -0.507 OA
ATOM     35  H   UNL     1      10.556 -18.642  38.754  1.00  0.00     0.293 HD
ENDBRANCH  10  34
BRANCH   9  36
ATOM     36  C   UNL     1      15.268 -13.503  38.123  1.00  0.00     0.017 C 
ATOM     37  C   UNL     1      16.257 -13.882  39.229  1.00  0.00     0.012 C 
ATOM     38  C   UNL     1      15.849 -13.802  36.728  1.00  0.00     0.012 C 
ENDBRANCH   9  36
BRANCH   6  39
ATOM     39  C   UNL     1      10.155 -15.637  39.884  1.00  0.00     0.264 C 
ATOM     40  O   UNL     1      10.144 -15.887  41.118  1.00  0.00    -0.298 OA
ENDBRANCH   6  39
BRANCH   8  41
ATOM     41  O   UNL     1      12.810 -11.999  38.006  1.00  0.00    -0.504 OA
ATOM     42  H   UNL     1      12.699 -11.220  38.643  1.00  0.00     0.293 HD
ENDBRANCH   8  41
BRANCH   7  43
ATOM     43  O   UNL     1      10.439 -12.960  38.989  1.00  0.00    -0.504 OA
ATOM     44  H   UNL     1       9.933 -12.796  39.849  1.00  0.00     0.293 HD
ENDBRANCH   7  43
TORSDOF 11
ENDMDL
MODEL 5
REMARK VINA RESULT:    -3.431      7.944     11.408
REMARK INTER + INTRA:          -5.369
REMARK INTER:                  -4.704
REMARK INTRA:                  -0.664
REMARK UNBOUND:                -0.333
REMARK SMILES Cc1cc2c(C(C)C)c(O)c(O)c(C=O)c2c(O)c1-c1c(C)cc2c(C(C)C)c(O)c(O)c(C=O)c2c1O
REMARK SMILES IDX 1 1 2 2 3 3 4 4 16 5 13 6 11 7 9 8 5 9 17 10 19 11 20 12
REMARK SMILES IDX 37 13 21 14 36 15 23 16 22 17 24 18 33 19 25 20 31 21 29 22
REMARK SMILES IDX 38 23 34 25 35 26 26 27 27 28 28 29 32 30 30 32 18 34 6 36
REMARK SMILES IDX 7 37 8 38 14 39 15 40 10 41 12 43
REMARK H PARENT 38 24 32 31 30 33 18 35 10 42 12 44
REMARK Flexibility Score: inf
ROOT
ATOM      1  C   UNL     1      21.416 -27.972  35.138  1.00  0.00     0.045 C 
ATOM      2  C   UNL     1      21.453 -26.550  34.630  1.00  0.00    -0.039 A 
ATOM      3  C   UNL     1      22.546 -26.123  33.876  1.00  0.00     0.013 A 
ATOM      4  C   UNL     1      22.652 -24.797  33.398  1.00  0.00    -0.006 A 
ATOM      5  C   UNL     1      21.570 -23.893  33.633  1.00  0.00     0.039 A 
ATOM      6  C   UNL     1      21.653 -22.569  33.108  1.00  0.00     0.072 A 
ATOM      7  C   UNL     1      22.694 -22.233  32.222  1.00  0.00     0.169 A 
ATOM      8  C   UNL     1      23.732 -23.136  31.971  1.00  0.00     0.162 A 
ATOM      9  C   UNL     1      23.798 -24.367  32.658  1.00  0.00     0.008 A 
ATOM     10  C   UNL     1      20.420 -24.361  34.337  1.00  0.00     0.132 A 
ATOM     11  C   UNL     1      20.380 -25.673  34.854  1.00  0.00     0.031 A 
ENDROOT
BRANCH  11  12
ATOM     12  C   UNL     1      19.184 -26.146  35.600  1.00  0.00     0.031 A 
ATOM     13  C   UNL     1      19.226 -26.262  37.007  1.00  0.00     0.132 A 
ATOM     14  C   UNL     1      18.016 -26.491  34.901  1.00  0.00    -0.039 A 
ATOM     15  C   UNL     1      18.095 -26.756  37.725  1.00  0.00     0.039 A 
ATOM     16  C   UNL     1      16.878 -26.875  35.610  1.00  0.00     0.013 A 
ATOM     17  C   UNL     1      17.955 -26.402  33.395  1.00  0.00     0.045 C 
ATOM     18  C   UNL     1      16.869 -26.953  37.021  1.00  0.00    -0.006 A 
ATOM     19  C   UNL     1      18.142 -27.045  39.121  1.00  0.00     0.072 A 
ATOM     20  C   UNL     1      15.670 -27.248  37.736  1.00  0.00     0.008 A 
ATOM     21  C   UNL     1      16.987 -27.523  39.776  1.00  0.00     0.169 A 
ATOM     22  C   UNL     1      15.769 -27.614  39.095  1.00  0.00     0.162 A 
BRANCH  13  23
ATOM     23  O   UNL     1      20.379 -25.861  37.692  1.00  0.00    -0.507 OA
ATOM     24  H   UNL     1      20.446 -25.011  38.237  1.00  0.00     0.293 HD
ENDBRANCH  13  23
BRANCH  19  25
ATOM     25  C   UNL     1      19.397 -26.955  39.895  1.00  0.00     0.264 C 
ATOM     26  O   UNL     1      19.484 -26.187  40.888  1.00  0.00    -0.298 OA
ENDBRANCH  19  25
BRANCH  20  27
ATOM     27  C   UNL     1      14.289 -27.189  37.058  1.00  0.00     0.017 C 
ATOM     28  C   UNL     1      13.869 -25.740  36.796  1.00  0.00     0.012 C 
ATOM     29  C   UNL     1      14.191 -28.041  35.779  1.00  0.00     0.012 C 
ENDBRANCH  20  27
BRANCH  21  30
ATOM     30  O   UNL     1      17.023 -27.938  41.113  1.00  0.00    -0.504 OA
ATOM     31  H   UNL     1      16.845 -28.885  41.418  1.00  0.00     0.293 HD
ENDBRANCH  21  30
BRANCH  22  32
ATOM     32  O   UNL     1      14.645 -28.102  39.768  1.00  0.00    -0.504 OA
ATOM     33  H   UNL     1      13.702 -27.797  39.562  1.00  0.00     0.293 HD
ENDBRANCH  22  32
ENDBRANCH  11  12
BRANCH  10  34
ATOM     34  O   UNL     1      19.301 -23.534  34.488  1.00  0.00    -0.507 OA
ATOM     35  H   UNL     1      18.950 -23.210  35.381  1.00  0.00     0.293 HD
ENDBRANCH  10  34
BRANCH   9  36
ATOM     36  C   UNL     1      25.072 -25.226  32.562  1.00  0.00     0.017 C 
ATOM     37  C   UNL     1      25.006 -26.167  31.356  1.00  0.00     0.012 C 
ATOM     38  C   UNL     1      26.377 -24.407  32.561  1.00  0.00     0.012 C 
ENDBRANCH   9  36
BRANCH   6  39
ATOM     39  C   UNL     1      20.702 -21.505  33.490  1.00  0.00     0.264 C 
ATOM     40  O   UNL     1      19.709 -21.247  32.760  1.00  0.00    -0.298 OA
ENDBRANCH   6  39
BRANCH   8  41
ATOM     41  O   UNL     1      24.714 -22.806  31.034  1.00  0.00    -0.504 OA
ATOM     42  H   UNL     1      24.586 -22.921  30.037  1.00  0.00     0.293 HD
ENDBRANCH   8  41
BRANCH   7  43
ATOM     43  O   UNL     1      22.744 -20.984  31.590  1.00  0.00    -0.504 OA
ATOM     44  H   UNL     1      23.338 -20.771  30.800  1.00  0.00     0.293 HD
ENDBRANCH   7  43
TORSDOF 11
ENDMDL
MODEL 6
REMARK VINA RESULT:    -3.386      6.566     10.950
REMARK INTER + INTRA:          -5.303
REMARK INTER:                  -4.327
REMARK INTRA:                  -0.976
REMARK UNBOUND:                -0.333
REMARK SMILES Cc1cc2c(C(C)C)c(O)c(O)c(C=O)c2c(O)c1-c1c(C)cc2c(C(C)C)c(O)c(O)c(C=O)c2c1O
REMARK SMILES IDX 1 1 2 2 3 3 4 4 16 5 13 6 11 7 9 8 5 9 17 10 19 11 20 12
REMARK SMILES IDX 37 13 21 14 36 15 23 16 22 17 24 18 33 19 25 20 31 21 29 22
REMARK SMILES IDX 38 23 34 25 35 26 26 27 27 28 28 29 32 30 30 32 18 34 6 36
REMARK SMILES IDX 7 37 8 38 14 39 15 40 10 41 12 43
REMARK H PARENT 38 24 32 31 30 33 18 35 10 42 12 44
REMARK Flexibility Score: inf
ROOT
ATOM      1  C   UNL     1      18.819 -24.435  38.347  1.00  0.00     0.045 C 
ATOM      2  C   UNL     1      17.642 -25.172  37.754  1.00  0.00    -0.039 A 
ATOM      3  C   UNL     1      16.407 -25.119  38.401  1.00  0.00     0.013 A 
ATOM      4  C   UNL     1      15.276 -25.811  37.912  1.00  0.00    -0.006 A 
ATOM      5  C   UNL     1      15.388 -26.524  36.679  1.00  0.00     0.039 A 
ATOM      6  C   UNL     1      14.234 -27.181  36.157  1.00  0.00     0.072 A 
ATOM      7  C   UNL     1      12.977 -26.967  36.756  1.00  0.00     0.169 A 
ATOM      8  C   UNL     1      12.873 -26.240  37.946  1.00  0.00     0.162 A 
ATOM      9  C   UNL     1      14.028 -25.774  38.609  1.00  0.00     0.008 A 
ATOM     10  C   UNL     1      16.633 -26.509  35.981  1.00  0.00     0.132 A 
ATOM     11  C   UNL     1      17.757 -25.859  36.535  1.00  0.00     0.031 A 
ENDROOT
BRANCH  11  12
ATOM     12  C   UNL     1      19.054 -25.862  35.809  1.00  0.00     0.031 A 
ATOM     13  C   UNL     1      19.392 -24.786  34.959  1.00  0.00     0.132 A 
ATOM     14  C   UNL     1      19.937 -26.943  35.961  1.00  0.00    -0.039 A 
ATOM     15  C   UNL     1      20.619 -24.802  34.227  1.00  0.00     0.039 A 
ATOM     16  C   UNL     1      21.180 -26.911  35.327  1.00  0.00     0.013 A 
ATOM     17  C   UNL     1      19.587 -28.118  36.843  1.00  0.00     0.045 C 
ATOM     18  C   UNL     1      21.571 -25.827  34.510  1.00  0.00    -0.006 A 
ATOM     19  C   UNL     1      20.931 -23.825  33.236  1.00  0.00     0.072 A 
ATOM     20  C   UNL     1      22.883 -25.760  33.951  1.00  0.00     0.008 A 
ATOM     21  C   UNL     1      22.164 -23.890  32.553  1.00  0.00     0.169 A 
ATOM     22  C   UNL     1      23.127 -24.839  32.912  1.00  0.00     0.162 A 
BRANCH  13  23
ATOM     23  O   UNL     1      18.525 -23.692  34.863  1.00  0.00    -0.507 OA
ATOM     24  H   UNL     1      18.229 -23.135  35.654  1.00  0.00     0.293 HD
ENDBRANCH  13  23
BRANCH  19  25
ATOM     25  C   UNL     1      19.958 -22.793  32.824  1.00  0.00     0.264 C 
ATOM     26  O   UNL     1      20.087 -21.601  33.206  1.00  0.00    -0.298 OA
ENDBRANCH  19  25
BRANCH  20  27
ATOM     27  C   UNL     1      24.019 -26.675  34.445  1.00  0.00     0.017 C 
ATOM     28  C   UNL     1      24.039 -27.992  33.663  1.00  0.00     0.012 C 
ATOM     29  C   UNL     1      25.404 -26.000  34.440  1.00  0.00     0.012 C 
ENDBRANCH  20  27
BRANCH  21  30
ATOM     30  O   UNL     1      22.457 -23.030  31.487  1.00  0.00    -0.504 OA
ATOM     31  H   UNL     1      21.831 -22.851  30.714  1.00  0.00     0.293 HD
ENDBRANCH  21  30
BRANCH  22  32
ATOM     32  O   UNL     1      24.334 -24.885  32.209  1.00  0.00    -0.504 OA
ATOM     33  H   UNL     1      24.394 -24.778  31.204  1.00  0.00     0.293 HD
ENDBRANCH  22  32
ENDBRANCH  11  12
BRANCH  10  34
ATOM     34  O   UNL     1      16.742 -27.105  34.720  1.00  0.00    -0.507 OA
ATOM     35  H   UNL     1      16.010 -27.090  34.020  1.00  0.00     0.293 HD
ENDBRANCH  10  34
BRANCH   9  36
ATOM     36  C   UNL     1      13.911 -25.207  40.036  1.00  0.00     0.017 C 
ATOM     37  C   UNL     1      13.116 -23.898  40.039  1.00  0.00     0.012 C 
ATOM     38  C   UNL     1      13.344 -26.208  41.060  1.00  0.00     0.012 C 
ENDBRANCH   9  36
BRANCH   6  39
ATOM     39  C   UNL     1      14.304 -28.124  35.023  1.00  0.00     0.264 C 
ATOM     40  O   UNL     1      14.206 -27.705  33.840  1.00  0.00    -0.298 OA
ENDBRANCH   6  39
BRANCH   8  41
ATOM     41  O   UNL     1      11.609 -25.982  38.481  1.00  0.00    -0.504 OA
ATOM     42  H   UNL     1      11.233 -26.484  39.275  1.00  0.00     0.293 HD
ENDBRANCH   8  41
BRANCH   7  43
ATOM     43  O   UNL     1      11.803 -27.496  36.205  1.00  0.00    -0.504 OA
ATOM     44  H   UNL     1      10.992 -26.943  35.962  1.00  0.00     0.293 HD
ENDBRANCH   7  43
TORSDOF 11
ENDMDL
