MODEL 1
REMARK VINA RESULT:    -4.588      0.000      0.000
REMARK INTER + INTRA:          -7.189
REMARK INTER:                  -6.466
REMARK INTRA:                  -0.724
REMARK UNBOUND:                -0.724
REMARK SMILES COc1ccc(-c2cc(=O)c3c(OC)c(OC)c(OC)c(OC)c3o2)cc1OC
REMARK SMILES IDX 7 1 8 2 9 3 10 4 11 5 24 6 25 7 21 8 18 9 15 10 12 11 6 12
REMARK SMILES IDX 3 13 27 14 4 15 26 16 5 17 2 18 1 19 28 20 29 21 22 22 23 23
REMARK SMILES IDX 13 24 14 25 19 26 20 27 16 28 17 29
REMARK H PARENT
REMARK Flexibility Score: inf
ROOT
ATOM      1  C   UNL     1     124.991 120.394 144.638  1.00  0.00     0.138 A 
ATOM      2  C   UNL     1     126.117 120.180 145.445  1.00  0.00     0.100 A 
ATOM      3  C   UNL     1     127.389 120.247 144.876  1.00  0.00     0.197 A 
ATOM      4  O   UNL     1     128.392 120.053 145.614  1.00  0.00    -0.289 OA
ATOM      5  C   UNL     1     127.527 120.528 143.497  1.00  0.00     0.115 A 
ATOM      6  C   UNL     1     126.344 120.718 142.749  1.00  0.00     0.188 A 
ATOM      7  O   UNL     1     125.155 120.644 143.342  1.00  0.00    -0.452 OA
ATOM      8  C   UNL     1     126.391 120.974 141.374  1.00  0.00     0.209 A 
ATOM      9  C   UNL     1     127.644 121.063 140.720  1.00  0.00     0.211 A 
ATOM     10  C   UNL     1     128.833 120.953 141.481  1.00  0.00     0.208 A 
ATOM     11  C   UNL     1     128.782 120.613 142.853  1.00  0.00     0.179 A 
ENDROOT
BRANCH   1  12
ATOM     12  C   UNL     1     123.612 120.333 145.184  1.00  0.00     0.021 A 
ATOM     13  C   UNL     1     120.969 120.247 146.174  1.00  0.00     0.160 A 
ATOM     14  C   UNL     1     121.198 120.477 144.810  1.00  0.00     0.161 A 
ATOM     15  C   UNL     1     122.062 120.070 147.040  1.00  0.00     0.051 A 
ATOM     16  C   UNL     1     122.518 120.524 144.323  1.00  0.00     0.062 A 
ATOM     17  C   UNL     1     123.369 120.116 146.551  1.00  0.00     0.016 A 
BRANCH  13  18
ATOM     18  O   UNL     1     119.642 120.206 146.631  1.00  0.00    -0.493 OA
ATOM     19  C   UNL     1     118.923 121.333 147.124  1.00  0.00     0.278 C 
ENDBRANCH  13  18
BRANCH  14  20
ATOM     20  O   UNL     1     120.087 120.655 143.969  1.00  0.00    -0.493 OA
ATOM     21  C   UNL     1     119.839 121.823 143.194  1.00  0.00     0.278 C 
ENDBRANCH  14  20
ENDBRANCH   1  12
BRANCH   8  22
ATOM     22  O   UNL     1     125.152 121.122 140.721  1.00  0.00    -0.490 OA
ATOM     23  C   UNL     1     124.483 122.342 140.422  1.00  0.00     0.278 C 
ENDBRANCH   8  22
BRANCH  11  24
ATOM     24  O   UNL     1     129.947 120.364 143.604  1.00  0.00    -0.492 OA
ATOM     25  C   UNL     1     130.916 121.337 143.985  1.00  0.00     0.278 C 
ENDBRANCH  11  24
BRANCH   9  26
ATOM     26  O   UNL     1     127.673 121.267 139.330  1.00  0.00    -0.490 OA
ATOM     27  C   UNL     1     127.780 122.529 138.676  1.00  0.00     0.279 C 
ENDBRANCH   9  26
BRANCH  10  28
ATOM     28  O   UNL     1     130.061 121.249 140.889  1.00  0.00    -0.490 OA
ATOM     29  C   UNL     1     130.874 120.216 140.343  1.00  0.00     0.278 C 
ENDBRANCH  10  28
TORSDOF 7
ENDMDL
MODEL 2
REMARK VINA RESULT:    -4.543      1.834      2.313
REMARK INTER + INTRA:          -7.126
REMARK INTER:                  -6.246
REMARK INTRA:                  -0.880
REMARK UNBOUND:                -0.724
REMARK SMILES COc1ccc(-c2cc(=O)c3c(OC)c(OC)c(OC)c(OC)c3o2)cc1OC
REMARK SMILES IDX 7 1 8 2 9 3 10 4 11 5 24 6 25 7 21 8 18 9 15 10 12 11 6 12
REMARK SMILES IDX 3 13 27 14 4 15 26 16 5 17 2 18 1 19 28 20 29 21 22 22 23 23
REMARK SMILES IDX 13 24 14 25 19 26 20 27 16 28 17 29
REMARK H PARENT
REMARK Flexibility Score: inf
ROOT
ATOM      1  C   UNL     1     123.753 121.179 143.827  1.00  0.00     0.138 A 
ATOM      2  C   UNL     1     124.910 120.536 144.287  1.00  0.00     0.100 A 
ATOM      3  C   UNL     1     126.015 120.431 143.443  1.00  0.00     0.197 A 
ATOM      4  O   UNL     1     127.049 119.851 143.871  1.00  0.00    -0.289 OA
ATOM      5  C   UNL     1     125.955 120.969 142.137  1.00  0.00     0.115 A 
ATOM      6  C   UNL     1     124.749 121.589 141.743  1.00  0.00     0.188 A 
ATOM      7  O   UNL     1     123.724 121.664 142.589  1.00  0.00    -0.452 OA
ATOM      8  C   UNL     1     124.596 122.124 140.459  1.00  0.00     0.209 A 
ATOM      9  C   UNL     1     125.673 122.062 139.541  1.00  0.00     0.211 A 
ATOM     10  C   UNL     1     126.910 121.514 139.959  1.00  0.00     0.208 A 
ATOM     11  C   UNL     1     127.035 120.901 141.228  1.00  0.00     0.179 A 
ENDROOT
BRANCH   1  12
ATOM     12  C   UNL     1     122.543 121.320 144.677  1.00  0.00     0.021 A 
ATOM     13  C   UNL     1     120.230 121.640 146.264  1.00  0.00     0.160 A 
ATOM     14  C   UNL     1     120.331 122.305 145.033  1.00  0.00     0.161 A 
ATOM     15  C   UNL     1     121.289 120.825 146.701  1.00  0.00     0.051 A 
ATOM     16  C   UNL     1     121.490 122.145 144.249  1.00  0.00     0.062 A 
ATOM     17  C   UNL     1     122.434 120.670 145.918  1.00  0.00     0.016 A 
BRANCH  13  18
ATOM     18  O   UNL     1     119.064 121.819 147.025  1.00  0.00    -0.493 OA
ATOM     19  C   UNL     1     117.901 121.002 146.924  1.00  0.00     0.278 C 
ENDBRANCH  13  18
BRANCH  14  20
ATOM     20  O   UNL     1     119.260 123.116 144.624  1.00  0.00    -0.493 OA
ATOM     21  C   UNL     1     118.340 122.778 143.591  1.00  0.00     0.278 C 
ENDBRANCH  14  20
ENDBRANCH   1  12
BRANCH   8  22
ATOM     22  O   UNL     1     123.344 122.696 140.162  1.00  0.00    -0.490 OA
ATOM     23  C   UNL     1     123.014 124.081 140.162  1.00  0.00     0.278 C 
ENDBRANCH   8  22
BRANCH  11  24
ATOM     24  O   UNL     1     128.208 120.229 141.620  1.00  0.00    -0.492 OA
ATOM     25  C   UNL     1     128.708 119.023 141.049  1.00  0.00     0.278 C 
ENDBRANCH  11  24
BRANCH   9  26
ATOM     26  O   UNL     1     125.486 122.556 138.240  1.00  0.00    -0.490 OA
ATOM     27  C   UNL     1     125.076 121.791 137.110  1.00  0.00     0.279 C 
ENDBRANCH   9  26
BRANCH  10  28
ATOM     28  O   UNL     1     128.032 121.640 139.141  1.00  0.00    -0.490 OA
ATOM     29  C   UNL     1     128.894 122.767 139.254  1.00  0.00     0.278 C 
ENDBRANCH  10  28
TORSDOF 7
ENDMDL
MODEL 3
REMARK VINA RESULT:    -4.516      2.936      6.806
REMARK INTER + INTRA:          -7.088
REMARK INTER:                  -6.372
REMARK INTRA:                  -0.716
REMARK UNBOUND:                -0.724
REMARK SMILES COc1ccc(-c2cc(=O)c3c(OC)c(OC)c(OC)c(OC)c3o2)cc1OC
REMARK SMILES IDX 7 1 8 2 9 3 10 4 11 5 24 6 25 7 21 8 18 9 15 10 12 11 6 12
REMARK SMILES IDX 3 13 27 14 4 15 26 16 5 17 2 18 1 19 28 20 29 21 22 22 23 23
REMARK SMILES IDX 13 24 14 25 19 26 20 27 16 28 17 29
REMARK H PARENT
REMARK Flexibility Score: inf
ROOT
ATOM      1  C   UNL     1     125.282 121.575 140.492  1.00  0.00     0.138 A 
ATOM      2  C   UNL     1     126.505 120.910 140.655  1.00  0.00     0.100 A 
ATOM      3  C   UNL     1     126.903 120.511 141.931  1.00  0.00     0.197 A 
ATOM      4  O   UNL     1     128.005 119.913 142.061  1.00  0.00    -0.289 OA
ATOM      5  C   UNL     1     126.073 120.783 143.042  1.00  0.00     0.115 A 
ATOM      6  C   UNL     1     124.863 121.470 142.798  1.00  0.00     0.188 A 
ATOM      7  O   UNL     1     124.530 121.826 141.560  1.00  0.00    -0.452 OA
ATOM      8  C   UNL     1     123.996 121.802 143.846  1.00  0.00     0.209 A 
ATOM      9  C   UNL     1     124.324 121.430 145.172  1.00  0.00     0.211 A 
ATOM     10  C   UNL     1     125.496 120.671 145.410  1.00  0.00     0.208 A 
ATOM     11  C   UNL     1     126.410 120.409 144.363  1.00  0.00     0.179 A 
ENDROOT
BRANCH   1  12
ATOM     12  C   UNL     1     124.806 122.026 139.161  1.00  0.00     0.021 A 
ATOM     13  C   UNL     1     123.846 122.902 136.654  1.00  0.00     0.160 A 
ATOM     14  C   UNL     1     123.270 123.394 137.834  1.00  0.00     0.161 A 
ATOM     15  C   UNL     1     124.894 121.967 136.731  1.00  0.00     0.051 A 
ATOM     16  C   UNL     1     123.749 122.949 139.081  1.00  0.00     0.062 A 
ATOM     17  C   UNL     1     125.365 121.532 137.971  1.00  0.00     0.016 A 
BRANCH  13  18
ATOM     18  O   UNL     1     123.347 123.362 135.424  1.00  0.00    -0.493 OA
ATOM     19  C   UNL     1     123.595 124.658 134.887  1.00  0.00     0.278 C 
ENDBRANCH  13  18
BRANCH  14  20
ATOM     20  O   UNL     1     122.223 124.323 137.726  1.00  0.00    -0.493 OA
ATOM     21  C   UNL     1     120.876 124.071 138.113  1.00  0.00     0.278 C 
ENDBRANCH  14  20
ENDBRANCH   1  12
BRANCH   8  22
ATOM     22  O   UNL     1     122.830 122.510 143.495  1.00  0.00    -0.490 OA
ATOM     23  C   UNL     1     122.645 123.922 143.521  1.00  0.00     0.278 C 
ENDBRANCH   8  22
BRANCH  11  24
ATOM     24  O   UNL     1     127.646 119.776 144.592  1.00  0.00    -0.492 OA
ATOM     25  C   UNL     1     128.771 120.357 145.246  1.00  0.00     0.278 C 
ENDBRANCH  11  24
BRANCH   9  26
ATOM     26  O   UNL     1     123.469 121.817 146.218  1.00  0.00    -0.490 OA
ATOM     27  C   UNL     1     123.587 123.008 146.992  1.00  0.00     0.279 C 
ENDBRANCH   9  26
BRANCH  10  28
ATOM     28  O   UNL     1     125.717 120.121 146.672  1.00  0.00    -0.490 OA
ATOM     29  C   UNL     1     125.133 118.875 147.036  1.00  0.00     0.278 C 
ENDBRANCH  10  28
TORSDOF 7
ENDMDL
MODEL 4
REMARK VINA RESULT:    -4.484      2.672      8.016
REMARK INTER + INTRA:          -7.042
REMARK INTER:                  -6.462
REMARK INTRA:                  -0.581
REMARK UNBOUND:                -0.724
REMARK SMILES COc1ccc(-c2cc(=O)c3c(OC)c(OC)c(OC)c(OC)c3o2)cc1OC
REMARK SMILES IDX 7 1 8 2 9 3 10 4 11 5 24 6 25 7 21 8 18 9 15 10 12 11 6 12
REMARK SMILES IDX 3 13 27 14 4 15 26 16 5 17 2 18 1 19 28 20 29 21 22 22 23 23
REMARK SMILES IDX 13 24 14 25 19 26 20 27 16 28 17 29
REMARK H PARENT
REMARK Flexibility Score: inf
ROOT
ATOM      1  C   UNL     1     124.452 121.466 142.024  1.00  0.00     0.138 A 
ATOM      2  C   UNL     1     124.979 120.762 143.116  1.00  0.00     0.100 A 
ATOM      3  C   UNL     1     124.256 120.705 144.307  1.00  0.00     0.197 A 
ATOM      4  O   UNL     1     124.743 120.067 145.279  1.00  0.00    -0.289 OA
ATOM      5  C   UNL     1     123.005 121.356 144.401  1.00  0.00     0.115 A 
ATOM      6  C   UNL     1     122.548 122.056 143.262  1.00  0.00     0.188 A 
ATOM      7  O   UNL     1     123.277 122.078 142.149  1.00  0.00    -0.452 OA
ATOM      8  C   UNL     1     121.333 122.750 143.280  1.00  0.00     0.209 A 
ATOM      9  C   UNL     1     120.535 122.739 144.450  1.00  0.00     0.211 A 
ATOM     10  C   UNL     1     120.951 121.972 145.565  1.00  0.00     0.208 A 
ATOM     11  C   UNL     1     122.217 121.341 145.574  1.00  0.00     0.179 A 
ENDROOT
BRANCH   1  12
ATOM     12  C   UNL     1     125.174 121.565 140.732  1.00  0.00     0.021 A 
ATOM     13  C   UNL     1     126.498 121.774 138.246  1.00  0.00     0.160 A 
ATOM     14  C   UNL     1     125.316 122.494 138.472  1.00  0.00     0.161 A 
ATOM     15  C   UNL     1     127.009 120.945 139.260  1.00  0.00     0.051 A 
ATOM     16  C   UNL     1     124.657 122.382 139.712  1.00  0.00     0.062 A 
ATOM     17  C   UNL     1     126.352 120.840 140.487  1.00  0.00     0.016 A 
BRANCH  13  18
ATOM     18  O   UNL     1     127.132 121.905 137.000  1.00  0.00    -0.493 OA
ATOM     19  C   UNL     1     128.098 122.904 136.686  1.00  0.00     0.278 C 
ENDBRANCH  13  18
BRANCH  14  20
ATOM     20  O   UNL     1     124.827 123.311 137.439  1.00  0.00    -0.493 OA
ATOM     21  C   UNL     1     123.740 122.970 136.585  1.00  0.00     0.278 C 
ENDBRANCH  14  20
ENDBRANCH   1  12
BRANCH   8  22
ATOM     22  O   UNL     1     120.985 123.436 142.099  1.00  0.00    -0.490 OA
ATOM     23  C   UNL     1     120.185 122.944 141.028  1.00  0.00     0.278 C 
ENDBRANCH   8  22
BRANCH  11  24
ATOM     24  O   UNL     1     122.716 120.685 146.715  1.00  0.00    -0.492 OA
ATOM     25  C   UNL     1     122.397 119.357 147.120  1.00  0.00     0.278 C 
ENDBRANCH  11  24
BRANCH   9  26
ATOM     26  O   UNL     1     119.344 123.484 144.468  1.00  0.00    -0.490 OA
ATOM     27  C   UNL     1     118.066 123.021 144.041  1.00  0.00     0.279 C 
ENDBRANCH   9  26
BRANCH  10  28
ATOM     28  O   UNL     1     120.079 121.783 146.636  1.00  0.00    -0.490 OA
ATOM     29  C   UNL     1     119.133 120.719 146.626  1.00  0.00     0.278 C 
ENDBRANCH  10  28
TORSDOF 7
ENDMDL
MODEL 5
REMARK VINA RESULT:    -4.472      3.180      6.900
REMARK INTER + INTRA:          -7.025
REMARK INTER:                  -6.268
REMARK INTRA:                  -0.758
REMARK UNBOUND:                -0.724
REMARK SMILES COc1ccc(-c2cc(=O)c3c(OC)c(OC)c(OC)c(OC)c3o2)cc1OC
REMARK SMILES IDX 7 1 8 2 9 3 10 4 11 5 24 6 25 7 21 8 18 9 15 10 12 11 6 12
REMARK SMILES IDX 3 13 27 14 4 15 26 16 5 17 2 18 1 19 28 20 29 21 22 22 23 23
REMARK SMILES IDX 13 24 14 25 19 26 20 27 16 28 17 29
REMARK H PARENT
REMARK Flexibility Score: inf
ROOT
ATOM      1  C   UNL     1     125.174 121.865 139.329  1.00  0.00     0.138 A 
ATOM      2  C   UNL     1     126.461 121.344 139.141  1.00  0.00     0.100 A 
ATOM      3  C   UNL     1     127.138 120.786 140.225  1.00  0.00     0.197 A 
ATOM      4  O   UNL     1     128.295 120.319 140.040  1.00  0.00    -0.289 OA
ATOM      5  C   UNL     1     126.522 120.754 141.497  1.00  0.00     0.115 A 
ATOM      6  C   UNL     1     125.229 121.312 141.608  1.00  0.00     0.188 A 
ATOM      7  O   UNL     1     124.627 121.831 140.541  1.00  0.00    -0.452 OA
ATOM      8  C   UNL     1     124.560 121.346 142.837  1.00  0.00     0.209 A 
ATOM      9  C   UNL     1     125.176 120.796 143.987  1.00  0.00     0.211 A 
ATOM     10  C   UNL     1     126.437 120.163 143.862  1.00  0.00     0.208 A 
ATOM     11  C   UNL     1     127.147 120.204 142.639  1.00  0.00     0.179 A 
ENDROOT
BRANCH   1  12
ATOM     12  C   UNL     1     124.404 122.474 138.216  1.00  0.00     0.021 A 
ATOM     13  C   UNL     1     122.896 123.648 136.137  1.00  0.00     0.160 A 
ATOM     14  C   UNL     1     122.652 124.012 137.469  1.00  0.00     0.161 A 
ATOM     15  C   UNL     1     123.886 122.693 135.849  1.00  0.00     0.051 A 
ATOM     16  C   UNL     1     123.404 123.419 138.502  1.00  0.00     0.062 A 
ATOM     17  C   UNL     1     124.629 122.110 136.877  1.00  0.00     0.016 A 
BRANCH  13  18
ATOM     18  O   UNL     1     122.130 124.255 135.128  1.00  0.00    -0.493 OA
ATOM     19  C   UNL     1     122.632 124.631 133.849  1.00  0.00     0.278 C 
ENDBRANCH  13  18
BRANCH  14  20
ATOM     20  O   UNL     1     121.654 124.965 137.727  1.00  0.00    -0.493 OA
ATOM     21  C   UNL     1     121.902 126.340 138.003  1.00  0.00     0.278 C 
ENDBRANCH  14  20
ENDBRANCH   1  12
BRANCH   8  22
ATOM     22  O   UNL     1     123.287 121.949 142.841  1.00  0.00    -0.490 OA
ATOM     23  C   UNL     1     122.968 123.273 143.257  1.00  0.00     0.278 C 
ENDBRANCH   8  22
BRANCH  11  24
ATOM     24  O   UNL     1     128.457 119.704 142.520  1.00  0.00    -0.492 OA
ATOM     25  C   UNL     1     129.641 120.352 142.979  1.00  0.00     0.278 C 
ENDBRANCH  11  24
BRANCH   9  26
ATOM     26  O   UNL     1     124.513 120.885 145.222  1.00  0.00    -0.490 OA
ATOM     27  C   UNL     1     123.541 119.966 145.713  1.00  0.00     0.279 C 
ENDBRANCH   9  26
BRANCH  10  28
ATOM     28  O   UNL     1     126.953 119.437 144.935  1.00  0.00    -0.490 OA
ATOM     29  C   UNL     1     127.638 120.092 145.997  1.00  0.00     0.278 C 
ENDBRANCH  10  28
TORSDOF 7
ENDMDL
MODEL 6
REMARK VINA RESULT:    -4.443     18.933     22.289
REMARK INTER + INTRA:          -6.984
REMARK INTER:                  -6.356
REMARK INTRA:                  -0.628
REMARK UNBOUND:                -0.724
REMARK SMILES COc1ccc(-c2cc(=O)c3c(OC)c(OC)c(OC)c(OC)c3o2)cc1OC
REMARK SMILES IDX 7 1 8 2 9 3 10 4 11 5 24 6 25 7 21 8 18 9 15 10 12 11 6 12
REMARK SMILES IDX 3 13 27 14 4 15 26 16 5 17 2 18 1 19 28 20 29 21 22 22 23 23
REMARK SMILES IDX 13 24 14 25 19 26 20 27 16 28 17 29
REMARK H PARENT
REMARK Flexibility Score: inf
ROOT
ATOM      1  C   UNL     1     136.324 137.601 134.410  1.00  0.00     0.138 A 
ATOM      2  C   UNL     1     137.268 138.066 135.335  1.00  0.00     0.100 A 
ATOM      3  C   UNL     1     136.854 138.406 136.623  1.00  0.00     0.197 A 
ATOM      4  O   UNL     1     137.715 138.822 137.444  1.00  0.00    -0.289 OA
ATOM      5  C   UNL     1     135.492 138.279 136.979  1.00  0.00     0.115 A 
ATOM      6  C   UNL     1     134.600 137.816 135.986  1.00  0.00     0.188 A 
ATOM      7  O   UNL     1     135.047 137.505 134.773  1.00  0.00    -0.452 OA
ATOM      8  C   UNL     1     133.231 137.688 136.248  1.00  0.00     0.209 A 
ATOM      9  C   UNL     1     132.729 138.008 137.533  1.00  0.00     0.211 A 
ATOM     10  C   UNL     1     133.631 138.395 138.553  1.00  0.00     0.208 A 
ATOM     11  C   UNL     1     135.000 138.604 138.264  1.00  0.00     0.179 A 
ENDROOT
BRANCH   1  12
ATOM     12  C   UNL     1     136.701 137.226 133.025  1.00  0.00     0.021 A 
ATOM     13  C   UNL     1     137.401 136.458 130.399  1.00  0.00     0.160 A 
ATOM     14  C   UNL     1     136.476 135.697 131.127  1.00  0.00     0.161 A 
ATOM     15  C   UNL     1     137.981 137.595 130.989  1.00  0.00     0.051 A 
ATOM     16  C   UNL     1     136.135 136.082 132.438  1.00  0.00     0.062 A 
ATOM     17  C   UNL     1     137.637 137.973 132.288  1.00  0.00     0.016 A 
BRANCH  13  18
ATOM     18  O   UNL     1     137.723 136.049 129.095  1.00  0.00    -0.493 OA
ATOM     19  C   UNL     1     136.950 136.357 127.938  1.00  0.00     0.278 C 
ENDBRANCH  13  18
BRANCH  14  20
ATOM     20  O   UNL     1     135.916 134.564 130.514  1.00  0.00    -0.493 OA
ATOM     21  C   UNL     1     134.552 134.448 130.122  1.00  0.00     0.278 C 
ENDBRANCH  14  20
ENDBRANCH   1  12
BRANCH   8  22
ATOM     22  O   UNL     1     132.427 137.243 135.180  1.00  0.00    -0.490 OA
ATOM     23  C   UNL     1     131.932 135.924 134.974  1.00  0.00     0.278 C 
ENDBRANCH   8  22
BRANCH  11  24
ATOM     24  O   UNL     1     135.896 139.117 139.221  1.00  0.00    -0.492 OA
ATOM     25  C   UNL     1     136.379 138.421 140.367  1.00  0.00     0.278 C 
ENDBRANCH  11  24
BRANCH   9  26
ATOM     26  O   UNL     1     131.346 137.924 137.763  1.00  0.00    -0.490 OA
ATOM     27  C   UNL     1     130.406 138.980 137.581  1.00  0.00     0.279 C 
ENDBRANCH   9  26
BRANCH  10  28
ATOM     28  O   UNL     1     133.180 138.506 139.868  1.00  0.00    -0.490 OA
ATOM     29  C   UNL     1     132.957 137.347 140.662  1.00  0.00     0.278 C 
ENDBRANCH  10  28
TORSDOF 7
ENDMDL
MODEL 7
REMARK VINA RESULT:    -4.439      1.917      7.865
REMARK INTER + INTRA:          -6.979
REMARK INTER:                  -6.348
REMARK INTRA:                  -0.631
REMARK UNBOUND:                -0.724
REMARK SMILES COc1ccc(-c2cc(=O)c3c(OC)c(OC)c(OC)c(OC)c3o2)cc1OC
REMARK SMILES IDX 7 1 8 2 9 3 10 4 11 5 24 6 25 7 21 8 18 9 15 10 12 11 6 12
REMARK SMILES IDX 3 13 27 14 4 15 26 16 5 17 2 18 1 19 28 20 29 21 22 22 23 23
REMARK SMILES IDX 13 24 14 25 19 26 20 27 16 28 17 29
REMARK H PARENT
REMARK Flexibility Score: inf
ROOT
ATOM      1  C   UNL     1     124.959 120.795 143.543  1.00  0.00     0.138 A 
ATOM      2  C   UNL     1     124.767 120.132 144.763  1.00  0.00     0.100 A 
ATOM      3  C   UNL     1     123.590 120.346 145.479  1.00  0.00     0.197 A 
ATOM      4  O   UNL     1     123.431 119.741 146.574  1.00  0.00    -0.289 OA
ATOM      5  C   UNL     1     122.607 121.225 144.969  1.00  0.00     0.115 A 
ATOM      6  C   UNL     1     122.881 121.865 143.740  1.00  0.00     0.188 A 
ATOM      7  O   UNL     1     124.021 121.625 143.097  1.00  0.00    -0.452 OA
ATOM      8  C   UNL     1     121.974 122.771 143.180  1.00  0.00     0.209 A 
ATOM      9  C   UNL     1     120.751 123.040 143.841  1.00  0.00     0.211 A 
ATOM     10  C   UNL     1     120.438 122.340 145.031  1.00  0.00     0.208 A 
ATOM     11  C   UNL     1     121.391 121.489 145.639  1.00  0.00     0.179 A 
ENDROOT
BRANCH   1  12
ATOM     12  C   UNL     1     126.192 120.612 142.736  1.00  0.00     0.021 A 
ATOM     13  C   UNL     1     128.504 120.264 141.152  1.00  0.00     0.160 A 
ATOM     14  C   UNL     1     127.335 120.786 140.579  1.00  0.00     0.161 A 
ATOM     15  C   UNL     1     128.510 119.909 142.513  1.00  0.00     0.051 A 
ATOM     16  C   UNL     1     126.184 120.953 141.373  1.00  0.00     0.062 A 
ATOM     17  C   UNL     1     127.366 120.078 143.294  1.00  0.00     0.016 A 
BRANCH  13  18
ATOM     18  O   UNL     1     129.636 120.109 140.336  1.00  0.00    -0.493 OA
ATOM     19  C   UNL     1     130.660 121.087 140.181  1.00  0.00     0.278 C 
ENDBRANCH  13  18
BRANCH  14  20
ATOM     20  O   UNL     1     127.356 121.128 139.217  1.00  0.00    -0.493 OA
ATOM     21  C   UNL     1     126.239 121.026 138.341  1.00  0.00     0.278 C 
ENDBRANCH  14  20
ENDBRANCH   1  12
BRANCH   8  22
ATOM     22  O   UNL     1     122.358 123.372 141.965  1.00  0.00    -0.490 OA
ATOM     23  C   UNL     1     121.878 123.053 140.663  1.00  0.00     0.278 C 
ENDBRANCH   8  22
BRANCH  11  24
ATOM     24  O   UNL     1     121.162 120.884 146.889  1.00  0.00    -0.492 OA
ATOM     25  C   UNL     1     120.344 119.742 147.125  1.00  0.00     0.278 C 
ENDBRANCH  11  24
BRANCH   9  26
ATOM     26  O   UNL     1     119.876 123.992 143.292  1.00  0.00    -0.490 OA
ATOM     27  C   UNL     1     119.850 125.381 143.609  1.00  0.00     0.279 C 
ENDBRANCH   9  26
BRANCH  10  28
ATOM     28  O   UNL     1     119.157 122.438 145.573  1.00  0.00    -0.490 OA
ATOM     29  C   UNL     1     118.098 121.618 145.092  1.00  0.00     0.278 C 
ENDBRANCH  10  28
TORSDOF 7
ENDMDL
MODEL 8
REMARK VINA RESULT:    -4.397      9.097     13.176
REMARK INTER + INTRA:          -6.921
REMARK INTER:                  -6.054
REMARK INTRA:                  -0.866
REMARK UNBOUND:                -0.724
REMARK SMILES COc1ccc(-c2cc(=O)c3c(OC)c(OC)c(OC)c(OC)c3o2)cc1OC
REMARK SMILES IDX 7 1 8 2 9 3 10 4 11 5 24 6 25 7 21 8 18 9 15 10 12 11 6 12
REMARK SMILES IDX 3 13 27 14 4 15 26 16 5 17 2 18 1 19 28 20 29 21 22 22 23 23
REMARK SMILES IDX 13 24 14 25 19 26 20 27 16 28 17 29
REMARK H PARENT
REMARK Flexibility Score: inf
ROOT
ATOM      1  C   UNL     1     122.540 124.564 134.149  1.00  0.00     0.138 A 
ATOM      2  C   UNL     1     121.149 124.507 134.308  1.00  0.00     0.100 A 
ATOM      3  C   UNL     1     120.324 124.864 133.242  1.00  0.00     0.197 A 
ATOM      4  O   UNL     1     119.074 124.805 133.399  1.00  0.00    -0.289 OA
ATOM      5  C   UNL     1     120.897 125.279 132.018  1.00  0.00     0.115 A 
ATOM      6  C   UNL     1     122.307 125.323 131.942  1.00  0.00     0.188 A 
ATOM      7  O   UNL     1     123.048 124.971 132.989  1.00  0.00    -0.452 OA
ATOM      8  C   UNL     1     122.955 125.749 130.777  1.00  0.00     0.209 A 
ATOM      9  C   UNL     1     122.189 126.124 129.646  1.00  0.00     0.211 A 
ATOM     10  C   UNL     1     120.779 126.004 129.692  1.00  0.00     0.208 A 
ATOM     11  C   UNL     1     120.124 125.654 130.896  1.00  0.00     0.179 A 
ENDROOT
BRANCH   1  12
ATOM     12  C   UNL     1     123.471 124.201 135.247  1.00  0.00     0.021 A 
ATOM     13  C   UNL     1     125.278 123.552 137.318  1.00  0.00     0.160 A 
ATOM     14  C   UNL     1     125.317 124.824 136.728  1.00  0.00     0.161 A 
ATOM     15  C   UNL     1     124.342 122.606 136.864  1.00  0.00     0.051 A 
ATOM     16  C   UNL     1     124.416 125.140 135.692  1.00  0.00     0.062 A 
ATOM     17  C   UNL     1     123.452 122.926 135.838  1.00  0.00     0.016 A 
BRANCH  13  18
ATOM     18  O   UNL     1     126.189 123.266 138.347  1.00  0.00    -0.493 OA
ATOM     19  C   UNL     1     127.273 122.350 138.234  1.00  0.00     0.278 C 
ENDBRANCH  13  18
BRANCH  14  20
ATOM     20  O   UNL     1     126.265 125.748 137.198  1.00  0.00    -0.493 OA
ATOM     21  C   UNL     1     127.538 125.973 136.602  1.00  0.00     0.278 C 
ENDBRANCH  14  20
ENDBRANCH   1  12
BRANCH   8  22
ATOM     22  O   UNL     1     124.362 125.780 130.817  1.00  0.00    -0.490 OA
ATOM     23  C   UNL     1     125.256 124.849 130.214  1.00  0.00     0.278 C 
ENDBRANCH   8  22
BRANCH  11  24
ATOM     24  O   UNL     1     118.721 125.656 131.011  1.00  0.00    -0.492 OA
ATOM     25  C   UNL     1     117.886 126.810 130.984  1.00  0.00     0.278 C 
ENDBRANCH  11  24
BRANCH   9  26
ATOM     26  O   UNL     1     122.853 126.599 128.502  1.00  0.00    -0.490 OA
ATOM     27  C   UNL     1     123.148 127.964 128.217  1.00  0.00     0.279 C 
ENDBRANCH   9  26
BRANCH  10  28
ATOM     28  O   UNL     1     120.035 126.166 128.524  1.00  0.00    -0.490 OA
ATOM     29  C   UNL     1     119.750 125.056 127.680  1.00  0.00     0.278 C 
ENDBRANCH  10  28
TORSDOF 7
ENDMDL
MODEL 9
REMARK VINA RESULT:    -4.372      5.192      8.581
REMARK INTER + INTRA:          -6.885
REMARK INTER:                  -6.247
REMARK INTRA:                  -0.638
REMARK UNBOUND:                -0.724
REMARK SMILES COc1ccc(-c2cc(=O)c3c(OC)c(OC)c(OC)c(OC)c3o2)cc1OC
REMARK SMILES IDX 7 1 8 2 9 3 10 4 11 5 24 6 25 7 21 8 18 9 15 10 12 11 6 12
REMARK SMILES IDX 3 13 27 14 4 15 26 16 5 17 2 18 1 19 28 20 29 21 22 22 23 23
REMARK SMILES IDX 13 24 14 25 19 26 20 27 16 28 17 29
REMARK H PARENT
REMARK Flexibility Score: inf
ROOT
ATOM      1  C   UNL     1     121.574 125.412 143.905  1.00  0.00     0.138 A 
ATOM      2  C   UNL     1     120.387 124.878 143.386  1.00  0.00     0.100 A 
ATOM      3  C   UNL     1     120.116 123.520 143.556  1.00  0.00     0.197 A 
ATOM      4  O   UNL     1     119.044 123.055 143.084  1.00  0.00    -0.289 OA
ATOM      5  C   UNL     1     121.039 122.701 144.247  1.00  0.00     0.115 A 
ATOM      6  C   UNL     1     122.218 123.312 144.728  1.00  0.00     0.188 A 
ATOM      7  O   UNL     1     122.427 124.612 144.539  1.00  0.00    -0.452 OA
ATOM      8  C   UNL     1     123.195 122.567 145.398  1.00  0.00     0.209 A 
ATOM      9  C   UNL     1     122.995 121.183 145.617  1.00  0.00     0.211 A 
ATOM     10  C   UNL     1     121.779 120.585 145.208  1.00  0.00     0.208 A 
ATOM     11  C   UNL     1     120.830 121.320 144.458  1.00  0.00     0.179 A 
ENDROOT
BRANCH   1  12
ATOM     12  C   UNL     1     121.921 126.847 143.754  1.00  0.00     0.021 A 
ATOM     13  C   UNL     1     122.523 129.590 143.454  1.00  0.00     0.160 A 
ATOM     14  C   UNL     1     121.209 129.189 143.738  1.00  0.00     0.161 A 
ATOM     15  C   UNL     1     123.529 128.618 143.312  1.00  0.00     0.051 A 
ATOM     16  C   UNL     1     120.914 127.819 143.881  1.00  0.00     0.062 A 
ATOM     17  C   UNL     1     123.230 127.263 143.457  1.00  0.00     0.016 A 
BRANCH  13  18
ATOM     18  O   UNL     1     122.787 130.962 143.316  1.00  0.00    -0.493 OA
ATOM     19  C   UNL     1     123.337 131.786 144.340  1.00  0.00     0.278 C 
ENDBRANCH  13  18
BRANCH  14  20
ATOM     20  O   UNL     1     120.224 130.182 143.871  1.00  0.00    -0.493 OA
ATOM     21  C   UNL     1     119.120 130.109 144.766  1.00  0.00     0.278 C 
ENDBRANCH  14  20
ENDBRANCH   1  12
BRANCH   8  22
ATOM     22  O   UNL     1     124.344 123.269 145.813  1.00  0.00    -0.490 OA
ATOM     23  C   UNL     1     124.627 123.749 147.124  1.00  0.00     0.278 C 
ENDBRANCH   8  22
BRANCH  11  24
ATOM     24  O   UNL     1     119.676 120.720 143.922  1.00  0.00    -0.492 OA
ATOM     25  C   UNL     1     118.543 120.279 144.666  1.00  0.00     0.278 C 
ENDBRANCH  11  24
BRANCH   9  26
ATOM     26  O   UNL     1     124.009 120.440 146.245  1.00  0.00    -0.490 OA
ATOM     27  C   UNL     1     125.094 119.791 145.588  1.00  0.00     0.279 C 
ENDBRANCH   9  26
BRANCH  10  28
ATOM     28  O   UNL     1     121.483 119.281 145.604  1.00  0.00    -0.490 OA
ATOM     29  C   UNL     1     121.086 118.998 146.941  1.00  0.00     0.278 C 
ENDBRANCH  10  28
TORSDOF 7
ENDMDL
