MODEL 1
REMARK VINA RESULT:    -3.619      0.000      0.000
REMARK INTER + INTRA:          -4.362
REMARK INTER:                  -4.359
REMARK INTRA:                  -0.003
REMARK UNBOUND:                -0.003
REMARK SMILES OCC(O)CO
REMARK SMILES IDX 3 1 5 2 6 3 2 5 1 6 4 8
REMARK H PARENT 6 4 1 7 4 9
REMARK Flexibility Score: inf
ROOT
ATOM      1  C   UNL     1      18.530   4.288  15.572  1.00  0.00     0.165 C 
ENDROOT
BRANCH   1   2
ATOM      2  C   UNL     1      17.626   3.046  15.606  1.00  0.00     0.190 C 
BRANCH   2   3
ATOM      3  O   UNL     1      18.230   1.980  14.925  1.00  0.00    -0.394 OA
ATOM      4  H   UNL     1      19.152   2.269  14.700  1.00  0.00     0.210 HD
ENDBRANCH   2   3
ENDBRANCH   1   2
BRANCH   1   5
ATOM      5  C   UNL     1      18.122   5.279  16.669  1.00  0.00     0.190 C 
BRANCH   5   6
ATOM      6  O   UNL     1      18.559   6.573  16.347  1.00  0.00    -0.394 OA
ATOM      7  H   UNL     1      19.549   6.567  16.420  1.00  0.00     0.210 HD
ENDBRANCH   5   6
ENDBRANCH   1   5
BRANCH   1   8
ATOM      8  O   UNL     1      19.869   3.911  15.766  1.00  0.00    -0.388 OA
ATOM      9  H   UNL     1      19.992   3.037  15.310  1.00  0.00     0.211 HD
ENDBRANCH   1   8
TORSDOF 5
ENDMDL
MODEL 2
REMARK VINA RESULT:    -3.566     10.116     10.990
REMARK INTER + INTRA:          -4.298
REMARK INTER:                  -4.085
REMARK INTRA:                  -0.213
REMARK UNBOUND:                -0.003
REMARK SMILES OCC(O)CO
REMARK SMILES IDX 3 1 5 2 6 3 2 5 1 6 4 8
REMARK H PARENT 6 4 1 7 4 9
REMARK Flexibility Score: inf
ROOT
ATOM      1  C   UNL     1      22.213   8.250  25.883  1.00  0.00     0.165 C 
ENDROOT
BRANCH   1   2
ATOM      2  C   UNL     1      21.787   9.593  25.270  1.00  0.00     0.190 C 
BRANCH   2   3
ATOM      3  O   UNL     1      20.896   9.386  24.207  1.00  0.00    -0.394 OA
ATOM      4  H   UNL     1      20.078   9.909  24.413  1.00  0.00     0.210 HD
ENDBRANCH   2   3
ENDBRANCH   1   2
BRANCH   1   5
ATOM      5  C   UNL     1      21.200   7.154  25.531  1.00  0.00     0.190 C 
BRANCH   5   6
ATOM      6  O   UNL     1      21.629   6.435  24.405  1.00  0.00    -0.394 OA
ATOM      7  H   UNL     1      21.968   5.563  24.735  1.00  0.00     0.210 HD
ENDBRANCH   5   6
ENDBRANCH   1   5
BRANCH   1   8
ATOM      8  O   UNL     1      23.479   7.882  25.396  1.00  0.00    -0.388 OA
ATOM      9  H   UNL     1      23.405   7.834  24.407  1.00  0.00     0.211 HD
ENDBRANCH   1   8
TORSDOF 5
ENDMDL
MODEL 3
REMARK VINA RESULT:    -3.518      8.979      9.394
REMARK INTER + INTRA:          -4.241
REMARK INTER:                  -4.057
REMARK INTRA:                  -0.183
REMARK UNBOUND:                -0.003
REMARK SMILES OCC(O)CO
REMARK SMILES IDX 3 1 5 2 6 3 2 5 1 6 4 8
REMARK H PARENT 6 4 1 7 4 9
REMARK Flexibility Score: inf
ROOT
ATOM      1  C   UNL     1      20.373   1.778  24.663  1.00  0.00     0.165 C 
ENDROOT
BRANCH   1   2
ATOM      2  C   UNL     1      19.601   2.294  23.439  1.00  0.00     0.190 C 
BRANCH   2   3
ATOM      3  O   UNL     1      18.679   1.334  22.999  1.00  0.00    -0.394 OA
ATOM      4  H   UNL     1      18.667   1.380  22.008  1.00  0.00     0.210 HD
ENDBRANCH   2   3
ENDBRANCH   1   2
BRANCH   1   5
ATOM      5  C   UNL     1      19.484   0.857  25.509  1.00  0.00     0.190 C 
BRANCH   5   6
ATOM      6  O   UNL     1      19.412  -0.419  24.930  1.00  0.00    -0.394 OA
ATOM      7  H   UNL     1      20.343  -0.691  24.720  1.00  0.00     0.210 HD
ENDBRANCH   5   6
ENDBRANCH   1   5
BRANCH   1   8
ATOM      8  O   UNL     1      21.510   1.066  24.246  1.00  0.00    -0.388 OA
ATOM      9  H   UNL     1      22.113   1.717  23.802  1.00  0.00     0.211 HD
ENDBRANCH   1   8
TORSDOF 5
ENDMDL
MODEL 4
REMARK VINA RESULT:    -3.505      8.825      9.140
REMARK INTER + INTRA:          -4.224
REMARK INTER:                  -4.039
REMARK INTRA:                  -0.185
REMARK UNBOUND:                -0.003
REMARK SMILES OCC(O)CO
REMARK SMILES IDX 3 1 5 2 6 3 2 5 1 6 4 8
REMARK H PARENT 6 4 1 7 4 9
REMARK Flexibility Score: inf
ROOT
ATOM      1  C   UNL     1      20.495   1.782  24.100  1.00  0.00     0.165 C 
ENDROOT
BRANCH   1   2
ATOM      2  C   UNL     1      20.083   0.956  25.328  1.00  0.00     0.190 C 
BRANCH   2   3
ATOM      3  O   UNL     1      19.539  -0.274  24.932  1.00  0.00    -0.394 OA
ATOM      4  H   UNL     1      18.792  -0.071  24.312  1.00  0.00     0.210 HD
ENDBRANCH   2   3
ENDBRANCH   1   2
BRANCH   1   5
ATOM      5  C   UNL     1      19.255   2.294  23.357  1.00  0.00     0.190 C 
BRANCH   5   6
ATOM      6  O   UNL     1      18.459   1.218  22.937  1.00  0.00    -0.394 OA
ATOM      7  H   UNL     1      17.754   1.595  22.349  1.00  0.00     0.210 HD
ENDBRANCH   5   6
ENDBRANCH   1   5
BRANCH   1   8
ATOM      8  O   UNL     1      21.277   2.879  24.502  1.00  0.00    -0.388 OA
ATOM      9  H   UNL     1      20.899   3.204  25.361  1.00  0.00     0.211 HD
ENDBRANCH   1   8
TORSDOF 5
ENDMDL
MODEL 5
REMARK VINA RESULT:    -3.490      0.505      3.126
REMARK INTER + INTRA:          -4.206
REMARK INTER:                  -4.204
REMARK INTRA:                  -0.003
REMARK UNBOUND:                -0.003
REMARK SMILES OCC(O)CO
REMARK SMILES IDX 3 1 5 2 6 3 2 5 1 6 4 8
REMARK H PARENT 6 4 1 7 4 9
REMARK Flexibility Score: inf
ROOT
ATOM      1  C   UNL     1      18.445   4.128  16.141  1.00  0.00     0.165 C 
ENDROOT
BRANCH   1   2
ATOM      2  C   UNL     1      17.963   5.499  15.642  1.00  0.00     0.190 C 
BRANCH   2   3
ATOM      3  O   UNL     1      18.555   6.528  16.388  1.00  0.00    -0.394 OA
ATOM      4  H   UNL     1      18.365   6.336  17.343  1.00  0.00     0.210 HD
ENDBRANCH   2   3
ENDBRANCH   1   2
BRANCH   1   5
ATOM      5  C   UNL     1      17.516   3.017  15.636  1.00  0.00     0.190 C 
BRANCH   5   6
ATOM      6  O   UNL     1      18.255   2.028  14.969  1.00  0.00    -0.394 OA
ATOM      7  H   UNL     1      19.063   2.473  14.603  1.00  0.00     0.210 HD
ENDBRANCH   5   6
ENDBRANCH   1   5
BRANCH   1   8
ATOM      8  O   UNL     1      19.750   3.883  15.681  1.00  0.00    -0.388 OA
ATOM      9  H   UNL     1      19.973   2.947  15.926  1.00  0.00     0.211 HD
ENDBRANCH   1   8
TORSDOF 5
ENDMDL
MODEL 6
REMARK VINA RESULT:    -3.469      8.920      9.274
REMARK INTER + INTRA:          -4.181
REMARK INTER:                  -3.979
REMARK INTRA:                  -0.203
REMARK UNBOUND:                -0.003
REMARK SMILES OCC(O)CO
REMARK SMILES IDX 3 1 5 2 6 3 2 5 1 6 4 8
REMARK H PARENT 6 4 1 7 4 9
REMARK Flexibility Score: inf
ROOT
ATOM      1  C   UNL     1      19.192   1.836  24.140  1.00  0.00     0.165 C 
ENDROOT
BRANCH   1   2
ATOM      2  C   UNL     1      19.051   0.830  25.293  1.00  0.00     0.190 C 
BRANCH   2   3
ATOM      3  O   UNL     1      19.271  -0.477  24.834  1.00  0.00    -0.394 OA
ATOM      4  H   UNL     1      18.742  -0.581  24.001  1.00  0.00     0.210 HD
ENDBRANCH   2   3
ENDBRANCH   1   2
BRANCH   1   5
ATOM      5  C   UNL     1      20.669   2.173  23.901  1.00  0.00     0.190 C 
BRANCH   5   6
ATOM      6  O   UNL     1      21.485   1.098  24.282  1.00  0.00    -0.394 OA
ATOM      7  H   UNL     1      22.086   0.908  23.516  1.00  0.00     0.210 HD
ENDBRANCH   5   6
ENDBRANCH   1   5
BRANCH   1   8
ATOM      8  O   UNL     1      18.646   1.294  22.964  1.00  0.00    -0.388 OA
ATOM      9  H   UNL     1      19.407   1.061  22.372  1.00  0.00     0.211 HD
ENDBRANCH   1   8
TORSDOF 5
ENDMDL
MODEL 7
REMARK VINA RESULT:    -3.461      8.477      8.822
REMARK INTER + INTRA:          -4.172
REMARK INTER:                  -3.957
REMARK INTRA:                  -0.215
REMARK UNBOUND:                -0.003
REMARK SMILES OCC(O)CO
REMARK SMILES IDX 3 1 5 2 6 3 2 5 1 6 4 8
REMARK H PARENT 6 4 1 7 4 9
REMARK Flexibility Score: inf
ROOT
ATOM      1  C   UNL     1      19.515   2.099  23.992  1.00  0.00     0.165 C 
ENDROOT
BRANCH   1   2
ATOM      2  C   UNL     1      18.060   1.626  23.841  1.00  0.00     0.190 C 
BRANCH   2   3
ATOM      3  O   UNL     1      17.946   0.723  22.776  1.00  0.00    -0.394 OA
ATOM      4  H   UNL     1      18.802   0.760  22.275  1.00  0.00     0.210 HD
ENDBRANCH   2   3
ENDBRANCH   1   2
BRANCH   1   5
ATOM      5  C   UNL     1      20.373   0.998  24.628  1.00  0.00     0.190 C 
BRANCH   5   6
ATOM      6  O   UNL     1      19.587  -0.126  24.921  1.00  0.00    -0.394 OA
ATOM      7  H   UNL     1      18.982  -0.263  24.146  1.00  0.00     0.210 HD
ENDBRANCH   5   6
ENDBRANCH   1   5
BRANCH   1   8
ATOM      8  O   UNL     1      20.044   2.426  22.733  1.00  0.00    -0.388 OA
ATOM      9  H   UNL     1      20.335   3.374  22.778  1.00  0.00     0.211 HD
ENDBRANCH   1   8
TORSDOF 5
ENDMDL
MODEL 8
REMARK VINA RESULT:    -3.461      8.747      9.197
REMARK INTER + INTRA:          -4.172
REMARK INTER:                  -3.948
REMARK INTRA:                  -0.224
REMARK UNBOUND:                -0.003
REMARK SMILES OCC(O)CO
REMARK SMILES IDX 3 1 5 2 6 3 2 5 1 6 4 8
REMARK H PARENT 6 4 1 7 4 9
REMARK Flexibility Score: inf
ROOT
ATOM      1  C   UNL     1      19.433   1.034  24.891  1.00  0.00     0.165 C 
ENDROOT
BRANCH   1   2
ATOM      2  C   UNL     1      20.737   1.559  24.270  1.00  0.00     0.190 C 
BRANCH   2   3
ATOM      3  O   UNL     1      20.459   2.494  23.263  1.00  0.00    -0.394 OA
ATOM      4  H   UNL     1      19.787   2.078  22.663  1.00  0.00     0.210 HD
ENDBRANCH   2   3
ENDBRANCH   1   2
BRANCH   1   5
ATOM      5  C   UNL     1      18.222   1.516  24.082  1.00  0.00     0.190 C 
BRANCH   5   6
ATOM      6  O   UNL     1      18.115   0.794  22.884  1.00  0.00    -0.394 OA
ATOM      7  H   UNL     1      19.025   0.758  22.489  1.00  0.00     0.210 HD
ENDBRANCH   5   6
ENDBRANCH   1   5
BRANCH   1   8
ATOM      8  O   UNL     1      19.445  -0.371  24.910  1.00  0.00    -0.388 OA
ATOM      9  H   UNL     1      20.087  -0.665  24.213  1.00  0.00     0.211 HD
ENDBRANCH   1   8
TORSDOF 5
ENDMDL
MODEL 9
REMARK VINA RESULT:    -3.381      9.748     10.105
REMARK INTER + INTRA:          -4.076
REMARK INTER:                  -3.853
REMARK INTRA:                  -0.223
REMARK UNBOUND:                -0.003
REMARK SMILES OCC(O)CO
REMARK SMILES IDX 3 1 5 2 6 3 2 5 1 6 4 8
REMARK H PARENT 6 4 1 7 4 9
REMARK Flexibility Score: inf
ROOT
ATOM      1  C   UNL     1      20.079   0.745  25.124  1.00  0.00     0.165 C 
ENDROOT
BRANCH   1   2
ATOM      2  C   UNL     1      19.936   1.764  23.982  1.00  0.00     0.190 C 
BRANCH   2   3
ATOM      3  O   UNL     1      21.102   2.533  23.862  1.00  0.00    -0.394 OA
ATOM      4  H   UNL     1      21.335   2.845  24.774  1.00  0.00     0.210 HD
ENDBRANCH   2   3
ENDBRANCH   1   2
BRANCH   1   5
ATOM      5  C   UNL     1      19.598   1.353  26.448  1.00  0.00     0.190 C 
BRANCH   5   6
ATOM      6  O   UNL     1      20.272   2.555  26.708  1.00  0.00    -0.394 OA
ATOM      7  H   UNL     1      20.230   2.701  27.689  1.00  0.00     0.210 HD
ENDBRANCH   5   6
ENDBRANCH   1   5
BRANCH   1   8
ATOM      8  O   UNL     1      19.320  -0.402  24.840  1.00  0.00    -0.388 OA
ATOM      9  H   UNL     1      19.698  -1.142  25.383  1.00  0.00     0.211 HD
ENDBRANCH   1   8
TORSDOF 5
ENDMDL
