MODEL 1
REMARK VINA RESULT:    -4.731      0.000      0.000
REMARK INTER + INTRA:         -13.400
REMARK INTER:                 -10.815
REMARK INTRA:                  -2.585
REMARK UNBOUND:                -2.585
REMARK SMILES CCCCCCCCCCCCCCCCCCCCCCCC(=O)[O-]
REMARK SMILES IDX 13 1 14 2 15 3 16 4 17 5 18 6 19 7 20 8 21 9 22 10 23 11
REMARK SMILES IDX 24 12 25 13 26 14 12 15 11 16 10 17 9 18 8 19 7 20 6 21 5 22
REMARK SMILES IDX 4 23 3 24 2 25 1 26
REMARK H PARENT
REMARK Flexibility Score: inf
ROOT
ATOM      1  C   UNL     1       7.131  78.065  65.400  1.00  0.00     0.000 C 
ENDROOT
BRANCH   1   2
ATOM      2  C   UNL     1       7.200  77.805  66.913  1.00  0.00     0.000 C 
BRANCH   2   3
ATOM      3  C   UNL     1       6.196  78.657  67.709  1.00  0.00     0.000 C 
BRANCH   3   4
ATOM      4  C   UNL     1       5.161  77.786  68.455  1.00  0.00     0.000 C 
BRANCH   4   5
ATOM      5  C   UNL     1       5.411  76.274  68.319  1.00  0.00     0.000 C 
BRANCH   5   6
ATOM      6  C   UNL     1       4.260  75.540  67.611  1.00  0.00     0.000 C 
BRANCH   6   7
ATOM      7  C   UNL     1       3.192  75.014  68.588  1.00  0.00     0.000 C 
BRANCH   7   8
ATOM      8  C   UNL     1       1.739  75.097  68.083  1.00  0.00     0.000 C 
BRANCH   8   9
ATOM      9  C   UNL     1       1.155  76.517  68.166  1.00  0.00     0.000 C 
BRANCH   9  10
ATOM     10  C   UNL     1       1.421  77.192  69.525  1.00  0.00     0.006 C 
BRANCH  10  11
ATOM     11  C   UNL     1       0.870  78.623  69.636  1.00  0.00     0.053 C 
BRANCH  11  12
ATOM     12  C   UNL     1       1.819  79.538  70.347  1.00  0.00     0.041 C 
ATOM     13  O   UNL     1       2.747  80.108  69.713  1.00  0.00    -0.550 OA
ATOM     14  O   UNL     1       1.653  79.794  71.702  1.00  0.00    -0.550 OA
ENDBRANCH  11  12
ENDBRANCH  10  11
ENDBRANCH   9  10
ENDBRANCH   8   9
ENDBRANCH   7   8
ENDBRANCH   6   7
ENDBRANCH   5   6
ENDBRANCH   4   5
ENDBRANCH   3   4
ENDBRANCH   2   3
ENDBRANCH   1   2
BRANCH   1  15
ATOM     15  C   UNL     1       6.128  77.146  64.687  1.00  0.00     0.000 C 
BRANCH  15  16
ATOM     16  C   UNL     1       5.271  77.942  63.691  1.00  0.00     0.000 C 
BRANCH  16  17
ATOM     17  C   UNL     1       4.996  79.384  64.155  1.00  0.00     0.000 C 
BRANCH  17  18
ATOM     18  C   UNL     1       3.735  79.563  65.026  1.00  0.00    -0.000 C 
BRANCH  18  19
ATOM     19  C   UNL     1       3.237  81.012  65.164  1.00  0.00    -0.000 C 
BRANCH  19  20
ATOM     20  C   UNL     1       2.692  81.581  63.842  1.00  0.00    -0.000 C 
BRANCH  20  21
ATOM     21  C   UNL     1       3.492  82.800  63.355  1.00  0.00    -0.000 C 
BRANCH  21  22
ATOM     22  C   UNL     1       3.789  83.797  64.489  1.00  0.00    -0.000 C 
BRANCH  22  23
ATOM     23  C   UNL     1       4.482  85.073  63.984  1.00  0.00    -0.000 C 
BRANCH  23  24
ATOM     24  C   UNL     1       3.587  85.897  63.043  1.00  0.00    -0.000 C 
BRANCH  24  25
ATOM     25  C   UNL     1       4.362  86.465  61.844  1.00  0.00    -0.003 C 
ATOM     26  C   UNL     1       5.346  85.459  61.247  1.00  0.00     0.004 C 
ENDBRANCH  24  25
ENDBRANCH  23  24
ENDBRANCH  22  23
ENDBRANCH  21  22
ENDBRANCH  20  21
ENDBRANCH  19  20
ENDBRANCH  18  19
ENDBRANCH  17  18
ENDBRANCH  16  17
ENDBRANCH  15  16
ENDBRANCH   1  15
TORSDOF 22
ENDMDL
MODEL 2
REMARK VINA RESULT:    -4.708      1.877      4.257
REMARK INTER + INTRA:         -13.348
REMARK INTER:                  -9.930
REMARK INTRA:                  -3.419
REMARK UNBOUND:                -2.585
REMARK SMILES CCCCCCCCCCCCCCCCCCCCCCCC(=O)[O-]
REMARK SMILES IDX 13 1 14 2 15 3 16 4 17 5 18 6 19 7 20 8 21 9 22 10 23 11
REMARK SMILES IDX 24 12 25 13 26 14 12 15 11 16 10 17 9 18 8 19 7 20 6 21 5 22
REMARK SMILES IDX 4 23 3 24 2 25 1 26
REMARK H PARENT
REMARK Flexibility Score: inf
ROOT
ATOM      1  C   UNL     1       2.481  81.179  61.759  1.00  0.00     0.000 C 
ENDROOT
BRANCH   1   2
ATOM      2  C   UNL     1       3.528  80.056  61.794  1.00  0.00     0.000 C 
BRANCH   2   3
ATOM      3  C   UNL     1       4.712  80.376  62.724  1.00  0.00     0.000 C 
BRANCH   3   4
ATOM      4  C   UNL     1       5.412  79.097  63.233  1.00  0.00     0.000 C 
BRANCH   4   5
ATOM      5  C   UNL     1       6.939  79.109  63.041  1.00  0.00     0.000 C 
BRANCH   5   6
ATOM      6  C   UNL     1       7.687  78.380  64.170  1.00  0.00     0.000 C 
BRANCH   6   7
ATOM      7  C   UNL     1       6.748  77.585  65.097  1.00  0.00     0.000 C 
BRANCH   7   8
ATOM      8  C   UNL     1       7.241  77.416  66.546  1.00  0.00     0.000 C 
BRANCH   8   9
ATOM      9  C   UNL     1       6.610  78.428  67.517  1.00  0.00     0.000 C 
BRANCH   9  10
ATOM     10  C   UNL     1       5.125  78.698  67.213  1.00  0.00     0.006 C 
BRANCH  10  11
ATOM     11  C   UNL     1       4.148  77.981  68.161  1.00  0.00     0.053 C 
BRANCH  11  12
ATOM     12  C   UNL     1       3.371  78.947  69.002  1.00  0.00     0.041 C 
ATOM     13  O   UNL     1       3.645  80.176  68.976  1.00  0.00    -0.550 OA
ATOM     14  O   UNL     1       2.317  78.494  69.785  1.00  0.00    -0.550 OA
ENDBRANCH  11  12
ENDBRANCH  10  11
ENDBRANCH   9  10
ENDBRANCH   8   9
ENDBRANCH   7   8
ENDBRANCH   6   7
ENDBRANCH   5   6
ENDBRANCH   4   5
ENDBRANCH   3   4
ENDBRANCH   2   3
ENDBRANCH   1   2
BRANCH   1  15
ATOM     15  C   UNL     1       1.092  80.707  62.213  1.00  0.00     0.000 C 
BRANCH  15  16
ATOM     16  C   UNL     1       1.208  79.512  63.172  1.00  0.00     0.000 C 
BRANCH  16  17
ATOM     17  C   UNL     1       0.846  79.872  64.624  1.00  0.00     0.000 C 
BRANCH  17  18
ATOM     18  C   UNL     1       2.033  79.886  65.611  1.00  0.00    -0.000 C 
BRANCH  18  19
ATOM     19  C   UNL     1       2.785  81.224  65.707  1.00  0.00    -0.000 C 
BRANCH  19  20
ATOM     20  C   UNL     1       1.839  82.434  65.791  1.00  0.00    -0.000 C 
BRANCH  20  21
ATOM     21  C   UNL     1       2.230  83.553  64.812  1.00  0.00    -0.000 C 
BRANCH  21  22
ATOM     22  C   UNL     1       3.716  83.494  64.418  1.00  0.00    -0.000 C 
BRANCH  22  23
ATOM     23  C   UNL     1       4.355  84.889  64.321  1.00  0.00    -0.000 C 
BRANCH  23  24
ATOM     24  C   UNL     1       4.534  85.356  62.867  1.00  0.00    -0.000 C 
BRANCH  24  25
ATOM     25  C   UNL     1       3.497  86.414  62.457  1.00  0.00    -0.003 C 
ATOM     26  C   UNL     1       4.113  87.569  61.668  1.00  0.00     0.004 C 
ENDBRANCH  24  25
ENDBRANCH  23  24
ENDBRANCH  22  23
ENDBRANCH  21  22
ENDBRANCH  20  21
ENDBRANCH  19  20
ENDBRANCH  18  19
ENDBRANCH  17  18
ENDBRANCH  16  17
ENDBRANCH  15  16
ENDBRANCH   1  15
TORSDOF 22
ENDMDL
MODEL 3
REMARK VINA RESULT:    -4.704      2.307      4.648
REMARK INTER + INTRA:         -13.339
REMARK INTER:                 -11.351
REMARK INTRA:                  -1.988
REMARK UNBOUND:                -2.585
REMARK SMILES CCCCCCCCCCCCCCCCCCCCCCCC(=O)[O-]
REMARK SMILES IDX 13 1 14 2 15 3 16 4 17 5 18 6 19 7 20 8 21 9 22 10 23 11
REMARK SMILES IDX 24 12 25 13 26 14 12 15 11 16 10 17 9 18 8 19 7 20 6 21 5 22
REMARK SMILES IDX 4 23 3 24 2 25 1 26
REMARK H PARENT
REMARK Flexibility Score: inf
ROOT
ATOM      1  C   UNL     1       3.966  80.693  63.645  1.00  0.00     0.000 C 
ENDROOT
BRANCH   1   2
ATOM      2  C   UNL     1       4.483  79.486  62.848  1.00  0.00     0.000 C 
BRANCH   2   3
ATOM      3  C   UNL     1       6.018  79.457  62.743  1.00  0.00     0.000 C 
BRANCH   3   4
ATOM      4  C   UNL     1       6.650  78.487  63.764  1.00  0.00     0.000 C 
BRANCH   4   5
ATOM      5  C   UNL     1       5.679  77.408  64.278  1.00  0.00     0.000 C 
BRANCH   5   6
ATOM      6  C   UNL     1       6.115  76.806  65.624  1.00  0.00     0.000 C 
BRANCH   6   7
ATOM      7  C   UNL     1       7.060  77.728  66.418  1.00  0.00     0.000 C 
BRANCH   7   8
ATOM      8  C   UNL     1       6.394  78.543  67.542  1.00  0.00     0.000 C 
BRANCH   8   9
ATOM      9  C   UNL     1       4.865  78.625  67.400  1.00  0.00     0.000 C 
BRANCH   9  10
ATOM     10  C   UNL     1       4.123  78.069  68.630  1.00  0.00     0.006 C 
BRANCH  10  11
ATOM     11  C   UNL     1       3.051  77.017  68.296  1.00  0.00     0.053 C 
BRANCH  11  12
ATOM     12  C   UNL     1       3.627  75.638  68.203  1.00  0.00     0.041 C 
ATOM     13  O   UNL     1       4.784  75.401  68.643  1.00  0.00    -0.550 OA
ATOM     14  O   UNL     1       2.870  74.603  67.668  1.00  0.00    -0.550 OA
ENDBRANCH  11  12
ENDBRANCH  10  11
ENDBRANCH   9  10
ENDBRANCH   8   9
ENDBRANCH   7   8
ENDBRANCH   6   7
ENDBRANCH   5   6
ENDBRANCH   4   5
ENDBRANCH   3   4
ENDBRANCH   2   3
ENDBRANCH   1   2
BRANCH   1  15
ATOM     15  C   UNL     1       2.797  81.405  62.948  1.00  0.00     0.000 C 
BRANCH  15  16
ATOM     16  C   UNL     1       1.873  82.073  63.977  1.00  0.00     0.000 C 
BRANCH  16  17
ATOM     17  C   UNL     1       2.062  83.599  64.051  1.00  0.00     0.000 C 
BRANCH  17  18
ATOM     18  C   UNL     1       3.280  84.069  64.874  1.00  0.00    -0.000 C 
BRANCH  18  19
ATOM     19  C   UNL     1       4.137  85.158  64.207  1.00  0.00    -0.000 C 
BRANCH  19  20
ATOM     20  C   UNL     1       4.881  84.650  62.961  1.00  0.00    -0.000 C 
BRANCH  20  21
ATOM     21  C   UNL     1       4.878  85.677  61.817  1.00  0.00    -0.000 C 
BRANCH  21  22
ATOM     22  C   UNL     1       4.109  86.959  62.182  1.00  0.00    -0.000 C 
BRANCH  22  23
ATOM     23  C   UNL     1       4.048  87.960  61.018  1.00  0.00    -0.000 C 
BRANCH  23  24
ATOM     24  C   UNL     1       3.097  89.136  61.301  1.00  0.00    -0.000 C 
BRANCH  24  25
ATOM     25  C   UNL     1       3.744  90.499  61.004  1.00  0.00    -0.003 C 
ATOM     26  C   UNL     1       4.727  90.442  59.835  1.00  0.00     0.004 C 
ENDBRANCH  24  25
ENDBRANCH  23  24
ENDBRANCH  22  23
ENDBRANCH  21  22
ENDBRANCH  20  21
ENDBRANCH  19  20
ENDBRANCH  18  19
ENDBRANCH  17  18
ENDBRANCH  16  17
ENDBRANCH  15  16
ENDBRANCH   1  15
TORSDOF 22
ENDMDL
MODEL 4
REMARK VINA RESULT:    -4.696      3.750      8.557
REMARK INTER + INTRA:         -13.320
REMARK INTER:                 -10.834
REMARK INTRA:                  -2.485
REMARK UNBOUND:                -2.585
REMARK SMILES CCCCCCCCCCCCCCCCCCCCCCCC(=O)[O-]
REMARK SMILES IDX 13 1 14 2 15 3 16 4 17 5 18 6 19 7 20 8 21 9 22 10 23 11
REMARK SMILES IDX 24 12 25 13 26 14 12 15 11 16 10 17 9 18 8 19 7 20 6 21 5 22
REMARK SMILES IDX 4 23 3 24 2 25 1 26
REMARK H PARENT
REMARK Flexibility Score: inf
ROOT
ATOM      1  C   UNL     1       6.678  78.938  63.280  1.00  0.00     0.000 C 
ENDROOT
BRANCH   1   2
ATOM      2  C   UNL     1       5.206  78.781  62.870  1.00  0.00     0.000 C 
BRANCH   2   3
ATOM      3  C   UNL     1       4.374  80.046  63.146  1.00  0.00     0.000 C 
BRANCH   3   4
ATOM      4  C   UNL     1       3.380  79.841  64.310  1.00  0.00     0.000 C 
BRANCH   4   5
ATOM      5  C   UNL     1       3.352  81.008  65.314  1.00  0.00     0.000 C 
BRANCH   5   6
ATOM      6  C   UNL     1       2.109  81.900  65.156  1.00  0.00     0.000 C 
BRANCH   6   7
ATOM      7  C   UNL     1       2.459  83.383  64.926  1.00  0.00     0.000 C 
BRANCH   7   8
ATOM      8  C   UNL     1       3.810  83.641  64.234  1.00  0.00     0.000 C 
BRANCH   8   9
ATOM      9  C   UNL     1       4.173  85.134  64.163  1.00  0.00     0.000 C 
BRANCH   9  10
ATOM     10  C   UNL     1       4.420  85.618  62.722  1.00  0.00     0.006 C 
BRANCH  10  11
ATOM     11  C   UNL     1       3.812  86.996  62.407  1.00  0.00     0.053 C 
BRANCH  11  12
ATOM     12  C   UNL     1       4.388  87.594  61.161  1.00  0.00     0.041 C 
ATOM     13  O   UNL     1       5.266  86.972  60.506  1.00  0.00    -0.550 OA
ATOM     14  O   UNL     1       3.925  88.820  60.700  1.00  0.00    -0.550 OA
ENDBRANCH  11  12
ENDBRANCH  10  11
ENDBRANCH   9  10
ENDBRANCH   8   9
ENDBRANCH   7   8
ENDBRANCH   6   7
ENDBRANCH   5   6
ENDBRANCH   4   5
ENDBRANCH   3   4
ENDBRANCH   2   3
ENDBRANCH   1   2
BRANCH   1  15
ATOM     15  C   UNL     1       7.068  78.019  64.447  1.00  0.00     0.000 C 
BRANCH  15  16
ATOM     16  C   UNL     1       6.014  76.920  64.652  1.00  0.00     0.000 C 
BRANCH  16  17
ATOM     17  C   UNL     1       5.632  76.724  66.130  1.00  0.00     0.000 C 
BRANCH  17  18
ATOM     18  C   UNL     1       6.726  77.112  67.147  1.00  0.00    -0.000 C 
BRANCH  18  19
ATOM     19  C   UNL     1       6.357  78.268  68.093  1.00  0.00    -0.000 C 
BRANCH  19  20
ATOM     20  C   UNL     1       5.204  79.131  67.555  1.00  0.00    -0.000 C 
BRANCH  20  21
ATOM     21  C   UNL     1       4.302  79.670  68.678  1.00  0.00    -0.000 C 
BRANCH  21  22
ATOM     22  C   UNL     1       2.824  79.290  68.476  1.00  0.00    -0.000 C 
BRANCH  22  23
ATOM     23  C   UNL     1       2.418  78.052  69.292  1.00  0.00    -0.000 C 
BRANCH  23  24
ATOM     24  C   UNL     1       2.941  76.743  68.677  1.00  0.00    -0.000 C 
BRANCH  24  25
ATOM     25  C   UNL     1       1.915  75.602  68.764  1.00  0.00    -0.003 C 
ATOM     26  C   UNL     1       2.180  74.492  67.748  1.00  0.00     0.004 C 
ENDBRANCH  24  25
ENDBRANCH  23  24
ENDBRANCH  22  23
ENDBRANCH  21  22
ENDBRANCH  20  21
ENDBRANCH  19  20
ENDBRANCH  18  19
ENDBRANCH  17  18
ENDBRANCH  16  17
ENDBRANCH  15  16
ENDBRANCH   1  15
TORSDOF 22
ENDMDL
MODEL 5
REMARK VINA RESULT:    -4.626      2.990      5.698
REMARK INTER + INTRA:         -13.161
REMARK INTER:                 -10.758
REMARK INTRA:                  -2.403
REMARK UNBOUND:                -2.585
REMARK SMILES CCCCCCCCCCCCCCCCCCCCCCCC(=O)[O-]
REMARK SMILES IDX 13 1 14 2 15 3 16 4 17 5 18 6 19 7 20 8 21 9 22 10 23 11
REMARK SMILES IDX 24 12 25 13 26 14 12 15 11 16 10 17 9 18 8 19 7 20 6 21 5 22
REMARK SMILES IDX 4 23 3 24 2 25 1 26
REMARK H PARENT
REMARK Flexibility Score: inf
ROOT
ATOM      1  C   UNL     1       3.394  81.379  63.944  1.00  0.00     0.000 C 
ENDROOT
BRANCH   1   2
ATOM      2  C   UNL     1       3.327  80.053  64.717  1.00  0.00     0.000 C 
BRANCH   2   3
ATOM      3  C   UNL     1       3.695  80.212  66.203  1.00  0.00     0.000 C 
BRANCH   3   4
ATOM      4  C   UNL     1       2.525  79.824  67.133  1.00  0.00     0.000 C 
BRANCH   4   5
ATOM      5  C   UNL     1       2.717  78.469  67.838  1.00  0.00     0.000 C 
BRANCH   5   6
ATOM      6  C   UNL     1       4.081  78.350  68.538  1.00  0.00     0.000 C 
BRANCH   6   7
ATOM      7  C   UNL     1       4.715  76.954  68.384  1.00  0.00     0.000 C 
BRANCH   7   8
ATOM      8  C   UNL     1       5.697  76.803  67.208  1.00  0.00     0.000 C 
BRANCH   8   9
ATOM      9  C   UNL     1       6.789  77.886  67.194  1.00  0.00     0.000 C 
BRANCH   9  10
ATOM     10  C   UNL     1       7.495  78.001  65.830  1.00  0.00     0.006 C 
BRANCH  10  11
ATOM     11  C   UNL     1       6.548  77.905  64.621  1.00  0.00     0.053 C 
BRANCH  11  12
ATOM     12  C   UNL     1       7.041  78.708  63.456  1.00  0.00     0.041 C 
ATOM     13  O   UNL     1       6.270  79.511  62.867  1.00  0.00    -0.550 OA
ATOM     14  O   UNL     1       8.364  78.599  63.047  1.00  0.00    -0.550 OA
ENDBRANCH  11  12
ENDBRANCH  10  11
ENDBRANCH   9  10
ENDBRANCH   8   9
ENDBRANCH   7   8
ENDBRANCH   6   7
ENDBRANCH   5   6
ENDBRANCH   4   5
ENDBRANCH   3   4
ENDBRANCH   2   3
ENDBRANCH   1   2
BRANCH   1  15
ATOM     15  C   UNL     1       2.096  82.192  64.051  1.00  0.00     0.000 C 
BRANCH  15  16
ATOM     16  C   UNL     1       2.395  83.698  64.074  1.00  0.00     0.000 C 
BRANCH  16  17
ATOM     17  C   UNL     1       3.796  84.023  64.625  1.00  0.00     0.000 C 
BRANCH  17  18
ATOM     18  C   UNL     1       4.632  84.991  63.762  1.00  0.00    -0.000 C 
BRANCH  18  19
ATOM     19  C   UNL     1       4.545  84.752  62.245  1.00  0.00    -0.000 C 
BRANCH  19  20
ATOM     20  C   UNL     1       4.836  86.021  61.425  1.00  0.00    -0.000 C 
BRANCH  20  21
ATOM     21  C   UNL     1       4.157  87.268  62.016  1.00  0.00    -0.000 C 
BRANCH  21  22
ATOM     22  C   UNL     1       2.628  87.241  61.842  1.00  0.00    -0.000 C 
BRANCH  22  23
ATOM     23  C   UNL     1       2.049  88.623  61.503  1.00  0.00    -0.000 C 
BRANCH  23  24
ATOM     24  C   UNL     1       3.057  89.760  61.748  1.00  0.00    -0.000 C 
BRANCH  24  25
ATOM     25  C   UNL     1       3.392  90.534  60.463  1.00  0.00    -0.003 C 
ATOM     26  C   UNL     1       4.833  90.315  60.002  1.00  0.00     0.004 C 
ENDBRANCH  24  25
ENDBRANCH  23  24
ENDBRANCH  22  23
ENDBRANCH  21  22
ENDBRANCH  20  21
ENDBRANCH  19  20
ENDBRANCH  18  19
ENDBRANCH  17  18
ENDBRANCH  16  17
ENDBRANCH  15  16
ENDBRANCH   1  15
TORSDOF 22
ENDMDL
MODEL 6
REMARK VINA RESULT:    -4.618      2.592      6.850
REMARK INTER + INTRA:         -13.142
REMARK INTER:                  -9.858
REMARK INTRA:                  -3.284
REMARK UNBOUND:                -2.585
REMARK SMILES CCCCCCCCCCCCCCCCCCCCCCCC(=O)[O-]
REMARK SMILES IDX 13 1 14 2 15 3 16 4 17 5 18 6 19 7 20 8 21 9 22 10 23 11
REMARK SMILES IDX 24 12 25 13 26 14 12 15 11 16 10 17 9 18 8 19 7 20 6 21 5 22
REMARK SMILES IDX 4 23 3 24 2 25 1 26
REMARK H PARENT
REMARK Flexibility Score: inf
ROOT
ATOM      1  C   UNL     1       5.796  77.235  68.397  1.00  0.00     0.000 C 
ENDROOT
BRANCH   1   2
ATOM      2  C   UNL     1       6.508  78.298  67.548  1.00  0.00     0.000 C 
BRANCH   2   3
ATOM      3  C   UNL     1       7.509  77.690  66.550  1.00  0.00     0.000 C 
BRANCH   3   4
ATOM      4  C   UNL     1       7.265  78.188  65.109  1.00  0.00     0.000 C 
BRANCH   4   5
ATOM      5  C   UNL     1       6.370  77.255  64.273  1.00  0.00     0.000 C 
BRANCH   5   6
ATOM      6  C   UNL     1       5.227  78.001  63.565  1.00  0.00     0.000 C 
BRANCH   6   7
ATOM      7  C   UNL     1       4.761  79.253  64.333  1.00  0.00     0.000 C 
BRANCH   7   8
ATOM      8  C   UNL     1       3.600  80.030  63.684  1.00  0.00     0.000 C 
BRANCH   8   9
ATOM      9  C   UNL     1       3.949  81.500  63.394  1.00  0.00     0.000 C 
BRANCH   9  10
ATOM     10  C   UNL     1       3.280  82.475  64.381  1.00  0.00     0.006 C 
BRANCH  10  11
ATOM     11  C   UNL     1       2.718  83.748  63.724  1.00  0.00     0.053 C 
BRANCH  11  12
ATOM     12  C   UNL     1       3.719  84.862  63.712  1.00  0.00     0.041 C 
ATOM     13  O   UNL     1       3.509  85.896  63.024  1.00  0.00    -0.550 OA
ATOM     14  O   UNL     1       4.865  84.776  64.492  1.00  0.00    -0.550 OA
ENDBRANCH  11  12
ENDBRANCH  10  11
ENDBRANCH   9  10
ENDBRANCH   8   9
ENDBRANCH   7   8
ENDBRANCH   6   7
ENDBRANCH   5   6
ENDBRANCH   4   5
ENDBRANCH   3   4
ENDBRANCH   2   3
ENDBRANCH   1   2
BRANCH   1  15
ATOM     15  C   UNL     1       4.867  76.339  67.566  1.00  0.00     0.000 C 
BRANCH  15  16
ATOM     16  C   UNL     1       4.087  75.373  68.470  1.00  0.00     0.000 C 
BRANCH  16  17
ATOM     17  C   UNL     1       2.948  74.646  67.731  1.00  0.00     0.000 C 
BRANCH  17  18
ATOM     18  C   UNL     1       1.526  74.989  68.221  1.00  0.00    -0.000 C 
BRANCH  18  19
ATOM     19  C   UNL     1       1.222  76.492  68.344  1.00  0.00    -0.000 C 
BRANCH  19  20
ATOM     20  C   UNL     1       0.152  76.798  69.406  1.00  0.00    -0.000 C 
BRANCH  20  21
ATOM     21  C   UNL     1       0.422  78.118  70.147  1.00  0.00    -0.000 C 
BRANCH  21  22
ATOM     22  C   UNL     1       1.922  78.455  70.216  1.00  0.00    -0.000 C 
BRANCH  22  23
ATOM     23  C   UNL     1       2.216  79.914  69.834  1.00  0.00    -0.000 C 
BRANCH  23  24
ATOM     24  C   UNL     1       3.405  80.043  68.867  1.00  0.00    -0.000 C 
BRANCH  24  25
ATOM     25  C   UNL     1       3.036  79.651  67.427  1.00  0.00    -0.003 C 
ATOM     26  C   UNL     1       1.711  80.261  66.971  1.00  0.00     0.004 C 
ENDBRANCH  24  25
ENDBRANCH  23  24
ENDBRANCH  22  23
ENDBRANCH  21  22
ENDBRANCH  20  21
ENDBRANCH  19  20
ENDBRANCH  18  19
ENDBRANCH  17  18
ENDBRANCH  16  17
ENDBRANCH  15  16
ENDBRANCH   1  15
TORSDOF 22
ENDMDL
MODEL 7
REMARK VINA RESULT:    -4.573      2.486      6.180
REMARK INTER + INTRA:         -13.039
REMARK INTER:                 -10.480
REMARK INTRA:                  -2.558
REMARK UNBOUND:                -2.585
REMARK SMILES CCCCCCCCCCCCCCCCCCCCCCCC(=O)[O-]
REMARK SMILES IDX 13 1 14 2 15 3 16 4 17 5 18 6 19 7 20 8 21 9 22 10 23 11
REMARK SMILES IDX 24 12 25 13 26 14 12 15 11 16 10 17 9 18 8 19 7 20 6 21 5 22
REMARK SMILES IDX 4 23 3 24 2 25 1 26
REMARK H PARENT
REMARK Flexibility Score: inf
ROOT
ATOM      1  C   UNL     1       3.211  83.892  64.593  1.00  0.00     0.000 C 
ENDROOT
BRANCH   1   2
ATOM      2  C   UNL     1       3.719  82.565  64.012  1.00  0.00     0.000 C 
BRANCH   2   3
ATOM      3  C   UNL     1       2.616  81.495  63.919  1.00  0.00     0.000 C 
BRANCH   3   4
ATOM      4  C   UNL     1       3.136  80.180  63.300  1.00  0.00     0.000 C 
BRANCH   4   5
ATOM      5  C   UNL     1       4.624  80.224  62.910  1.00  0.00     0.000 C 
BRANCH   5   6
ATOM      6  C   UNL     1       5.331  78.872  63.103  1.00  0.00     0.000 C 
BRANCH   6   7
ATOM      7  C   UNL     1       5.385  78.427  64.577  1.00  0.00     0.000 C 
BRANCH   7   8
ATOM      8  C   UNL     1       6.507  77.431  64.924  1.00  0.00     0.000 C 
BRANCH   8   9
ATOM      9  C   UNL     1       7.433  77.935  66.043  1.00  0.00     0.000 C 
BRANCH   9  10
ATOM     10  C   UNL     1       6.776  77.869  67.434  1.00  0.00     0.006 C 
BRANCH  10  11
ATOM     11  C   UNL     1       6.431  76.444  67.900  1.00  0.00     0.053 C 
BRANCH  11  12
ATOM     12  C   UNL     1       4.965  76.275  68.152  1.00  0.00     0.041 C 
ATOM     13  O   UNL     1       4.535  75.241  68.729  1.00  0.00    -0.550 OA
ATOM     14  O   UNL     1       4.076  77.279  67.787  1.00  0.00    -0.550 OA
ENDBRANCH  11  12
ENDBRANCH  10  11
ENDBRANCH   9  10
ENDBRANCH   8   9
ENDBRANCH   7   8
ENDBRANCH   6   7
ENDBRANCH   5   6
ENDBRANCH   4   5
ENDBRANCH   3   4
ENDBRANCH   2   3
ENDBRANCH   1   2
BRANCH   1  15
ATOM     15  C   UNL     1       1.703  84.090  64.385  1.00  0.00     0.000 C 
BRANCH  15  16
ATOM     16  C   UNL     1       1.435  85.160  63.315  1.00  0.00     0.000 C 
BRANCH  16  17
ATOM     17  C   UNL     1      -0.021  85.660  63.319  1.00  0.00     0.000 C 
BRANCH  17  18
ATOM     18  C   UNL     1      -0.228  87.078  62.746  1.00  0.00    -0.000 C 
BRANCH  18  19
ATOM     19  C   UNL     1       0.838  87.536  61.736  1.00  0.00    -0.000 C 
BRANCH  19  20
ATOM     20  C   UNL     1       1.492  88.872  62.125  1.00  0.00    -0.000 C 
BRANCH  20  21
ATOM     21  C   UNL     1       2.996  88.903  61.810  1.00  0.00    -0.000 C 
BRANCH  21  22
ATOM     22  C   UNL     1       3.728  87.650  62.321  1.00  0.00    -0.000 C 
BRANCH  22  23
ATOM     23  C   UNL     1       4.543  86.954  61.219  1.00  0.00    -0.000 C 
BRANCH  23  24
ATOM     24  C   UNL     1       4.943  85.518  61.599  1.00  0.00    -0.000 C 
BRANCH  24  25
ATOM     25  C   UNL     1       4.124  84.460  60.842  1.00  0.00    -0.003 C 
ATOM     26  C   UNL     1       4.914  83.178  60.581  1.00  0.00     0.004 C 
ENDBRANCH  24  25
ENDBRANCH  23  24
ENDBRANCH  22  23
ENDBRANCH  21  22
ENDBRANCH  20  21
ENDBRANCH  19  20
ENDBRANCH  18  19
ENDBRANCH  17  18
ENDBRANCH  16  17
ENDBRANCH  15  16
ENDBRANCH   1  15
TORSDOF 22
ENDMDL
MODEL 8
REMARK VINA RESULT:    -4.572      1.686      2.867
REMARK INTER + INTRA:         -13.036
REMARK INTER:                  -9.551
REMARK INTRA:                  -3.486
REMARK UNBOUND:                -2.585
REMARK SMILES CCCCCCCCCCCCCCCCCCCCCCCC(=O)[O-]
REMARK SMILES IDX 13 1 14 2 15 3 16 4 17 5 18 6 19 7 20 8 21 9 22 10 23 11
REMARK SMILES IDX 24 12 25 13 26 14 12 15 11 16 10 17 9 18 8 19 7 20 6 21 5 22
REMARK SMILES IDX 4 23 3 24 2 25 1 26
REMARK H PARENT
REMARK Flexibility Score: inf
ROOT
ATOM      1  C   UNL     1       5.221  78.005  63.261  1.00  0.00     0.000 C 
ENDROOT
BRANCH   1   2
ATOM      2  C   UNL     1       6.005  77.234  64.334  1.00  0.00     0.000 C 
BRANCH   2   3
ATOM      3  C   UNL     1       7.075  78.099  65.024  1.00  0.00     0.000 C 
BRANCH   3   4
ATOM      4  C   UNL     1       7.334  77.648  66.477  1.00  0.00     0.000 C 
BRANCH   4   5
ATOM      5  C   UNL     1       6.380  76.542  66.963  1.00  0.00     0.000 C 
BRANCH   5   6
ATOM      6  C   UNL     1       5.321  77.059  67.951  1.00  0.00     0.000 C 
BRANCH   6   7
ATOM      7  C   UNL     1       5.700  78.410  68.585  1.00  0.00     0.000 C 
BRANCH   7   8
ATOM      8  C   UNL     1       4.802  79.598  68.193  1.00  0.00     0.000 C 
BRANCH   8   9
ATOM      9  C   UNL     1       3.814  79.256  67.065  1.00  0.00     0.000 C 
BRANCH   9  10
ATOM     10  C   UNL     1       2.404  79.824  67.317  1.00  0.00     0.006 C 
BRANCH  10  11
ATOM     11  C   UNL     1       1.290  78.763  67.325  1.00  0.00     0.053 C 
BRANCH  11  12
ATOM     12  C   UNL     1       1.064  78.195  68.692  1.00  0.00     0.041 C 
ATOM     13  O   UNL     1       0.032  78.503  69.345  1.00  0.00    -0.550 OA
ATOM     14  O   UNL     1       1.974  77.293  69.229  1.00  0.00    -0.550 OA
ENDBRANCH  11  12
ENDBRANCH  10  11
ENDBRANCH   9  10
ENDBRANCH   8   9
ENDBRANCH   7   8
ENDBRANCH   6   7
ENDBRANCH   5   6
ENDBRANCH   4   5
ENDBRANCH   3   4
ENDBRANCH   2   3
ENDBRANCH   1   2
BRANCH   1  15
ATOM     15  C   UNL     1       5.453  79.521  63.334  1.00  0.00     0.000 C 
BRANCH  15  16
ATOM     16  C   UNL     1       4.158  80.254  63.717  1.00  0.00     0.000 C 
BRANCH  16  17
ATOM     17  C   UNL     1       2.923  79.719  62.970  1.00  0.00     0.000 C 
BRANCH  17  18
ATOM     18  C   UNL     1       1.581  79.895  63.712  1.00  0.00    -0.000 C 
BRANCH  18  19
ATOM     19  C   UNL     1       0.951  81.294  63.597  1.00  0.00    -0.000 C 
BRANCH  19  20
ATOM     20  C   UNL     1       0.514  81.863  64.958  1.00  0.00    -0.000 C 
BRANCH  20  21
ATOM     21  C   UNL     1       1.480  82.938  65.481  1.00  0.00    -0.000 C 
BRANCH  21  22
ATOM     22  C   UNL     1       2.258  83.629  64.347  1.00  0.00    -0.000 C 
BRANCH  22  23
ATOM     23  C   UNL     1       3.760  83.748  64.651  1.00  0.00    -0.000 C 
BRANCH  23  24
ATOM     24  C   UNL     1       4.333  85.123  64.266  1.00  0.00    -0.000 C 
BRANCH  24  25
ATOM     25  C   UNL     1       4.243  85.394  62.756  1.00  0.00    -0.003 C 
ATOM     26  C   UNL     1       3.875  86.843  62.437  1.00  0.00     0.004 C 
ENDBRANCH  24  25
ENDBRANCH  23  24
ENDBRANCH  22  23
ENDBRANCH  21  22
ENDBRANCH  20  21
ENDBRANCH  19  20
ENDBRANCH  18  19
ENDBRANCH  17  18
ENDBRANCH  16  17
ENDBRANCH  15  16
ENDBRANCH   1  15
TORSDOF 22
ENDMDL
MODEL 9
REMARK VINA RESULT:    -4.560      2.976      4.746
REMARK INTER + INTRA:         -13.009
REMARK INTER:                 -10.079
REMARK INTRA:                  -2.930
REMARK UNBOUND:                -2.585
REMARK SMILES CCCCCCCCCCCCCCCCCCCCCCCC(=O)[O-]
REMARK SMILES IDX 13 1 14 2 15 3 16 4 17 5 18 6 19 7 20 8 21 9 22 10 23 11
REMARK SMILES IDX 24 12 25 13 26 14 12 15 11 16 10 17 9 18 8 19 7 20 6 21 5 22
REMARK SMILES IDX 4 23 3 24 2 25 1 26
REMARK H PARENT
REMARK Flexibility Score: inf
ROOT
ATOM      1  C   UNL     1       3.385  80.464  66.152  1.00  0.00     0.000 C 
ENDROOT
BRANCH   1   2
ATOM      2  C   UNL     1       2.352  80.769  67.248  1.00  0.00     0.000 C 
BRANCH   2   3
ATOM      3  C   UNL     1       2.822  80.330  68.646  1.00  0.00     0.000 C 
BRANCH   3   4
ATOM      4  C   UNL     1       2.708  78.803  68.842  1.00  0.00     0.000 C 
BRANCH   4   5
ATOM      5  C   UNL     1       4.052  78.061  68.734  1.00  0.00     0.000 C 
BRANCH   5   6
ATOM      6  C   UNL     1       3.896  76.612  68.244  1.00  0.00     0.000 C 
BRANCH   6   7
ATOM      7  C   UNL     1       5.100  76.125  67.415  1.00  0.00     0.000 C 
BRANCH   7   8
ATOM      8  C   UNL     1       6.471  76.661  67.866  1.00  0.00     0.000 C 
BRANCH   8   9
ATOM      9  C   UNL     1       7.249  77.351  66.732  1.00  0.00     0.000 C 
BRANCH   9  10
ATOM     10  C   UNL     1       6.338  78.171  65.799  1.00  0.00     0.006 C 
BRANCH  10  11
ATOM     11  C   UNL     1       6.407  77.749  64.322  1.00  0.00     0.053 C 
BRANCH  11  12
ATOM     12  C   UNL     1       7.206  78.712  63.498  1.00  0.00     0.041 C 
ATOM     13  O   UNL     1       8.368  79.040  63.855  1.00  0.00    -0.550 OA
ATOM     14  O   UNL     1       6.681  79.216  62.315  1.00  0.00    -0.550 OA
ENDBRANCH  11  12
ENDBRANCH  10  11
ENDBRANCH   9  10
ENDBRANCH   8   9
ENDBRANCH   7   8
ENDBRANCH   6   7
ENDBRANCH   5   6
ENDBRANCH   4   5
ENDBRANCH   3   4
ENDBRANCH   2   3
ENDBRANCH   1   2
BRANCH   1  15
ATOM     15  C   UNL     1       2.803  79.617  65.010  1.00  0.00     0.000 C 
BRANCH  15  16
ATOM     16  C   UNL     1       3.431  80.010  63.665  1.00  0.00     0.000 C 
BRANCH  16  17
ATOM     17  C   UNL     1       2.409  80.595  62.673  1.00  0.00     0.000 C 
BRANCH  17  18
ATOM     18  C   UNL     1       2.275  82.132  62.700  1.00  0.00    -0.000 C 
BRANCH  18  19
ATOM     19  C   UNL     1       1.387  82.690  63.826  1.00  0.00    -0.000 C 
BRANCH  19  20
ATOM     20  C   UNL     1       1.996  83.930  64.503  1.00  0.00    -0.000 C 
BRANCH  20  21
ATOM     21  C   UNL     1       3.520  83.819  64.670  1.00  0.00    -0.000 C 
BRANCH  21  22
ATOM     22  C   UNL     1       4.246  85.128  64.314  1.00  0.00    -0.000 C 
BRANCH  22  23
ATOM     23  C   UNL     1       4.234  85.416  62.804  1.00  0.00    -0.000 C 
BRANCH  23  24
ATOM     24  C   UNL     1       3.323  86.599  62.437  1.00  0.00    -0.000 C 
BRANCH  24  25
ATOM     25  C   UNL     1       4.078  87.713  61.695  1.00  0.00    -0.003 C 
ATOM     26  C   UNL     1       4.844  87.197  60.477  1.00  0.00     0.004 C 
ENDBRANCH  24  25
ENDBRANCH  23  24
ENDBRANCH  22  23
ENDBRANCH  21  22
ENDBRANCH  20  21
ENDBRANCH  19  20
ENDBRANCH  18  19
ENDBRANCH  17  18
ENDBRANCH  16  17
ENDBRANCH  15  16
ENDBRANCH   1  15
TORSDOF 22
ENDMDL
