MODEL 1
REMARK VINA RESULT:    -6.663      0.000      0.000
REMARK INTER + INTRA:         -10.115
REMARK INTER:                  -9.000
REMARK INTRA:                  -1.114
REMARK UNBOUND:                -1.114
REMARK SMILES CC[C@@H](CC[C@H](C)[C@H]1CC[C@H]2[C@@H]3CC(=O)C4=CC(=O)CC[C@]4(C)[C@@H]3CC[C@]12C)C(C)C
REMARK SMILES IDX 4 1 3 2 2 3 1 4 29 5 30 6 31 7 5 8 6 9 7 10 8 11 9 12 27 13
REMARK SMILES IDX 10 14 11 15 26 16 28 17 12 18 25 19 24 20 13 21 22 22 14 23
REMARK SMILES IDX 16 24 21 25 23 26 15 27 17 28 20 29 18 30 19 31
REMARK H PARENT
REMARK Flexibility Score: inf
ROOT
ATOM      1  C   UNL     1    -121.360-100.469   3.184  1.00  0.00     0.004 C 
ENDROOT
BRANCH   1   2
ATOM      2  C   UNL     1    -122.903-100.458   3.393  1.00  0.00    -0.009 C 
BRANCH   2   3
ATOM      3  C   UNL     1    -123.654-100.274   2.045  1.00  0.00     0.000 C 
ATOM      4  C   UNL     1    -123.782-101.581   1.258  1.00  0.00     0.004 C 
ENDBRANCH   2   3
BRANCH   2   5
ATOM      5  C   UNL     1    -123.323 -99.391   4.461  1.00  0.00    -0.014 C 
ATOM      6  C   UNL     1    -122.294 -99.293   5.598  1.00  0.00     0.007 C 
ATOM      7  C   UNL     1    -124.733 -99.614   5.041  1.00  0.00     0.007 C 
ENDBRANCH   2   5
ENDBRANCH   1   2
BRANCH   1   8
ATOM      8  C   UNL     1    -120.879 -99.374   2.204  1.00  0.00     0.004 C 
BRANCH   8   9
ATOM      9  C   UNL     1    -119.749 -99.831   1.247  1.00  0.00    -0.011 C 
ATOM     10  C   UNL     1    -119.567-101.355   1.413  1.00  0.00     0.008 C 
BRANCH   9  11
ATOM     11  C   UNL     1    -118.342 -99.106   1.326  1.00  0.00    -0.002 C 
ATOM     12  C   UNL     1    -117.137 -99.940   0.837  1.00  0.00     0.005 C 
ATOM     13  C   UNL     1    -118.045 -97.672   0.783  1.00  0.00    -0.026 C 
ATOM     14  C   UNL     1    -115.975 -98.937   0.660  1.00  0.00     0.005 C 
ATOM     15  C   UNL     1    -116.545 -97.597   1.136  1.00  0.00    -0.001 C 
ATOM     16  C   UNL     1    -118.754 -96.535   1.543  1.00  0.00     0.007 C 
ATOM     17  C   UNL     1    -118.276 -97.537  -0.762  1.00  0.00     0.012 C 
ATOM     18  C   UNL     1    -115.850 -96.283   0.697  1.00  0.00     0.004 C 
ATOM     19  C   UNL     1    -118.134 -95.155   1.202  1.00  0.00     0.005 C 
ATOM     20  C   UNL     1    -116.570 -95.051   1.360  1.00  0.00     0.003 C 
ATOM     21  C   UNL     1    -114.345 -96.289   1.000  1.00  0.00     0.085 C 
ATOM     22  C   UNL     1    -116.000 -94.610   2.806  1.00  0.00    -0.000 C 
ATOM     23  C   UNL     1    -114.103 -96.356   2.468  1.00  0.00     0.159 C 
ATOM     24  C   UNL     1    -115.022 -95.649   3.389  1.00  0.00     0.005 C 
ATOM     25  C   UNL     1    -117.141 -94.318   3.839  1.00  0.00     0.020 C 
ATOM     26  C   UNL     1    -115.184 -93.300   2.626  1.00  0.00     0.017 C 
ATOM     27  O   UNL     1    -113.108 -96.998   2.902  1.00  0.00    -0.295 OA
ATOM     28  C   UNL     1    -114.890 -95.838   4.716  1.00  0.00     0.055 C 
ATOM     29  C   UNL     1    -116.638 -94.033   5.258  1.00  0.00     0.081 C 
ATOM     30  C   UNL     1    -115.688 -95.097   5.699  1.00  0.00     0.156 C 
ATOM     31  O   UNL     1    -115.533 -95.325   6.928  1.00  0.00    -0.295 OA
ENDBRANCH   9  11
ENDBRANCH   8   9
ENDBRANCH   1   8
TORSDOF 6
ENDMDL
MODEL 2
REMARK VINA RESULT:    -6.190      3.480      7.774
REMARK INTER + INTRA:          -9.476
REMARK INTER:                  -7.618
REMARK INTRA:                  -1.858
REMARK UNBOUND:                -1.114
REMARK SMILES CC[C@@H](CC[C@H](C)[C@H]1CC[C@H]2[C@@H]3CC(=O)C4=CC(=O)CC[C@]4(C)[C@@H]3CC[C@]12C)C(C)C
REMARK SMILES IDX 4 1 3 2 2 3 1 4 29 5 30 6 31 7 5 8 6 9 7 10 8 11 9 12 27 13
REMARK SMILES IDX 10 14 11 15 26 16 28 17 12 18 25 19 24 20 13 21 22 22 14 23
REMARK SMILES IDX 16 24 21 25 23 26 15 27 17 28 20 29 18 30 19 31
REMARK H PARENT
REMARK Flexibility Score: inf
ROOT
ATOM      1  C   UNL     1    -114.888 -95.961   6.259  1.00  0.00     0.004 C 
ENDROOT
BRANCH   1   2
ATOM      2  C   UNL     1    -113.633 -95.167   5.791  1.00  0.00    -0.009 C 
BRANCH   2   3
ATOM      3  C   UNL     1    -112.752 -96.016   4.833  1.00  0.00     0.000 C 
ATOM      4  C   UNL     1    -112.209 -95.203   3.655  1.00  0.00     0.004 C 
ENDBRANCH   2   3
BRANCH   2   5
ATOM      5  C   UNL     1    -112.823 -94.615   7.014  1.00  0.00    -0.014 C 
ATOM      6  C   UNL     1    -113.565 -94.855   8.339  1.00  0.00     0.007 C 
ATOM      7  C   UNL     1    -112.438 -93.129   6.886  1.00  0.00     0.007 C 
ENDBRANCH   2   5
ENDBRANCH   1   2
BRANCH   1   8
ATOM      8  C   UNL     1    -116.204 -95.408   5.664  1.00  0.00     0.004 C 
BRANCH   8   9
ATOM      9  C   UNL     1    -116.019 -94.604   4.353  1.00  0.00    -0.011 C 
ATOM     10  C   UNL     1    -116.466 -93.149   4.614  1.00  0.00     0.008 C 
BRANCH   9  11
ATOM     11  C   UNL     1    -116.690 -95.146   3.024  1.00  0.00    -0.002 C 
ATOM     12  C   UNL     1    -117.661 -94.170   2.323  1.00  0.00     0.005 C 
ATOM     13  C   UNL     1    -115.917 -95.813   1.841  1.00  0.00    -0.026 C 
ATOM     14  C   UNL     1    -117.891 -94.747   0.909  1.00  0.00     0.005 C 
ATOM     15  C   UNL     1    -117.112 -96.066   0.897  1.00  0.00    -0.001 C 
ATOM     16  C   UNL     1    -115.291 -97.181   2.169  1.00  0.00     0.007 C 
ATOM     17  C   UNL     1    -114.860 -94.861   1.181  1.00  0.00     0.012 C 
ATOM     18  C   UNL     1    -116.728 -96.704  -0.462  1.00  0.00     0.004 C 
ATOM     19  C   UNL     1    -114.877 -97.937   0.879  1.00  0.00     0.005 C 
ATOM     20  C   UNL     1    -115.997 -98.076  -0.220  1.00  0.00     0.003 C 
ATOM     21  C   UNL     1    -117.938 -96.863  -1.394  1.00  0.00     0.085 C 
ATOM     22  C   UNL     1    -116.961 -99.369  -0.136  1.00  0.00    -0.000 C 
ATOM     23  C   UNL     1    -118.929 -97.812  -0.813  1.00  0.00     0.159 C 
ATOM     24  C   UNL     1    -118.450 -98.983  -0.045  1.00  0.00     0.005 C 
ATOM     25  C   UNL     1    -116.587-100.322   1.051  1.00  0.00     0.020 C 
ATOM     26  C   UNL     1    -116.803-100.178  -1.453  1.00  0.00     0.017 C 
ATOM     27  O   UNL     1    -120.160 -97.611  -1.002  1.00  0.00    -0.295 OA
ATOM     28  C   UNL     1    -119.348 -99.748   0.606  1.00  0.00     0.055 C 
ATOM     29  C   UNL     1    -117.564-101.485   1.247  1.00  0.00     0.081 C 
ATOM     30  C   UNL     1    -118.969-100.984   1.301  1.00  0.00     0.156 C 
ATOM     31  O   UNL     1    -119.848-101.653   1.905  1.00  0.00    -0.295 OA
ENDBRANCH   9  11
ENDBRANCH   8   9
ENDBRANCH   1   8
TORSDOF 6
ENDMDL
MODEL 3
REMARK VINA RESULT:    -6.158      2.833      7.315
REMARK INTER + INTRA:          -9.433
REMARK INTER:                  -7.267
REMARK INTRA:                  -2.166
REMARK UNBOUND:                -1.114
REMARK SMILES CC[C@@H](CC[C@H](C)[C@H]1CC[C@H]2[C@@H]3CC(=O)C4=CC(=O)CC[C@]4(C)[C@@H]3CC[C@]12C)C(C)C
REMARK SMILES IDX 4 1 3 2 2 3 1 4 29 5 30 6 31 7 5 8 6 9 7 10 8 11 9 12 27 13
REMARK SMILES IDX 10 14 11 15 26 16 28 17 12 18 25 19 24 20 13 21 22 22 14 23
REMARK SMILES IDX 16 24 21 25 23 26 15 27 17 28 20 29 18 30 19 31
REMARK H PARENT
REMARK Flexibility Score: inf
ROOT
ATOM      1  C   UNL     1    -115.886 -96.377   2.916  1.00  0.00     0.004 C 
ENDROOT
BRANCH   1   2
ATOM      2  C   UNL     1    -116.206 -94.859   2.781  1.00  0.00    -0.009 C 
BRANCH   2   3
ATOM      3  C   UNL     1    -115.987 -94.115   4.127  1.00  0.00     0.000 C 
ATOM      4  C   UNL     1    -116.387 -94.958   5.340  1.00  0.00     0.004 C 
ENDBRANCH   2   3
BRANCH   2   5
ATOM      5  C   UNL     1    -117.645 -94.633   2.202  1.00  0.00    -0.014 C 
ATOM      6  C   UNL     1    -118.421 -95.955   2.082  1.00  0.00     0.007 C 
ATOM      7  C   UNL     1    -117.662 -93.886   0.855  1.00  0.00     0.007 C 
ENDBRANCH   2   5
ENDBRANCH   1   2
BRANCH   1   8
ATOM      8  C   UNL     1    -114.469 -96.739   2.411  1.00  0.00     0.004 C 
BRANCH   8   9
ATOM      9  C   UNL     1    -114.454 -97.537   1.083  1.00  0.00    -0.011 C 
ATOM     10  C   UNL     1    -113.505 -96.816   0.101  1.00  0.00     0.008 C 
BRANCH   9  11
ATOM     11  C   UNL     1    -115.831 -97.856   0.368  1.00  0.00    -0.002 C 
ATOM     12  C   UNL     1    -116.227 -96.893  -0.773  1.00  0.00     0.005 C 
ATOM     13  C   UNL     1    -116.255 -99.260  -0.169  1.00  0.00    -0.026 C 
ATOM     14  C   UNL     1    -117.371 -97.594  -1.539  1.00  0.00     0.005 C 
ATOM     15  C   UNL     1    -117.633 -98.880  -0.750  1.00  0.00    -0.001 C 
ATOM     16  C   UNL     1    -116.490-100.323   0.920  1.00  0.00     0.007 C 
ATOM     17  C   UNL     1    -115.297 -99.808  -1.283  1.00  0.00     0.012 C 
ATOM     18  C   UNL     1    -118.379-100.051  -1.440  1.00  0.00     0.004 C 
ATOM     19  C   UNL     1    -117.254-101.550   0.356  1.00  0.00     0.005 C 
ATOM     20  C   UNL     1    -118.587-101.229  -0.418  1.00  0.00     0.003 C 
ATOM     21  C   UNL     1    -119.707 -99.605  -2.070  1.00  0.00     0.085 C 
ATOM     22  C   UNL     1    -119.949-101.162   0.448  1.00  0.00    -0.000 C 
ATOM     23  C   UNL     1    -120.655 -99.137  -1.020  1.00  0.00     0.159 C 
ATOM     24  C   UNL     1    -120.670 -99.809   0.298  1.00  0.00     0.005 C 
ATOM     25  C   UNL     1    -119.712-101.472   1.965  1.00  0.00     0.020 C 
ATOM     26  C   UNL     1    -120.926-102.237  -0.103  1.00  0.00     0.017 C 
ATOM     27  O   UNL     1    -121.444 -98.187  -1.281  1.00  0.00    -0.295 OA
ATOM     28  C   UNL     1    -121.417 -99.285   1.289  1.00  0.00     0.055 C 
ATOM     29  C   UNL     1    -120.955-101.282   2.841  1.00  0.00     0.081 C 
ATOM     30  C   UNL     1    -121.570 -99.945   2.591  1.00  0.00     0.156 C 
ATOM     31  O   UNL     1    -122.269 -99.402   3.487  1.00  0.00    -0.295 OA
ENDBRANCH   9  11
ENDBRANCH   8   9
ENDBRANCH   1   8
TORSDOF 6
ENDMDL
MODEL 4
REMARK VINA RESULT:    -5.747      3.044      8.273
REMARK INTER + INTRA:          -8.877
REMARK INTER:                  -7.606
REMARK INTRA:                  -1.271
REMARK UNBOUND:                -1.114
REMARK SMILES CC[C@@H](CC[C@H](C)[C@H]1CC[C@H]2[C@@H]3CC(=O)C4=CC(=O)CC[C@]4(C)[C@@H]3CC[C@]12C)C(C)C
REMARK SMILES IDX 4 1 3 2 2 3 1 4 29 5 30 6 31 7 5 8 6 9 7 10 8 11 9 12 27 13
REMARK SMILES IDX 10 14 11 15 26 16 28 17 12 18 25 19 24 20 13 21 22 22 14 23
REMARK SMILES IDX 16 24 21 25 23 26 15 27 17 28 20 29 18 30 19 31
REMARK H PARENT
REMARK Flexibility Score: inf
ROOT
ATOM      1  C   UNL     1    -112.665 -94.338   4.610  1.00  0.00     0.004 C 
ENDROOT
BRANCH   1   2
ATOM      2  C   UNL     1    -112.061 -93.851   5.960  1.00  0.00    -0.009 C 
BRANCH   2   3
ATOM      3  C   UNL     1    -112.212 -94.929   7.068  1.00  0.00     0.000 C 
ATOM      4  C   UNL     1    -113.078 -94.455   8.238  1.00  0.00     0.004 C 
ENDBRANCH   2   3
BRANCH   2   5
ATOM      5  C   UNL     1    -112.665 -92.469   6.385  1.00  0.00    -0.014 C 
ATOM      6  C   UNL     1    -113.409 -91.795   5.221  1.00  0.00     0.007 C 
ATOM      7  C   UNL     1    -111.633 -91.497   6.986  1.00  0.00     0.007 C 
ENDBRANCH   2   5
ENDBRANCH   1   2
BRANCH   1   8
ATOM      8  C   UNL     1    -113.658 -95.511   4.785  1.00  0.00     0.004 C 
BRANCH   8   9
ATOM      9  C   UNL     1    -115.135 -95.072   4.948  1.00  0.00    -0.011 C 
ATOM     10  C   UNL     1    -115.732 -95.831   6.153  1.00  0.00     0.008 C 
BRANCH   9  11
ATOM     11  C   UNL     1    -116.107 -95.186   3.702  1.00  0.00    -0.002 C 
ATOM     12  C   UNL     1    -116.853 -93.888   3.321  1.00  0.00     0.005 C 
ATOM     13  C   UNL     1    -115.721 -95.809   2.322  1.00  0.00    -0.026 C 
ATOM     14  C   UNL     1    -117.428 -94.132   1.907  1.00  0.00     0.005 C 
ATOM     15  C   UNL     1    -117.057 -95.582   1.584  1.00  0.00    -0.001 C 
ATOM     16  C   UNL     1    -115.463 -97.327   2.351  1.00  0.00     0.007 C 
ATOM     17  C   UNL     1    -114.542 -95.058   1.614  1.00  0.00     0.012 C 
ATOM     18  C   UNL     1    -117.057 -96.050   0.106  1.00  0.00     0.004 C 
ATOM     19  C   UNL     1    -115.458 -97.927   0.920  1.00  0.00     0.005 C 
ATOM     20  C   UNL     1    -116.712 -97.583   0.031  1.00  0.00     0.003 C 
ATOM     21  C   UNL     1    -118.379 -95.732  -0.607  1.00  0.00     0.085 C 
ATOM     22  C   UNL     1    -117.977 -98.583   0.117  1.00  0.00    -0.000 C 
ATOM     23  C   UNL     1    -119.506 -96.484   0.014  1.00  0.00     0.159 C 
ATOM     24  C   UNL     1    -119.272 -97.853   0.523  1.00  0.00     0.005 C 
ATOM     25  C   UNL     1    -117.724 -99.791   1.083  1.00  0.00     0.020 C 
ATOM     26  C   UNL     1    -118.234 -99.163  -1.301  1.00  0.00     0.017 C 
ATOM     27  O   UNL     1    -120.646 -95.947   0.077  1.00  0.00    -0.295 OA
ATOM     28  C   UNL     1    -120.249 -98.467   1.219  1.00  0.00     0.055 C 
ATOM     29  C   UNL     1    -118.951-100.684   1.297  1.00  0.00     0.081 C 
ATOM     30  C   UNL     1    -120.138 -99.859   1.667  1.00  0.00     0.156 C 
ATOM     31  O   UNL     1    -121.078-100.378   2.327  1.00  0.00    -0.295 OA
ENDBRANCH   9  11
ENDBRANCH   8   9
ENDBRANCH   1   8
TORSDOF 6
ENDMDL
MODEL 5
REMARK VINA RESULT:    -5.573      3.329      7.951
REMARK INTER + INTRA:          -8.642
REMARK INTER:                  -6.768
REMARK INTRA:                  -1.874
REMARK UNBOUND:                -1.114
REMARK SMILES CC[C@@H](CC[C@H](C)[C@H]1CC[C@H]2[C@@H]3CC(=O)C4=CC(=O)CC[C@]4(C)[C@@H]3CC[C@]12C)C(C)C
REMARK SMILES IDX 4 1 3 2 2 3 1 4 29 5 30 6 31 7 5 8 6 9 7 10 8 11 9 12 27 13
REMARK SMILES IDX 10 14 11 15 26 16 28 17 12 18 25 19 24 20 13 21 22 22 14 23
REMARK SMILES IDX 16 24 21 25 23 26 15 27 17 28 20 29 18 30 19 31
REMARK H PARENT
REMARK Flexibility Score: inf
ROOT
ATOM      1  C   UNL     1    -117.231 -94.074   1.973  1.00  0.00     0.004 C 
ENDROOT
BRANCH   1   2
ATOM      2  C   UNL     1    -116.645 -95.259   2.796  1.00  0.00    -0.009 C 
BRANCH   2   3
ATOM      3  C   UNL     1    -116.222 -94.803   4.219  1.00  0.00     0.000 C 
ATOM      4  C   UNL     1    -116.171 -93.279   4.360  1.00  0.00     0.004 C 
ENDBRANCH   2   3
BRANCH   2   5
ATOM      5  C   UNL     1    -115.477 -95.963   2.023  1.00  0.00    -0.014 C 
ATOM      6  C   UNL     1    -115.336 -95.418   0.592  1.00  0.00     0.007 C 
ATOM      7  C   UNL     1    -115.586 -97.499   1.995  1.00  0.00     0.007 C 
ENDBRANCH   2   5
ENDBRANCH   1   2
BRANCH   1   8
ATOM      8  C   UNL     1    -118.754 -94.203   1.735  1.00  0.00     0.004 C 
BRANCH   8   9
ATOM      9  C   UNL     1    -119.151 -94.369   0.246  1.00  0.00    -0.011 C 
ATOM     10  C   UNL     1    -119.943 -93.115  -0.182  1.00  0.00     0.008 C 
BRANCH   9  11
ATOM     11  C   UNL     1    -119.928 -95.677  -0.195  1.00  0.00    -0.002 C 
ATOM     12  C   UNL     1    -120.608 -95.611  -1.580  1.00  0.00     0.005 C 
ATOM     13  C   UNL     1    -119.345 -97.125  -0.138  1.00  0.00    -0.026 C 
ATOM     14  C   UNL     1    -120.968 -97.069  -1.943  1.00  0.00     0.005 C 
ATOM     15  C   UNL     1    -120.557 -97.886  -0.715  1.00  0.00    -0.001 C 
ATOM     16  C   UNL     1    -119.096 -97.665   1.283  1.00  0.00     0.007 C 
ATOM     17  C   UNL     1    -118.073 -97.313  -1.034  1.00  0.00     0.012 C 
ATOM     18  C   UNL     1    -120.340 -99.414  -0.863  1.00  0.00     0.004 C 
ATOM     19  C   UNL     1    -118.882 -99.201   1.275  1.00  0.00     0.005 C 
ATOM     20  C   UNL     1    -119.990-100.042   0.537  1.00  0.00     0.003 C 
ATOM     21  C   UNL     1    -121.542-100.114  -1.513  1.00  0.00     0.085 C 
ATOM     22  C   UNL     1    -121.257-100.530   1.413  1.00  0.00    -0.000 C 
ATOM     23  C   UNL     1    -122.749 -99.999  -0.648  1.00  0.00     0.159 C 
ATOM     24  C   UNL     1    -122.596-100.046   0.824  1.00  0.00     0.005 C 
ATOM     25  C   UNL     1    -121.151-100.096   2.915  1.00  0.00     0.020 C 
ATOM     26  C   UNL     1    -121.303-102.082   1.376  1.00  0.00     0.017 C 
ATOM     27  O   UNL     1    -123.885 -99.884  -1.184  1.00  0.00    -0.295 OA
ATOM     28  C   UNL     1    -123.666 -99.788   1.600  1.00  0.00     0.055 C 
ATOM     29  C   UNL     1    -122.398-100.419   3.746  1.00  0.00     0.081 C 
ATOM     30  C   UNL     1    -123.625 -99.916   3.061  1.00  0.00     0.156 C 
ATOM     31  O   UNL     1    -124.653 -99.649   3.739  1.00  0.00    -0.295 OA
ENDBRANCH   9  11
ENDBRANCH   8   9
ENDBRANCH   1   8
TORSDOF 6
ENDMDL
MODEL 6
REMARK VINA RESULT:    -5.564      1.632      2.679
REMARK INTER + INTRA:          -8.631
REMARK INTER:                  -7.698
REMARK INTRA:                  -0.933
REMARK UNBOUND:                -1.114
REMARK SMILES CC[C@@H](CC[C@H](C)[C@H]1CC[C@H]2[C@@H]3CC(=O)C4=CC(=O)CC[C@]4(C)[C@@H]3CC[C@]12C)C(C)C
REMARK SMILES IDX 4 1 3 2 2 3 1 4 29 5 30 6 31 7 5 8 6 9 7 10 8 11 9 12 27 13
REMARK SMILES IDX 10 14 11 15 26 16 28 17 12 18 25 19 24 20 13 21 22 22 14 23
REMARK SMILES IDX 16 24 21 25 23 26 15 27 17 28 20 29 18 30 19 31
REMARK H PARENT
REMARK Flexibility Score: inf
ROOT
ATOM      1  C   UNL     1    -119.918 -99.278   0.928  1.00  0.00     0.004 C 
ENDROOT
BRANCH   1   2
ATOM      2  C   UNL     1    -120.590-100.369   1.814  1.00  0.00    -0.009 C 
BRANCH   2   3
ATOM      3  C   UNL     1    -121.041-101.588   0.963  1.00  0.00     0.000 C 
ATOM      4  C   UNL     1    -119.985-102.017  -0.060  1.00  0.00     0.004 C 
ENDBRANCH   2   3
BRANCH   2   5
ATOM      5  C   UNL     1    -121.762 -99.767   2.662  1.00  0.00    -0.014 C 
ATOM      6  C   UNL     1    -121.865-100.438   4.041  1.00  0.00     0.007 C 
ATOM      7  C   UNL     1    -123.128 -99.807   1.952  1.00  0.00     0.007 C 
ENDBRANCH   2   5
ENDBRANCH   1   2
BRANCH   1   8
ATOM      8  C   UNL     1    -118.657 -98.666   1.582  1.00  0.00     0.004 C 
BRANCH   8   9
ATOM      9  C   UNL     1    -117.332 -99.031   0.867  1.00  0.00    -0.011 C 
ATOM     10  C   UNL     1    -116.982-100.493   1.221  1.00  0.00     0.008 C 
BRANCH   9  11
ATOM     11  C   UNL     1    -116.066 -98.104   1.086  1.00  0.00    -0.002 C 
ATOM     12  C   UNL     1    -114.908 -98.313   0.086  1.00  0.00     0.005 C 
ATOM     13  C   UNL     1    -116.116 -96.554   1.276  1.00  0.00    -0.026 C 
ATOM     14  C   UNL     1    -113.979 -97.090   0.256  1.00  0.00     0.005 C 
ATOM     15  C   UNL     1    -114.602 -96.286   1.400  1.00  0.00    -0.001 C 
ATOM     16  C   UNL     1    -116.777 -96.085   2.585  1.00  0.00     0.007 C 
ATOM     17  C   UNL     1    -116.730 -95.802   0.044  1.00  0.00     0.012 C 
ATOM     18  C   UNL     1    -114.229 -94.791   1.563  1.00  0.00     0.004 C 
ATOM     19  C   UNL     1    -116.461 -94.595   2.876  1.00  0.00     0.005 C 
ATOM     20  C   UNL     1    -114.937 -94.199   2.838  1.00  0.00     0.003 C 
ATOM     21  C   UNL     1    -112.710 -94.569   1.604  1.00  0.00     0.085 C 
ATOM     22  C   UNL     1    -114.103 -94.329   4.216  1.00  0.00    -0.000 C 
ATOM     23  C   UNL     1    -112.115 -95.226   2.802  1.00  0.00     0.159 C 
ATOM     24  C   UNL     1    -112.876 -95.249   4.071  1.00  0.00     0.005 C 
ATOM     25  C   UNL     1    -114.991 -94.815   5.412  1.00  0.00     0.020 C 
ATOM     26  C   UNL     1    -113.551 -92.924   4.582  1.00  0.00     0.017 C 
ATOM     27  O   UNL     1    -110.963 -95.733   2.719  1.00  0.00    -0.295 OA
ATOM     28  C   UNL     1    -112.402 -95.975   5.103  1.00  0.00     0.055 C 
ATOM     29  C   UNL     1    -114.207 -95.083   6.701  1.00  0.00     0.081 C 
ATOM     30  C   UNL     1    -113.038 -95.968   6.425  1.00  0.00     0.156 C 
ATOM     31  O   UNL     1    -112.560 -96.677   7.350  1.00  0.00    -0.295 OA
ENDBRANCH   9  11
ENDBRANCH   8   9
ENDBRANCH   1   8
TORSDOF 6
ENDMDL
MODEL 7
REMARK VINA RESULT:    -5.558      2.925      8.038
REMARK INTER + INTRA:          -8.621
REMARK INTER:                  -7.666
REMARK INTRA:                  -0.956
REMARK UNBOUND:                -1.114
REMARK SMILES CC[C@@H](CC[C@H](C)[C@H]1CC[C@H]2[C@@H]3CC(=O)C4=CC(=O)CC[C@]4(C)[C@@H]3CC[C@]12C)C(C)C
REMARK SMILES IDX 4 1 3 2 2 3 1 4 29 5 30 6 31 7 5 8 6 9 7 10 8 11 9 12 27 13
REMARK SMILES IDX 10 14 11 15 26 16 28 17 12 18 25 19 24 20 13 21 22 22 14 23
REMARK SMILES IDX 16 24 21 25 23 26 15 27 17 28 20 29 18 30 19 31
REMARK H PARENT
REMARK Flexibility Score: inf
ROOT
ATOM      1  C   UNL     1    -113.868 -95.586   4.603  1.00  0.00     0.004 C 
ENDROOT
BRANCH   1   2
ATOM      2  C   UNL     1    -114.153 -94.284   5.409  1.00  0.00    -0.009 C 
BRANCH   2   3
ATOM      3  C   UNL     1    -114.232 -93.047   4.473  1.00  0.00     0.000 C 
ATOM      4  C   UNL     1    -115.671 -92.582   4.230  1.00  0.00     0.004 C 
ENDBRANCH   2   3
BRANCH   2   5
ATOM      5  C   UNL     1    -113.110 -94.093   6.563  1.00  0.00    -0.014 C 
ATOM      6  C   UNL     1    -111.702 -94.533   6.132  1.00  0.00     0.007 C 
ATOM      7  C   UNL     1    -113.503 -94.793   7.878  1.00  0.00     0.007 C 
ENDBRANCH   2   5
ENDBRANCH   1   2
BRANCH   1   8
ATOM      8  C   UNL     1    -115.139 -96.178   3.950  1.00  0.00     0.004 C 
BRANCH   8   9
ATOM      9  C   UNL     1    -114.910 -96.765   2.534  1.00  0.00    -0.011 C 
ATOM     10  C   UNL     1    -113.905 -95.855   1.795  1.00  0.00     0.008 C 
BRANCH   9  11
ATOM     11  C   UNL     1    -116.166 -97.046   1.612  1.00  0.00    -0.002 C 
ATOM     12  C   UNL     1    -116.657 -95.846   0.773  1.00  0.00     0.005 C 
ATOM     13  C   UNL     1    -116.306 -98.260   0.638  1.00  0.00    -0.026 C 
ATOM     14  C   UNL     1    -117.615 -96.435  -0.286  1.00  0.00     0.005 C 
ATOM     15  C   UNL     1    -117.693 -97.927   0.051  1.00  0.00    -0.001 C 
ATOM     16  C   UNL     1    -116.415 -99.632   1.329  1.00  0.00     0.007 C 
ATOM     17  C   UNL     1    -115.204 -98.285  -0.477  1.00  0.00     0.012 C 
ATOM     18  C   UNL     1    -118.183 -98.921  -1.033  1.00  0.00     0.004 C 
ATOM     19  C   UNL     1    -116.918-100.721   0.346  1.00  0.00     0.005 C 
ATOM     20  C   UNL     1    -118.240-100.376  -0.438  1.00  0.00     0.003 C 
ATOM     21  C   UNL     1    -119.529 -98.504  -1.642  1.00  0.00     0.085 C 
ATOM     22  C   UNL     1    -119.641-100.786   0.256  1.00  0.00    -0.000 C 
ATOM     23  C   UNL     1    -120.604 -98.532  -0.610  1.00  0.00     0.159 C 
ATOM     24  C   UNL     1    -120.578 -99.576   0.438  1.00  0.00     0.005 C 
ATOM     25  C   UNL     1    -119.441-101.514   1.629  1.00  0.00     0.020 C 
ATOM     26  C   UNL     1    -120.382-101.768  -0.693  1.00  0.00     0.017 C 
ATOM     27  O   UNL     1    -121.530 -97.677  -0.660  1.00  0.00    -0.295 OA
ATOM     28  C   UNL     1    -121.461 -99.504   1.454  1.00  0.00     0.055 C 
ATOM     29  C   UNL     1    -120.747-101.793   2.381  1.00  0.00     0.081 C 
ATOM     30  C   UNL     1    -121.570-100.552   2.475  1.00  0.00     0.156 C 
ATOM     31  O   UNL     1    -122.405-100.426   3.410  1.00  0.00    -0.295 OA
ENDBRANCH   9  11
ENDBRANCH   8   9
ENDBRANCH   1   8
TORSDOF 6
ENDMDL
MODEL 8
REMARK VINA RESULT:    -5.488      4.610      9.159
REMARK INTER + INTRA:          -8.527
REMARK INTER:                  -5.560
REMARK INTRA:                  -2.967
REMARK UNBOUND:                -1.114
REMARK SMILES CC[C@@H](CC[C@H](C)[C@H]1CC[C@H]2[C@@H]3CC(=O)C4=CC(=O)CC[C@]4(C)[C@@H]3CC[C@]12C)C(C)C
REMARK SMILES IDX 4 1 3 2 2 3 1 4 29 5 30 6 31 7 5 8 6 9 7 10 8 11 9 12 27 13
REMARK SMILES IDX 10 14 11 15 26 16 28 17 12 18 25 19 24 20 13 21 22 22 14 23
REMARK SMILES IDX 16 24 21 25 23 26 15 27 17 28 20 29 18 30 19 31
REMARK H PARENT
REMARK Flexibility Score: inf
ROOT
ATOM      1  C   UNL     1    -113.848 -90.101   5.486  1.00  0.00     0.004 C 
ENDROOT
BRANCH   1   2
ATOM      2  C   UNL     1    -113.284 -89.850   4.057  1.00  0.00    -0.009 C 
BRANCH   2   3
ATOM      3  C   UNL     1    -113.133 -88.330   3.769  1.00  0.00     0.000 C 
ATOM      4  C   UNL     1    -114.249 -87.786   2.873  1.00  0.00     0.004 C 
ENDBRANCH   2   3
BRANCH   2   5
ATOM      5  C   UNL     1    -114.146 -90.580   2.970  1.00  0.00    -0.014 C 
ATOM      6  C   UNL     1    -115.307 -91.364   3.603  1.00  0.00     0.007 C 
ATOM      7  C   UNL     1    -113.329 -91.501   2.044  1.00  0.00     0.007 C 
ENDBRANCH   2   5
ENDBRANCH   1   2
BRANCH   1   8
ATOM      8  C   UNL     1    -112.738 -90.316   6.541  1.00  0.00     0.004 C 
BRANCH   8   9
ATOM      9  C   UNL     1    -112.297 -91.792   6.706  1.00  0.00    -0.011 C 
ATOM     10  C   UNL     1    -110.875 -91.804   7.307  1.00  0.00     0.008 C 
BRANCH   9  11
ATOM     11  C   UNL     1    -112.361 -92.753   5.448  1.00  0.00    -0.002 C 
ATOM     12  C   UNL     1    -111.035 -92.926   4.675  1.00  0.00     0.005 C 
ATOM     13  C   UNL     1    -112.977 -94.189   5.452  1.00  0.00    -0.026 C 
ATOM     14  C   UNL     1    -111.240 -94.150   3.755  1.00  0.00     0.005 C 
ATOM     15  C   UNL     1    -112.697 -94.565   3.982  1.00  0.00    -0.001 C 
ATOM     16  C   UNL     1    -114.503 -94.236   5.656  1.00  0.00     0.007 C 
ATOM     17  C   UNL     1    -112.253 -95.168   6.440  1.00  0.00     0.012 C 
ATOM     18  C   UNL     1    -113.143 -95.998   3.593  1.00  0.00     0.004 C 
ATOM     19  C   UNL     1    -115.081 -95.625   5.280  1.00  0.00     0.005 C 
ATOM     20  C   UNL     1    -114.685 -96.167   3.855  1.00  0.00     0.003 C 
ATOM     21  C   UNL     1    -112.772 -96.352   2.145  1.00  0.00     0.085 C 
ATOM     22  C   UNL     1    -115.645 -95.770   2.618  1.00  0.00    -0.000 C 
ATOM     23  C   UNL     1    -113.496 -95.471   1.186  1.00  0.00     0.159 C 
ATOM     24  C   UNL     1    -114.880 -95.046   1.494  1.00  0.00     0.005 C 
ATOM     25  C   UNL     1    -116.874 -94.907   3.064  1.00  0.00     0.020 C 
ATOM     26  C   UNL     1    -116.196 -97.081   1.992  1.00  0.00     0.017 C 
ATOM     27  O   UNL     1    -112.925 -95.120   0.118  1.00  0.00    -0.295 OA
ATOM     28  C   UNL     1    -115.472 -94.130   0.702  1.00  0.00     0.055 C 
ATOM     29  C   UNL     1    -117.731 -94.395   1.901  1.00  0.00     0.081 C 
ATOM     30  C   UNL     1    -116.874 -93.732   0.875  1.00  0.00     0.156 C 
ATOM     31  O   UNL     1    -117.372 -92.860   0.114  1.00  0.00    -0.295 OA
ENDBRANCH   9  11
ENDBRANCH   8   9
ENDBRANCH   1   8
TORSDOF 6
ENDMDL
MODEL 9
REMARK VINA RESULT:    -5.484      1.555      2.707
REMARK INTER + INTRA:          -8.522
REMARK INTER:                  -7.532
REMARK INTRA:                  -0.990
REMARK UNBOUND:                -1.114
REMARK SMILES CC[C@@H](CC[C@H](C)[C@H]1CC[C@H]2[C@@H]3CC(=O)C4=CC(=O)CC[C@]4(C)[C@@H]3CC[C@]12C)C(C)C
REMARK SMILES IDX 4 1 3 2 2 3 1 4 29 5 30 6 31 7 5 8 6 9 7 10 8 11 9 12 27 13
REMARK SMILES IDX 10 14 11 15 26 16 28 17 12 18 25 19 24 20 13 21 22 22 14 23
REMARK SMILES IDX 16 24 21 25 23 26 15 27 17 28 20 29 18 30 19 31
REMARK H PARENT
REMARK Flexibility Score: inf
ROOT
ATOM      1  C   UNL     1    -123.572-100.168   2.136  1.00  0.00     0.004 C 
ENDROOT
BRANCH   1   2
ATOM      2  C   UNL     1    -124.921-100.854   2.503  1.00  0.00    -0.009 C 
BRANCH   2   3
ATOM      3  C   UNL     1    -125.609-101.453   1.246  1.00  0.00     0.000 C 
ATOM      4  C   UNL     1    -125.782-102.971   1.334  1.00  0.00     0.004 C 
ENDBRANCH   2   3
BRANCH   2   5
ATOM      5  C   UNL     1    -125.859 -99.875   3.288  1.00  0.00    -0.014 C 
ATOM      6  C   UNL     1    -125.096 -99.122   4.390  1.00  0.00     0.007 C 
ATOM      7  C   UNL     1    -127.109-100.553   3.881  1.00  0.00     0.007 C 
ENDBRANCH   2   5
ENDBRANCH   1   2
BRANCH   1   8
ATOM      8  C   UNL     1    -122.516-101.165   1.604  1.00  0.00     0.004 C 
BRANCH   8   9
ATOM      9  C   UNL     1    -121.177-101.147   2.385  1.00  0.00    -0.011 C 
ATOM     10  C   UNL     1    -121.418-100.436   3.734  1.00  0.00     0.008 C 
BRANCH   9  11
ATOM     11  C   UNL     1    -119.890-100.551   1.680  1.00  0.00    -0.002 C 
ATOM     12  C   UNL     1    -119.004-101.575   0.938  1.00  0.00     0.005 C 
ATOM     13  C   UNL     1    -119.884 -99.305   0.738  1.00  0.00    -0.026 C 
ATOM     14  C   UNL     1    -118.053-100.743   0.049  1.00  0.00     0.005 C 
ATOM     15  C   UNL     1    -118.382 -99.286   0.387  1.00  0.00    -0.001 C 
ATOM     16  C   UNL     1    -120.212 -97.970   1.432  1.00  0.00     0.007 C 
ATOM     17  C   UNL     1    -120.767 -99.498  -0.543  1.00  0.00     0.012 C 
ATOM     18  C   UNL     1    -117.972 -98.169  -0.606  1.00  0.00     0.004 C 
ATOM     19  C   UNL     1    -119.827 -96.760   0.540  1.00  0.00     0.005 C 
ATOM     20  C   UNL     1    -118.353 -96.762  -0.014  1.00  0.00     0.003 C 
ATOM     21  C   UNL     1    -116.485 -98.241  -0.983  1.00  0.00     0.085 C 
ATOM     22  C   UNL     1    -117.217 -96.063   0.898  1.00  0.00    -0.000 C 
ATOM     23  C   UNL     1    -115.627 -98.001   0.211  1.00  0.00     0.159 C 
ATOM     24  C   UNL     1    -116.065 -97.028   1.237  1.00  0.00     0.005 C 
ATOM     25  C   UNL     1    -117.800 -95.449   2.217  1.00  0.00     0.020 C 
ATOM     26  C   UNL     1    -116.585 -94.903   0.080  1.00  0.00     0.017 C 
ATOM     27  O   UNL     1    -114.531 -98.616   0.317  1.00  0.00    -0.295 OA
ATOM     28  C   UNL     1    -115.365 -96.929   2.383  1.00  0.00     0.055 C 
ATOM     29  C   UNL     1    -116.734 -94.901   3.172  1.00  0.00     0.081 C 
ATOM     30  C   UNL     1    -115.669 -95.920   3.405  1.00  0.00     0.156 C 
ATOM     31  O   UNL     1    -114.989 -95.882   4.465  1.00  0.00    -0.295 OA
ENDBRANCH   9  11
ENDBRANCH   8   9
ENDBRANCH   1   8
TORSDOF 6
ENDMDL
