MODEL 1
REMARK VINA RESULT:    -6.542      0.000      0.000
REMARK INTER + INTRA:         -12.688
REMARK INTER:                 -11.897
REMARK INTRA:                  -0.791
REMARK UNBOUND:                -0.791
REMARK SMILES CCCCCC=CCC=CCCCCCCCC(=O)[O-]
REMARK SMILES IDX 11 1 12 2 13 3 14 4 15 5 16 6 17 7 18 8 19 9 20 10 10 11
REMARK SMILES IDX 9 12 8 13 7 14 6 15 5 16 4 17 3 18 2 19 1 20
REMARK H PARENT
REMARK Flexibility Score: inf
ROOT
ATOM      1  C   UNL     1      24.275  -0.836 -26.926  1.00  0.00     0.027 C 
ENDROOT
BRANCH   1   2
ATOM      2  C   UNL     1      22.915  -1.479 -26.613  1.00  0.00     0.004 C 
BRANCH   2   3
ATOM      3  C   UNL     1      23.006  -3.004 -26.443  1.00  0.00     0.000 C 
BRANCH   3   4
ATOM      4  C   UNL     1      21.627  -3.685 -26.475  1.00  0.00     0.000 C 
BRANCH   4   5
ATOM      5  C   UNL     1      20.841  -3.369 -27.758  1.00  0.00     0.000 C 
BRANCH   5   6
ATOM      6  C   UNL     1      19.455  -4.030 -27.784  1.00  0.00     0.006 C 
BRANCH   6   7
ATOM      7  C   UNL     1      18.577  -3.506 -26.642  1.00  0.00     0.053 C 
BRANCH   7   8
ATOM      8  C   UNL     1      17.674  -4.586 -26.135  1.00  0.00     0.041 C 
ATOM      9  O   UNL     1      16.958  -5.242 -26.938  1.00  0.00    -0.550 OA
ATOM     10  O   UNL     1      17.654  -4.898 -24.781  1.00  0.00    -0.550 OA
ENDBRANCH   7   8
ENDBRANCH   6   7
ENDBRANCH   5   6
ENDBRANCH   4   5
ENDBRANCH   3   4
ENDBRANCH   2   3
ENDBRANCH   1   2
BRANCH   1  11
ATOM     11  C   UNL     1      24.154   0.659 -27.043  1.00  0.00    -0.031 C 
ATOM     12  C   UNL     1      24.804   1.483 -26.206  1.00  0.00    -0.027 C 
BRANCH  12  13
ATOM     13  C   UNL     1      24.712   2.977 -26.328  1.00  0.00     0.054 C 
BRANCH  13  14
ATOM     14  C   UNL     1      25.907   3.635 -25.685  1.00  0.00    -0.027 C 
ATOM     15  C   UNL     1      27.062   3.948 -26.302  1.00  0.00    -0.031 C 
BRANCH  15  16
ATOM     16  C   UNL     1      27.385   3.689 -27.755  1.00  0.00     0.027 C 
BRANCH  16  17
ATOM     17  C   UNL     1      28.892   3.838 -28.037  1.00  0.00     0.004 C 
BRANCH  17  18
ATOM     18  C   UNL     1      29.776   3.723 -26.779  1.00  0.00     0.000 C 
BRANCH  18  19
ATOM     19  C   UNL     1      31.098   4.506 -26.837  1.00  0.00    -0.003 C 
ATOM     20  C   UNL     1      31.096   5.751 -25.951  1.00  0.00     0.004 C 
ENDBRANCH  18  19
ENDBRANCH  17  18
ENDBRANCH  16  17
ENDBRANCH  15  16
ENDBRANCH  13  14
ENDBRANCH  12  13
ENDBRANCH   1  11
TORSDOF 14
ENDMDL
MODEL 2
REMARK VINA RESULT:    -6.416     11.941     14.947
REMARK INTER + INTRA:         -12.459
REMARK INTER:                 -11.526
REMARK INTRA:                  -0.933
REMARK UNBOUND:                -0.791
REMARK SMILES CCCCCC=CCC=CCCCCCCCC(=O)[O-]
REMARK SMILES IDX 11 1 12 2 13 3 14 4 15 5 16 6 17 7 18 8 19 9 20 10 10 11
REMARK SMILES IDX 9 12 8 13 7 14 6 15 5 16 4 17 3 18 2 19 1 20
REMARK H PARENT
REMARK Flexibility Score: inf
ROOT
ATOM      1  C   UNL     1      24.976  -0.728 -15.927  1.00  0.00     0.027 C 
ENDROOT
BRANCH   1   2
ATOM      2  C   UNL     1      26.389  -0.359 -16.405  1.00  0.00     0.004 C 
BRANCH   2   3
ATOM      3  C   UNL     1      27.255  -1.594 -16.702  1.00  0.00     0.000 C 
BRANCH   3   4
ATOM      4  C   UNL     1      28.753  -1.335 -16.465  1.00  0.00     0.000 C 
BRANCH   4   5
ATOM      5  C   UNL     1      29.033  -0.698 -15.094  1.00  0.00     0.000 C 
BRANCH   5   6
ATOM      6  C   UNL     1      30.354   0.085 -15.062  1.00  0.00     0.006 C 
BRANCH   6   7
ATOM      7  C   UNL     1      30.911   0.277 -16.477  1.00  0.00     0.053 C 
BRANCH   7   8
ATOM      8  C   UNL     1      32.384   0.012 -16.502  1.00  0.00     0.041 C 
ATOM      9  O   UNL     1      32.990  -0.094 -17.601  1.00  0.00    -0.550 OA
ATOM     10  O   UNL     1      33.095  -0.074 -15.311  1.00  0.00    -0.550 OA
ENDBRANCH   7   8
ENDBRANCH   6   7
ENDBRANCH   5   6
ENDBRANCH   4   5
ENDBRANCH   3   4
ENDBRANCH   2   3
ENDBRANCH   1   2
BRANCH   1  11
ATOM     11  C   UNL     1      24.129   0.501 -15.741  1.00  0.00    -0.031 C 
ATOM     12  C   UNL     1      23.125   0.795 -16.582  1.00  0.00    -0.027 C 
BRANCH  12  13
ATOM     13  C   UNL     1      22.255   2.005 -16.392  1.00  0.00     0.054 C 
BRANCH  13  14
ATOM     14  C   UNL     1      20.954   1.844 -17.138  1.00  0.00    -0.027 C 
ATOM     15  C   UNL     1      19.739   1.688 -16.580  1.00  0.00    -0.031 C 
BRANCH  15  16
ATOM     16  C   UNL     1      19.448   1.633 -15.099  1.00  0.00     0.027 C 
BRANCH  16  17
ATOM     17  C   UNL     1      18.649   0.371 -14.722  1.00  0.00     0.004 C 
BRANCH  17  18
ATOM     18  C   UNL     1      17.128   0.602 -14.629  1.00  0.00     0.000 C 
BRANCH  18  19
ATOM     19  C   UNL     1      16.352   0.368 -15.936  1.00  0.00    -0.003 C 
ATOM     20  C   UNL     1      16.922  -0.776 -16.774  1.00  0.00     0.004 C 
ENDBRANCH  18  19
ENDBRANCH  17  18
ENDBRANCH  16  17
ENDBRANCH  15  16
ENDBRANCH  13  14
ENDBRANCH  12  13
ENDBRANCH   1  11
TORSDOF 14
ENDMDL
MODEL 3
REMARK VINA RESULT:    -6.404     10.871     11.584
REMARK INTER + INTRA:         -12.436
REMARK INTER:                 -11.609
REMARK INTRA:                  -0.826
REMARK UNBOUND:                -0.791
REMARK SMILES CCCCCC=CCC=CCCCCCCCC(=O)[O-]
REMARK SMILES IDX 11 1 12 2 13 3 14 4 15 5 16 6 17 7 18 8 19 9 20 10 10 11
REMARK SMILES IDX 9 12 8 13 7 14 6 15 5 16 4 17 3 18 2 19 1 20
REMARK H PARENT
REMARK Flexibility Score: inf
ROOT
ATOM      1  C   UNL     1      23.172   1.893 -17.057  1.00  0.00     0.027 C 
ENDROOT
BRANCH   1   2
ATOM      2  C   UNL     1      21.866   1.730 -16.262  1.00  0.00     0.004 C 
BRANCH   2   3
ATOM      3  C   UNL     1      20.653   2.337 -16.984  1.00  0.00     0.000 C 
BRANCH   3   4
ATOM      4  C   UNL     1      19.315   1.830 -16.420  1.00  0.00     0.000 C 
BRANCH   4   5
ATOM      5  C   UNL     1      19.468   1.170 -15.040  1.00  0.00     0.000 C 
BRANCH   5   6
ATOM      6  C   UNL     1      18.174   0.500 -14.555  1.00  0.00     0.006 C 
BRANCH   6   7
ATOM      7  C   UNL     1      16.951   1.096 -15.263  1.00  0.00     0.053 C 
BRANCH   7   8
ATOM      8  C   UNL     1      16.274   0.059 -16.102  1.00  0.00     0.041 C 
ATOM      9  O   UNL     1      16.741  -1.109 -16.166  1.00  0.00    -0.550 OA
ATOM     10  O   UNL     1      15.102   0.370 -16.781  1.00  0.00    -0.550 OA
ENDBRANCH   7   8
ENDBRANCH   6   7
ENDBRANCH   5   6
ENDBRANCH   4   5
ENDBRANCH   3   4
ENDBRANCH   2   3
ENDBRANCH   1   2
BRANCH   1  11
ATOM     11  C   UNL     1      24.059   0.690 -16.895  1.00  0.00    -0.031 C 
ATOM     12  C   UNL     1      24.255   0.119 -15.695  1.00  0.00    -0.027 C 
BRANCH  12  13
ATOM     13  C   UNL     1      25.118  -1.099 -15.524  1.00  0.00     0.054 C 
BRANCH  13  14
ATOM     14  C   UNL     1      25.986  -1.308 -16.740  1.00  0.00    -0.027 C 
ATOM     15  C   UNL     1      27.328  -1.215 -16.775  1.00  0.00    -0.031 C 
BRANCH  15  16
ATOM     16  C   UNL     1      28.221  -0.872 -15.606  1.00  0.00     0.027 C 
BRANCH  16  17
ATOM     17  C   UNL     1      29.681  -0.661 -16.048  1.00  0.00     0.004 C 
BRANCH  17  18
ATOM     18  C   UNL     1      30.403   0.471 -15.290  1.00  0.00     0.000 C 
BRANCH  18  19
ATOM     19  C   UNL     1      31.625   1.063 -16.013  1.00  0.00    -0.003 C 
ATOM     20  C   UNL     1      32.779   0.071 -16.150  1.00  0.00     0.004 C 
ENDBRANCH  18  19
ENDBRANCH  17  18
ENDBRANCH  16  17
ENDBRANCH  15  16
ENDBRANCH  13  14
ENDBRANCH  12  13
ENDBRANCH   1  11
TORSDOF 14
ENDMDL
MODEL 4
REMARK VINA RESULT:    -6.217      5.717     11.801
REMARK INTER + INTRA:         -12.095
REMARK INTER:                 -11.479
REMARK INTRA:                  -0.616
REMARK UNBOUND:                -0.791
REMARK SMILES CCCCCC=CCC=CCCCCCCCC(=O)[O-]
REMARK SMILES IDX 11 1 12 2 13 3 14 4 15 5 16 6 17 7 18 8 19 9 20 10 10 11
REMARK SMILES IDX 9 12 8 13 7 14 6 15 5 16 4 17 3 18 2 19 1 20
REMARK H PARENT
REMARK Flexibility Score: inf
ROOT
ATOM      1  C   UNL     1      24.756   1.177 -26.102  1.00  0.00     0.027 C 
ENDROOT
BRANCH   1   2
ATOM      2  C   UNL     1      24.734   2.398 -27.037  1.00  0.00     0.004 C 
BRANCH   2   3
ATOM      3  C   UNL     1      25.794   3.447 -26.665  1.00  0.00     0.000 C 
BRANCH   3   4
ATOM      4  C   UNL     1      27.039   3.374 -27.565  1.00  0.00     0.000 C 
BRANCH   4   5
ATOM      5  C   UNL     1      28.080   4.452 -27.223  1.00  0.00     0.000 C 
BRANCH   5   6
ATOM      6  C   UNL     1      29.436   4.204 -27.900  1.00  0.00     0.006 C 
BRANCH   6   7
ATOM      7  C   UNL     1      30.548   4.049 -26.856  1.00  0.00     0.053 C 
BRANCH   7   8
ATOM      8  C   UNL     1      31.156   5.378 -26.535  1.00  0.00     0.041 C 
ATOM      9  O   UNL     1      31.554   5.627 -25.366  1.00  0.00    -0.550 OA
ATOM     10  O   UNL     1      31.322   6.328 -27.536  1.00  0.00    -0.550 OA
ENDBRANCH   7   8
ENDBRANCH   6   7
ENDBRANCH   5   6
ENDBRANCH   4   5
ENDBRANCH   3   4
ENDBRANCH   2   3
ENDBRANCH   1   2
BRANCH   1  11
ATOM     11  C   UNL     1      23.857   0.086 -26.615  1.00  0.00    -0.031 C 
ATOM     12  C   UNL     1      23.864  -1.141 -26.072  1.00  0.00    -0.027 C 
BRANCH  12  13
ATOM     13  C   UNL     1      22.953  -2.233 -26.558  1.00  0.00     0.054 C 
BRANCH  13  14
ATOM     14  C   UNL     1      22.910  -3.367 -25.566  1.00  0.00    -0.027 C 
ATOM     15  C   UNL     1      21.804  -4.025 -25.169  1.00  0.00    -0.031 C 
BRANCH  15  16
ATOM     16  C   UNL     1      20.395  -3.745 -25.633  1.00  0.00     0.027 C 
BRANCH  16  17
ATOM     17  C   UNL     1      20.069  -4.487 -26.943  1.00  0.00     0.004 C 
BRANCH  17  18
ATOM     18  C   UNL     1      18.762  -4.022 -27.614  1.00  0.00     0.000 C 
BRANCH  18  19
ATOM     19  C   UNL     1      17.497  -4.174 -26.752  1.00  0.00    -0.003 C 
ATOM     20  C   UNL     1      17.077  -5.631 -26.557  1.00  0.00     0.004 C 
ENDBRANCH  18  19
ENDBRANCH  17  18
ENDBRANCH  16  17
ENDBRANCH  15  16
ENDBRANCH  13  14
ENDBRANCH  12  13
ENDBRANCH   1  11
TORSDOF 14
ENDMDL
MODEL 5
REMARK VINA RESULT:    -6.186      5.584     10.949
REMARK INTER + INTRA:         -12.039
REMARK INTER:                 -11.015
REMARK INTRA:                  -1.024
REMARK UNBOUND:                -0.791
REMARK SMILES CCCCCC=CCC=CCCCCCCCC(=O)[O-]
REMARK SMILES IDX 11 1 12 2 13 3 14 4 15 5 16 6 17 7 18 8 19 9 20 10 10 11
REMARK SMILES IDX 9 12 8 13 7 14 6 15 5 16 4 17 3 18 2 19 1 20
REMARK H PARENT
REMARK Flexibility Score: inf
ROOT
ATOM      1  C   UNL     1      25.453   2.342 -24.388  1.00  0.00     0.027 C 
ENDROOT
BRANCH   1   2
ATOM      2  C   UNL     1      25.492   3.656 -25.185  1.00  0.00     0.004 C 
BRANCH   2   3
ATOM      3  C   UNL     1      26.815   3.851 -25.942  1.00  0.00     0.000 C 
BRANCH   3   4
ATOM      4  C   UNL     1      26.745   3.344 -27.393  1.00  0.00     0.000 C 
BRANCH   4   5
ATOM      5  C   UNL     1      28.117   3.344 -28.086  1.00  0.00     0.000 C 
BRANCH   5   6
ATOM      6  C   UNL     1      28.987   4.543 -27.680  1.00  0.00     0.006 C 
BRANCH   6   7
ATOM      7  C   UNL     1      30.367   4.080 -27.200  1.00  0.00     0.053 C 
BRANCH   7   8
ATOM      8  C   UNL     1      31.096   5.204 -26.534  1.00  0.00     0.041 C 
ATOM      9  O   UNL     1      31.590   6.136 -27.223  1.00  0.00    -0.550 OA
ATOM     10  O   UNL     1      31.192   5.246 -25.148  1.00  0.00    -0.550 OA
ENDBRANCH   7   8
ENDBRANCH   6   7
ENDBRANCH   5   6
ENDBRANCH   4   5
ENDBRANCH   3   4
ENDBRANCH   2   3
ENDBRANCH   1   2
BRANCH   1  11
ATOM     11  C   UNL     1      24.388   1.420 -24.914  1.00  0.00    -0.031 C 
ATOM     12  C   UNL     1      24.507   0.821 -26.110  1.00  0.00    -0.027 C 
BRANCH  12  13
ATOM     13  C   UNL     1      23.463  -0.123 -26.636  1.00  0.00     0.054 C 
BRANCH  13  14
ATOM     14  C   UNL     1      24.066  -1.475 -26.919  1.00  0.00    -0.027 C 
ATOM     15  C   UNL     1      23.699  -2.637 -26.346  1.00  0.00    -0.031 C 
BRANCH  15  16
ATOM     16  C   UNL     1      22.620  -2.806 -25.303  1.00  0.00     0.027 C 
BRANCH  16  17
ATOM     17  C   UNL     1      21.409  -3.581 -25.857  1.00  0.00     0.004 C 
BRANCH  17  18
ATOM     18  C   UNL     1      21.339  -3.608 -27.396  1.00  0.00     0.000 C 
BRANCH  18  19
ATOM     19  C   UNL     1      19.936  -3.387 -27.988  1.00  0.00    -0.003 C 
ATOM     20  C   UNL     1      18.820  -3.532 -26.954  1.00  0.00     0.004 C 
ENDBRANCH  18  19
ENDBRANCH  17  18
ENDBRANCH  16  17
ENDBRANCH  15  16
ENDBRANCH  13  14
ENDBRANCH  12  13
ENDBRANCH   1  11
TORSDOF 14
ENDMDL
MODEL 6
REMARK VINA RESULT:    -6.136      0.840      1.562
REMARK INTER + INTRA:         -11.949
REMARK INTER:                 -11.270
REMARK INTRA:                  -0.678
REMARK UNBOUND:                -0.791
REMARK SMILES CCCCCC=CCC=CCCCCCCCC(=O)[O-]
REMARK SMILES IDX 11 1 12 2 13 3 14 4 15 5 16 6 17 7 18 8 19 9 20 10 10 11
REMARK SMILES IDX 9 12 8 13 7 14 6 15 5 16 4 17 3 18 2 19 1 20
REMARK H PARENT
REMARK Flexibility Score: inf
ROOT
ATOM      1  C   UNL     1      23.537   0.477 -26.064  1.00  0.00     0.027 C 
ENDROOT
BRANCH   1   2
ATOM      2  C   UNL     1      24.047  -0.950 -25.806  1.00  0.00     0.004 C 
BRANCH   2   3
ATOM      3  C   UNL     1      23.733  -1.909 -26.965  1.00  0.00     0.000 C 
BRANCH   3   4
ATOM      4  C   UNL     1      22.751  -3.023 -26.561  1.00  0.00     0.000 C 
BRANCH   4   5
ATOM      5  C   UNL     1      21.442  -2.978 -27.366  1.00  0.00     0.000 C 
BRANCH   5   6
ATOM      6  C   UNL     1      20.455  -4.080 -26.957  1.00  0.00     0.006 C 
BRANCH   6   7
ATOM      7  C   UNL     1      19.016  -3.683 -27.305  1.00  0.00     0.053 C 
BRANCH   7   8
ATOM      8  C   UNL     1      18.056  -4.271 -26.320  1.00  0.00     0.041 C 
ATOM      9  O   UNL     1      18.004  -3.826 -25.142  1.00  0.00    -0.550 OA
ATOM     10  O   UNL     1      17.185  -5.281 -26.714  1.00  0.00    -0.550 OA
ENDBRANCH   7   8
ENDBRANCH   6   7
ENDBRANCH   5   6
ENDBRANCH   4   5
ENDBRANCH   3   4
ENDBRANCH   2   3
ENDBRANCH   1   2
BRANCH   1  11
ATOM     11  C   UNL     1      24.666   1.394 -26.448  1.00  0.00    -0.031 C 
ATOM     12  C   UNL     1      24.895   2.539 -25.787  1.00  0.00    -0.027 C 
BRANCH  12  13
ATOM     13  C   UNL     1      26.035   3.451 -26.145  1.00  0.00     0.054 C 
BRANCH  13  14
ATOM     14  C   UNL     1      26.651   3.038 -27.458  1.00  0.00    -0.027 C 
ATOM     15  C   UNL     1      27.769   3.555 -28.001  1.00  0.00    -0.031 C 
BRANCH  15  16
ATOM     16  C   UNL     1      28.615   4.655 -27.403  1.00  0.00     0.027 C 
BRANCH  16  17
ATOM     17  C   UNL     1      29.852   4.091 -26.679  1.00  0.00     0.004 C 
BRANCH  17  18
ATOM     18  C   UNL     1      31.143   4.893 -26.937  1.00  0.00     0.000 C 
BRANCH  18  19
ATOM     19  C   UNL     1      31.481   5.945 -25.868  1.00  0.00    -0.003 C 
ATOM     20  C   UNL     1      31.072   5.520 -24.458  1.00  0.00     0.004 C 
ENDBRANCH  18  19
ENDBRANCH  17  18
ENDBRANCH  16  17
ENDBRANCH  15  16
ENDBRANCH  13  14
ENDBRANCH  12  13
ENDBRANCH   1  11
TORSDOF 14
ENDMDL
MODEL 7
REMARK VINA RESULT:    -6.092     10.947     13.624
REMARK INTER + INTRA:         -11.869
REMARK INTER:                 -10.430
REMARK INTRA:                  -1.439
REMARK UNBOUND:                -0.791
REMARK SMILES CCCCCC=CCC=CCCCCCCCC(=O)[O-]
REMARK SMILES IDX 11 1 12 2 13 3 14 4 15 5 16 6 17 7 18 8 19 9 20 10 10 11
REMARK SMILES IDX 9 12 8 13 7 14 6 15 5 16 4 17 3 18 2 19 1 20
REMARK H PARENT
REMARK Flexibility Score: inf
ROOT
ATOM      1  C   UNL     1      21.120   2.346 -16.301  1.00  0.00     0.027 C 
ENDROOT
BRANCH   1   2
ATOM      2  C   UNL     1      22.390   1.762 -16.941  1.00  0.00     0.004 C 
BRANCH   2   3
ATOM      3  C   UNL     1      23.509   1.514 -15.918  1.00  0.00     0.000 C 
BRANCH   3   4
ATOM      4  C   UNL     1      24.610   0.585 -16.459  1.00  0.00     0.000 C 
BRANCH   4   5
ATOM      5  C   UNL     1      24.771  -0.692 -15.619  1.00  0.00     0.000 C 
BRANCH   5   6
ATOM      6  C   UNL     1      25.817  -1.656 -16.198  1.00  0.00     0.006 C 
BRANCH   6   7
ATOM      7  C   UNL     1      26.795  -0.914 -17.116  1.00  0.00     0.053 C 
BRANCH   7   8
ATOM      8  C   UNL     1      28.182  -0.966 -16.557  1.00  0.00     0.041 C 
ATOM      9  O   UNL     1      28.367  -0.888 -15.314  1.00  0.00    -0.550 OA
ATOM     10  O   UNL     1      29.268  -1.144 -17.406  1.00  0.00    -0.550 OA
ENDBRANCH   7   8
ENDBRANCH   6   7
ENDBRANCH   5   6
ENDBRANCH   4   5
ENDBRANCH   3   4
ENDBRANCH   2   3
ENDBRANCH   1   2
BRANCH   1  11
ATOM     11  C   UNL     1      20.208   1.255 -15.812  1.00  0.00    -0.031 C 
ATOM     12  C   UNL     1      19.278   1.487 -14.873  1.00  0.00    -0.027 C 
BRANCH  12  13
ATOM     13  C   UNL     1      18.343   0.412 -14.394  1.00  0.00     0.054 C 
BRANCH  13  14
ATOM     14  C   UNL     1      16.936   0.688 -14.861  1.00  0.00    -0.027 C 
ATOM     15  C   UNL     1      16.416   0.333 -16.051  1.00  0.00    -0.031 C 
BRANCH  15  16
ATOM     16  C   UNL     1      17.147  -0.400 -17.151  1.00  0.00     0.027 C 
BRANCH  16  17
ATOM     17  C   UNL     1      17.156   0.406 -18.463  1.00  0.00     0.004 C 
BRANCH  17  18
ATOM     18  C   UNL     1      18.540   0.482 -19.138  1.00  0.00     0.000 C 
BRANCH  18  19
ATOM     19  C   UNL     1      19.106   1.902 -19.305  1.00  0.00    -0.003 C 
ATOM     20  C   UNL     1      18.704   2.556 -20.627  1.00  0.00     0.004 C 
ENDBRANCH  18  19
ENDBRANCH  17  18
ENDBRANCH  16  17
ENDBRANCH  15  16
ENDBRANCH  13  14
ENDBRANCH  12  13
ENDBRANCH   1  11
TORSDOF 14
ENDMDL
MODEL 8
REMARK VINA RESULT:    -6.030      5.154     11.083
REMARK INTER + INTRA:         -11.756
REMARK INTER:                 -10.646
REMARK INTRA:                  -1.110
REMARK UNBOUND:                -0.791
REMARK SMILES CCCCCC=CCC=CCCCCCCCC(=O)[O-]
REMARK SMILES IDX 11 1 12 2 13 3 14 4 15 5 16 6 17 7 18 8 19 9 20 10 10 11
REMARK SMILES IDX 9 12 8 13 7 14 6 15 5 16 4 17 3 18 2 19 1 20
REMARK H PARENT
REMARK Flexibility Score: inf
ROOT
ATOM      1  C   UNL     1      24.331  -0.137 -26.289  1.00  0.00     0.027 C 
ENDROOT
BRANCH   1   2
ATOM      2  C   UNL     1      23.989   1.267 -26.815  1.00  0.00     0.004 C 
BRANCH   2   3
ATOM      3  C   UNL     1      24.973   2.340 -26.323  1.00  0.00     0.000 C 
BRANCH   3   4
ATOM      4  C   UNL     1      26.135   2.571 -27.304  1.00  0.00     0.000 C 
BRANCH   4   5
ATOM      5  C   UNL     1      26.797   3.946 -27.122  1.00  0.00     0.000 C 
BRANCH   5   6
ATOM      6  C   UNL     1      27.424   4.125 -25.731  1.00  0.00     0.006 C 
BRANCH   6   7
ATOM      7  C   UNL     1      28.512   5.203 -25.757  1.00  0.00     0.053 C 
BRANCH   7   8
ATOM      8  C   UNL     1      29.864   4.589 -25.575  1.00  0.00     0.041 C 
ATOM      9  O   UNL     1      30.694   5.106 -24.779  1.00  0.00    -0.550 OA
ATOM     10  O   UNL     1      30.194   3.420 -26.250  1.00  0.00    -0.550 OA
ENDBRANCH   7   8
ENDBRANCH   6   7
ENDBRANCH   5   6
ENDBRANCH   4   5
ENDBRANCH   3   4
ENDBRANCH   2   3
ENDBRANCH   1   2
BRANCH   1  11
ATOM     11  C   UNL     1      23.280  -1.136 -26.688  1.00  0.00    -0.031 C 
ATOM     12  C   UNL     1      23.227  -2.357 -26.134  1.00  0.00    -0.027 C 
BRANCH  12  13
ATOM     13  C   UNL     1      22.166  -3.355 -26.505  1.00  0.00     0.054 C 
BRANCH  13  14
ATOM     14  C   UNL     1      21.361  -2.860 -27.680  1.00  0.00    -0.027 C 
ATOM     15  C   UNL     1      20.151  -3.316 -28.054  1.00  0.00    -0.031 C 
BRANCH  15  16
ATOM     16  C   UNL     1      19.374  -4.419 -27.374  1.00  0.00     0.027 C 
BRANCH  16  17
ATOM     17  C   UNL     1      18.076  -3.889 -26.735  1.00  0.00     0.004 C 
BRANCH  17  18
ATOM     18  C   UNL     1      17.996  -4.113 -25.212  1.00  0.00     0.000 C 
BRANCH  18  19
ATOM     19  C   UNL     1      19.114  -3.444 -24.396  1.00  0.00    -0.003 C 
ATOM     20  C   UNL     1      20.042  -4.449 -23.714  1.00  0.00     0.004 C 
ENDBRANCH  18  19
ENDBRANCH  17  18
ENDBRANCH  16  17
ENDBRANCH  15  16
ENDBRANCH  13  14
ENDBRANCH  12  13
ENDBRANCH   1  11
TORSDOF 14
ENDMDL
MODEL 9
REMARK VINA RESULT:    -5.995      4.163      9.834
REMARK INTER + INTRA:         -11.692
REMARK INTER:                 -10.182
REMARK INTRA:                  -1.510
REMARK UNBOUND:                -0.791
REMARK SMILES CCCCCC=CCC=CCCCCCCCC(=O)[O-]
REMARK SMILES IDX 11 1 12 2 13 3 14 4 15 5 16 6 17 7 18 8 19 9 20 10 10 11
REMARK SMILES IDX 9 12 8 13 7 14 6 15 5 16 4 17 3 18 2 19 1 20
REMARK H PARENT
REMARK Flexibility Score: inf
ROOT
ATOM      1  C   UNL     1      26.935   3.889 -27.362  1.00  0.00     0.027 C 
ENDROOT
BRANCH   1   2
ATOM      2  C   UNL     1      28.203   3.392 -28.075  1.00  0.00     0.004 C 
BRANCH   2   3
ATOM      3  C   UNL     1      29.406   4.324 -27.861  1.00  0.00     0.000 C 
BRANCH   3   4
ATOM      4  C   UNL     1      30.272   3.904 -26.661  1.00  0.00     0.000 C 
BRANCH   4   5
ATOM      5  C   UNL     1      29.970   4.727 -25.398  1.00  0.00     0.000 C 
BRANCH   5   6
ATOM      6  C   UNL     1      29.050   3.989 -24.414  1.00  0.00     0.006 C 
BRANCH   6   7
ATOM      7  C   UNL     1      27.894   4.890 -23.965  1.00  0.00     0.053 C 
BRANCH   7   8
ATOM      8  C   UNL     1      26.758   4.066 -23.445  1.00  0.00     0.041 C 
ATOM      9  O   UNL     1      25.689   4.622 -23.077  1.00  0.00    -0.550 OA
ATOM     10  O   UNL     1      26.862   2.680 -23.409  1.00  0.00    -0.550 OA
ENDBRANCH   7   8
ENDBRANCH   6   7
ENDBRANCH   5   6
ENDBRANCH   4   5
ENDBRANCH   3   4
ENDBRANCH   2   3
ENDBRANCH   1   2
BRANCH   1  11
ATOM     11  C   UNL     1      26.005   2.749 -27.053  1.00  0.00    -0.031 C 
ATOM     12  C   UNL     1      24.861   2.940 -26.377  1.00  0.00    -0.027 C 
BRANCH  12  13
ATOM     13  C   UNL     1      23.910   1.813 -26.085  1.00  0.00     0.054 C 
BRANCH  13  14
ATOM     14  C   UNL     1      24.156   0.657 -27.021  1.00  0.00    -0.027 C 
ATOM     15  C   UNL     1      24.127  -0.647 -26.687  1.00  0.00    -0.031 C 
BRANCH  15  16
ATOM     16  C   UNL     1      23.855  -1.200 -25.309  1.00  0.00     0.027 C 
BRANCH  16  17
ATOM     17  C   UNL     1      23.005  -2.483 -25.369  1.00  0.00     0.004 C 
BRANCH  17  18
ATOM     18  C   UNL     1      22.831  -3.049 -26.792  1.00  0.00     0.000 C 
BRANCH  18  19
ATOM     19  C   UNL     1      21.375  -3.168 -27.273  1.00  0.00    -0.003 C 
ATOM     20  C   UNL     1      20.580  -4.231 -26.516  1.00  0.00     0.004 C 
ENDBRANCH  18  19
ENDBRANCH  17  18
ENDBRANCH  16  17
ENDBRANCH  15  16
ENDBRANCH  13  14
ENDBRANCH  12  13
ENDBRANCH   1  11
TORSDOF 14
ENDMDL
