MODEL 1
REMARK VINA RESULT:    -5.435      0.000      0.000
REMARK INTER + INTRA:         -11.205
REMARK INTER:                 -10.202
REMARK INTRA:                  -1.004
REMARK UNBOUND:                -1.004
REMARK SMILES CCCCCCCCC=CCCCCCCCC(=O)[O-]
REMARK SMILES IDX 10 1 9 2 11 3 12 4 13 5 14 6 15 7 16 8 17 9 18 10 19 11
REMARK SMILES IDX 20 12 8 13 7 14 6 15 5 16 4 17 3 18 2 19 1 20
REMARK H PARENT
REMARK Flexibility Score: inf
ROOT
ATOM      1  C   UNL     1    -129.095 112.030  43.933  1.00  0.00    -0.031 C 
ATOM      2  C   UNL     1    -129.336 113.341  43.743  1.00  0.00    -0.031 C 
ENDROOT
BRANCH   1   3
ATOM      3  C   UNL     1    -129.397 110.937  42.934  1.00  0.00     0.027 C 
BRANCH   3   4
ATOM      4  C   UNL     1    -129.785 109.630  43.636  1.00  0.00     0.004 C 
BRANCH   4   5
ATOM      5  C   UNL     1    -129.683 108.415  42.698  1.00  0.00     0.000 C 
BRANCH   5   6
ATOM      6  C   UNL     1    -129.177 108.803  41.293  1.00  0.00     0.000 C 
BRANCH   6   7
ATOM      7  C   UNL     1    -130.104 108.341  40.151  1.00  0.00     0.000 C 
BRANCH   7   8
ATOM      8  C   UNL     1    -129.528 107.224  39.266  1.00  0.00     0.006 C 
BRANCH   8   9
ATOM      9  C   UNL     1    -129.109 105.986  40.071  1.00  0.00     0.053 C 
BRANCH   9  10
ATOM     10  C   UNL     1    -129.460 104.738  39.325  1.00  0.00     0.041 C 
ATOM     11  O   UNL     1    -130.009 104.809  38.194  1.00  0.00    -0.550 OA
ATOM     12  O   UNL     1    -129.136 103.496  39.856  1.00  0.00    -0.550 OA
ENDBRANCH   9  10
ENDBRANCH   8   9
ENDBRANCH   7   8
ENDBRANCH   6   7
ENDBRANCH   5   6
ENDBRANCH   4   5
ENDBRANCH   3   4
ENDBRANCH   1   3
BRANCH   2  13
ATOM     13  C   UNL     1    -130.003 113.931  42.525  1.00  0.00     0.027 C 
BRANCH  13  14
ATOM     14  C   UNL     1    -129.402 115.292  42.140  1.00  0.00     0.004 C 
BRANCH  14  15
ATOM     15  C   UNL     1    -130.187 116.463  42.752  1.00  0.00     0.000 C 
BRANCH  15  16
ATOM     16  C   UNL     1    -129.268 117.562  43.310  1.00  0.00     0.000 C 
BRANCH  16  17
ATOM     17  C   UNL     1    -129.413 117.736  44.832  1.00  0.00    -0.000 C 
BRANCH  17  18
ATOM     18  C   UNL     1    -130.102 116.538  45.506  1.00  0.00    -0.000 C 
BRANCH  18  19
ATOM     19  C   UNL     1    -130.850 116.905  46.804  1.00  0.00    -0.003 C 
ATOM     20  C   UNL     1    -131.012 118.415  46.977  1.00  0.00     0.004 C 
ENDBRANCH  18  19
ENDBRANCH  17  18
ENDBRANCH  16  17
ENDBRANCH  15  16
ENDBRANCH  14  15
ENDBRANCH  13  14
ENDBRANCH   2  13
TORSDOF 15
ENDMDL
MODEL 2
REMARK VINA RESULT:    -5.426      1.735      2.203
REMARK INTER + INTRA:         -11.188
REMARK INTER:                  -9.964
REMARK INTRA:                  -1.224
REMARK UNBOUND:                -1.004
REMARK SMILES CCCCCCCCC=CCCCCCCCC(=O)[O-]
REMARK SMILES IDX 10 1 9 2 11 3 12 4 13 5 14 6 15 7 16 8 17 9 18 10 19 11
REMARK SMILES IDX 20 12 8 13 7 14 6 15 5 16 4 17 3 18 2 19 1 20
REMARK H PARENT
REMARK Flexibility Score: inf
ROOT
ATOM      1  C   UNL     1    -128.997 111.919  43.978  1.00  0.00    -0.031 C 
ATOM      2  C   UNL     1    -129.288 113.218  43.779  1.00  0.00    -0.031 C 
ENDROOT
BRANCH   1   3
ATOM      3  C   UNL     1    -129.362 110.792  43.040  1.00  0.00     0.027 C 
BRANCH   3   4
ATOM      4  C   UNL     1    -129.867 109.565  43.809  1.00  0.00     0.004 C 
BRANCH   4   5
ATOM      5  C   UNL     1    -130.069 108.348  42.891  1.00  0.00     0.000 C 
BRANCH   5   6
ATOM      6  C   UNL     1    -128.859 108.109  41.962  1.00  0.00     0.000 C 
BRANCH   6   7
ATOM      7  C   UNL     1    -128.925 106.779  41.187  1.00  0.00     0.000 C 
BRANCH   7   8
ATOM      8  C   UNL     1    -129.761 106.825  39.898  1.00  0.00     0.006 C 
BRANCH   8   9
ATOM      9  C   UNL     1    -129.601 108.147  39.135  1.00  0.00     0.053 C 
BRANCH   9  10
ATOM     10  C   UNL     1    -130.883 108.917  39.156  1.00  0.00     0.041 C 
ATOM     11  O   UNL     1    -131.922 108.435  38.632  1.00  0.00    -0.550 OA
ATOM     12  O   UNL     1    -130.945 110.148  39.798  1.00  0.00    -0.550 OA
ENDBRANCH   9  10
ENDBRANCH   8   9
ENDBRANCH   7   8
ENDBRANCH   6   7
ENDBRANCH   5   6
ENDBRANCH   4   5
ENDBRANCH   3   4
ENDBRANCH   1   3
BRANCH   2  13
ATOM     13  C   UNL     1    -130.080 113.759  42.614  1.00  0.00     0.027 C 
BRANCH  13  14
ATOM     14  C   UNL     1    -129.527 115.103  42.115  1.00  0.00     0.004 C 
BRANCH  14  15
ATOM     15  C   UNL     1    -130.241 116.298  42.767  1.00  0.00     0.000 C 
BRANCH  15  16
ATOM     16  C   UNL     1    -129.258 117.348  43.310  1.00  0.00     0.000 C 
BRANCH  16  17
ATOM     17  C   UNL     1    -129.383 117.544  44.830  1.00  0.00    -0.000 C 
BRANCH  17  18
ATOM     18  C   UNL     1    -130.024 116.338  45.536  1.00  0.00    -0.000 C 
BRANCH  18  19
ATOM     19  C   UNL     1    -130.792 116.709  46.820  1.00  0.00    -0.003 C 
ATOM     20  C   UNL     1    -130.997 118.218  46.962  1.00  0.00     0.004 C 
ENDBRANCH  18  19
ENDBRANCH  17  18
ENDBRANCH  16  17
ENDBRANCH  15  16
ENDBRANCH  14  15
ENDBRANCH  13  14
ENDBRANCH   2  13
TORSDOF 15
ENDMDL
MODEL 3
REMARK VINA RESULT:    -5.304      5.056      9.888
REMARK INTER + INTRA:         -10.959
REMARK INTER:                  -9.143
REMARK INTRA:                  -1.816
REMARK UNBOUND:                -1.004
REMARK SMILES CCCCCCCCC=CCCCCCCCC(=O)[O-]
REMARK SMILES IDX 10 1 9 2 11 3 12 4 13 5 14 6 15 7 16 8 17 9 18 10 19 11
REMARK SMILES IDX 20 12 8 13 7 14 6 15 5 16 4 17 3 18 2 19 1 20
REMARK H PARENT
REMARK Flexibility Score: inf
ROOT
ATOM      1  C   UNL     1    -129.776 110.046  43.539  1.00  0.00    -0.031 C 
ATOM      2  C   UNL     1    -129.350 108.858  43.071  1.00  0.00    -0.031 C 
ENDROOT
BRANCH   1   3
ATOM      3  C   UNL     1    -128.982 111.331  43.504  1.00  0.00     0.027 C 
BRANCH   3   4
ATOM      4  C   UNL     1    -129.706 112.415  42.697  1.00  0.00     0.004 C 
BRANCH   4   5
ATOM      5  C   UNL     1    -129.631 113.792  43.377  1.00  0.00     0.000 C 
BRANCH   5   6
ATOM      6  C   UNL     1    -129.695 114.951  42.360  1.00  0.00     0.000 C 
BRANCH   6   7
ATOM      7  C   UNL     1    -129.823 116.342  43.011  1.00  0.00     0.000 C 
BRANCH   7   8
ATOM      8  C   UNL     1    -129.636 116.359  44.537  1.00  0.00     0.006 C 
BRANCH   8   9
ATOM      9  C   UNL     1    -129.995 117.713  45.163  1.00  0.00     0.053 C 
BRANCH   9  10
ATOM     10  C   UNL     1    -130.667 117.512  46.485  1.00  0.00     0.041 C 
ATOM     11  O   UNL     1    -130.926 116.349  46.894  1.00  0.00    -0.550 OA
ATOM     12  O   UNL     1    -130.965 118.606  47.288  1.00  0.00    -0.550 OA
ENDBRANCH   9  10
ENDBRANCH   8   9
ENDBRANCH   7   8
ENDBRANCH   6   7
ENDBRANCH   5   6
ENDBRANCH   4   5
ENDBRANCH   3   4
ENDBRANCH   1   3
BRANCH   2  13
ATOM     13  C   UNL     1    -127.983 108.599  42.487  1.00  0.00     0.027 C 
BRANCH  13  14
ATOM     14  C   UNL     1    -127.908 107.238  41.776  1.00  0.00     0.004 C 
BRANCH  14  15
ATOM     15  C   UNL     1    -129.302 106.691  41.428  1.00  0.00     0.000 C 
BRANCH  15  16
ATOM     16  C   UNL     1    -129.471 106.420  39.925  1.00  0.00     0.000 C 
BRANCH  16  17
ATOM     17  C   UNL     1    -129.531 107.712  39.094  1.00  0.00    -0.000 C 
BRANCH  17  18
ATOM     18  C   UNL     1    -130.694 108.632  39.504  1.00  0.00    -0.000 C 
BRANCH  18  19
ATOM     19  C   UNL     1    -130.268 110.093  39.753  1.00  0.00    -0.003 C 
ATOM     20  C   UNL     1    -128.934 110.434  39.089  1.00  0.00     0.004 C 
ENDBRANCH  18  19
ENDBRANCH  17  18
ENDBRANCH  16  17
ENDBRANCH  15  16
ENDBRANCH  14  15
ENDBRANCH  13  14
ENDBRANCH   2  13
TORSDOF 15
ENDMDL
MODEL 4
REMARK VINA RESULT:    -5.195      4.819      8.929
REMARK INTER + INTRA:         -10.755
REMARK INTER:                  -9.225
REMARK INTRA:                  -1.529
REMARK UNBOUND:                -1.004
REMARK SMILES CCCCCCCCC=CCCCCCCCC(=O)[O-]
REMARK SMILES IDX 10 1 9 2 11 3 12 4 13 5 14 6 15 7 16 8 17 9 18 10 19 11
REMARK SMILES IDX 20 12 8 13 7 14 6 15 5 16 4 17 3 18 2 19 1 20
REMARK H PARENT
REMARK Flexibility Score: inf
ROOT
ATOM      1  C   UNL     1    -130.554 109.585  39.149  1.00  0.00    -0.031 C 
ATOM      2  C   UNL     1    -130.718 108.249  39.120  1.00  0.00    -0.031 C 
ENDROOT
BRANCH   1   3
ATOM      3  C   UNL     1    -129.225 110.297  39.250  1.00  0.00     0.027 C 
BRANCH   3   4
ATOM      4  C   UNL     1    -129.402 111.749  39.708  1.00  0.00     0.004 C 
BRANCH   4   5
ATOM      5  C   UNL     1    -130.137 111.847  41.056  1.00  0.00     0.000 C 
BRANCH   5   6
ATOM      6  C   UNL     1    -130.026 113.254  41.681  1.00  0.00     0.000 C 
BRANCH   6   7
ATOM      7  C   UNL     1    -129.800 113.239  43.205  1.00  0.00     0.000 C 
BRANCH   7   8
ATOM      8  C   UNL     1    -129.429 114.601  43.814  1.00  0.00     0.006 C 
BRANCH   8   9
ATOM      9  C   UNL     1    -129.776 115.777  42.892  1.00  0.00     0.053 C 
BRANCH   9  10
ATOM     10  C   UNL     1    -129.505 117.076  43.583  1.00  0.00     0.041 C 
ATOM     11  O   UNL     1    -129.723 117.195  44.818  1.00  0.00    -0.550 OA
ATOM     12  O   UNL     1    -128.966 118.143  42.874  1.00  0.00    -0.550 OA
ENDBRANCH   9  10
ENDBRANCH   8   9
ENDBRANCH   7   8
ENDBRANCH   6   7
ENDBRANCH   5   6
ENDBRANCH   4   5
ENDBRANCH   3   4
ENDBRANCH   1   3
BRANCH   2  13
ATOM     13  C   UNL     1    -129.605 107.239  39.245  1.00  0.00     0.027 C 
BRANCH  13  14
ATOM     14  C   UNL     1    -129.639 106.505  40.595  1.00  0.00     0.004 C 
BRANCH  14  15
ATOM     15  C   UNL     1    -128.373 106.768  41.427  1.00  0.00     0.000 C 
BRANCH  15  16
ATOM     16  C   UNL     1    -128.422 108.113  42.169  1.00  0.00     0.000 C 
BRANCH  16  17
ATOM     17  C   UNL     1    -129.855 108.529  42.544  1.00  0.00    -0.000 C 
BRANCH  17  18
ATOM     18  C   UNL     1    -129.963 109.062  43.983  1.00  0.00    -0.000 C 
BRANCH  18  19
ATOM     19  C   UNL     1    -131.089 108.400  44.804  1.00  0.00    -0.003 C 
ATOM     20  C   UNL     1    -131.172 108.948  46.228  1.00  0.00     0.004 C 
ENDBRANCH  18  19
ENDBRANCH  17  18
ENDBRANCH  16  17
ENDBRANCH  15  16
ENDBRANCH  14  15
ENDBRANCH  13  14
ENDBRANCH   2  13
TORSDOF 15
ENDMDL
MODEL 5
REMARK VINA RESULT:    -5.134      2.796      4.929
REMARK INTER + INTRA:         -10.640
REMARK INTER:                  -8.955
REMARK INTRA:                  -1.685
REMARK UNBOUND:                -1.004
REMARK SMILES CCCCCCCCC=CCCCCCCCC(=O)[O-]
REMARK SMILES IDX 10 1 9 2 11 3 12 4 13 5 14 6 15 7 16 8 17 9 18 10 19 11
REMARK SMILES IDX 20 12 8 13 7 14 6 15 5 16 4 17 3 18 2 19 1 20
REMARK H PARENT
REMARK Flexibility Score: inf
ROOT
ATOM      1  C   UNL     1    -130.894 108.328  39.114  1.00  0.00    -0.031 C 
ATOM      2  C   UNL     1    -130.955 109.620  39.488  1.00  0.00    -0.031 C 
ENDROOT
BRANCH   1   3
ATOM      3  C   UNL     1    -129.621 107.553  38.865  1.00  0.00     0.027 C 
BRANCH   3   4
ATOM      4  C   UNL     1    -129.753 106.098  39.330  1.00  0.00     0.004 C 
BRANCH   4   5
ATOM      5  C   UNL     1    -129.531 105.951  40.845  1.00  0.00     0.000 C 
BRANCH   5   6
ATOM      6  C   UNL     1    -128.234 106.642  41.316  1.00  0.00     0.000 C 
BRANCH   6   7
ATOM      7  C   UNL     1    -128.476 107.928  42.130  1.00  0.00     0.000 C 
BRANCH   7   8
ATOM      8  C   UNL     1    -129.891 108.063  42.715  1.00  0.00     0.006 C 
BRANCH   8   9
ATOM      9  C   UNL     1    -129.957 109.055  43.884  1.00  0.00     0.053 C 
BRANCH   9  10
ATOM     10  C   UNL     1    -130.989 108.621  44.876  1.00  0.00     0.041 C 
ATOM     11  O   UNL     1    -130.733 108.644  46.109  1.00  0.00    -0.550 OA
ATOM     12  O   UNL     1    -132.252 108.237  44.443  1.00  0.00    -0.550 OA
ENDBRANCH   9  10
ENDBRANCH   8   9
ENDBRANCH   7   8
ENDBRANCH   6   7
ENDBRANCH   5   6
ENDBRANCH   4   5
ENDBRANCH   3   4
ENDBRANCH   1   3
BRANCH   2  13
ATOM     13  C   UNL     1    -129.762 110.526  39.665  1.00  0.00     0.027 C 
BRANCH  13  14
ATOM     14  C   UNL     1    -129.795 111.269  41.009  1.00  0.00     0.004 C 
BRANCH  14  15
ATOM     15  C   UNL     1    -130.034 112.777  40.829  1.00  0.00     0.000 C 
BRANCH  15  16
ATOM     16  C   UNL     1    -130.116 113.526  42.170  1.00  0.00     0.000 C 
BRANCH  16  17
ATOM     17  C   UNL     1    -129.676 114.995  42.054  1.00  0.00    -0.000 C 
BRANCH  17  18
ATOM     18  C   UNL     1    -129.814 115.765  43.378  1.00  0.00    -0.000 C 
BRANCH  18  19
ATOM     19  C   UNL     1    -129.858 114.853  44.621  1.00  0.00    -0.003 C 
ATOM     20  C   UNL     1    -129.909 115.648  45.926  1.00  0.00     0.004 C 
ENDBRANCH  18  19
ENDBRANCH  17  18
ENDBRANCH  16  17
ENDBRANCH  15  16
ENDBRANCH  14  15
ENDBRANCH  13  14
ENDBRANCH   2  13
TORSDOF 15
ENDMDL
MODEL 6
REMARK VINA RESULT:    -5.064      2.923      4.500
REMARK INTER + INTRA:         -10.508
REMARK INTER:                  -8.952
REMARK INTRA:                  -1.556
REMARK UNBOUND:                -1.004
REMARK SMILES CCCCCCCCC=CCCCCCCCC(=O)[O-]
REMARK SMILES IDX 10 1 9 2 11 3 12 4 13 5 14 6 15 7 16 8 17 9 18 10 19 11
REMARK SMILES IDX 20 12 8 13 7 14 6 15 5 16 4 17 3 18 2 19 1 20
REMARK H PARENT
REMARK Flexibility Score: inf
ROOT
ATOM      1  C   UNL     1    -129.901 110.419  39.226  1.00  0.00    -0.031 C 
ATOM      2  C   UNL     1    -129.494 111.409  40.042  1.00  0.00    -0.031 C 
ENDROOT
BRANCH   1   3
ATOM      3  C   UNL     1    -131.096 109.526  39.469  1.00  0.00     0.027 C 
BRANCH   3   4
ATOM      4  C   UNL     1    -130.788 108.069  39.104  1.00  0.00     0.004 C 
BRANCH   4   5
ATOM      5  C   UNL     1    -129.356 107.663  39.494  1.00  0.00     0.000 C 
BRANCH   5   6
ATOM      6  C   UNL     1    -129.305 106.926  40.848  1.00  0.00     0.000 C 
BRANCH   6   7
ATOM      7  C   UNL     1    -129.043 107.855  42.050  1.00  0.00     0.000 C 
BRANCH   7   8
ATOM      8  C   UNL     1    -130.305 108.302  42.806  1.00  0.00     0.006 C 
BRANCH   8   9
ATOM      9  C   UNL     1    -129.986 108.970  44.150  1.00  0.00     0.053 C 
BRANCH   9  10
ATOM     10  C   UNL     1    -131.077 108.699  45.137  1.00  0.00     0.041 C 
ATOM     11  O   UNL     1    -132.220 108.351  44.739  1.00  0.00    -0.550 OA
ATOM     12  O   UNL     1    -130.820 108.782  46.500  1.00  0.00    -0.550 OA
ENDBRANCH   9  10
ENDBRANCH   8   9
ENDBRANCH   7   8
ENDBRANCH   6   7
ENDBRANCH   5   6
ENDBRANCH   4   5
ENDBRANCH   3   4
ENDBRANCH   1   3
BRANCH   2  13
ATOM     13  C   UNL     1    -130.127 111.752  41.368  1.00  0.00     0.027 C 
BRANCH  13  14
ATOM     14  C   UNL     1    -129.795 113.185  41.812  1.00  0.00     0.004 C 
BRANCH  14  15
ATOM     15  C   UNL     1    -129.431 113.257  43.304  1.00  0.00     0.000 C 
BRANCH  15  16
ATOM     16  C   UNL     1    -129.408 114.699  43.837  1.00  0.00     0.000 C 
BRANCH  16  17
ATOM     17  C   UNL     1    -130.128 115.686  42.903  1.00  0.00    -0.000 C 
BRANCH  17  18
ATOM     18  C   UNL     1    -129.390 117.029  42.773  1.00  0.00    -0.000 C 
BRANCH  18  19
ATOM     19  C   UNL     1    -129.306 117.819  44.096  1.00  0.00    -0.003 C 
ATOM     20  C   UNL     1    -128.434 119.069  43.974  1.00  0.00     0.004 C 
ENDBRANCH  18  19
ENDBRANCH  17  18
ENDBRANCH  16  17
ENDBRANCH  15  16
ENDBRANCH  14  15
ENDBRANCH  13  14
ENDBRANCH   2  13
TORSDOF 15
ENDMDL
MODEL 7
REMARK VINA RESULT:    -5.041      5.145      9.427
REMARK INTER + INTRA:         -10.465
REMARK INTER:                  -9.294
REMARK INTRA:                  -1.171
REMARK UNBOUND:                -1.004
REMARK SMILES CCCCCCCCC=CCCCCCCCC(=O)[O-]
REMARK SMILES IDX 10 1 9 2 11 3 12 4 13 5 14 6 15 7 16 8 17 9 18 10 19 11
REMARK SMILES IDX 20 12 8 13 7 14 6 15 5 16 4 17 3 18 2 19 1 20
REMARK H PARENT
REMARK Flexibility Score: inf
ROOT
ATOM      1  C   UNL     1    -129.381 111.177  39.700  1.00  0.00    -0.031 C 
ATOM      2  C   UNL     1    -129.442 109.902  39.273  1.00  0.00    -0.031 C 
ENDROOT
BRANCH   1   3
ATOM      3  C   UNL     1    -130.055 111.713  40.942  1.00  0.00     0.027 C 
BRANCH   3   4
ATOM      4  C   UNL     1    -129.875 113.230  41.066  1.00  0.00     0.004 C 
BRANCH   4   5
ATOM      5  C   UNL     1    -130.439 113.775  42.389  1.00  0.00     0.000 C 
BRANCH   5   6
ATOM      6  C   UNL     1    -129.374 114.527  43.214  1.00  0.00     0.000 C 
BRANCH   6   7
ATOM      7  C   UNL     1    -129.762 115.980  43.551  1.00  0.00     0.000 C 
BRANCH   7   8
ATOM      8  C   UNL     1    -129.447 116.413  44.992  1.00  0.00     0.006 C 
BRANCH   8   9
ATOM      9  C   UNL     1    -130.151 117.718  45.387  1.00  0.00     0.053 C 
BRANCH   9  10
ATOM     10  C   UNL     1    -130.973 117.512  46.619  1.00  0.00     0.041 C 
ATOM     11  O   UNL     1    -131.704 118.440  47.056  1.00  0.00    -0.550 OA
ATOM     12  O   UNL     1    -130.969 116.280  47.261  1.00  0.00    -0.550 OA
ENDBRANCH   9  10
ENDBRANCH   8   9
ENDBRANCH   7   8
ENDBRANCH   6   7
ENDBRANCH   5   6
ENDBRANCH   4   5
ENDBRANCH   3   4
ENDBRANCH   1   3
BRANCH   2  13
ATOM     13  C   UNL     1    -130.243 108.807  39.932  1.00  0.00     0.027 C 
BRANCH  13  14
ATOM     14  C   UNL     1    -129.377 107.586  40.279  1.00  0.00     0.004 C 
BRANCH  14  15
ATOM     15  C   UNL     1    -129.254 107.379  41.798  1.00  0.00     0.000 C 
BRANCH  15  16
ATOM     16  C   UNL     1    -128.739 108.632  42.525  1.00  0.00     0.000 C 
BRANCH  16  17
ATOM     17  C   UNL     1    -129.752 109.183  43.543  1.00  0.00    -0.000 C 
BRANCH  17  18
ATOM     18  C   UNL     1    -130.883 108.189  43.855  1.00  0.00    -0.000 C 
BRANCH  18  19
ATOM     19  C   UNL     1    -131.712 108.567  45.100  1.00  0.00    -0.003 C 
ATOM     20  C   UNL     1    -130.838 108.821  46.328  1.00  0.00     0.004 C 
ENDBRANCH  18  19
ENDBRANCH  17  18
ENDBRANCH  16  17
ENDBRANCH  15  16
ENDBRANCH  14  15
ENDBRANCH  13  14
ENDBRANCH   2  13
TORSDOF 15
ENDMDL
MODEL 8
REMARK VINA RESULT:    -5.001      1.956      3.001
REMARK INTER + INTRA:         -10.391
REMARK INTER:                  -8.996
REMARK INTRA:                  -1.395
REMARK UNBOUND:                -1.004
REMARK SMILES CCCCCCCCC=CCCCCCCCC(=O)[O-]
REMARK SMILES IDX 10 1 9 2 11 3 12 4 13 5 14 6 15 7 16 8 17 9 18 10 19 11
REMARK SMILES IDX 20 12 8 13 7 14 6 15 5 16 4 17 3 18 2 19 1 20
REMARK H PARENT
REMARK Flexibility Score: inf
ROOT
ATOM      1  C   UNL     1    -129.753 109.357  44.053  1.00  0.00    -0.031 C 
ATOM      2  C   UNL     1    -129.619 110.683  44.244  1.00  0.00    -0.031 C 
ENDROOT
BRANCH   1   3
ATOM      3  C   UNL     1    -129.579 108.646  42.731  1.00  0.00     0.027 C 
BRANCH   3   4
ATOM      4  C   UNL     1    -128.107 108.312  42.465  1.00  0.00     0.004 C 
BRANCH   4   5
ATOM      5  C   UNL     1    -127.943 107.014  41.656  1.00  0.00     0.000 C 
BRANCH   5   6
ATOM      6  C   UNL     1    -129.299 106.349  41.337  1.00  0.00     0.000 C 
BRANCH   6   7
ATOM      7  C   UNL     1    -129.387 105.774  39.910  1.00  0.00     0.000 C 
BRANCH   7   8
ATOM      8  C   UNL     1    -129.538 106.827  38.800  1.00  0.00     0.006 C 
BRANCH   8   9
ATOM      9  C   UNL     1    -130.889 107.554  38.852  1.00  0.00     0.053 C 
BRANCH   9  10
ATOM     10  C   UNL     1    -130.692 108.991  39.217  1.00  0.00     0.041 C 
ATOM     11  O   UNL     1    -131.684 109.719  39.487  1.00  0.00    -0.550 OA
ATOM     12  O   UNL     1    -129.409 109.517  39.306  1.00  0.00    -0.550 OA
ENDBRANCH   9  10
ENDBRANCH   8   9
ENDBRANCH   7   8
ENDBRANCH   6   7
ENDBRANCH   5   6
ENDBRANCH   4   5
ENDBRANCH   3   4
ENDBRANCH   1   3
BRANCH   2  13
ATOM     13  C   UNL     1    -129.331 111.688  43.157  1.00  0.00     0.027 C 
BRANCH  13  14
ATOM     14  C   UNL     1    -129.348 113.131  43.686  1.00  0.00     0.004 C 
BRANCH  14  15
ATOM     15  C   UNL     1    -130.146 114.072  42.769  1.00  0.00     0.000 C 
BRANCH  15  16
ATOM     16  C   UNL     1    -129.375 115.357  42.427  1.00  0.00     0.000 C 
BRANCH  16  17
ATOM     17  C   UNL     1    -130.068 116.622  42.962  1.00  0.00    -0.000 C 
BRANCH  17  18
ATOM     18  C   UNL     1    -129.348 117.228  44.178  1.00  0.00    -0.000 C 
BRANCH  18  19
ATOM     19  C   UNL     1    -130.206 117.245  45.459  1.00  0.00    -0.003 C 
ATOM     20  C   UNL     1    -130.248 115.883  46.152  1.00  0.00     0.004 C 
ENDBRANCH  18  19
ENDBRANCH  17  18
ENDBRANCH  16  17
ENDBRANCH  15  16
ENDBRANCH  14  15
ENDBRANCH  13  14
ENDBRANCH   2  13
TORSDOF 15
ENDMDL
MODEL 9
REMARK VINA RESULT:    -4.920      5.942      8.872
REMARK INTER + INTRA:         -10.238
REMARK INTER:                  -8.996
REMARK INTRA:                  -1.242
REMARK UNBOUND:                -1.004
REMARK SMILES CCCCCCCCC=CCCCCCCCC(=O)[O-]
REMARK SMILES IDX 10 1 9 2 11 3 12 4 13 5 14 6 15 7 16 8 17 9 18 10 19 11
REMARK SMILES IDX 20 12 8 13 7 14 6 15 5 16 4 17 3 18 2 19 1 20
REMARK H PARENT
REMARK Flexibility Score: inf
ROOT
ATOM      1  C   UNL     1    -130.502 109.519  39.446  1.00  0.00    -0.031 C 
ATOM      2  C   UNL     1    -130.815 108.253  39.110  1.00  0.00    -0.031 C 
ENDROOT
BRANCH   1   3
ATOM      3  C   UNL     1    -129.110 110.106  39.421  1.00  0.00     0.027 C 
BRANCH   3   4
ATOM      4  C   UNL     1    -129.135 111.587  39.025  1.00  0.00     0.004 C 
BRANCH   4   5
ATOM      5  C   UNL     1    -128.077 111.921  37.959  1.00  0.00     0.000 C 
BRANCH   5   6
ATOM      6  C   UNL     1    -128.350 113.273  37.268  1.00  0.00     0.000 C 
BRANCH   6   7
ATOM      7  C   UNL     1    -128.663 113.149  35.763  1.00  0.00     0.000 C 
BRANCH   7   8
ATOM      8  C   UNL     1    -129.492 114.305  35.181  1.00  0.00     0.006 C 
BRANCH   8   9
ATOM      9  C   UNL     1    -130.121 113.958  33.825  1.00  0.00     0.053 C 
BRANCH   9  10
ATOM     10  C   UNL     1    -131.600 113.779  33.968  1.00  0.00     0.041 C 
ATOM     11  O   UNL     1    -132.250 114.496  34.774  1.00  0.00    -0.550 OA
ATOM     12  O   UNL     1    -132.269 112.854  33.177  1.00  0.00    -0.550 OA
ENDBRANCH   9  10
ENDBRANCH   8   9
ENDBRANCH   7   8
ENDBRANCH   6   7
ENDBRANCH   5   6
ENDBRANCH   4   5
ENDBRANCH   3   4
ENDBRANCH   1   3
BRANCH   2  13
ATOM     13  C   UNL     1    -129.820 107.192  38.711  1.00  0.00     0.027 C 
BRANCH  13  14
ATOM     14  C   UNL     1    -130.223 105.800  39.223  1.00  0.00     0.004 C 
BRANCH  14  15
ATOM     15  C   UNL     1    -129.195 105.231  40.215  1.00  0.00     0.000 C 
BRANCH  15  16
ATOM     16  C   UNL     1    -128.349 106.326  40.883  1.00  0.00     0.000 C 
BRANCH  16  17
ATOM     17  C   UNL     1    -129.116 107.075  41.986  1.00  0.00    -0.000 C 
BRANCH  17  18
ATOM     18  C   UNL     1    -128.407 108.364  42.435  1.00  0.00    -0.000 C 
BRANCH  18  19
ATOM     19  C   UNL     1    -129.362 109.417  43.035  1.00  0.00    -0.003 C 
ATOM     20  C   UNL     1    -130.374 108.804  44.001  1.00  0.00     0.004 C 
ENDBRANCH  18  19
ENDBRANCH  17  18
ENDBRANCH  16  17
ENDBRANCH  15  16
ENDBRANCH  14  15
ENDBRANCH  13  14
ENDBRANCH   2  13
TORSDOF 15
ENDMDL
