MODEL 1
REMARK VINA RESULT:    -5.763      0.000      0.000
REMARK INTER + INTRA:          -9.588
REMARK INTER:                  -8.458
REMARK INTRA:                  -1.130
REMARK UNBOUND:                -1.130
REMARK SMILES Cc1cc2c(C(C)C)c(O)c(O)c(C=O)c2c(O)c1-c1c(C)cc2c(C(C)C)c(O)c(O)c(C=O)c2c1O
REMARK SMILES IDX 1 1 2 2 3 3 4 4 16 5 13 6 11 7 9 8 5 9 17 10 19 11 20 12
REMARK SMILES IDX 37 13 21 14 36 15 23 16 22 17 24 18 33 19 25 20 31 21 29 22
REMARK SMILES IDX 38 23 34 25 35 26 26 27 27 28 28 29 32 30 30 32 18 34 6 36
REMARK SMILES IDX 7 37 8 38 14 39 15 40 10 41 12 43
REMARK H PARENT 38 24 32 31 30 33 18 35 10 42 12 44
REMARK Flexibility Score: inf
ROOT
ATOM      1  C   UNL     1      59.837  29.569  52.818  1.00  0.00     0.045 C 
ATOM      2  C   UNL     1      58.642  28.911  52.172  1.00  0.00    -0.039 A 
ATOM      3  C   UNL     1      57.425  29.592  52.136  1.00  0.00     0.013 A 
ATOM      4  C   UNL     1      56.264  29.019  51.569  1.00  0.00    -0.006 A 
ATOM      5  C   UNL     1      56.366  27.737  50.947  1.00  0.00     0.039 A 
ATOM      6  C   UNL     1      55.203  27.167  50.351  1.00  0.00     0.072 A 
ATOM      7  C   UNL     1      54.032  27.935  50.220  1.00  0.00     0.169 A 
ATOM      8  C   UNL     1      53.972  29.234  50.754  1.00  0.00     0.162 A 
ATOM      9  C   UNL     1      55.016  29.717  51.572  1.00  0.00     0.008 A 
ATOM     10  C   UNL     1      57.638  27.092  50.896  1.00  0.00     0.132 A 
ATOM     11  C   UNL     1      58.754  27.659  51.548  1.00  0.00     0.031 A 
ENDROOT
BRANCH  11  12
ATOM     12  C   UNL     1      60.060  26.949  51.547  1.00  0.00     0.031 A 
ATOM     13  C   UNL     1      61.059  27.303  50.615  1.00  0.00     0.132 A 
ATOM     14  C   UNL     1      60.287  25.903  52.453  1.00  0.00    -0.039 A 
ATOM     15  C   UNL     1      62.337  26.675  50.657  1.00  0.00     0.039 A 
ATOM     16  C   UNL     1      61.493  25.203  52.407  1.00  0.00     0.013 A 
ATOM     17  C   UNL     1      59.217  25.467  53.424  1.00  0.00     0.045 C 
ATOM     18  C   UNL     1      62.546  25.578  51.549  1.00  0.00    -0.006 A 
ATOM     19  C   UNL     1      63.398  27.072  49.795  1.00  0.00     0.072 A 
ATOM     20  C   UNL     1      63.789  24.868  51.532  1.00  0.00     0.008 A 
ATOM     21  C   UNL     1      64.523  26.250  49.655  1.00  0.00     0.169 A 
ATOM     22  C   UNL     1      64.695  25.129  50.473  1.00  0.00     0.162 A 
BRANCH  13  23
ATOM     23  O   UNL     1      60.763  28.231  49.609  1.00  0.00    -0.507 OA
ATOM     24  H   UNL     1      61.465  28.753  49.101  1.00  0.00     0.293 HD
ENDBRANCH  13  23
BRANCH  19  25
ATOM     25  C   UNL     1      63.415  28.361  49.068  1.00  0.00     0.264 C 
ATOM     26  O   UNL     1      63.602  29.445  49.684  1.00  0.00    -0.298 OA
ENDBRANCH  19  25
BRANCH  20  27
ATOM     27  C   UNL     1      64.224  23.881  52.632  1.00  0.00     0.017 C 
ATOM     28  C   UNL     1      63.373  22.603  52.640  1.00  0.00     0.012 C 
ATOM     29  C   UNL     1      64.372  24.510  54.034  1.00  0.00     0.012 C 
ENDBRANCH  20  27
BRANCH  21  30
ATOM     30  O   UNL     1      65.492  26.574  48.699  1.00  0.00    -0.504 OA
ATOM     31  H   UNL     1      66.471  26.338  48.808  1.00  0.00     0.293 HD
ENDBRANCH  21  30
BRANCH  22  32
ATOM     32  O   UNL     1      65.787  24.296  50.207  1.00  0.00    -0.504 OA
ATOM     33  H   UNL     1      66.741  24.623  50.130  1.00  0.00     0.293 HD
ENDBRANCH  22  32
ENDBRANCH  11  12
BRANCH  10  34
ATOM     34  O   UNL     1      57.804  25.915  50.157  1.00  0.00    -0.507 OA
ATOM     35  H   UNL     1      58.068  25.026  50.562  1.00  0.00     0.293 HD
ENDBRANCH  10  34
BRANCH   9  36
ATOM     36  C   UNL     1      54.805  30.997  52.401  1.00  0.00     0.017 C 
ATOM     37  C   UNL     1      55.118  30.751  53.881  1.00  0.00     0.012 C 
ATOM     38  C   UNL     1      55.571  32.221  51.864  1.00  0.00     0.012 C 
ENDBRANCH   9  36
BRANCH   6  39
ATOM     39  C   UNL     1      55.150  25.744  49.935  1.00  0.00     0.264 C 
ATOM     40  O   UNL     1      54.296  24.955  50.421  1.00  0.00    -0.298 OA
ENDBRANCH   6  39
BRANCH   8  41
ATOM     41  O   UNL     1      52.886  30.068  50.472  1.00  0.00    -0.504 OA
ATOM     42  H   UNL     1      52.750  30.981  50.883  1.00  0.00     0.293 HD
ENDBRANCH   8  41
BRANCH   7  43
ATOM     43  O   UNL     1      52.918  27.362  49.598  1.00  0.00    -0.504 OA
ATOM     44  H   UNL     1      52.930  26.468  49.127  1.00  0.00     0.293 HD
ENDBRANCH   7  43
TORSDOF 11
ENDMDL
MODEL 2
REMARK VINA RESULT:    -5.762      0.348      9.126
REMARK INTER + INTRA:          -9.586
REMARK INTER:                  -8.329
REMARK INTRA:                  -1.257
REMARK UNBOUND:                -1.130
REMARK SMILES Cc1cc2c(C(C)C)c(O)c(O)c(C=O)c2c(O)c1-c1c(C)cc2c(C(C)C)c(O)c(O)c(C=O)c2c1O
REMARK SMILES IDX 1 1 2 2 3 3 4 4 16 5 13 6 11 7 9 8 5 9 17 10 19 11 20 12
REMARK SMILES IDX 37 13 21 14 36 15 23 16 22 17 24 18 33 19 25 20 31 21 29 22
REMARK SMILES IDX 38 23 34 25 35 26 26 27 27 28 28 29 32 30 30 32 18 34 6 36
REMARK SMILES IDX 7 37 8 38 14 39 15 40 10 41 12 43
REMARK H PARENT 38 24 32 31 30 33 18 35 10 42 12 44
REMARK Flexibility Score: inf
ROOT
ATOM      1  C   UNL     1      59.321  25.546  53.425  1.00  0.00     0.045 C 
ATOM      2  C   UNL     1      60.380  25.992  52.446  1.00  0.00    -0.039 A 
ATOM      3  C   UNL     1      61.594  25.307  52.395  1.00  0.00     0.013 A 
ATOM      4  C   UNL     1      62.634  25.693  51.520  1.00  0.00    -0.006 A 
ATOM      5  C   UNL     1      62.399  26.767  50.608  1.00  0.00     0.039 A 
ATOM      6  C   UNL     1      63.437  27.142  49.705  1.00  0.00     0.072 A 
ATOM      7  C   UNL     1      64.592  26.349  49.594  1.00  0.00     0.169 A 
ATOM      8  C   UNL     1      64.772  25.235  50.433  1.00  0.00     0.162 A 
ATOM      9  C   UNL     1      63.885  25.001  51.506  1.00  0.00     0.008 A 
ATOM     10  C   UNL     1      61.118  27.395  50.594  1.00  0.00     0.132 A 
ATOM     11  C   UNL     1      60.135  27.038  51.542  1.00  0.00     0.031 A 
ENDROOT
BRANCH  11  12
ATOM     12  C   UNL     1      58.826  27.742  51.564  1.00  0.00     0.031 A 
ATOM     13  C   UNL     1      57.711  27.186  50.904  1.00  0.00     0.132 A 
ATOM     14  C   UNL     1      58.710  28.978  52.216  1.00  0.00    -0.039 A 
ATOM     15  C   UNL     1      56.438  27.821  50.983  1.00  0.00     0.039 A 
ATOM     16  C   UNL     1      57.494  29.662  52.182  1.00  0.00     0.013 A 
ATOM     17  C   UNL     1      59.900  29.623  52.884  1.00  0.00     0.045 C 
ATOM     18  C   UNL     1      56.336  29.103  51.606  1.00  0.00    -0.006 A 
ATOM     19  C   UNL     1      55.272  27.241  50.409  1.00  0.00     0.072 A 
ATOM     20  C   UNL     1      55.087  29.803  51.603  1.00  0.00     0.008 A 
ATOM     21  C   UNL     1      54.119  28.018  50.244  1.00  0.00     0.169 A 
ATOM     22  C   UNL     1      54.042  29.305  50.784  1.00  0.00     0.162 A 
BRANCH  13  23
ATOM     23  O   UNL     1      57.877  26.039  50.118  1.00  0.00    -0.507 OA
ATOM     24  H   UNL     1      57.117  25.431  49.841  1.00  0.00     0.293 HD
ENDBRANCH  13  23
BRANCH  19  25
ATOM     25  C   UNL     1      55.179  25.815  50.024  1.00  0.00     0.264 C 
ATOM     26  O   UNL     1      54.353  25.048  50.589  1.00  0.00    -0.298 OA
ENDBRANCH  19  25
BRANCH  20  27
ATOM     27  C   UNL     1      54.795  31.032  52.486  1.00  0.00     0.017 C 
ATOM     28  C   UNL     1      55.521  32.291  51.993  1.00  0.00     0.012 C 
ATOM     29  C   UNL     1      54.977  30.790  54.000  1.00  0.00     0.012 C 
ENDBRANCH  20  27
BRANCH  21  30
ATOM     30  O   UNL     1      53.028  27.485  49.549  1.00  0.00    -0.504 OA
ATOM     31  H   UNL     1      52.177  28.007  49.377  1.00  0.00     0.293 HD
ENDBRANCH  21  30
BRANCH  22  32
ATOM     32  O   UNL     1      52.902  30.063  50.491  1.00  0.00    -0.504 OA
ATOM     33  H   UNL     1      52.928  30.991  50.093  1.00  0.00     0.293 HD
ENDBRANCH  22  32
ENDBRANCH  11  12
BRANCH  10  34
ATOM     34  O   UNL     1      60.804  28.339  49.609  1.00  0.00    -0.507 OA
ATOM     35  H   UNL     1      60.798  28.139  48.617  1.00  0.00     0.293 HD
ENDBRANCH  10  34
BRANCH   9  36
ATOM     36  C   UNL     1      64.260  23.982  52.597  1.00  0.00     0.017 C 
ATOM     37  C   UNL     1      64.143  22.547  52.071  1.00  0.00     0.012 C 
ATOM     38  C   UNL     1      65.639  24.232  53.236  1.00  0.00     0.012 C 
ENDBRANCH   9  36
BRANCH   6  39
ATOM     39  C   UNL     1      63.384  28.404  48.927  1.00  0.00     0.264 C 
ATOM     40  O   UNL     1      64.239  29.313  49.101  1.00  0.00    -0.298 OA
ENDBRANCH   6  39
BRANCH   8  41
ATOM     41  O   UNL     1      65.823  24.340  50.210  1.00  0.00    -0.504 OA
ATOM     42  H   UNL     1      65.929  23.789  49.370  1.00  0.00     0.293 HD
ENDBRANCH   8  41
BRANCH   7  43
ATOM     43  O   UNL     1      65.578  26.720  48.672  1.00  0.00    -0.504 OA
ATOM     44  H   UNL     1      66.116  26.064  48.124  1.00  0.00     0.293 HD
ENDBRANCH   7  43
TORSDOF 11
ENDMDL
MODEL 3
REMARK VINA RESULT:    -5.603      6.003      8.381
REMARK INTER + INTRA:          -9.354
REMARK INTER:                  -7.712
REMARK INTRA:                  -1.642
REMARK UNBOUND:                -1.130
REMARK SMILES Cc1cc2c(C(C)C)c(O)c(O)c(C=O)c2c(O)c1-c1c(C)cc2c(C(C)C)c(O)c(O)c(C=O)c2c1O
REMARK SMILES IDX 1 1 2 2 3 3 4 4 16 5 13 6 11 7 9 8 5 9 17 10 19 11 20 12
REMARK SMILES IDX 37 13 21 14 36 15 23 16 22 17 24 18 33 19 25 20 31 21 29 22
REMARK SMILES IDX 38 23 34 25 35 26 26 27 27 28 28 29 32 30 30 32 18 34 6 36
REMARK SMILES IDX 7 37 8 38 14 39 15 40 10 41 12 43
REMARK H PARENT 38 24 32 31 30 33 18 35 10 42 12 44
REMARK Flexibility Score: inf
ROOT
ATOM      1  C   UNL     1      57.041  26.408  54.926  1.00  0.00     0.045 C 
ATOM      2  C   UNL     1      56.787  27.881  54.714  1.00  0.00    -0.039 A 
ATOM      3  C   UNL     1      56.538  28.351  53.425  1.00  0.00     0.013 A 
ATOM      4  C   UNL     1      56.320  29.722  53.158  1.00  0.00    -0.006 A 
ATOM      5  C   UNL     1      56.276  30.635  54.255  1.00  0.00     0.039 A 
ATOM      6  C   UNL     1      56.030  32.015  53.993  1.00  0.00     0.072 A 
ATOM      7  C   UNL     1      55.656  32.428  52.702  1.00  0.00     0.169 A 
ATOM      8  C   UNL     1      55.610  31.502  51.645  1.00  0.00     0.162 A 
ATOM      9  C   UNL     1      56.101  30.191  51.826  1.00  0.00     0.008 A 
ATOM     10  C   UNL     1      56.428  30.131  55.582  1.00  0.00     0.132 A 
ATOM     11  C   UNL     1      56.729  28.769  55.799  1.00  0.00     0.031 A 
ENDROOT
BRANCH  11  12
ATOM     12  C   UNL     1      56.951  28.264  57.179  1.00  0.00     0.031 A 
ATOM     13  C   UNL     1      58.253  28.226  57.721  1.00  0.00     0.132 A 
ATOM     14  C   UNL     1      55.865  27.791  57.932  1.00  0.00    -0.039 A 
ATOM     15  C   UNL     1      58.461  27.810  59.067  1.00  0.00     0.039 A 
ATOM     16  C   UNL     1      56.089  27.263  59.205  1.00  0.00     0.013 A 
ATOM     17  C   UNL     1      54.470  27.767  57.359  1.00  0.00     0.045 C 
ATOM     18  C   UNL     1      57.360  27.285  59.812  1.00  0.00    -0.006 A 
ATOM     19  C   UNL     1      59.747  27.850  59.676  1.00  0.00     0.072 A 
ATOM     20  C   UNL     1      57.570  26.765  61.130  1.00  0.00     0.008 A 
ATOM     21  C   UNL     1      59.968  27.164  60.877  1.00  0.00     0.169 A 
ATOM     22  C   UNL     1      58.905  26.579  61.571  1.00  0.00     0.162 A 
BRANCH  13  23
ATOM     23  O   UNL     1      59.346  28.543  56.905  1.00  0.00    -0.507 OA
ATOM     24  H   UNL     1      60.259  28.796  57.261  1.00  0.00     0.293 HD
ENDBRANCH  13  23
BRANCH  19  25
ATOM     25  C   UNL     1      60.876  28.642  59.140  1.00  0.00     0.264 C 
ATOM     26  O   UNL     1      61.848  28.075  58.572  1.00  0.00    -0.298 OA
ENDBRANCH  19  25
BRANCH  20  27
ATOM     27  C   UNL     1      56.429  26.454  62.117  1.00  0.00     0.017 C 
ATOM     28  C   UNL     1      55.649  25.190  61.730  1.00  0.00     0.012 C 
ATOM     29  C   UNL     1      55.508  27.654  62.429  1.00  0.00     0.012 C 
ENDBRANCH  20  27
BRANCH  21  30
ATOM     30  O   UNL     1      61.267  27.087  61.391  1.00  0.00    -0.504 OA
ATOM     31  H   UNL     1      61.460  26.909  62.369  1.00  0.00     0.293 HD
ENDBRANCH  21  30
BRANCH  22  32
ATOM     32  O   UNL     1      59.213  25.821  62.707  1.00  0.00    -0.504 OA
ATOM     33  H   UNL     1      59.958  25.138  62.745  1.00  0.00     0.293 HD
ENDBRANCH  22  32
ENDBRANCH  11  12
BRANCH  10  34
ATOM     34  O   UNL     1      56.232  30.971  56.684  1.00  0.00    -0.507 OA
ATOM     35  H   UNL     1      56.412  31.966  56.675  1.00  0.00     0.293 HD
ENDBRANCH  10  34
BRANCH   9  36
ATOM     36  C   UNL     1      56.339  29.291  50.599  1.00  0.00     0.017 C 
ATOM     37  C   UNL     1      57.814  28.890  50.491  1.00  0.00     0.012 C 
ATOM     38  C   UNL     1      55.419  28.057  50.543  1.00  0.00     0.012 C 
ENDBRANCH   9  36
BRANCH   6  39
ATOM     39  C   UNL     1      56.240  33.060  55.024  1.00  0.00     0.264 C 
ATOM     40  O   UNL     1      55.265  33.652  55.559  1.00  0.00    -0.298 OA
ENDBRANCH   6  39
BRANCH   8  41
ATOM     41  O   UNL     1      55.068  31.863  50.408  1.00  0.00    -0.504 OA
ATOM     42  H   UNL     1      54.538  31.238  49.817  1.00  0.00     0.293 HD
ENDBRANCH   8  41
BRANCH   7  43
ATOM     43  O   UNL     1      55.384  33.783  52.482  1.00  0.00    -0.504 OA
ATOM     44  H   UNL     1      55.878  34.359  51.814  1.00  0.00     0.293 HD
ENDBRANCH   7  43
TORSDOF 11
ENDMDL
MODEL 4
REMARK VINA RESULT:    -5.451      6.010      9.697
REMARK INTER + INTRA:          -9.130
REMARK INTER:                  -7.495
REMARK INTRA:                  -1.634
REMARK UNBOUND:                -1.130
REMARK SMILES Cc1cc2c(C(C)C)c(O)c(O)c(C=O)c2c(O)c1-c1c(C)cc2c(C(C)C)c(O)c(O)c(C=O)c2c1O
REMARK SMILES IDX 1 1 2 2 3 3 4 4 16 5 13 6 11 7 9 8 5 9 17 10 19 11 20 12
REMARK SMILES IDX 37 13 21 14 36 15 23 16 22 17 24 18 33 19 25 20 31 21 29 22
REMARK SMILES IDX 38 23 34 25 35 26 26 27 27 28 28 29 32 30 30 32 18 34 6 36
REMARK SMILES IDX 7 37 8 38 14 39 15 40 10 41 12 43
REMARK H PARENT 38 24 32 31 30 33 18 35 10 42 12 44
REMARK Flexibility Score: inf
ROOT
ATOM      1  C   UNL     1      54.562  27.714  57.425  1.00  0.00     0.045 C 
ATOM      2  C   UNL     1      55.964  27.742  57.982  1.00  0.00    -0.039 A 
ATOM      3  C   UNL     1      56.198  27.247  59.265  1.00  0.00     0.013 A 
ATOM      4  C   UNL     1      57.484  27.270  59.852  1.00  0.00    -0.006 A 
ATOM      5  C   UNL     1      58.584  27.742  59.074  1.00  0.00     0.039 A 
ATOM      6  C   UNL     1      59.887  27.743  59.654  1.00  0.00     0.072 A 
ATOM      7  C   UNL     1      60.103  27.118  60.895  1.00  0.00     0.169 A 
ATOM      8  C   UNL     1      59.025  26.571  61.612  1.00  0.00     0.162 A 
ATOM      9  C   UNL     1      57.699  26.790  61.181  1.00  0.00     0.008 A 
ATOM     10  C   UNL     1      58.354  28.151  57.726  1.00  0.00     0.132 A 
ATOM     11  C   UNL     1      57.043  28.193  57.205  1.00  0.00     0.031 A 
ENDROOT
BRANCH  11  12
ATOM     12  C   UNL     1      56.803  28.680  55.822  1.00  0.00     0.031 A 
ATOM     13  C   UNL     1      56.528  30.044  55.588  1.00  0.00     0.132 A 
ATOM     14  C   UNL     1      56.818  27.775  54.751  1.00  0.00    -0.039 A 
ATOM     15  C   UNL     1      56.368  30.528  54.258  1.00  0.00     0.039 A 
ATOM     16  C   UNL     1      56.534  28.230  53.462  1.00  0.00     0.013 A 
ATOM     17  C   UNL     1      57.056  26.302  54.977  1.00  0.00     0.045 C 
ATOM     18  C   UNL     1      56.336  29.595  53.176  1.00  0.00    -0.006 A 
ATOM     19  C   UNL     1      56.183  31.911  53.978  1.00  0.00     0.072 A 
ATOM     20  C   UNL     1      56.073  30.051  51.844  1.00  0.00     0.008 A 
ATOM     21  C   UNL     1      55.736  32.311  52.713  1.00  0.00     0.169 A 
ATOM     22  C   UNL     1      55.627  31.386  51.670  1.00  0.00     0.162 A 
BRANCH  13  23
ATOM     23  O   UNL     1      56.351  30.906  56.677  1.00  0.00    -0.507 OA
ATOM     24  H   UNL     1      55.931  30.627  57.554  1.00  0.00     0.293 HD
ENDBRANCH  13  23
BRANCH  19  25
ATOM     25  C   UNL     1      56.502  32.985  54.945  1.00  0.00     0.264 C 
ATOM     26  O   UNL     1      55.584  33.611  55.539  1.00  0.00    -0.298 OA
ENDBRANCH  19  25
BRANCH  20  27
ATOM     27  C   UNL     1      56.305  29.193  50.586  1.00  0.00     0.017 C 
ATOM     28  C   UNL     1      55.345  27.998  50.508  1.00  0.00     0.012 C 
ATOM     29  C   UNL     1      57.777  28.795  50.346  1.00  0.00     0.012 C 
ENDBRANCH  20  27
BRANCH  21  30
ATOM     30  O   UNL     1      55.419  33.655  52.492  1.00  0.00    -0.504 OA
ATOM     31  H   UNL     1      54.636  34.115  52.941  1.00  0.00     0.293 HD
ENDBRANCH  21  30
BRANCH  22  32
ATOM     32  O   UNL     1      55.075  31.834  50.464  1.00  0.00    -0.504 OA
ATOM     33  H   UNL     1      54.113  32.127  50.358  1.00  0.00     0.293 HD
ENDBRANCH  22  32
ENDBRANCH  11  12
BRANCH  10  34
ATOM     34  O   UNL     1      59.431  28.466  56.889  1.00  0.00    -0.507 OA
ATOM     35  H   UNL     1      59.925  29.349  56.913  1.00  0.00     0.293 HD
ENDBRANCH  10  34
BRANCH   9  36
ATOM     36  C   UNL     1      56.527  26.465  62.126  1.00  0.00     0.017 C 
ATOM     37  C   UNL     1      55.621  27.686  62.317  1.00  0.00     0.012 C 
ATOM     38  C   UNL     1      55.715  25.225  61.708  1.00  0.00     0.012 C 
ENDBRANCH   9  36
BRANCH   6  39
ATOM     39  C   UNL     1      61.024  28.463  59.031  1.00  0.00     0.264 C 
ATOM     40  O   UNL     1      61.961  27.837  58.467  1.00  0.00    -0.298 OA
ENDBRANCH   6  39
BRANCH   8  41
ATOM     41  O   UNL     1      59.252  25.793  62.751  1.00  0.00    -0.504 OA
ATOM     42  H   UNL     1      59.741  24.909  62.746  1.00  0.00     0.293 HD
ENDBRANCH   8  41
BRANCH   7  43
ATOM     43  O   UNL     1      61.399  27.102  61.422  1.00  0.00    -0.504 OA
ATOM     44  H   UNL     1      61.675  26.560  62.230  1.00  0.00     0.293 HD
ENDBRANCH   7  43
TORSDOF 11
ENDMDL
MODEL 5
REMARK VINA RESULT:    -5.344      1.799      2.516
REMARK INTER + INTRA:          -8.972
REMARK INTER:                  -7.766
REMARK INTRA:                  -1.206
REMARK UNBOUND:                -1.130
REMARK SMILES Cc1cc2c(C(C)C)c(O)c(O)c(C=O)c2c(O)c1-c1c(C)cc2c(C(C)C)c(O)c(O)c(C=O)c2c1O
REMARK SMILES IDX 1 1 2 2 3 3 4 4 16 5 13 6 11 7 9 8 5 9 17 10 19 11 20 12
REMARK SMILES IDX 37 13 21 14 36 15 23 16 22 17 24 18 33 19 25 20 31 21 29 22
REMARK SMILES IDX 38 23 34 25 35 26 26 27 27 28 28 29 32 30 30 32 18 34 6 36
REMARK SMILES IDX 7 37 8 38 14 39 15 40 10 41 12 43
REMARK H PARENT 38 24 32 31 30 33 18 35 10 42 12 44
REMARK Flexibility Score: inf
ROOT
ATOM      1  C   UNL     1      61.445  30.574  53.794  1.00  0.00     0.045 C 
ATOM      2  C   UNL     1      60.071  30.436  53.186  1.00  0.00    -0.039 A 
ATOM      3  C   UNL     1      59.090  31.379  53.495  1.00  0.00     0.013 A 
ATOM      4  C   UNL     1      57.778  31.288  52.979  1.00  0.00    -0.006 A 
ATOM      5  C   UNL     1      57.476  30.244  52.052  1.00  0.00     0.039 A 
ATOM      6  C   UNL     1      56.160  30.165  51.509  1.00  0.00     0.072 A 
ATOM      7  C   UNL     1      55.240  31.204  51.742  1.00  0.00     0.169 A 
ATOM      8  C   UNL     1      55.581  32.279  52.582  1.00  0.00     0.162 A 
ATOM      9  C   UNL     1      56.776  32.244  53.334  1.00  0.00     0.008 A 
ATOM     10  C   UNL     1      58.512  29.345  51.661  1.00  0.00     0.132 A 
ATOM     11  C   UNL     1      59.787  29.416  52.264  1.00  0.00     0.031 A 
ENDROOT
BRANCH  11  12
ATOM     12  C   UNL     1      60.842  28.436  51.899  1.00  0.00     0.031 A 
ATOM     13  C   UNL     1      61.710  28.696  50.818  1.00  0.00     0.132 A 
ATOM     14  C   UNL     1      60.953  27.233  52.612  1.00  0.00    -0.039 A 
ATOM     15  C   UNL     1      62.768  27.793  50.511  1.00  0.00     0.039 A 
ATOM     16  C   UNL     1      61.908  26.290  52.227  1.00  0.00     0.013 A 
ATOM     17  C   UNL     1      60.004  26.903  53.738  1.00  0.00     0.045 C 
ATOM     18  C   UNL     1      62.846  26.548  51.208  1.00  0.00    -0.006 A 
ATOM     19  C   UNL     1      63.719  28.070  49.489  1.00  0.00     0.072 A 
ATOM     20  C   UNL     1      63.839  25.583  50.842  1.00  0.00     0.008 A 
ATOM     21  C   UNL     1      64.549  27.045  49.016  1.00  0.00     0.169 A 
ATOM     22  C   UNL     1      64.572  25.797  49.647  1.00  0.00     0.162 A 
BRANCH  13  23
ATOM     23  O   UNL     1      61.486  29.818  50.011  1.00  0.00    -0.507 OA
ATOM     24  H   UNL     1      62.158  30.176  49.345  1.00  0.00     0.293 HD
ENDBRANCH  13  23
BRANCH  19  25
ATOM     25  C   UNL     1      63.936  29.420  48.924  1.00  0.00     0.264 C 
ATOM     26  O   UNL     1      64.486  30.324  49.609  1.00  0.00    -0.298 OA
ENDBRANCH  19  25
BRANCH  20  27
ATOM     27  C   UNL     1      64.198  24.357  51.704  1.00  0.00     0.017 C 
ATOM     28  C   UNL     1      63.008  23.407  51.892  1.00  0.00     0.012 C 
ATOM     29  C   UNL     1      64.909  24.696  53.032  1.00  0.00     0.012 C 
ENDBRANCH  20  27
BRANCH  21  30
ATOM     30  O   UNL     1      65.377  27.288  47.915  1.00  0.00    -0.504 OA
ATOM     31  H   UNL     1      65.467  28.202  47.487  1.00  0.00     0.293 HD
ENDBRANCH  21  30
BRANCH  22  32
ATOM     32  O   UNL     1      65.345  24.790  49.058  1.00  0.00    -0.504 OA
ATOM     33  H   UNL     1      65.762  24.025  49.571  1.00  0.00     0.293 HD
ENDBRANCH  22  32
ENDBRANCH  11  12
BRANCH  10  34
ATOM     34  O   UNL     1      58.292  28.414  50.639  1.00  0.00    -0.507 OA
ATOM     35  H   UNL     1      57.504  28.446  50.006  1.00  0.00     0.293 HD
ENDBRANCH  10  34
BRANCH   9  36
ATOM     36  C   UNL     1      56.988  33.257  54.473  1.00  0.00     0.017 C 
ATOM     37  C   UNL     1      57.041  32.551  55.832  1.00  0.00     0.012 C 
ATOM     38  C   UNL     1      58.208  34.175  54.272  1.00  0.00     0.012 C 
ENDBRANCH   9  36
BRANCH   6  39
ATOM     39  C   UNL     1      55.685  28.971  50.769  1.00  0.00     0.264 C 
ATOM     40  O   UNL     1      54.752  28.254  51.218  1.00  0.00    -0.298 OA
ENDBRANCH   6  39
BRANCH   8  41
ATOM     41  O   UNL     1      54.750  33.398  52.674  1.00  0.00    -0.504 OA
ATOM     42  H   UNL     1      55.084  34.349  52.737  1.00  0.00     0.293 HD
ENDBRANCH   8  41
BRANCH   7  43
ATOM     43  O   UNL     1      53.968  31.118  51.165  1.00  0.00    -0.504 OA
ATOM     44  H   UNL     1      53.107  31.113  51.693  1.00  0.00     0.293 HD
ENDBRANCH   7  43
TORSDOF 11
ENDMDL
MODEL 6
REMARK VINA RESULT:    -5.333      1.700      9.160
REMARK INTER + INTRA:          -8.957
REMARK INTER:                  -7.786
REMARK INTRA:                  -1.171
REMARK UNBOUND:                -1.130
REMARK SMILES Cc1cc2c(C(C)C)c(O)c(O)c(C=O)c2c(O)c1-c1c(C)cc2c(C(C)C)c(O)c(O)c(C=O)c2c1O
REMARK SMILES IDX 1 1 2 2 3 3 4 4 16 5 13 6 11 7 9 8 5 9 17 10 19 11 20 12
REMARK SMILES IDX 37 13 21 14 36 15 23 16 22 17 24 18 33 19 25 20 31 21 29 22
REMARK SMILES IDX 38 23 34 25 35 26 26 27 27 28 28 29 32 30 30 32 18 34 6 36
REMARK SMILES IDX 7 37 8 38 14 39 15 40 10 41 12 43
REMARK H PARENT 38 24 32 31 30 33 18 35 10 42 12 44
REMARK Flexibility Score: inf
ROOT
ATOM      1  C   UNL     1      59.968  26.743  53.588  1.00  0.00     0.045 C 
ATOM      2  C   UNL     1      60.953  27.113  52.506  1.00  0.00    -0.039 A 
ATOM      3  C   UNL     1      61.922  26.187  52.121  1.00  0.00     0.013 A 
ATOM      4  C   UNL     1      62.889  26.483  51.133  1.00  0.00    -0.006 A 
ATOM      5  C   UNL     1      62.815  27.740  50.457  1.00  0.00     0.039 A 
ATOM      6  C   UNL     1      63.772  28.032  49.442  1.00  0.00     0.072 A 
ATOM      7  C   UNL     1      64.649  27.028  48.993  1.00  0.00     0.169 A 
ATOM      8  C   UNL     1      64.649  25.761  49.602  1.00  0.00     0.162 A 
ATOM      9  C   UNL     1      63.897  25.535  50.776  1.00  0.00     0.008 A 
ATOM     10  C   UNL     1      61.757  28.640  50.784  1.00  0.00     0.132 A 
ATOM     11  C   UNL     1      60.864  28.343  51.835  1.00  0.00     0.031 A 
ENDROOT
BRANCH  11  12
ATOM     12  C   UNL     1      59.804  29.314  52.213  1.00  0.00     0.031 A 
ATOM     13  C   UNL     1      58.545  29.274  51.579  1.00  0.00     0.132 A 
ATOM     14  C   UNL     1      60.070  30.295  53.180  1.00  0.00    -0.039 A 
ATOM     15  C   UNL     1      57.504  30.156  51.989  1.00  0.00     0.039 A 
ATOM     16  C   UNL     1      59.091  31.241  53.488  1.00  0.00     0.013 A 
ATOM     17  C   UNL     1      61.426  30.397  53.836  1.00  0.00     0.045 C 
ATOM     18  C   UNL     1      57.795  31.184  52.938  1.00  0.00    -0.006 A 
ATOM     19  C   UNL     1      56.194  30.080  51.437  1.00  0.00     0.072 A 
ATOM     20  C   UNL     1      56.791  32.144  53.284  1.00  0.00     0.008 A 
ATOM     21  C   UNL     1      55.295  31.135  51.636  1.00  0.00     0.169 A 
ATOM     22  C   UNL     1      55.607  32.185  52.505  1.00  0.00     0.162 A 
BRANCH  13  23
ATOM     23  O   UNL     1      58.345  28.402  50.502  1.00  0.00    -0.507 OA
ATOM     24  H   UNL     1      58.180  27.409  50.605  1.00  0.00     0.293 HD
ENDBRANCH  13  23
BRANCH  19  25
ATOM     25  C   UNL     1      55.689  28.899  50.702  1.00  0.00     0.264 C 
ATOM     26  O   UNL     1      54.731  28.219  51.157  1.00  0.00    -0.298 OA
ENDBRANCH  19  25
BRANCH  20  27
ATOM     27  C   UNL     1      56.898  33.095  54.492  1.00  0.00     0.017 C 
ATOM     28  C   UNL     1      55.814  32.826  55.545  1.00  0.00     0.012 C 
ATOM     29  C   UNL     1      57.015  34.589  54.122  1.00  0.00     0.012 C 
ENDBRANCH  20  27
BRANCH  21  30
ATOM     30  O   UNL     1      54.064  31.119  50.971  1.00  0.00    -0.504 OA
ATOM     31  H   UNL     1      53.570  30.262  50.750  1.00  0.00     0.293 HD
ENDBRANCH  21  30
BRANCH  22  32
ATOM     32  O   UNL     1      54.708  33.256  52.574  1.00  0.00    -0.504 OA
ATOM     33  H   UNL     1      54.093  33.427  53.358  1.00  0.00     0.293 HD
ENDBRANCH  22  32
ENDBRANCH  11  12
BRANCH  10  34
ATOM     34  O   UNL     1      61.563  29.805  50.032  1.00  0.00    -0.507 OA
ATOM     35  H   UNL     1      60.663  30.248  49.899  1.00  0.00     0.293 HD
ENDBRANCH  10  34
BRANCH   9  36
ATOM     36  C   UNL     1      64.144  24.262  51.606  1.00  0.00     0.017 C 
ATOM     37  C   UNL     1      64.907  24.588  52.895  1.00  0.00     0.012 C 
ATOM     38  C   UNL     1      62.868  23.452  51.901  1.00  0.00     0.012 C 
ENDBRANCH   9  36
BRANCH   6  39
ATOM     39  C   UNL     1      63.942  29.399  48.891  1.00  0.00     0.264 C 
ATOM     40  O   UNL     1      64.537  30.296  49.545  1.00  0.00    -0.298 OA
ENDBRANCH   6  39
BRANCH   8  41
ATOM     41  O   UNL     1      65.382  24.707  49.049  1.00  0.00    -0.504 OA
ATOM     42  H   UNL     1      66.280  24.399  49.393  1.00  0.00     0.293 HD
ENDBRANCH   8  41
BRANCH   7  43
ATOM     43  O   UNL     1      65.552  27.333  47.969  1.00  0.00    -0.504 OA
ATOM     44  H   UNL     1      66.423  27.826  48.110  1.00  0.00     0.293 HD
ENDBRANCH   7  43
TORSDOF 11
ENDMDL
MODEL 7
REMARK VINA RESULT:    -5.277      5.543      8.734
REMARK INTER + INTRA:          -8.874
REMARK INTER:                  -7.169
REMARK INTRA:                  -1.705
REMARK UNBOUND:                -1.130
REMARK SMILES Cc1cc2c(C(C)C)c(O)c(O)c(C=O)c2c(O)c1-c1c(C)cc2c(C(C)C)c(O)c(O)c(C=O)c2c1O
REMARK SMILES IDX 1 1 2 2 3 3 4 4 16 5 13 6 11 7 9 8 5 9 17 10 19 11 20 12
REMARK SMILES IDX 37 13 21 14 36 15 23 16 22 17 24 18 33 19 25 20 31 21 29 22
REMARK SMILES IDX 38 23 34 25 35 26 26 27 27 28 28 29 32 30 30 32 18 34 6 36
REMARK SMILES IDX 7 37 8 38 14 39 15 40 10 41 12 43
REMARK H PARENT 38 24 32 31 30 33 18 35 10 42 12 44
REMARK Flexibility Score: inf
ROOT
ATOM      1  C   UNL     1      58.537  24.779  55.862  1.00  0.00     0.045 C 
ATOM      2  C   UNL     1      59.058  25.814  56.829  1.00  0.00    -0.039 A 
ATOM      3  C   UNL     1      59.403  25.425  58.124  1.00  0.00     0.013 A 
ATOM      4  C   UNL     1      59.871  26.352  59.083  1.00  0.00    -0.006 A 
ATOM      5  C   UNL     1      60.069  27.709  58.685  1.00  0.00     0.039 A 
ATOM      6  C   UNL     1      60.566  28.642  59.642  1.00  0.00     0.072 A 
ATOM      7  C   UNL     1      61.023  28.189  60.893  1.00  0.00     0.169 A 
ATOM      8  C   UNL     1      60.910  26.831  61.240  1.00  0.00     0.162 A 
ATOM      9  C   UNL     1      60.186  25.943  60.416  1.00  0.00     0.008 A 
ATOM     10  C   UNL     1      59.813  28.077  57.330  1.00  0.00     0.132 A 
ATOM     11  C   UNL     1      59.266  27.142  56.426  1.00  0.00     0.031 A 
ENDROOT
BRANCH  11  12
ATOM     12  C   UNL     1      58.941  27.550  55.034  1.00  0.00     0.031 A 
ATOM     13  C   UNL     1      59.888  27.376  54.004  1.00  0.00     0.132 A 
ATOM     14  C   UNL     1      57.699  28.140  54.752  1.00  0.00    -0.039 A 
ATOM     15  C   UNL     1      59.554  27.698  52.657  1.00  0.00     0.039 A 
ATOM     16  C   UNL     1      57.424  28.574  53.454  1.00  0.00     0.013 A 
ATOM     17  C   UNL     1      56.688  28.389  55.844  1.00  0.00     0.045 C 
ATOM     18  C   UNL     1      58.309  28.344  52.383  1.00  0.00    -0.006 A 
ATOM     19  C   UNL     1      60.450  27.448  51.580  1.00  0.00     0.072 A 
ATOM     20  C   UNL     1      58.000  28.769  51.051  1.00  0.00     0.008 A 
ATOM     21  C   UNL     1      60.220  28.042  50.333  1.00  0.00     0.169 A 
ATOM     22  C   UNL     1      59.036  28.743  50.083  1.00  0.00     0.162 A 
BRANCH  13  23
ATOM     23  O   UNL     1      61.180  26.941  54.324  1.00  0.00    -0.507 OA
ATOM     24  H   UNL     1      61.779  26.437  53.683  1.00  0.00     0.293 HD
ENDBRANCH  13  23
BRANCH  19  25
ATOM     25  C   UNL     1      61.604  26.526  51.680  1.00  0.00     0.264 C 
ATOM     26  O   UNL     1      62.779  26.972  51.773  1.00  0.00    -0.298 OA
ENDBRANCH  19  25
BRANCH  20  27
ATOM     27  C   UNL     1      56.592  29.198  50.596  1.00  0.00     0.017 C 
ATOM     28  C   UNL     1      56.188  30.568  51.157  1.00  0.00     0.012 C 
ATOM     29  C   UNL     1      55.501  28.124  50.796  1.00  0.00     0.012 C 
ENDBRANCH  20  27
BRANCH  21  30
ATOM     30  O   UNL     1      61.180  27.909  49.324  1.00  0.00    -0.504 OA
ATOM     31  H   UNL     1      60.939  27.815  48.345  1.00  0.00     0.293 HD
ENDBRANCH  21  30
BRANCH  22  32
ATOM     32  O   UNL     1      58.920  29.398  48.852  1.00  0.00    -0.504 OA
ATOM     33  H   UNL     1      59.651  29.963  48.441  1.00  0.00     0.293 HD
ENDBRANCH  22  32
ENDBRANCH  11  12
BRANCH  10  34
ATOM     34  O   UNL     1      60.148  29.357  56.870  1.00  0.00    -0.507 OA
ATOM     35  H   UNL     1      59.957  29.687  55.932  1.00  0.00     0.293 HD
ENDBRANCH  10  34
BRANCH   9  36
ATOM     36  C   UNL     1      59.801  24.551  60.950  1.00  0.00     0.017 C 
ATOM     37  C   UNL     1      61.023  23.630  61.014  1.00  0.00     0.012 C 
ATOM     38  C   UNL     1      59.054  24.585  62.297  1.00  0.00     0.012 C 
ENDBRANCH   9  36
BRANCH   6  39
ATOM     39  C   UNL     1      60.539  30.105  59.401  1.00  0.00     0.264 C 
ATOM     40  O   UNL     1      61.601  30.750  59.190  1.00  0.00    -0.298 OA
ENDBRANCH   6  39
BRANCH   8  41
ATOM     41  O   UNL     1      61.522  26.342  62.398  1.00  0.00    -0.504 OA
ATOM     42  H   UNL     1      62.077  25.498  62.433  1.00  0.00     0.293 HD
ENDBRANCH   8  41
BRANCH   7  43
ATOM     43  O   UNL     1      61.540  29.122  61.798  1.00  0.00    -0.504 OA
ATOM     44  H   UNL     1      61.206  29.237  62.745  1.00  0.00     0.293 HD
ENDBRANCH   7  43
TORSDOF 11
ENDMDL
MODEL 8
REMARK VINA RESULT:    -5.262      5.431      8.730
REMARK INTER + INTRA:          -8.853
REMARK INTER:                  -7.353
REMARK INTRA:                  -1.500
REMARK UNBOUND:                -1.130
REMARK SMILES Cc1cc2c(C(C)C)c(O)c(O)c(C=O)c2c(O)c1-c1c(C)cc2c(C(C)C)c(O)c(O)c(C=O)c2c1O
REMARK SMILES IDX 1 1 2 2 3 3 4 4 16 5 13 6 11 7 9 8 5 9 17 10 19 11 20 12
REMARK SMILES IDX 37 13 21 14 36 15 23 16 22 17 24 18 33 19 25 20 31 21 29 22
REMARK SMILES IDX 38 23 34 25 35 26 26 27 27 28 28 29 32 30 30 32 18 34 6 36
REMARK SMILES IDX 7 37 8 38 14 39 15 40 10 41 12 43
REMARK H PARENT 38 24 32 31 30 33 18 35 10 42 12 44
REMARK Flexibility Score: inf
ROOT
ATOM      1  C   UNL     1      56.518  24.400  56.401  1.00  0.00     0.045 C 
ATOM      2  C   UNL     1      55.877  23.184  55.779  1.00  0.00    -0.039 A 
ATOM      3  C   UNL     1      55.629  22.063  56.572  1.00  0.00     0.013 A 
ATOM      4  C   UNL     1      55.056  20.885  56.043  1.00  0.00    -0.006 A 
ATOM      5  C   UNL     1      54.648  20.876  54.674  1.00  0.00     0.039 A 
ATOM      6  C   UNL     1      54.045  19.698  54.143  1.00  0.00     0.072 A 
ATOM      7  C   UNL     1      53.695  18.640  55.001  1.00  0.00     0.169 A 
ATOM      8  C   UNL     1      54.016  18.699  56.369  1.00  0.00     0.162 A 
ATOM      9  C   UNL     1      54.841  19.733  56.863  1.00  0.00     0.008 A 
ATOM     10  C   UNL     1      54.810  22.061  53.897  1.00  0.00     0.132 A 
ATOM     11  C   UNL     1      55.464  23.188  54.438  1.00  0.00     0.031 A 
ENDROOT
BRANCH  11  12
ATOM     12  C   UNL     1      55.687  24.397  53.602  1.00  0.00     0.031 A 
ATOM     13  C   UNL     1      56.899  24.559  52.899  1.00  0.00     0.132 A 
ATOM     14  C   UNL     1      54.702  25.394  53.539  1.00  0.00    -0.039 A 
ATOM     15  C   UNL     1      57.088  25.680  52.040  1.00  0.00     0.039 A 
ATOM     16  C   UNL     1      54.942  26.553  52.800  1.00  0.00     0.013 A 
ATOM     17  C   UNL     1      53.419  25.272  54.324  1.00  0.00     0.045 C 
ATOM     18  C   UNL     1      56.103  26.715  52.018  1.00  0.00    -0.006 A 
ATOM     19  C   UNL     1      58.259  25.828  51.244  1.00  0.00     0.072 A 
ATOM     20  C   UNL     1      56.324  27.898  51.241  1.00  0.00     0.008 A 
ATOM     21  C   UNL     1      58.545  27.064  50.652  1.00  0.00     0.169 A 
ATOM     22  C   UNL     1      57.616  28.109  50.695  1.00  0.00     0.162 A 
BRANCH  13  23
ATOM     23  O   UNL     1      57.938  23.643  53.099  1.00  0.00    -0.507 OA
ATOM     24  H   UNL     1      58.135  22.870  52.476  1.00  0.00     0.293 HD
ENDBRANCH  13  23
BRANCH  19  25
ATOM     25  C   UNL     1      59.182  24.712  50.942  1.00  0.00     0.264 C 
ATOM     26  O   UNL     1      60.315  24.647  51.490  1.00  0.00    -0.298 OA
ENDBRANCH  19  25
BRANCH  20  27
ATOM     27  C   UNL     1      55.222  28.924  50.915  1.00  0.00     0.017 C 
ATOM     28  C   UNL     1      54.906  29.840  52.105  1.00  0.00     0.012 C 
ATOM     29  C   UNL     1      53.955  28.319  50.272  1.00  0.00     0.012 C 
ENDBRANCH  20  27
BRANCH  21  30
ATOM     30  O   UNL     1      59.766  27.242  49.994  1.00  0.00    -0.504 OA
ATOM     31  H   UNL     1      60.660  27.064  50.437  1.00  0.00     0.293 HD
ENDBRANCH  21  30
BRANCH  22  32
ATOM     32  O   UNL     1      58.011  29.347  50.176  1.00  0.00    -0.504 OA
ATOM     33  H   UNL     1      58.946  29.722  50.259  1.00  0.00     0.293 HD
ENDBRANCH  22  32
ENDBRANCH  11  12
BRANCH  10  34
ATOM     34  O   UNL     1      54.277  22.137  52.604  1.00  0.00    -0.507 OA
ATOM     35  H   UNL     1      54.428  21.438  51.888  1.00  0.00     0.293 HD
ENDBRANCH  10  34
BRANCH   9  36
ATOM     36  C   UNL     1      55.442  19.619  58.275  1.00  0.00     0.017 C 
ATOM     37  C   UNL     1      54.368  19.828  59.348  1.00  0.00     0.012 C 
ATOM     38  C   UNL     1      56.227  18.315  58.515  1.00  0.00     0.012 C 
ENDBRANCH   9  36
BRANCH   6  39
ATOM     39  C   UNL     1      53.848  19.504  52.686  1.00  0.00     0.264 C 
ATOM     40  O   UNL     1      54.827  19.314  51.916  1.00  0.00    -0.298 OA
ENDBRANCH   6  39
BRANCH   8  41
ATOM     41  O   UNL     1      53.515  17.743  57.258  1.00  0.00    -0.504 OA
ATOM     42  H   UNL     1      53.738  17.713  58.242  1.00  0.00     0.293 HD
ENDBRANCH   8  41
BRANCH   7  43
ATOM     43  O   UNL     1      53.070  17.512  54.458  1.00  0.00    -0.504 OA
ATOM     44  H   UNL     1      53.463  16.581  54.482  1.00  0.00     0.293 HD
ENDBRANCH   7  43
TORSDOF 11
ENDMDL
MODEL 9
REMARK VINA RESULT:    -5.223      6.468     10.699
REMARK INTER + INTRA:          -8.796
REMARK INTER:                  -7.100
REMARK INTRA:                  -1.695
REMARK UNBOUND:                -1.130
REMARK SMILES Cc1cc2c(C(C)C)c(O)c(O)c(C=O)c2c(O)c1-c1c(C)cc2c(C(C)C)c(O)c(O)c(C=O)c2c1O
REMARK SMILES IDX 1 1 2 2 3 3 4 4 16 5 13 6 11 7 9 8 5 9 17 10 19 11 20 12
REMARK SMILES IDX 37 13 21 14 36 15 23 16 22 17 24 18 33 19 25 20 31 21 29 22
REMARK SMILES IDX 38 23 34 25 35 26 26 27 27 28 28 29 32 30 30 32 18 34 6 36
REMARK SMILES IDX 7 37 8 38 14 39 15 40 10 41 12 43
REMARK H PARENT 38 24 32 31 30 33 18 35 10 42 12 44
REMARK Flexibility Score: inf
ROOT
ATOM      1  C   UNL     1      59.280  34.591  56.354  1.00  0.00     0.045 C 
ATOM      2  C   UNL     1      60.339  33.703  56.960  1.00  0.00    -0.039 A 
ATOM      3  C   UNL     1      61.236  34.242  57.883  1.00  0.00     0.013 A 
ATOM      4  C   UNL     1      62.266  33.469  58.464  1.00  0.00    -0.006 A 
ATOM      5  C   UNL     1      62.336  32.076  58.155  1.00  0.00     0.039 A 
ATOM      6  C   UNL     1      63.358  31.287  58.760  1.00  0.00     0.072 A 
ATOM      7  C   UNL     1      64.158  31.835  59.779  1.00  0.00     0.169 A 
ATOM      8  C   UNL     1      64.016  33.185  60.144  1.00  0.00     0.162 A 
ATOM      9  C   UNL     1      63.198  34.047  59.381  1.00  0.00     0.008 A 
ATOM     10  C   UNL     1      61.352  31.510  57.291  1.00  0.00     0.132 A 
ATOM     11  C   UNL     1      60.391  32.332  56.664  1.00  0.00     0.031 A 
ENDROOT
BRANCH  11  12
ATOM     12  C   UNL     1      59.410  31.745  55.714  1.00  0.00     0.031 A 
ATOM     13  C   UNL     1      58.189  31.221  56.189  1.00  0.00     0.132 A 
ATOM     14  C   UNL     1      59.714  31.681  54.346  1.00  0.00    -0.039 A 
ATOM     15  C   UNL     1      57.216  30.723  55.276  1.00  0.00     0.039 A 
ATOM     16  C   UNL     1      58.814  31.075  53.469  1.00  0.00     0.013 A 
ATOM     17  C   UNL     1      61.036  32.183  53.817  1.00  0.00     0.045 C 
ATOM     18  C   UNL     1      57.550  30.616  53.890  1.00  0.00    -0.006 A 
ATOM     19  C   UNL     1      55.936  30.276  55.711  1.00  0.00     0.072 A 
ATOM     20  C   UNL     1      56.624  30.022  52.974  1.00  0.00     0.008 A 
ATOM     21  C   UNL     1      55.132  29.525  54.845  1.00  0.00     0.169 A 
ATOM     22  C   UNL     1      55.494  29.350  53.505  1.00  0.00     0.162 A 
BRANCH  13  23
ATOM     23  O   UNL     1      57.967  31.139  57.569  1.00  0.00    -0.507 OA
ATOM     24  H   UNL     1      57.126  31.470  58.025  1.00  0.00     0.293 HD
ENDBRANCH  13  23
BRANCH  19  25
ATOM     25  C   UNL     1      55.363  30.615  57.032  1.00  0.00     0.264 C 
ATOM     26  O   UNL     1      55.298  29.751  57.947  1.00  0.00    -0.298 OA
ENDBRANCH  19  25
BRANCH  20  27
ATOM     27  C   UNL     1      56.755  30.123  51.442  1.00  0.00     0.017 C 
ATOM     28  C   UNL     1      55.553  30.828  50.798  1.00  0.00     0.012 C 
ATOM     29  C   UNL     1      57.115  28.795  50.742  1.00  0.00     0.012 C 
ENDBRANCH  20  27
BRANCH  21  30
ATOM     30  O   UNL     1      53.943  28.967  55.326  1.00  0.00    -0.504 OA
ATOM     31  H   UNL     1      53.846  28.612  56.270  1.00  0.00     0.293 HD
ENDBRANCH  21  30
BRANCH  22  32
ATOM     32  O   UNL     1      54.698  28.503  52.726  1.00  0.00    -0.504 OA
ATOM     33  H   UNL     1      53.873  28.805  52.226  1.00  0.00     0.293 HD
ENDBRANCH  22  32
ENDBRANCH  11  12
BRANCH  10  34
ATOM     34  O   UNL     1      61.296  30.124  57.095  1.00  0.00    -0.507 OA
ATOM     35  H   UNL     1      60.487  29.555  57.308  1.00  0.00     0.293 HD
ENDBRANCH  10  34
BRANCH   9  36
ATOM     36  C   UNL     1      63.294  35.570  59.589  1.00  0.00     0.017 C 
ATOM     37  C   UNL     1      62.606  35.990  60.892  1.00  0.00     0.012 C 
ATOM     38  C   UNL     1      64.730  36.121  59.511  1.00  0.00     0.012 C 
ENDBRANCH   9  36
BRANCH   6  39
ATOM     39  C   UNL     1      63.674  29.916  58.290  1.00  0.00     0.264 C 
ATOM     40  O   UNL     1      63.389  28.907  58.989  1.00  0.00    -0.298 OA
ENDBRANCH   6  39
BRANCH   8  41
ATOM     41  O   UNL     1      64.673  33.689  61.270  1.00  0.00    -0.504 OA
ATOM     42  H   UNL     1      65.090  34.608  61.320  1.00  0.00     0.293 HD
ENDBRANCH   8  41
BRANCH   7  43
ATOM     43  O   UNL     1      65.127  31.026  60.381  1.00  0.00    -0.504 OA
ATOM     44  H   UNL     1      66.107  31.267  60.444  1.00  0.00     0.293 HD
ENDBRANCH   7  43
TORSDOF 11
ENDMDL
