MODEL 1
REMARK VINA RESULT:    -4.707      0.000      0.000
REMARK INTER + INTRA:          -7.028
REMARK INTER:                  -6.358
REMARK INTRA:                  -0.670
REMARK UNBOUND:                -0.670
REMARK SMILES CCCCCCCC(=O)[O-]
REMARK SMILES IDX 5 1 6 2 7 3 8 4 9 5 10 6 4 7 3 8 2 9 1 10
REMARK H PARENT
REMARK Flexibility Score: inf
ROOT
ATOM      1  C   UNL     1      94.021  -3.859   9.968  1.00  0.00     0.000 C 
ENDROOT
BRANCH   1   2
ATOM      2  C   UNL     1      94.014  -3.839   8.428  1.00  0.00     0.006 C 
BRANCH   2   3
ATOM      3  C   UNL     1      94.884  -2.710   7.860  1.00  0.00     0.053 C 
BRANCH   3   4
ATOM      4  C   UNL     1      96.198  -3.219   7.351  1.00  0.00     0.041 C 
ATOM      5  O   UNL     1      97.036  -2.424   6.852  1.00  0.00    -0.550 OA
ATOM      6  O   UNL     1      96.484  -4.578   7.400  1.00  0.00    -0.550 OA
ENDBRANCH   3   4
ENDBRANCH   2   3
ENDBRANCH   1   2
BRANCH   1   7
ATOM      7  C   UNL     1      94.920  -4.966  10.542  1.00  0.00     0.000 C 
BRANCH   7   8
ATOM      8  C   UNL     1      96.303  -4.443  10.967  1.00  0.00    -0.000 C 
BRANCH   8   9
ATOM      9  C   UNL     1      96.274  -2.958  11.364  1.00  0.00    -0.003 C 
ATOM     10  C   UNL     1      97.322  -2.127  10.624  1.00  0.00     0.004 C 
ENDBRANCH   8   9
ENDBRANCH   7   8
ENDBRANCH   1   7
TORSDOF 6
ENDMDL
MODEL 2
REMARK VINA RESULT:    -4.618     14.054     15.679
REMARK INTER + INTRA:          -6.907
REMARK INTER:                  -6.256
REMARK INTRA:                  -0.651
REMARK UNBOUND:                -0.670
REMARK SMILES CCCCCCCC(=O)[O-]
REMARK SMILES IDX 5 1 6 2 7 3 8 4 9 5 10 6 4 7 3 8 2 9 1 10
REMARK H PARENT
REMARK Flexibility Score: inf
ROOT
ATOM      1  C   UNL     1      82.893  -3.720   2.663  1.00  0.00     0.000 C 
ENDROOT
BRANCH   1   2
ATOM      2  C   UNL     1      83.801  -2.499   2.898  1.00  0.00     0.006 C 
BRANCH   2   3
ATOM      3  C   UNL     1      84.195  -1.810   1.585  1.00  0.00     0.053 C 
BRANCH   3   4
ATOM      4  C   UNL     1      83.341  -0.611   1.304  1.00  0.00     0.041 C 
ATOM      5  O   UNL     1      83.452   0.004   0.212  1.00  0.00    -0.550 OA
ATOM      6  O   UNL     1      82.444  -0.156   2.262  1.00  0.00    -0.550 OA
ENDBRANCH   3   4
ENDBRANCH   2   3
ENDBRANCH   1   2
BRANCH   1   7
ATOM      7  C   UNL     1      81.404  -3.401   2.872  1.00  0.00     0.000 C 
BRANCH   7   8
ATOM      8  C   UNL     1      80.652  -3.190   1.546  1.00  0.00    -0.000 C 
BRANCH   8   9
ATOM      9  C   UNL     1      81.324  -3.914   0.368  1.00  0.00    -0.003 C 
ATOM     10  C   UNL     1      81.590  -2.989  -0.821  1.00  0.00     0.004 C 
ENDBRANCH   8   9
ENDBRANCH   7   8
ENDBRANCH   1   7
TORSDOF 6
ENDMDL
MODEL 3
REMARK VINA RESULT:    -4.538      0.547      1.325
REMARK INTER + INTRA:          -6.800
REMARK INTER:                  -6.248
REMARK INTRA:                  -0.552
REMARK UNBOUND:                -0.670
REMARK SMILES CCCCCCCC(=O)[O-]
REMARK SMILES IDX 5 1 6 2 7 3 8 4 9 5 10 6 4 7 3 8 2 9 1 10
REMARK H PARENT
REMARK Flexibility Score: inf
ROOT
ATOM      1  C   UNL     1      93.391  -4.293   9.339  1.00  0.00     0.000 C 
ENDROOT
BRANCH   1   2
ATOM      2  C   UNL     1      93.673  -3.706   7.944  1.00  0.00     0.006 C 
BRANCH   2   3
ATOM      3  C   UNL     1      94.783  -2.646   7.976  1.00  0.00     0.053 C 
BRANCH   3   4
ATOM      4  C   UNL     1      96.058  -3.154   7.374  1.00  0.00     0.041 C 
ATOM      5  O   UNL     1      96.338  -4.379   7.425  1.00  0.00    -0.550 OA
ATOM      6  O   UNL     1      96.951  -2.267   6.785  1.00  0.00    -0.550 OA
ENDBRANCH   3   4
ENDBRANCH   2   3
ENDBRANCH   1   2
BRANCH   1   7
ATOM      7  C   UNL     1      94.335  -3.737  10.418  1.00  0.00     0.000 C 
BRANCH   7   8
ATOM      8  C   UNL     1      95.362  -4.778  10.897  1.00  0.00    -0.000 C 
BRANCH   8   9
ATOM      9  C   UNL     1      96.792  -4.216  10.944  1.00  0.00    -0.003 C 
ATOM     10  C   UNL     1      96.826  -2.687  10.979  1.00  0.00     0.004 C 
ENDBRANCH   8   9
ENDBRANCH   7   8
ENDBRANCH   1   7
TORSDOF 6
ENDMDL
MODEL 4
REMARK VINA RESULT:    -4.503      0.956      2.703
REMARK INTER + INTRA:          -6.752
REMARK INTER:                  -6.104
REMARK INTRA:                  -0.648
REMARK UNBOUND:                -0.670
REMARK SMILES CCCCCCCC(=O)[O-]
REMARK SMILES IDX 5 1 6 2 7 3 8 4 9 5 10 6 4 7 3 8 2 9 1 10
REMARK H PARENT
REMARK Flexibility Score: inf
ROOT
ATOM      1  C   UNL     1      96.745  -4.027  10.835  1.00  0.00     0.000 C 
ENDROOT
BRANCH   1   2
ATOM      2  C   UNL     1      96.761  -2.734  10.000  1.00  0.00     0.006 C 
BRANCH   2   3
ATOM      3  C   UNL     1      97.611  -2.876   8.730  1.00  0.00     0.053 C 
BRANCH   3   4
ATOM      4  C   UNL     1      96.782  -3.260   7.542  1.00  0.00     0.041 C 
ATOM      5  O   UNL     1      96.363  -2.376   6.750  1.00  0.00    -0.550 OA
ATOM      6  O   UNL     1      96.445  -4.591   7.329  1.00  0.00    -0.550 OA
ENDBRANCH   3   4
ENDBRANCH   2   3
ENDBRANCH   1   2
BRANCH   1   7
ATOM      7  C   UNL     1      95.364  -4.702  10.856  1.00  0.00     0.000 C 
BRANCH   7   8
ATOM      8  C   UNL     1      94.236  -3.753  10.415  1.00  0.00    -0.000 C 
BRANCH   8   9
ATOM      9  C   UNL     1      93.424  -4.313   9.235  1.00  0.00    -0.003 C 
ATOM     10  C   UNL     1      93.182  -3.275   8.138  1.00  0.00     0.004 C 
ENDBRANCH   8   9
ENDBRANCH   7   8
ENDBRANCH   1   7
TORSDOF 6
ENDMDL
MODEL 5
REMARK VINA RESULT:    -4.408     14.199     15.533
REMARK INTER + INTRA:          -6.625
REMARK INTER:                  -6.279
REMARK INTRA:                  -0.346
REMARK UNBOUND:                -0.670
REMARK SMILES CCCCCCCC(=O)[O-]
REMARK SMILES IDX 5 1 6 2 7 3 8 4 9 5 10 6 4 7 3 8 2 9 1 10
REMARK H PARENT
REMARK Flexibility Score: inf
ROOT
ATOM      1  C   UNL     1      90.350  -8.677  -3.433  1.00  0.00     0.000 C 
ENDROOT
BRANCH   1   2
ATOM      2  C   UNL     1      89.474  -8.679  -4.698  1.00  0.00     0.006 C 
BRANCH   2   3
ATOM      3  C   UNL     1      89.789  -7.494  -5.622  1.00  0.00     0.053 C 
BRANCH   3   4
ATOM      4  C   UNL     1      88.586  -6.632  -5.855  1.00  0.00     0.041 C 
ATOM      5  O   UNL     1      87.920  -6.747  -6.917  1.00  0.00    -0.550 OA
ATOM      6  O   UNL     1      88.219  -5.679  -4.913  1.00  0.00    -0.550 OA
ENDBRANCH   3   4
ENDBRANCH   2   3
ENDBRANCH   1   2
BRANCH   1   7
ATOM      7  C   UNL     1      91.746  -9.273  -3.678  1.00  0.00     0.000 C 
BRANCH   7   8
ATOM      8  C   UNL     1      92.814  -8.680  -2.742  1.00  0.00    -0.000 C 
BRANCH   8   9
ATOM      9  C   UNL     1      94.021  -8.117  -3.509  1.00  0.00    -0.003 C 
ATOM     10  C   UNL     1      93.753  -7.963  -5.006  1.00  0.00     0.004 C 
ENDBRANCH   8   9
ENDBRANCH   7   8
ENDBRANCH   1   7
TORSDOF 6
ENDMDL
MODEL 6
REMARK VINA RESULT:    -4.388     13.937     15.351
REMARK INTER + INTRA:          -6.597
REMARK INTER:                  -5.960
REMARK INTRA:                  -0.637
REMARK UNBOUND:                -0.670
REMARK SMILES CCCCCCCC(=O)[O-]
REMARK SMILES IDX 5 1 6 2 7 3 8 4 9 5 10 6 4 7 3 8 2 9 1 10
REMARK H PARENT
REMARK Flexibility Score: inf
ROOT
ATOM      1  C   UNL     1      80.639  -2.702   1.087  1.00  0.00     0.000 C 
ENDROOT
BRANCH   1   2
ATOM      2  C   UNL     1      81.765  -2.431   0.072  1.00  0.00     0.006 C 
BRANCH   2   3
ATOM      3  C   UNL     1      82.010  -0.930  -0.133  1.00  0.00     0.053 C 
BRANCH   3   4
ATOM      4  C   UNL     1      82.989  -0.383   0.861  1.00  0.00     0.041 C 
ATOM      5  O   UNL     1      84.209  -0.292   0.564  1.00  0.00    -0.550 OA
ATOM      6  O   UNL     1      82.558  -0.002   2.125  1.00  0.00    -0.550 OA
ENDBRANCH   3   4
ENDBRANCH   2   3
ENDBRANCH   1   2
BRANCH   1   7
ATOM      7  C   UNL     1      81.136  -3.438   2.341  1.00  0.00     0.000 C 
BRANCH   7   8
ATOM      8  C   UNL     1      82.615  -3.852   2.237  1.00  0.00    -0.000 C 
BRANCH   8   9
ATOM      9  C   UNL     1      83.475  -3.252   3.361  1.00  0.00    -0.003 C 
ATOM     10  C   UNL     1      84.876  -2.862   2.890  1.00  0.00     0.004 C 
ENDBRANCH   8   9
ENDBRANCH   7   8
ENDBRANCH   1   7
TORSDOF 6
ENDMDL
MODEL 7
REMARK VINA RESULT:    -4.352      1.958      3.842
REMARK INTER + INTRA:          -6.549
REMARK INTER:                  -6.309
REMARK INTRA:                  -0.240
REMARK UNBOUND:                -0.670
REMARK SMILES CCCCCCCC(=O)[O-]
REMARK SMILES IDX 5 1 6 2 7 3 8 4 9 5 10 6 4 7 3 8 2 9 1 10
REMARK H PARENT
REMARK Flexibility Score: inf
ROOT
ATOM      1  C   UNL     1      94.180  -3.811  10.262  1.00  0.00     0.000 C 
ENDROOT
BRANCH   1   2
ATOM      2  C   UNL     1      95.177  -4.948  10.550  1.00  0.00     0.006 C 
BRANCH   2   3
ATOM      3  C   UNL     1      96.541  -4.418  11.012  1.00  0.00     0.053 C 
BRANCH   3   4
ATOM      4  C   UNL     1      96.993  -3.248  10.192  1.00  0.00     0.041 C 
ATOM      5  O   UNL     1      97.087  -2.107  10.715  1.00  0.00    -0.550 OA
ATOM      6  O   UNL     1      97.280  -3.412   8.843  1.00  0.00    -0.550 OA
ENDBRANCH   3   4
ENDBRANCH   2   3
ENDBRANCH   1   2
BRANCH   1   7
ATOM      7  C   UNL     1      93.410  -4.016   8.947  1.00  0.00     0.000 C 
BRANCH   7   8
ATOM      8  C   UNL     1      93.702  -2.915   7.913  1.00  0.00    -0.000 C 
BRANCH   8   9
ATOM      9  C   UNL     1      92.433  -2.435   7.191  1.00  0.00    -0.003 C 
ATOM     10  C   UNL     1      92.642  -1.121   6.437  1.00  0.00     0.004 C 
ENDBRANCH   8   9
ENDBRANCH   7   8
ENDBRANCH   1   7
TORSDOF 6
ENDMDL
MODEL 8
REMARK VINA RESULT:    -4.351     14.322     15.642
REMARK INTER + INTRA:          -6.547
REMARK INTER:                  -6.255
REMARK INTRA:                  -0.292
REMARK UNBOUND:                -0.670
REMARK SMILES CCCCCCCC(=O)[O-]
REMARK SMILES IDX 5 1 6 2 7 3 8 4 9 5 10 6 4 7 3 8 2 9 1 10
REMARK H PARENT
REMARK Flexibility Score: inf
ROOT
ATOM      1  C   UNL     1      90.593  -8.547  -5.527  1.00  0.00     0.000 C 
ENDROOT
BRANCH   1   2
ATOM      2  C   UNL     1      90.205  -7.136  -6.004  1.00  0.00     0.006 C 
BRANCH   2   3
ATOM      3  C   UNL     1      88.724  -6.825  -5.749  1.00  0.00     0.053 C 
BRANCH   3   4
ATOM      4  C   UNL     1      88.476  -5.353  -5.622  1.00  0.00     0.041 C 
ATOM      5  O   UNL     1      88.091  -4.868  -4.526  1.00  0.00    -0.550 OA
ATOM      6  O   UNL     1      88.640  -4.522  -6.723  1.00  0.00    -0.550 OA
ENDBRANCH   3   4
ENDBRANCH   2   3
ENDBRANCH   1   2
BRANCH   1   7
ATOM      7  C   UNL     1      89.954  -8.913  -4.178  1.00  0.00     0.000 C 
BRANCH   7   8
ATOM      8  C   UNL     1      90.910  -8.694  -2.992  1.00  0.00    -0.000 C 
BRANCH   8   9
ATOM      9  C   UNL     1      92.376  -8.977  -3.358  1.00  0.00    -0.003 C 
ATOM     10  C   UNL     1      93.348  -8.610  -2.236  1.00  0.00     0.004 C 
ENDBRANCH   8   9
ENDBRANCH   7   8
ENDBRANCH   1   7
TORSDOF 6
ENDMDL
MODEL 9
REMARK VINA RESULT:    -4.301      2.498      2.658
REMARK INTER + INTRA:          -6.480
REMARK INTER:                  -6.127
REMARK INTRA:                  -0.353
REMARK UNBOUND:                -0.670
REMARK SMILES CCCCCCCC(=O)[O-]
REMARK SMILES IDX 5 1 6 2 7 3 8 4 9 5 10 6 4 7 3 8 2 9 1 10
REMARK H PARENT
REMARK Flexibility Score: inf
ROOT
ATOM      1  C   UNL     1      93.737  -3.710   9.832  1.00  0.00     0.000 C 
ENDROOT
BRANCH   1   2
ATOM      2  C   UNL     1      93.436  -3.802   8.325  1.00  0.00     0.006 C 
BRANCH   2   3
ATOM      3  C   UNL     1      93.740  -2.489   7.592  1.00  0.00     0.053 C 
BRANCH   3   4
ATOM      4  C   UNL     1      92.531  -1.944   6.895  1.00  0.00     0.041 C 
ATOM      5  O   UNL     1      92.539  -0.773   6.435  1.00  0.00    -0.550 OA
ATOM      6  O   UNL     1      91.384  -2.720   6.783  1.00  0.00    -0.550 OA
ENDBRANCH   3   4
ENDBRANCH   2   3
ENDBRANCH   1   2
BRANCH   1   7
ATOM      7  C   UNL     1      94.538  -4.914  10.351  1.00  0.00     0.000 C 
BRANCH   7   8
ATOM      8  C   UNL     1      95.943  -4.522  10.842  1.00  0.00    -0.000 C 
BRANCH   8   9
ATOM      9  C   UNL     1      96.014  -3.063  11.320  1.00  0.00    -0.003 C 
ATOM     10  C   UNL     1      97.084  -2.252  10.589  1.00  0.00     0.004 C 
ENDBRANCH   8   9
ENDBRANCH   7   8
ENDBRANCH   1   7
TORSDOF 6
ENDMDL
