MODEL 1
REMARK VINA RESULT:    -3.874      0.000      0.000
REMARK INTER + INTRA:          -4.315
REMARK INTER:                  -4.101
REMARK INTRA:                  -0.214
REMARK UNBOUND:                -0.214
REMARK SMILES C=C(C)[C@@H]1CC[C@@H](C)[C@@H](O)C1
REMARK SMILES IDX 8 1 7 2 6 3 5 4 4 5 11 6 9 7 10 8 2 10 1 11 3 12
REMARK H PARENT 10 9
REMARK Flexibility Score: inf
ROOT
ATOM      1  C   UNL     1       7.275   0.960   1.114  1.00  0.00     0.010 C 
ATOM      2  C   UNL     1       7.192   2.419   0.731  1.00  0.00     0.015 C 
ATOM      3  C   UNL     1       5.723   2.449  -0.011  1.00  0.00     0.006 C 
ATOM      4  C   UNL     1       5.525   3.737  -0.952  1.00  0.00     0.008 C 
ATOM      5  C   UNL     1       6.592   3.298  -2.089  1.00  0.00     0.017 C 
ATOM      6  C   UNL     1       8.181   3.347  -1.587  1.00  0.00     0.040 C 
ATOM      7  C   UNL     1       7.691   2.886  -0.437  1.00  0.00     0.117 C 
ENDROOT
BRANCH   7   8
ATOM      8  O   UNL     1       9.215   2.326   0.019  1.00  0.00    -0.393 OA
ATOM      9  H   UNL     1       8.896   1.422   0.147  1.00  0.00     0.210 HD
ENDBRANCH   7   8
BRANCH   5  10
ATOM     10  C   UNL     1       6.440   4.244  -3.175  1.00  0.00    -0.077 C 
ATOM     11  C   UNL     1       7.145   4.206  -4.304  1.00  0.00     0.008 C 
ATOM     12  C   UNL     1       5.441   5.342  -3.055  1.00  0.00     0.039 C 
ENDBRANCH   5  10
TORSDOF 2
ENDMDL
MODEL 2
REMARK VINA RESULT:    -3.718      8.858     10.149
REMARK INTER + INTRA:          -4.150
REMARK INTER:                  -3.952
REMARK INTRA:                  -0.198
REMARK UNBOUND:                -0.214
REMARK SMILES C=C(C)[C@@H]1CC[C@@H](C)[C@@H](O)C1
REMARK SMILES IDX 8 1 7 2 6 3 5 4 4 5 11 6 9 7 10 8 2 10 1 11 3 12
REMARK H PARENT 10 9
REMARK Flexibility Score: inf
ROOT
ATOM      1  C   UNL     1      -3.481   3.583  -3.825  1.00  0.00     0.010 C 
ATOM      2  C   UNL     1      -3.558   4.090  -2.404  1.00  0.00     0.015 C 
ATOM      3  C   UNL     1      -3.915   5.675  -2.672  1.00  0.00     0.006 C 
ATOM      4  C   UNL     1      -3.605   6.607  -1.399  1.00  0.00     0.008 C 
ATOM      5  C   UNL     1      -1.992   6.491  -1.476  1.00  0.00     0.017 C 
ATOM      6  C   UNL     1      -1.398   4.984  -1.085  1.00  0.00     0.040 C 
ATOM      7  C   UNL     1      -2.469   4.540  -1.739  1.00  0.00     0.117 C 
ENDROOT
BRANCH   7   8
ATOM      8  O   UNL     1      -1.749   3.029  -1.949  1.00  0.00    -0.393 OA
ATOM      9  H   UNL     1      -2.461   2.717  -2.523  1.00  0.00     0.210 HD
ENDBRANCH   7   8
BRANCH   5  10
ATOM     10  C   UNL     1      -1.471   7.439  -0.512  1.00  0.00    -0.077 C 
ATOM     11  C   UNL     1      -1.118   7.122   0.732  1.00  0.00     0.008 C 
ATOM     12  C   UNL     1      -1.307   8.866  -0.903  1.00  0.00     0.039 C 
ENDBRANCH   5  10
TORSDOF 2
ENDMDL
MODEL 3
REMARK VINA RESULT:    -3.682      1.408      4.281
REMARK INTER + INTRA:          -4.111
REMARK INTER:                  -3.907
REMARK INTRA:                  -0.204
REMARK UNBOUND:                -0.214
REMARK SMILES C=C(C)[C@@H]1CC[C@@H](C)[C@@H](O)C1
REMARK SMILES IDX 8 1 7 2 6 3 5 4 4 5 11 6 9 7 10 8 2 10 1 11 3 12
REMARK H PARENT 10 9
REMARK Flexibility Score: inf
ROOT
ATOM      1  C   UNL     1       5.683   4.674  -2.300  1.00  0.00     0.010 C 
ATOM      2  C   UNL     1       6.230   3.298  -2.002  1.00  0.00     0.015 C 
ATOM      3  C   UNL     1       5.247   2.850  -0.759  1.00  0.00     0.006 C 
ATOM      4  C   UNL     1       5.851   1.638   0.108  1.00  0.00     0.008 C 
ATOM      5  C   UNL     1       7.064   2.477   0.776  1.00  0.00     0.017 C 
ATOM      6  C   UNL     1       8.266   2.906  -0.296  1.00  0.00     0.040 C 
ATOM      7  C   UNL     1       7.256   3.101  -1.142  1.00  0.00     0.117 C 
ENDROOT
BRANCH   7   8
ATOM      8  O   UNL     1       8.222   4.088  -2.111  1.00  0.00    -0.393 OA
ATOM      9  H   UNL     1       8.173   3.480  -2.861  1.00  0.00     0.210 HD
ENDBRANCH   7   8
BRANCH   5  10
ATOM     10  C   UNL     1       7.650   1.613   1.779  1.00  0.00    -0.077 C 
ATOM     11  C   UNL     1       8.081   0.375   1.542  1.00  0.00     0.008 C 
ATOM     12  C   UNL     1       7.796   2.107   3.176  1.00  0.00     0.039 C 
ENDBRANCH   5  10
TORSDOF 2
ENDMDL
MODEL 4
REMARK VINA RESULT:    -3.578     11.838     12.766
REMARK INTER + INTRA:          -4.001
REMARK INTER:                  -3.791
REMARK INTRA:                  -0.210
REMARK UNBOUND:                -0.214
REMARK SMILES C=C(C)[C@@H]1CC[C@@H](C)[C@@H](O)C1
REMARK SMILES IDX 8 1 7 2 6 3 5 4 4 5 11 6 9 7 10 8 2 10 1 11 3 12
REMARK H PARENT 10 9
REMARK Flexibility Score: inf
ROOT
ATOM      1  C   UNL     1      -2.395  -2.911  -5.054  1.00  0.00     0.010 C 
ATOM      2  C   UNL     1      -1.432  -3.743  -5.867  1.00  0.00     0.015 C 
ATOM      3  C   UNL     1      -2.235  -5.180  -5.902  1.00  0.00     0.006 C 
ATOM      4  C   UNL     1      -1.282  -6.418  -6.282  1.00  0.00     0.008 C 
ATOM      5  C   UNL     1      -0.424  -6.416  -4.909  1.00  0.00     0.017 C 
ATOM      6  C   UNL     1       0.589  -5.104  -4.740  1.00  0.00     0.040 C 
ATOM      7  C   UNL     1      -0.413  -4.428  -5.299  1.00  0.00     0.117 C 
ENDROOT
BRANCH   7   8
ATOM      8  O   UNL     1       0.192  -2.975  -4.693  1.00  0.00    -0.393 OA
ATOM      9  H   UNL     1      -0.641  -2.757  -4.253  1.00  0.00     0.210 HD
ENDBRANCH   7   8
BRANCH   5  10
ATOM     10  C   UNL     1       0.396  -7.610  -4.942  1.00  0.00    -0.077 C 
ATOM     11  C   UNL     1       1.473  -7.798  -4.183  1.00  0.00     0.008 C 
ATOM     12  C   UNL     1       0.041  -8.717  -5.873  1.00  0.00     0.039 C 
ENDBRANCH   5  10
TORSDOF 2
ENDMDL
MODEL 5
REMARK VINA RESULT:    -3.573     12.040     12.964
REMARK INTER + INTRA:          -3.996
REMARK INTER:                  -3.788
REMARK INTRA:                  -0.209
REMARK UNBOUND:                -0.214
REMARK SMILES C=C(C)[C@@H]1CC[C@@H](C)[C@@H](O)C1
REMARK SMILES IDX 8 1 7 2 6 3 5 4 4 5 11 6 9 7 10 8 2 10 1 11 3 12
REMARK H PARENT 10 9
REMARK Flexibility Score: inf
ROOT
ATOM      1  C   UNL     1      -2.595  -5.412  -7.674  1.00  0.00     0.010 C 
ATOM      2  C   UNL     1      -2.265  -5.328  -6.202  1.00  0.00     0.015 C 
ATOM      3  C   UNL     1      -0.978  -4.302  -6.244  1.00  0.00     0.006 C 
ATOM      4  C   UNL     1      -0.088  -4.364  -4.906  1.00  0.00     0.008 C 
ATOM      5  C   UNL     1       0.513  -5.846  -5.155  1.00  0.00     0.017 C 
ATOM      6  C   UNL     1      -0.609  -7.070  -5.005  1.00  0.00     0.040 C 
ATOM      7  C   UNL     1      -1.431  -6.206  -5.599  1.00  0.00     0.117 C 
ENDROOT
BRANCH   7   8
ATOM      8  O   UNL     1      -2.462  -7.460  -6.057  1.00  0.00    -0.393 OA
ATOM      9  H   UNL     1      -3.233  -7.035  -5.657  1.00  0.00     0.210 HD
ENDBRANCH   7   8
BRANCH   5  10
ATOM     10  C   UNL     1       1.528  -6.048  -4.141  1.00  0.00    -0.077 C 
ATOM     11  C   UNL     1       1.920  -7.243  -3.703  1.00  0.00     0.008 C 
ATOM     12  C   UNL     1       2.196  -4.867  -3.529  1.00  0.00     0.039 C 
ENDBRANCH   5  10
TORSDOF 2
ENDMDL
MODEL 6
REMARK VINA RESULT:    -3.568      3.138      5.487
REMARK INTER + INTRA:          -3.991
REMARK INTER:                  -3.778
REMARK INTRA:                  -0.213
REMARK UNBOUND:                -0.214
REMARK SMILES C=C(C)[C@@H]1CC[C@@H](C)[C@@H](O)C1
REMARK SMILES IDX 8 1 7 2 6 3 5 4 4 5 11 6 9 7 10 8 2 10 1 11 3 12
REMARK H PARENT 10 9
REMARK Flexibility Score: inf
ROOT
ATOM      1  C   UNL     1       2.561   5.656  -5.655  1.00  0.00     0.010 C 
ATOM      2  C   UNL     1       4.004   5.265  -5.444  1.00  0.00     0.015 C 
ATOM      3  C   UNL     1       3.817   3.734  -4.867  1.00  0.00     0.006 C 
ATOM      4  C   UNL     1       5.122   3.194  -4.099  1.00  0.00     0.008 C 
ATOM      5  C   UNL     1       4.998   4.174  -2.817  1.00  0.00     0.017 C 
ATOM      6  C   UNL     1       5.305   5.778  -3.152  1.00  0.00     0.040 C 
ATOM      7  C   UNL     1       4.660   5.524  -4.289  1.00  0.00     0.117 C 
ENDROOT
BRANCH   7   8
ATOM      8  O   UNL     1       4.364   7.168  -4.521  1.00  0.00    -0.393 OA
ATOM      9  H   UNL     1       5.284   7.349  -4.755  1.00  0.00     0.210 HD
ENDBRANCH   7   8
BRANCH   5  10
ATOM     10  C   UNL     1       5.989   3.722  -1.862  1.00  0.00    -0.077 C 
ATOM     11  C   UNL     1       5.738   3.495  -0.574  1.00  0.00     0.008 C 
ATOM     12  C   UNL     1       7.387   3.486  -2.315  1.00  0.00     0.039 C 
ENDBRANCH   5  10
TORSDOF 2
ENDMDL
MODEL 7
REMARK VINA RESULT:    -3.537      1.978      2.279
REMARK INTER + INTRA:          -3.958
REMARK INTER:                  -3.754
REMARK INTRA:                  -0.204
REMARK UNBOUND:                -0.214
REMARK SMILES C=C(C)[C@@H]1CC[C@@H](C)[C@@H](O)C1
REMARK SMILES IDX 8 1 7 2 6 3 5 4 4 5 11 6 9 7 10 8 2 10 1 11 3 12
REMARK H PARENT 10 9
REMARK Flexibility Score: inf
ROOT
ATOM      1  C   UNL     1       7.393   2.082   1.161  1.00  0.00     0.010 C 
ATOM      2  C   UNL     1       6.126   1.987   0.344  1.00  0.00     0.015 C 
ATOM      3  C   UNL     1       6.618   0.964  -0.849  1.00  0.00     0.006 C 
ATOM      4  C   UNL     1       5.670   1.017  -2.147  1.00  0.00     0.008 C 
ATOM      5  C   UNL     1       6.098   2.503  -2.625  1.00  0.00     0.017 C 
ATOM      6  C   UNL     1       5.561   3.723  -1.625  1.00  0.00     0.040 C 
ATOM      7  C   UNL     1       5.842   2.862  -0.648  1.00  0.00     0.117 C 
ENDROOT
BRANCH   7   8
ATOM      8  O   UNL     1       5.904   4.117   0.477  1.00  0.00    -0.393 OA
ATOM      9  H   UNL     1       6.272   4.739  -0.166  1.00  0.00     0.210 HD
ENDBRANCH   7   8
BRANCH   5  10
ATOM     10  C   UNL     1       5.497   2.699  -3.928  1.00  0.00    -0.077 C 
ATOM     11  C   UNL     1       5.701   1.900  -4.974  1.00  0.00     0.008 C 
ATOM     12  C   UNL     1       4.587   3.857  -4.148  1.00  0.00     0.039 C 
ENDBRANCH   5  10
TORSDOF 2
ENDMDL
MODEL 8
REMARK VINA RESULT:    -3.510     12.770     13.355
REMARK INTER + INTRA:          -3.930
REMARK INTER:                  -3.727
REMARK INTRA:                  -0.203
REMARK UNBOUND:                -0.214
REMARK SMILES C=C(C)[C@@H]1CC[C@@H](C)[C@@H](O)C1
REMARK SMILES IDX 8 1 7 2 6 3 5 4 4 5 11 6 9 7 10 8 2 10 1 11 3 12
REMARK H PARENT 10 9
REMARK Flexibility Score: inf
ROOT
ATOM      1  C   UNL     1       0.794  -8.673  -4.175  1.00  0.00     0.010 C 
ATOM      2  C   UNL     1       0.577  -7.758  -5.356  1.00  0.00     0.015 C 
ATOM      3  C   UNL     1       0.665  -6.290  -4.615  1.00  0.00     0.006 C 
ATOM      4  C   UNL     1       0.014  -5.109  -5.490  1.00  0.00     0.008 C 
ATOM      5  C   UNL     1      -1.523  -5.596  -5.339  1.00  0.00     0.017 C 
ATOM      6  C   UNL     1      -1.874  -7.007  -6.154  1.00  0.00     0.040 C 
ATOM      7  C   UNL     1      -0.658  -7.380  -5.758  1.00  0.00     0.117 C 
ENDROOT
BRANCH   7   8
ATOM      8  O   UNL     1      -1.048  -9.003  -5.998  1.00  0.00    -0.393 OA
ATOM      9  H   UNL     1      -1.648  -9.020  -5.240  1.00  0.00     0.210 HD
ENDBRANCH   7   8
BRANCH   5  10
ATOM     10  C   UNL     1      -2.340  -4.541  -5.902  1.00  0.00    -0.077 C 
ATOM     11  C   UNL     1      -2.785  -3.491  -5.215  1.00  0.00     0.008 C 
ATOM     12  C   UNL     1      -2.727  -4.604  -7.339  1.00  0.00     0.039 C 
ENDBRANCH   5  10
TORSDOF 2
ENDMDL
MODEL 9
REMARK VINA RESULT:    -3.328     11.452     11.963
REMARK INTER + INTRA:          -3.736
REMARK INTER:                  -3.533
REMARK INTRA:                  -0.204
REMARK UNBOUND:                -0.214
REMARK SMILES C=C(C)[C@@H]1CC[C@@H](C)[C@@H](O)C1
REMARK SMILES IDX 8 1 7 2 6 3 5 4 4 5 11 6 9 7 10 8 2 10 1 11 3 12
REMARK H PARENT 10 9
REMARK Flexibility Score: inf
ROOT
ATOM      1  C   UNL     1       2.077  -5.979  -5.142  1.00  0.00     0.010 C 
ATOM      2  C   UNL     1       0.753  -5.591  -4.525  1.00  0.00     0.015 C 
ATOM      3  C   UNL     1      -0.286  -6.376  -5.533  1.00  0.00     0.006 C 
ATOM      4  C   UNL     1      -1.786  -5.802  -5.452  1.00  0.00     0.008 C 
ATOM      5  C   UNL     1      -1.474  -4.376  -6.152  1.00  0.00     0.017 C 
ATOM      6  C   UNL     1      -0.548  -3.348  -5.222  1.00  0.00     0.040 C 
ATOM      7  C   UNL     1       0.098  -4.461  -4.876  1.00  0.00     0.117 C 
ENDROOT
BRANCH   7   8
ATOM      8  O   UNL     1       1.437  -3.562  -4.382  1.00  0.00    -0.393 OA
ATOM      9  H   UNL     1       1.324  -3.815  -3.456  1.00  0.00     0.210 HD
ENDBRANCH   7   8
BRANCH   5  10
ATOM     10  C   UNL     1      -2.758  -3.742  -6.371  1.00  0.00    -0.077 C 
ATOM     11  C   UNL     1      -3.417  -3.770  -7.527  1.00  0.00     0.008 C 
ATOM     12  C   UNL     1      -3.410  -3.004  -5.254  1.00  0.00     0.039 C 
ENDBRANCH   5  10
TORSDOF 2
ENDMDL
