MODEL 1
REMARK VINA RESULT:    -5.319      0.000      0.000
REMARK INTER + INTRA:         -12.200
REMARK INTER:                  -9.983
REMARK INTRA:                  -2.217
REMARK UNBOUND:                -2.217
REMARK SMILES CCCCCCCCC=CCCCCCCCC(=O)[O-]
REMARK SMILES IDX 10 1 9 2 11 3 12 4 13 5 14 6 15 7 16 8 17 9 18 10 19 11
REMARK SMILES IDX 20 12 8 13 7 14 6 15 5 16 4 17 3 18 2 19 1 20
REMARK H PARENT
REMARK Flexibility Score: inf
ROOT
ATOM      1  C   UNL     1     -22.882 -48.871  48.923  1.00  0.00    -0.031 C 
ATOM      2  C   UNL     1     -22.678 -48.766  47.601  1.00  0.00    -0.031 C 
ENDROOT
BRANCH   1   3
ATOM      3  C   UNL     1     -23.271 -47.681  49.756  1.00  0.00     0.027 C 
BRANCH   3   4
ATOM      4  C   UNL     1     -23.850 -46.559  48.886  1.00  0.00     0.004 C 
BRANCH   4   5
ATOM      5  C   UNL     1     -25.180 -46.051  49.461  1.00  0.00     0.000 C 
BRANCH   5   6
ATOM      6  C   UNL     1     -26.368 -46.975  49.134  1.00  0.00     0.000 C 
BRANCH   6   7
ATOM      7  C   UNL     1     -26.325 -47.621  47.737  1.00  0.00     0.000 C 
BRANCH   7   8
ATOM      8  C   UNL     1     -27.207 -46.889  46.711  1.00  0.00     0.006 C 
BRANCH   8   9
ATOM      9  C   UNL     1     -28.035 -47.861  45.861  1.00  0.00     0.053 C 
BRANCH   9  10
ATOM     10  C   UNL     1     -28.940 -48.705  46.704  1.00  0.00     0.041 C 
ATOM     11  O   UNL     1     -29.858 -48.171  47.380  1.00  0.00    -0.550 OA
ATOM     12  O   UNL     1     -28.785 -50.086  46.724  1.00  0.00    -0.550 OA
ENDBRANCH   9  10
ENDBRANCH   8   9
ENDBRANCH   7   8
ENDBRANCH   6   7
ENDBRANCH   5   6
ENDBRANCH   4   5
ENDBRANCH   3   4
ENDBRANCH   1   3
BRANCH   2  13
ATOM     13  C   UNL     1     -22.299 -49.958  46.764  1.00  0.00     0.027 C 
BRANCH  13  14
ATOM     14  C   UNL     1     -20.776 -50.162  46.684  1.00  0.00     0.004 C 
BRANCH  14  15
ATOM     15  C   UNL     1     -19.961 -48.854  46.634  1.00  0.00     0.000 C 
BRANCH  15  16
ATOM     16  C   UNL     1     -18.926 -48.684  47.765  1.00  0.00     0.000 C 
BRANCH  16  17
ATOM     17  C   UNL     1     -19.396 -47.835  48.960  1.00  0.00    -0.000 C 
BRANCH  17  18
ATOM     18  C   UNL     1     -19.105 -48.500  50.316  1.00  0.00    -0.000 C 
BRANCH  18  19
ATOM     19  C   UNL     1     -19.195 -50.033  50.251  1.00  0.00    -0.003 C 
ATOM     20  C   UNL     1     -20.474 -50.580  50.885  1.00  0.00     0.004 C 
ENDBRANCH  18  19
ENDBRANCH  17  18
ENDBRANCH  16  17
ENDBRANCH  15  16
ENDBRANCH  14  15
ENDBRANCH  13  14
ENDBRANCH   2  13
TORSDOF 15
ENDMDL
MODEL 2
REMARK VINA RESULT:    -5.212      1.536      2.196
REMARK INTER + INTRA:         -12.001
REMARK INTER:                  -9.404
REMARK INTRA:                  -2.597
REMARK UNBOUND:                -2.217
REMARK SMILES CCCCCCCCC=CCCCCCCCC(=O)[O-]
REMARK SMILES IDX 10 1 9 2 11 3 12 4 13 5 14 6 15 7 16 8 17 9 18 10 19 11
REMARK SMILES IDX 20 12 8 13 7 14 6 15 5 16 4 17 3 18 2 19 1 20
REMARK H PARENT
REMARK Flexibility Score: inf
ROOT
ATOM      1  C   UNL     1     -23.166 -47.159  46.040  1.00  0.00    -0.031 C 
ATOM      2  C   UNL     1     -23.151 -48.501  46.047  1.00  0.00    -0.031 C 
ENDROOT
BRANCH   1   3
ATOM      3  C   UNL     1     -24.383 -46.383  46.463  1.00  0.00     0.027 C 
BRANCH   3   4
ATOM      4  C   UNL     1     -24.032 -45.332  47.522  1.00  0.00     0.004 C 
BRANCH   4   5
ATOM      5  C   UNL     1     -24.534 -45.760  48.908  1.00  0.00     0.000 C 
BRANCH   5   6
ATOM      6  C   UNL     1     -25.237 -47.131  48.895  1.00  0.00     0.000 C 
BRANCH   6   7
ATOM      7  C   UNL     1     -26.770 -47.078  49.038  1.00  0.00     0.000 C 
BRANCH   7   8
ATOM      8  C   UNL     1     -27.497 -48.001  48.045  1.00  0.00     0.006 C 
BRANCH   8   9
ATOM      9  C   UNL     1     -26.572 -49.087  47.481  1.00  0.00     0.053 C 
BRANCH   9  10
ATOM     10  C   UNL     1     -27.300 -50.012  46.556  1.00  0.00     0.041 C 
ATOM     11  O   UNL     1     -26.673 -50.638  45.661  1.00  0.00    -0.550 OA
ATOM     12  O   UNL     1     -28.669 -50.202  46.698  1.00  0.00    -0.550 OA
ENDBRANCH   9  10
ENDBRANCH   8   9
ENDBRANCH   7   8
ENDBRANCH   6   7
ENDBRANCH   5   6
ENDBRANCH   4   5
ENDBRANCH   3   4
ENDBRANCH   1   3
BRANCH   2  13
ATOM     13  C   UNL     1     -21.931 -49.279  45.634  1.00  0.00     0.027 C 
BRANCH  13  14
ATOM     14  C   UNL     1     -20.626 -48.499  45.872  1.00  0.00     0.004 C 
BRANCH  14  15
ATOM     15  C   UNL     1     -19.763 -49.043  47.029  1.00  0.00     0.000 C 
BRANCH  15  16
ATOM     16  C   UNL     1     -19.518 -48.050  48.184  1.00  0.00     0.000 C 
BRANCH  16  17
ATOM     17  C   UNL     1     -20.720 -47.159  48.547  1.00  0.00    -0.000 C 
BRANCH  17  18
ATOM     18  C   UNL     1     -21.440 -47.620  49.826  1.00  0.00    -0.000 C 
BRANCH  18  19
ATOM     19  C   UNL     1     -22.222 -48.927  49.621  1.00  0.00    -0.003 C 
ATOM     20  C   UNL     1     -21.602 -50.112  50.360  1.00  0.00     0.004 C 
ENDBRANCH  18  19
ENDBRANCH  17  18
ENDBRANCH  16  17
ENDBRANCH  15  16
ENDBRANCH  14  15
ENDBRANCH  13  14
ENDBRANCH   2  13
TORSDOF 15
ENDMDL
MODEL 3
REMARK VINA RESULT:    -5.205      2.529      6.736
REMARK INTER + INTRA:         -11.987
REMARK INTER:                  -9.629
REMARK INTRA:                  -2.358
REMARK UNBOUND:                -2.217
REMARK SMILES CCCCCCCCC=CCCCCCCCC(=O)[O-]
REMARK SMILES IDX 10 1 9 2 11 3 12 4 13 5 14 6 15 7 16 8 17 9 18 10 19 11
REMARK SMILES IDX 20 12 8 13 7 14 6 15 5 16 4 17 3 18 2 19 1 20
REMARK H PARENT
REMARK Flexibility Score: inf
ROOT
ATOM      1  C   UNL     1     -21.206 -50.508  50.257  1.00  0.00    -0.031 C 
ATOM      2  C   UNL     1     -21.926 -49.376  50.236  1.00  0.00    -0.031 C 
ENDROOT
BRANCH   1   3
ATOM      3  C   UNL     1     -19.973 -50.641  51.107  1.00  0.00     0.027 C 
BRANCH   3   4
ATOM      4  C   UNL     1     -18.971 -49.517  50.812  1.00  0.00     0.004 C 
BRANCH   4   5
ATOM      5  C   UNL     1     -17.974 -49.943  49.726  1.00  0.00     0.000 C 
BRANCH   5   6
ATOM      6  C   UNL     1     -17.886 -48.937  48.563  1.00  0.00     0.000 C 
BRANCH   6   7
ATOM      7  C   UNL     1     -19.189 -48.171  48.265  1.00  0.00     0.000 C 
BRANCH   7   8
ATOM      8  C   UNL     1     -19.781 -48.511  46.887  1.00  0.00     0.006 C 
BRANCH   8   9
ATOM      9  C   UNL     1     -20.399 -49.915  46.852  1.00  0.00     0.053 C 
BRANCH   9  10
ATOM     10  C   UNL     1     -21.355 -50.074  45.711  1.00  0.00     0.041 C 
ATOM     11  O   UNL     1     -22.495 -50.574  45.903  1.00  0.00    -0.550 OA
ATOM     12  O   UNL     1     -20.997 -49.645  44.439  1.00  0.00    -0.550 OA
ENDBRANCH   9  10
ENDBRANCH   8   9
ENDBRANCH   7   8
ENDBRANCH   6   7
ENDBRANCH   5   6
ENDBRANCH   4   5
ENDBRANCH   3   4
ENDBRANCH   1   3
BRANCH   2  13
ATOM     13  C   UNL     1     -23.166 -49.244  49.394  1.00  0.00     0.027 C 
BRANCH  13  14
ATOM     14  C   UNL     1     -23.180 -47.950  48.562  1.00  0.00     0.004 C 
BRANCH  14  15
ATOM     15  C   UNL     1     -23.684 -46.709  49.325  1.00  0.00     0.000 C 
BRANCH  15  16
ATOM     16  C   UNL     1     -25.042 -46.154  48.849  1.00  0.00     0.000 C 
BRANCH  16  17
ATOM     17  C   UNL     1     -26.277 -46.900  49.385  1.00  0.00    -0.000 C 
BRANCH  17  18
ATOM     18  C   UNL     1     -27.148 -47.496  48.265  1.00  0.00    -0.000 C 
BRANCH  18  19
ATOM     19  C   UNL     1     -26.597 -48.831  47.740  1.00  0.00    -0.003 C 
ATOM     20  C   UNL     1     -26.097 -48.742  46.299  1.00  0.00     0.004 C 
ENDBRANCH  18  19
ENDBRANCH  17  18
ENDBRANCH  16  17
ENDBRANCH  15  16
ENDBRANCH  14  15
ENDBRANCH  13  14
ENDBRANCH   2  13
TORSDOF 15
ENDMDL
MODEL 4
REMARK VINA RESULT:    -5.148      1.123      2.992
REMARK INTER + INTRA:         -11.879
REMARK INTER:                  -9.478
REMARK INTRA:                  -2.401
REMARK UNBOUND:                -2.217
REMARK SMILES CCCCCCCCC=CCCCCCCCC(=O)[O-]
REMARK SMILES IDX 10 1 9 2 11 3 12 4 13 5 14 6 15 7 16 8 17 9 18 10 19 11
REMARK SMILES IDX 20 12 8 13 7 14 6 15 5 16 4 17 3 18 2 19 1 20
REMARK H PARENT
REMARK Flexibility Score: inf
ROOT
ATOM      1  C   UNL     1     -21.690 -50.152  50.185  1.00  0.00    -0.031 C 
ATOM      2  C   UNL     1     -20.514 -49.890  50.776  1.00  0.00    -0.031 C 
ENDROOT
BRANCH   1   3
ATOM      3  C   UNL     1     -22.752 -49.097  50.044  1.00  0.00     0.027 C 
BRANCH   3   4
ATOM      4  C   UNL     1     -22.132 -47.703  49.885  1.00  0.00     0.004 C 
BRANCH   4   5
ATOM      5  C   UNL     1     -22.797 -46.935  48.734  1.00  0.00     0.000 C 
BRANCH   5   6
ATOM      6  C   UNL     1     -24.201 -47.465  48.390  1.00  0.00     0.000 C 
BRANCH   6   7
ATOM      7  C   UNL     1     -25.358 -46.504  48.716  1.00  0.00     0.000 C 
BRANCH   7   8
ATOM      8  C   UNL     1     -26.690 -47.232  48.965  1.00  0.00     0.006 C 
BRANCH   8   9
ATOM      9  C   UNL     1     -27.486 -47.442  47.670  1.00  0.00     0.053 C 
BRANCH   9  10
ATOM     10  C   UNL     1     -27.677 -48.895  47.365  1.00  0.00     0.041 C 
ATOM     11  O   UNL     1     -26.706 -49.693  47.442  1.00  0.00    -0.550 OA
ATOM     12  O   UNL     1     -28.935 -49.374  47.020  1.00  0.00    -0.550 OA
ENDBRANCH   9  10
ENDBRANCH   8   9
ENDBRANCH   7   8
ENDBRANCH   6   7
ENDBRANCH   5   6
ENDBRANCH   4   5
ENDBRANCH   3   4
ENDBRANCH   1   3
BRANCH   2  13
ATOM     13  C   UNL     1     -19.446 -50.942  50.910  1.00  0.00     0.027 C 
BRANCH  13  14
ATOM     14  C   UNL     1     -18.181 -50.605  50.102  1.00  0.00     0.004 C 
BRANCH  14  15
ATOM     15  C   UNL     1     -17.944 -49.096  49.893  1.00  0.00     0.000 C 
BRANCH  15  16
ATOM     16  C   UNL     1     -17.945 -48.631  48.423  1.00  0.00     0.000 C 
BRANCH  16  17
ATOM     17  C   UNL     1     -19.262 -47.999  47.937  1.00  0.00    -0.000 C 
BRANCH  17  18
ATOM     18  C   UNL     1     -19.803 -48.657  46.656  1.00  0.00    -0.000 C 
BRANCH  18  19
ATOM     19  C   UNL     1     -20.516 -49.989  46.936  1.00  0.00    -0.003 C 
ATOM     20  C   UNL     1     -21.969 -49.996  46.460  1.00  0.00     0.004 C 
ENDBRANCH  18  19
ENDBRANCH  17  18
ENDBRANCH  16  17
ENDBRANCH  15  16
ENDBRANCH  14  15
ENDBRANCH  13  14
ENDBRANCH   2  13
TORSDOF 15
ENDMDL
MODEL 5
REMARK VINA RESULT:    -5.133      1.480      3.067
REMARK INTER + INTRA:         -11.851
REMARK INTER:                  -9.785
REMARK INTRA:                  -2.066
REMARK UNBOUND:                -2.217
REMARK SMILES CCCCCCCCC=CCCCCCCCC(=O)[O-]
REMARK SMILES IDX 10 1 9 2 11 3 12 4 13 5 14 6 15 7 16 8 17 9 18 10 19 11
REMARK SMILES IDX 20 12 8 13 7 14 6 15 5 16 4 17 3 18 2 19 1 20
REMARK H PARENT
REMARK Flexibility Score: inf
ROOT
ATOM      1  C   UNL     1     -22.129 -48.686  49.812  1.00  0.00    -0.031 C 
ATOM      2  C   UNL     1     -21.968 -49.952  50.226  1.00  0.00    -0.031 C 
ENDROOT
BRANCH   1   3
ATOM      3  C   UNL     1     -23.464 -48.174  49.348  1.00  0.00     0.027 C 
BRANCH   3   4
ATOM      4  C   UNL     1     -23.793 -46.819  49.989  1.00  0.00     0.004 C 
BRANCH   4   5
ATOM      5  C   UNL     1     -25.037 -46.194  49.341  1.00  0.00     0.000 C 
BRANCH   5   6
ATOM      6  C   UNL     1     -24.944 -46.125  47.805  1.00  0.00     0.000 C 
BRANCH   6   7
ATOM      7  C   UNL     1     -26.200 -46.606  47.055  1.00  0.00     0.000 C 
BRANCH   7   8
ATOM      8  C   UNL     1     -27.139 -47.447  47.936  1.00  0.00     0.006 C 
BRANCH   8   9
ATOM      9  C   UNL     1     -27.100 -48.936  47.566  1.00  0.00     0.053 C 
BRANCH   9  10
ATOM     10  C   UNL     1     -28.362 -49.374  46.890  1.00  0.00     0.041 C 
ATOM     11  O   UNL     1     -28.597 -50.599  46.716  1.00  0.00    -0.550 OA
ATOM     12  O   UNL     1     -29.293 -48.430  46.475  1.00  0.00    -0.550 OA
ENDBRANCH   9  10
ENDBRANCH   8   9
ENDBRANCH   7   8
ENDBRANCH   6   7
ENDBRANCH   5   6
ENDBRANCH   4   5
ENDBRANCH   3   4
ENDBRANCH   1   3
BRANCH   2  13
ATOM     13  C   UNL     1     -20.635 -50.464  50.700  1.00  0.00     0.027 C 
BRANCH  13  14
ATOM     14  C   UNL     1     -19.939 -51.354  49.656  1.00  0.00     0.004 C 
BRANCH  14  15
ATOM     15  C   UNL     1     -19.829 -50.721  48.254  1.00  0.00     0.000 C 
BRANCH  15  16
ATOM     16  C   UNL     1     -20.514 -51.514  47.122  1.00  0.00     0.000 C 
BRANCH  16  17
ATOM     17  C   UNL     1     -21.039 -50.663  45.952  1.00  0.00    -0.000 C 
BRANCH  17  18
ATOM     18  C   UNL     1     -20.587 -49.195  46.032  1.00  0.00    -0.000 C 
BRANCH  18  19
ATOM     19  C   UNL     1     -21.771 -48.215  46.030  1.00  0.00    -0.003 C 
ATOM     20  C   UNL     1     -23.104 -48.894  45.717  1.00  0.00     0.004 C 
ENDBRANCH  18  19
ENDBRANCH  17  18
ENDBRANCH  16  17
ENDBRANCH  15  16
ENDBRANCH  14  15
ENDBRANCH  13  14
ENDBRANCH   2  13
TORSDOF 15
ENDMDL
MODEL 6
REMARK VINA RESULT:    -5.107      2.894      6.979
REMARK INTER + INTRA:         -11.802
REMARK INTER:                  -9.250
REMARK INTRA:                  -2.552
REMARK UNBOUND:                -2.217
REMARK SMILES CCCCCCCCC=CCCCCCCCC(=O)[O-]
REMARK SMILES IDX 10 1 9 2 11 3 12 4 13 5 14 6 15 7 16 8 17 9 18 10 19 11
REMARK SMILES IDX 20 12 8 13 7 14 6 15 5 16 4 17 3 18 2 19 1 20
REMARK H PARENT
REMARK Flexibility Score: inf
ROOT
ATOM      1  C   UNL     1     -26.127 -47.975  48.320  1.00  0.00    -0.031 C 
ATOM      2  C   UNL     1     -25.211 -48.433  47.453  1.00  0.00    -0.031 C 
ENDROOT
BRANCH   1   3
ATOM      3  C   UNL     1     -25.906 -46.711  49.103  1.00  0.00     0.027 C 
BRANCH   3   4
ATOM      4  C   UNL     1     -24.452 -46.235  48.992  1.00  0.00     0.004 C 
BRANCH   4   5
ATOM      5  C   UNL     1     -23.632 -46.691  50.206  1.00  0.00     0.000 C 
BRANCH   5   6
ATOM      6  C   UNL     1     -22.509 -47.678  49.836  1.00  0.00     0.000 C 
BRANCH   6   7
ATOM      7  C   UNL     1     -21.135 -47.034  49.575  1.00  0.00     0.000 C 
BRANCH   7   8
ATOM      8  C   UNL     1     -20.534 -47.434  48.217  1.00  0.00     0.006 C 
BRANCH   8   9
ATOM      9  C   UNL     1     -21.475 -48.338  47.411  1.00  0.00     0.053 C 
BRANCH   9  10
ATOM     10  C   UNL     1     -21.795 -47.754  46.070  1.00  0.00     0.041 C 
ATOM     11  O   UNL     1     -21.316 -48.267  45.024  1.00  0.00    -0.550 OA
ATOM     12  O   UNL     1     -22.643 -46.658  45.973  1.00  0.00    -0.550 OA
ENDBRANCH   9  10
ENDBRANCH   8   9
ENDBRANCH   7   8
ENDBRANCH   6   7
ENDBRANCH   5   6
ENDBRANCH   4   5
ENDBRANCH   3   4
ENDBRANCH   1   3
BRANCH   2  13
ATOM     13  C   UNL     1     -25.434 -49.693  46.661  1.00  0.00     0.027 C 
BRANCH  13  14
ATOM     14  C   UNL     1     -26.801 -50.337  46.949  1.00  0.00     0.004 C 
BRANCH  14  15
ATOM     15  C   UNL     1     -27.927 -49.893  45.993  1.00  0.00     0.000 C 
BRANCH  15  16
ATOM     16  C   UNL     1     -29.065 -49.087  46.652  1.00  0.00     0.000 C 
BRANCH  16  17
ATOM     17  C   UNL     1     -29.104 -47.592  46.289  1.00  0.00    -0.000 C 
BRANCH  17  18
ATOM     18  C   UNL     1     -28.228 -47.251  45.071  1.00  0.00    -0.000 C 
BRANCH  18  19
ATOM     19  C   UNL     1     -27.259 -46.091  45.351  1.00  0.00    -0.003 C 
ATOM     20  C   UNL     1     -25.968 -46.187  44.537  1.00  0.00     0.004 C 
ENDBRANCH  18  19
ENDBRANCH  17  18
ENDBRANCH  16  17
ENDBRANCH  15  16
ENDBRANCH  14  15
ENDBRANCH  13  14
ENDBRANCH   2  13
TORSDOF 15
ENDMDL
MODEL 7
REMARK VINA RESULT:    -5.076      2.281      3.848
REMARK INTER + INTRA:         -11.745
REMARK INTER:                  -8.730
REMARK INTRA:                  -3.016
REMARK UNBOUND:                -2.217
REMARK SMILES CCCCCCCCC=CCCCCCCCC(=O)[O-]
REMARK SMILES IDX 10 1 9 2 11 3 12 4 13 5 14 6 15 7 16 8 17 9 18 10 19 11
REMARK SMILES IDX 20 12 8 13 7 14 6 15 5 16 4 17 3 18 2 19 1 20
REMARK H PARENT
REMARK Flexibility Score: inf
ROOT
ATOM      1  C   UNL     1     -22.251 -48.252  48.477  1.00  0.00    -0.031 C 
ATOM      2  C   UNL     1     -22.263 -49.090  47.428  1.00  0.00    -0.031 C 
ENDROOT
BRANCH   1   3
ATOM      3  C   UNL     1     -23.434 -48.124  49.395  1.00  0.00     0.027 C 
BRANCH   3   4
ATOM      4  C   UNL     1     -23.561 -46.697  49.943  1.00  0.00     0.004 C 
BRANCH   4   5
ATOM      5  C   UNL     1     -24.841 -46.024  49.428  1.00  0.00     0.000 C 
BRANCH   5   6
ATOM      6  C   UNL     1     -25.960 -47.031  49.105  1.00  0.00     0.000 C 
BRANCH   6   7
ATOM      7  C   UNL     1     -26.557 -46.910  47.690  1.00  0.00     0.000 C 
BRANCH   7   8
ATOM      8  C   UNL     1     -25.951 -47.916  46.696  1.00  0.00     0.006 C 
BRANCH   8   9
ATOM      9  C   UNL     1     -26.085 -49.364  47.185  1.00  0.00     0.053 C 
BRANCH   9  10
ATOM     10  C   UNL     1     -27.023 -50.156  46.328  1.00  0.00     0.041 C 
ATOM     11  O   UNL     1     -28.263 -50.122  46.546  1.00  0.00    -0.550 OA
ATOM     12  O   UNL     1     -26.531 -50.912  45.271  1.00  0.00    -0.550 OA
ENDBRANCH   9  10
ENDBRANCH   8   9
ENDBRANCH   7   8
ENDBRANCH   6   7
ENDBRANCH   5   6
ENDBRANCH   4   5
ENDBRANCH   3   4
ENDBRANCH   1   3
BRANCH   2  13
ATOM     13  C   UNL     1     -21.076 -49.227  46.513  1.00  0.00     0.027 C 
BRANCH  13  14
ATOM     14  C   UNL     1     -21.483 -49.393  45.039  1.00  0.00     0.004 C 
BRANCH  14  15
ATOM     15  C   UNL     1     -22.995 -49.241  44.776  1.00  0.00     0.000 C 
BRANCH  15  16
ATOM     16  C   UNL     1     -23.425 -47.877  44.196  1.00  0.00     0.000 C 
BRANCH  16  17
ATOM     17  C   UNL     1     -22.272 -46.983  43.706  1.00  0.00    -0.000 C 
BRANCH  17  18
ATOM     18  C   UNL     1     -22.221 -45.625  44.428  1.00  0.00    -0.000 C 
BRANCH  18  19
ATOM     19  C   UNL     1     -22.763 -45.703  45.864  1.00  0.00    -0.003 C 
ATOM     20  C   UNL     1     -23.789 -44.614  46.172  1.00  0.00     0.004 C 
ENDBRANCH  18  19
ENDBRANCH  17  18
ENDBRANCH  16  17
ENDBRANCH  15  16
ENDBRANCH  14  15
ENDBRANCH  13  14
ENDBRANCH   2  13
TORSDOF 15
ENDMDL
MODEL 8
REMARK VINA RESULT:    -5.067      3.520      7.036
REMARK INTER + INTRA:         -11.728
REMARK INTER:                  -9.014
REMARK INTRA:                  -2.714
REMARK UNBOUND:                -2.217
REMARK SMILES CCCCCCCCC=CCCCCCCCC(=O)[O-]
REMARK SMILES IDX 10 1 9 2 11 3 12 4 13 5 14 6 15 7 16 8 17 9 18 10 19 11
REMARK SMILES IDX 20 12 8 13 7 14 6 15 5 16 4 17 3 18 2 19 1 20
REMARK H PARENT
REMARK Flexibility Score: inf
ROOT
ATOM      1  C   UNL     1     -25.236 -47.154  47.308  1.00  0.00    -0.031 C 
ATOM      2  C   UNL     1     -26.501 -46.723  47.189  1.00  0.00    -0.031 C 
ENDROOT
BRANCH   1   3
ATOM      3  C   UNL     1     -24.653 -47.527  48.643  1.00  0.00     0.027 C 
BRANCH   3   4
ATOM      4  C   UNL     1     -23.733 -48.749  48.526  1.00  0.00     0.004 C 
BRANCH   4   5
ATOM      5  C   UNL     1     -22.641 -48.514  47.473  1.00  0.00     0.000 C 
BRANCH   5   6
ATOM      6  C   UNL     1     -22.341 -49.766  46.629  1.00  0.00     0.000 C 
BRANCH   6   7
ATOM      7  C   UNL     1     -22.351 -49.542  45.106  1.00  0.00     0.000 C 
BRANCH   7   8
ATOM      8  C   UNL     1     -22.976 -48.196  44.702  1.00  0.00     0.006 C 
BRANCH   8   9
ATOM      9  C   UNL     1     -21.972 -47.284  43.984  1.00  0.00     0.053 C 
BRANCH   9  10
ATOM     10  C   UNL     1     -22.325 -45.838  44.141  1.00  0.00     0.041 C 
ATOM     11  O   UNL     1     -22.606 -45.140  43.132  1.00  0.00    -0.550 OA
ATOM     12  O   UNL     1     -22.368 -45.266  45.407  1.00  0.00    -0.550 OA
ENDBRANCH   9  10
ENDBRANCH   8   9
ENDBRANCH   7   8
ENDBRANCH   6   7
ENDBRANCH   5   6
ENDBRANCH   4   5
ENDBRANCH   3   4
ENDBRANCH   1   3
BRANCH   2  13
ATOM     13  C   UNL     1     -27.089 -46.359  45.853  1.00  0.00     0.027 C 
BRANCH  13  14
ATOM     14  C   UNL     1     -28.287 -47.246  45.473  1.00  0.00     0.004 C 
BRANCH  14  15
ATOM     15  C   UNL     1     -29.238 -47.565  46.645  1.00  0.00     0.000 C 
BRANCH  15  16
ATOM     16  C   UNL     1     -29.080 -48.974  47.252  1.00  0.00     0.000 C 
BRANCH  16  17
ATOM     17  C   UNL     1     -28.397 -50.007  46.337  1.00  0.00    -0.000 C 
BRANCH  17  18
ATOM     18  C   UNL     1     -27.018 -50.447  46.858  1.00  0.00    -0.000 C 
BRANCH  18  19
ATOM     19  C   UNL     1     -25.932 -50.382  45.773  1.00  0.00    -0.003 C 
ATOM     20  C   UNL     1     -26.507 -50.248  44.363  1.00  0.00     0.004 C 
ENDBRANCH  18  19
ENDBRANCH  17  18
ENDBRANCH  16  17
ENDBRANCH  15  16
ENDBRANCH  14  15
ENDBRANCH  13  14
ENDBRANCH   2  13
TORSDOF 15
ENDMDL
MODEL 9
REMARK VINA RESULT:    -5.044      1.648      3.433
REMARK INTER + INTRA:         -11.684
REMARK INTER:                  -9.087
REMARK INTRA:                  -2.597
REMARK UNBOUND:                -2.217
REMARK SMILES CCCCCCCCC=CCCCCCCCC(=O)[O-]
REMARK SMILES IDX 10 1 9 2 11 3 12 4 13 5 14 6 15 7 16 8 17 9 18 10 19 11
REMARK SMILES IDX 20 12 8 13 7 14 6 15 5 16 4 17 3 18 2 19 1 20
REMARK H PARENT
REMARK Flexibility Score: inf
ROOT
ATOM      1  C   UNL     1     -20.729 -48.070  49.203  1.00  0.00    -0.031 C 
ATOM      2  C   UNL     1     -20.015 -47.900  48.079  1.00  0.00    -0.031 C 
ENDROOT
BRANCH   1   3
ATOM      3  C   UNL     1     -21.379 -46.912  49.906  1.00  0.00     0.027 C 
BRANCH   3   4
ATOM      4  C   UNL     1     -22.901 -47.088  49.978  1.00  0.00     0.004 C 
BRANCH   4   5
ATOM      5  C   UNL     1     -23.329 -48.419  49.343  1.00  0.00     0.000 C 
BRANCH   5   6
ATOM      6  C   UNL     1     -24.609 -48.296  48.495  1.00  0.00     0.000 C 
BRANCH   6   7
ATOM      7  C   UNL     1     -25.565 -47.166  48.919  1.00  0.00     0.000 C 
BRANCH   7   8
ATOM      8  C   UNL     1     -26.995 -47.359  48.387  1.00  0.00     0.006 C 
BRANCH   8   9
ATOM      9  C   UNL     1     -27.078 -48.484  47.347  1.00  0.00     0.053 C 
BRANCH   9  10
ATOM     10  C   UNL     1     -28.480 -48.982  47.177  1.00  0.00     0.041 C 
ATOM     11  O   UNL     1     -29.436 -48.391  47.747  1.00  0.00    -0.550 OA
ATOM     12  O   UNL     1     -28.735 -50.082  46.368  1.00  0.00    -0.550 OA
ENDBRANCH   9  10
ENDBRANCH   8   9
ENDBRANCH   7   8
ENDBRANCH   6   7
ENDBRANCH   5   6
ENDBRANCH   4   5
ENDBRANCH   3   4
ENDBRANCH   1   3
BRANCH   2  13
ATOM     13  C   UNL     1     -19.372 -49.060  47.368  1.00  0.00     0.027 C 
BRANCH  13  14
ATOM     14  C   UNL     1     -20.363 -50.202  47.087  1.00  0.00     0.004 C 
BRANCH  14  15
ATOM     15  C   UNL     1     -21.556 -49.804  46.196  1.00  0.00     0.000 C 
BRANCH  15  16
ATOM     16  C   UNL     1     -21.183 -49.326  44.778  1.00  0.00     0.000 C 
BRANCH  16  17
ATOM     17  C   UNL     1     -21.572 -47.872  44.454  1.00  0.00    -0.000 C 
BRANCH  17  18
ATOM     18  C   UNL     1     -22.739 -47.360  45.315  1.00  0.00    -0.000 C 
BRANCH  18  19
ATOM     19  C   UNL     1     -22.358 -46.124  46.146  1.00  0.00    -0.003 C 
ATOM     20  C   UNL     1     -23.565 -45.264  46.519  1.00  0.00     0.004 C 
ENDBRANCH  18  19
ENDBRANCH  17  18
ENDBRANCH  16  17
ENDBRANCH  15  16
ENDBRANCH  14  15
ENDBRANCH  13  14
ENDBRANCH   2  13
TORSDOF 15
ENDMDL
