MODEL 1
REMARK VINA RESULT:    -6.357      0.000      0.000
REMARK INTER + INTRA:          -6.357
REMARK INTER:                  -6.357
REMARK INTRA:                   0.000
REMARK UNBOUND:                 0.000
REMARK SMILES CC1=CC[C@]2(C)CCCC(C)(C)[C@]23C[C@H]13
REMARK SMILES IDX 1 1 2 2 3 3 4 4 5 5 7 6 8 7 9 8 10 9 13 10 15 11 14 12 11 13
REMARK SMILES IDX 12 14 6 15
REMARK H PARENT
REMARK Flexibility Score: inf
ROOT
ATOM      1  C   UNL     1     112.568 104.550 129.790  1.00  0.00     0.039 C 
ATOM      2  C   UNL     1     111.616 105.474 129.085  1.00  0.00    -0.074 C 
ATOM      3  C   UNL     1     111.675 106.799 129.338  1.00  0.00    -0.027 C 
ATOM      4  C   UNL     1     110.745 107.782 128.672  1.00  0.00     0.034 C 
ATOM      5  C   UNL     1     110.404 107.337 127.220  1.00  0.00    -0.022 C 
ATOM      6  C   UNL     1     109.313 108.275 126.650  1.00  0.00     0.008 C 
ATOM      7  C   UNL     1     108.793 107.835 125.270  1.00  0.00     0.001 C 
ATOM      8  C   UNL     1     108.255 106.396 125.275  1.00  0.00     0.007 C 
ATOM      9  C   UNL     1     109.252 105.328 125.808  1.00  0.00    -0.029 C 
ATOM     10  C   UNL     1     109.854 105.854 127.180  1.00  0.00    -0.012 C 
ATOM     11  C   UNL     1     110.611 104.888 128.105  1.00  0.00     0.022 C 
ATOM     12  C   UNL     1     109.175 105.277 128.453  1.00  0.00     0.017 C 
ATOM     13  C   UNL     1     110.378 105.065 124.776  1.00  0.00     0.012 C 
ATOM     14  C   UNL     1     108.453 103.996 125.917  1.00  0.00     0.012 C 
ATOM     15  C   UNL     1     111.724 107.481 126.398  1.00  0.00     0.012 C 
ENDROOT
TORSDOF 0
ENDMDL
MODEL 2
REMARK VINA RESULT:    -6.342      4.180      6.135
REMARK INTER + INTRA:          -6.342
REMARK INTER:                  -6.342
REMARK INTRA:                   0.000
REMARK UNBOUND:                 0.000
REMARK SMILES CC1=CC[C@]2(C)CCCC(C)(C)[C@]23C[C@H]13
REMARK SMILES IDX 1 1 2 2 3 3 4 4 5 5 7 6 8 7 9 8 10 9 13 10 15 11 14 12 11 13
REMARK SMILES IDX 12 14 6 15
REMARK H PARENT
REMARK Flexibility Score: inf
ROOT
ATOM      1  C   UNL     1     104.529  99.962 129.779  1.00  0.00     0.039 C 
ATOM      2  C   UNL     1     105.466 100.902 129.073  1.00  0.00    -0.074 C 
ATOM      3  C   UNL     1     106.789 100.828 129.328  1.00  0.00    -0.027 C 
ATOM      4  C   UNL     1     107.783 101.747 128.663  1.00  0.00     0.034 C 
ATOM      5  C   UNL     1     107.344 102.089 127.209  1.00  0.00    -0.022 C 
ATOM      6  C   UNL     1     108.295 103.168 126.638  1.00  0.00     0.008 C 
ATOM      7  C   UNL     1     107.864 103.691 125.256  1.00  0.00     0.001 C 
ATOM      8  C   UNL     1     106.430 104.245 125.258  1.00  0.00     0.007 C 
ATOM      9  C   UNL     1     105.350 103.260 125.791  1.00  0.00    -0.029 C 
ATOM     10  C   UNL     1     105.867 102.656 127.165  1.00  0.00    -0.012 C 
ATOM     11  C   UNL     1     104.892 101.911 128.090  1.00  0.00     0.022 C 
ATOM     12  C   UNL     1     105.296 103.344 128.436  1.00  0.00     0.017 C 
ATOM     13  C   UNL     1     105.076 102.135 124.761  1.00  0.00     0.012 C 
ATOM     14  C   UNL     1     104.027 104.075 125.896  1.00  0.00     0.012 C 
ATOM     15  C   UNL     1     107.475 100.766 126.390  1.00  0.00     0.012 C 
ENDROOT
TORSDOF 0
ENDMDL
MODEL 3
REMARK VINA RESULT:    -6.306      6.684      8.621
REMARK INTER + INTRA:          -6.306
REMARK INTER:                  -6.306
REMARK INTRA:                   0.000
REMARK UNBOUND:                 0.000
REMARK SMILES CC1=CC[C@]2(C)CCCC(C)(C)[C@]23C[C@H]13
REMARK SMILES IDX 1 1 2 2 3 3 4 4 5 5 7 6 8 7 9 8 10 9 13 10 15 11 14 12 11 13
REMARK SMILES IDX 12 14 6 15
REMARK H PARENT
REMARK Flexibility Score: inf
ROOT
ATOM      1  C   UNL     1     100.005 107.898 129.791  1.00  0.00     0.039 C 
ATOM      2  C   UNL     1     100.973 107.010 129.062  1.00  0.00    -0.074 C 
ATOM      3  C   UNL     1     100.979 105.686 129.324  1.00  0.00    -0.027 C 
ATOM      4  C   UNL     1     101.930 104.740 128.636  1.00  0.00     0.034 C 
ATOM      5  C   UNL     1     102.205 105.188 127.171  1.00  0.00    -0.022 C 
ATOM      6  C   UNL     1     103.318 104.294 126.573  1.00  0.00     0.008 C 
ATOM      7  C   UNL     1     103.776 104.745 125.174  1.00  0.00     0.001 C 
ATOM      8  C   UNL     1     104.251 106.206 125.154  1.00  0.00     0.007 C 
ATOM      9  C   UNL     1     103.225 107.234 125.711  1.00  0.00    -0.029 C 
ATOM     10  C   UNL     1     102.690 106.693 127.104  1.00  0.00    -0.012 C 
ATOM     11  C   UNL     1     101.921 107.632 128.047  1.00  0.00     0.022 C 
ATOM     12  C   UNL     1     103.383 107.308 128.352  1.00  0.00     0.017 C 
ATOM     13  C   UNL     1     102.057 107.441 124.713  1.00  0.00     0.012 C 
ATOM     14  C   UNL     1     103.969 108.600 125.787  1.00  0.00     0.012 C 
ATOM     15  C   UNL     1     100.868 104.981 126.392  1.00  0.00     0.012 C 
ENDROOT
TORSDOF 0
ENDMDL
MODEL 4
REMARK VINA RESULT:    -6.230      4.087      6.097
REMARK INTER + INTRA:          -6.230
REMARK INTER:                  -6.230
REMARK INTRA:                   0.000
REMARK UNBOUND:                 0.000
REMARK SMILES CC1=CC[C@]2(C)CCCC(C)(C)[C@]23C[C@H]13
REMARK SMILES IDX 1 1 2 2 3 3 4 4 5 5 7 6 8 7 9 8 10 9 13 10 15 11 14 12 11 13
REMARK SMILES IDX 12 14 6 15
REMARK H PARENT
REMARK Flexibility Score: inf
ROOT
ATOM      1  C   UNL     1     107.833 112.373 129.668  1.00  0.00     0.039 C 
ATOM      2  C   UNL     1     106.939 111.422 128.924  1.00  0.00    -0.074 C 
ATOM      3  C   UNL     1     105.615 111.422 129.186  1.00  0.00    -0.027 C 
ATOM      4  C   UNL     1     104.662 110.488 128.483  1.00  0.00     0.034 C 
ATOM      5  C   UNL     1     105.109 110.232 127.014  1.00  0.00    -0.022 C 
ATOM      6  C   UNL     1     104.207 109.136 126.398  1.00  0.00     0.008 C 
ATOM      7  C   UNL     1     104.656 108.697 124.993  1.00  0.00     0.001 C 
ATOM      8  C   UNL     1     106.114 108.212 124.965  1.00  0.00     0.007 C 
ATOM      9  C   UNL     1     107.149 109.222 125.538  1.00  0.00    -0.029 C 
ATOM     10  C   UNL     1     106.611 109.739 126.940  1.00  0.00    -0.012 C 
ATOM     11  C   UNL     1     107.554 110.486 127.895  1.00  0.00     0.022 C 
ATOM     12  C   UNL     1     107.220 109.022 128.177  1.00  0.00     0.017 C 
ATOM     13  C   UNL     1     107.363 110.404 124.559  1.00  0.00     0.012 C 
ATOM     14  C   UNL     1     108.510 108.467 125.603  1.00  0.00     0.012 C 
ATOM     15  C   UNL     1     104.912 111.583 126.255  1.00  0.00     0.012 C 
ENDROOT
TORSDOF 0
ENDMDL
MODEL 5
REMARK VINA RESULT:    -5.922      3.322      4.991
REMARK INTER + INTRA:          -5.922
REMARK INTER:                  -5.922
REMARK INTRA:                   0.000
REMARK UNBOUND:                 0.000
REMARK SMILES CC1=CC[C@]2(C)CCCC(C)(C)[C@]23C[C@H]13
REMARK SMILES IDX 1 1 2 2 3 3 4 4 5 5 7 6 8 7 9 8 10 9 13 10 15 11 14 12 11 13
REMARK SMILES IDX 12 14 6 15
REMARK H PARENT
REMARK Flexibility Score: inf
ROOT
ATOM      1  C   UNL     1     110.539 107.735 127.425  1.00  0.00     0.039 C 
ATOM      2  C   UNL     1     109.117 108.180 127.617  1.00  0.00    -0.074 C 
ATOM      3  C   UNL     1     108.620 108.272 128.869  1.00  0.00    -0.027 C 
ATOM      4  C   UNL     1     107.199 108.704 129.134  1.00  0.00     0.034 C 
ATOM      5  C   UNL     1     106.729 109.757 128.088  1.00  0.00    -0.022 C 
ATOM      6  C   UNL     1     105.219 110.029 128.294  1.00  0.00     0.008 C 
ATOM      7  C   UNL     1     104.613 110.946 127.216  1.00  0.00     0.001 C 
ATOM      8  C   UNL     1     104.830 110.406 125.794  1.00  0.00     0.007 C 
ATOM      9  C   UNL     1     106.311 110.101 125.430  1.00  0.00    -0.029 C 
ATOM     10  C   UNL     1     106.943 109.242 126.607  1.00  0.00    -0.012 C 
ATOM     11  C   UNL     1     108.279 108.514 126.393  1.00  0.00     0.022 C 
ATOM     12  C   UNL     1     106.980 107.711 126.349  1.00  0.00     0.017 C 
ATOM     13  C   UNL     1     107.106 111.414 125.216  1.00  0.00     0.012 C 
ATOM     14  C   UNL     1     106.285 109.387 124.046  1.00  0.00     0.012 C 
ATOM     15  C   UNL     1     107.554 111.052 128.370  1.00  0.00     0.012 C 
ENDROOT
TORSDOF 0
ENDMDL
MODEL 6
REMARK VINA RESULT:    -5.906      1.350      3.146
REMARK INTER + INTRA:          -5.906
REMARK INTER:                  -5.906
REMARK INTRA:                   0.000
REMARK UNBOUND:                 0.000
REMARK SMILES CC1=CC[C@]2(C)CCCC(C)(C)[C@]23C[C@H]13
REMARK SMILES IDX 1 1 2 2 3 3 4 4 5 5 7 6 8 7 9 8 10 9 13 10 15 11 14 12 11 13
REMARK SMILES IDX 12 14 6 15
REMARK H PARENT
REMARK Flexibility Score: inf
ROOT
ATOM      1  C   UNL     1     107.801 101.945 127.355  1.00  0.00     0.039 C 
ATOM      2  C   UNL     1     108.215 103.371 127.583  1.00  0.00    -0.074 C 
ATOM      3  C   UNL     1     108.240 103.856 128.842  1.00  0.00    -0.027 C 
ATOM      4  C   UNL     1     108.637 105.281 129.141  1.00  0.00     0.034 C 
ATOM      5  C   UNL     1     109.732 105.777 128.152  1.00  0.00    -0.022 C 
ATOM      6  C   UNL     1     109.971 107.288 128.386  1.00  0.00     0.008 C 
ATOM      7  C   UNL     1     110.929 107.918 127.359  1.00  0.00     0.001 C 
ATOM      8  C   UNL     1     110.461 107.709 125.911  1.00  0.00     0.007 C 
ATOM      9  C   UNL     1     110.196 106.228 125.518  1.00  0.00    -0.029 C 
ATOM     10  C   UNL     1     109.292 105.571 126.646  1.00  0.00    -0.012 C 
ATOM     11  C   UNL     1     108.595 104.227 126.384  1.00  0.00     0.022 C 
ATOM     12  C   UNL     1     107.775 105.515 126.315  1.00  0.00     0.017 C 
ATOM     13  C   UNL     1     111.529 105.454 125.359  1.00  0.00     0.012 C 
ATOM     14  C   UNL     1     109.548 106.258 124.102  1.00  0.00     0.012 C 
ATOM     15  C   UNL     1     111.024 104.968 128.488  1.00  0.00     0.012 C 
ENDROOT
TORSDOF 0
ENDMDL
MODEL 7
REMARK VINA RESULT:    -5.883      4.870      6.804
REMARK INTER + INTRA:          -5.883
REMARK INTER:                  -5.883
REMARK INTRA:                   0.000
REMARK UNBOUND:                 0.000
REMARK SMILES CC1=CC[C@]2(C)CCCC(C)(C)[C@]23C[C@H]13
REMARK SMILES IDX 1 1 2 2 3 3 4 4 5 5 7 6 8 7 9 8 10 9 13 10 15 11 14 12 11 13
REMARK SMILES IDX 12 14 6 15
REMARK H PARENT
REMARK Flexibility Score: inf
ROOT
ATOM      1  C   UNL     1     101.862 104.858 127.391  1.00  0.00     0.039 C 
ATOM      2  C   UNL     1     103.291 104.447 127.607  1.00  0.00    -0.074 C 
ATOM      3  C   UNL     1     103.800 104.467 128.857  1.00  0.00    -0.027 C 
ATOM      4  C   UNL     1     105.228 104.076 129.144  1.00  0.00     0.034 C 
ATOM      5  C   UNL     1     105.702 102.943 128.187  1.00  0.00    -0.022 C 
ATOM      6  C   UNL     1     107.217 102.707 128.401  1.00  0.00     0.008 C 
ATOM      7  C   UNL     1     107.825 101.709 127.399  1.00  0.00     0.001 C 
ATOM      8  C   UNL     1     107.590 102.125 125.938  1.00  0.00     0.007 C 
ATOM      9  C   UNL     1     106.102 102.381 125.563  1.00  0.00    -0.029 C 
ATOM     10  C   UNL     1     105.470 103.328 126.670  1.00  0.00    -0.012 C 
ATOM     11  C   UNL     1     104.123 104.021 126.407  1.00  0.00     0.022 C 
ATOM     12  C   UNL     1     105.412 104.832 126.284  1.00  0.00     0.017 C 
ATOM     13  C   UNL     1     105.322 101.046 125.469  1.00  0.00     0.012 C 
ATOM     14  C   UNL     1     106.108 102.976 124.124  1.00  0.00     0.012 C 
ATOM     15  C   UNL     1     104.895 101.668 128.585  1.00  0.00     0.012 C 
ENDROOT
TORSDOF 0
ENDMDL
MODEL 8
REMARK VINA RESULT:    -5.873      5.993      7.753
REMARK INTER + INTRA:          -5.873
REMARK INTER:                  -5.873
REMARK INTRA:                   0.000
REMARK UNBOUND:                 0.000
REMARK SMILES CC1=CC[C@]2(C)CCCC(C)(C)[C@]23C[C@H]13
REMARK SMILES IDX 1 1 2 2 3 3 4 4 5 5 7 6 8 7 9 8 10 9 13 10 15 11 14 12 11 13
REMARK SMILES IDX 12 14 6 15
REMARK H PARENT
REMARK Flexibility Score: inf
ROOT
ATOM      1  C   UNL     1     104.794 110.650 127.437  1.00  0.00     0.039 C 
ATOM      2  C   UNL     1     104.401 109.211 127.619  1.00  0.00    -0.074 C 
ATOM      3  C   UNL     1     104.389 108.685 128.862  1.00  0.00    -0.027 C 
ATOM      4  C   UNL     1     104.013 107.246 129.116  1.00  0.00     0.034 C 
ATOM      5  C   UNL     1     102.921 106.767 128.116  1.00  0.00    -0.022 C 
ATOM      6  C   UNL     1     102.704 105.246 128.301  1.00  0.00     0.008 C 
ATOM      7  C   UNL     1     101.749 104.637 127.259  1.00  0.00     0.001 C 
ATOM      8  C   UNL     1     102.207 104.900 125.816  1.00  0.00     0.007 C 
ATOM      9  C   UNL     1     102.450 106.397 125.470  1.00  0.00    -0.029 C 
ATOM     10  C   UNL     1     103.350 107.028 126.615  1.00  0.00    -0.012 C 
ATOM     11  C   UNL     1     104.027 108.390 126.395  1.00  0.00     0.022 C 
ATOM     12  C   UNL     1     104.864 107.117 126.280  1.00  0.00     0.017 C 
ATOM     13  C   UNL     1     101.105 107.157 125.344  1.00  0.00     0.012 C 
ATOM     14  C   UNL     1     103.090 106.422 124.051  1.00  0.00     0.012 C 
ATOM     15  C   UNL     1     101.619 107.547 128.484  1.00  0.00     0.012 C 
ENDROOT
TORSDOF 0
ENDMDL
MODEL 9
REMARK VINA RESULT:    -5.737      1.290      4.203
REMARK INTER + INTRA:          -5.737
REMARK INTER:                  -5.737
REMARK INTRA:                   0.000
REMARK UNBOUND:                 0.000
REMARK SMILES CC1=CC[C@]2(C)CCCC(C)(C)[C@]23C[C@H]13
REMARK SMILES IDX 1 1 2 2 3 3 4 4 5 5 7 6 8 7 9 8 10 9 13 10 15 11 14 12 11 13
REMARK SMILES IDX 12 14 6 15
REMARK H PARENT
REMARK Flexibility Score: inf
ROOT
ATOM      1  C   UNL     1     108.352 106.291 123.093  1.00  0.00     0.039 C 
ATOM      2  C   UNL     1     109.159 105.858 124.284  1.00  0.00    -0.074 C 
ATOM      3  C   UNL     1     110.499 105.744 124.166  1.00  0.00    -0.027 C 
ATOM      4  C   UNL     1     111.368 105.306 125.318  1.00  0.00     0.034 C 
ATOM      5  C   UNL     1     110.802 105.820 126.674  1.00  0.00    -0.022 C 
ATOM      6  C   UNL     1     111.622 105.196 127.829  1.00  0.00     0.008 C 
ATOM      7  C   UNL     1     111.054 105.519 129.223  1.00  0.00     0.001 C 
ATOM      8  C   UNL     1     109.585 105.094 129.372  1.00  0.00     0.007 C 
ATOM      9  C   UNL     1     108.626 105.662 128.287  1.00  0.00    -0.029 C 
ATOM     10  C   UNL     1     109.285 105.410 126.865  1.00  0.00    -0.012 C 
ATOM     11  C   UNL     1     108.440 105.560 125.591  1.00  0.00     0.022 C 
ATOM     12  C   UNL     1     108.752 104.159 126.113  1.00  0.00     0.017 C 
ATOM     13  C   UNL     1     108.371 107.173 128.517  1.00  0.00     0.012 C 
ATOM     14  C   UNL     1     107.253 104.959 128.502  1.00  0.00     0.012 C 
ATOM     15  C   UNL     1     110.979 107.371 126.662  1.00  0.00     0.012 C 
ENDROOT
TORSDOF 0
ENDMDL
