MODEL 1
REMARK VINA RESULT:    -4.885      0.000      0.000
REMARK INTER + INTRA:          -8.913
REMARK INTER:                  -7.455
REMARK INTRA:                  -1.457
REMARK UNBOUND:                -1.457
REMARK SMILES CC(=O)CCC=C(C)CCC=C(C)CCC=C(C)C
REMARK SMILES IDX 10 1 11 2 12 3 13 4 14 5 15 6 16 7 18 8 17 9 19 10 9 11 7 12
REMARK SMILES IDX 6 13 8 14 5 15 4 16 2 17 3 18 1 19
REMARK H PARENT
REMARK Flexibility Score: inf
ROOT
ATOM      1  C   UNL     1     182.924 188.731 192.980  1.00  0.00     0.032 C 
ENDROOT
BRANCH   1   2
ATOM      2  C   UNL     1     183.804 188.974 194.179  1.00  0.00    -0.028 C 
ATOM      3  C   UNL     1     185.143 188.779 194.197  1.00  0.00    -0.077 C 
ATOM      4  C   UNL     1     185.902 188.355 192.961  1.00  0.00     0.039 C 
BRANCH   3   5
ATOM      5  C   UNL     1     185.902 189.009 195.484  1.00  0.00     0.034 C 
BRANCH   5   6
ATOM      6  C   UNL     1     185.875 187.752 196.362  1.00  0.00     0.032 C 
BRANCH   6   7
ATOM      7  C   UNL     1     186.994 186.812 195.986  1.00  0.00    -0.028 C 
ATOM      8  C   UNL     1     185.441 185.071 195.075  1.00  0.00     0.039 C 
ATOM      9  C   UNL     1     186.814 185.618 195.378  1.00  0.00    -0.080 C 
ATOM     10  C   UNL     1     188.009 184.770 195.022  1.00  0.00     0.039 C 
ENDBRANCH   6   7
ENDBRANCH   5   6
ENDBRANCH   3   5
ENDBRANCH   1   2
BRANCH   1  11
ATOM     11  C   UNL     1     181.627 188.027 193.397  1.00  0.00     0.034 C 
BRANCH  11  12
ATOM     12  C   UNL     1     181.745 186.522 193.245  1.00  0.00    -0.077 C 
ATOM     13  C   UNL     1     180.818 185.650 193.705  1.00  0.00    -0.028 C 
ATOM     14  C   UNL     1     182.962 185.959 192.555  1.00  0.00     0.039 C 
BRANCH  13  15
ATOM     15  C   UNL     1     179.524 186.018 194.399  1.00  0.00     0.035 C 
BRANCH  15  16
ATOM     16  C   UNL     1     179.099 184.931 195.396  1.00  0.00     0.079 C 
BRANCH  16  17
ATOM     17  C   UNL     1     178.036 184.030 194.824  1.00  0.00     0.130 C 
ATOM     18  O   UNL     1     176.864 184.219 195.112  1.00  0.00    -0.300 OA
ATOM     19  C   UNL     1     178.391 182.921 193.878  1.00  0.00     0.087 C 
ENDBRANCH  16  17
ENDBRANCH  15  16
ENDBRANCH  13  15
ENDBRANCH  11  12
ENDBRANCH   1  11
TORSDOF 9
ENDMDL
MODEL 2
REMARK VINA RESULT:    -4.801      2.700      6.959
REMARK INTER + INTRA:          -8.785
REMARK INTER:                  -7.860
REMARK INTRA:                  -0.925
REMARK UNBOUND:                -1.457
REMARK SMILES CC(=O)CCC=C(C)CCC=C(C)CCC=C(C)C
REMARK SMILES IDX 10 1 11 2 12 3 13 4 14 5 15 6 16 7 18 8 17 9 19 10 9 11 7 12
REMARK SMILES IDX 6 13 8 14 5 15 4 16 2 17 3 18 1 19
REMARK H PARENT
REMARK Flexibility Score: inf
ROOT
ATOM      1  C   UNL     1     184.943 186.266 193.155  1.00  0.00     0.032 C 
ENDROOT
BRANCH   1   2
ATOM      2  C   UNL     1     183.575 186.315 193.786  1.00  0.00    -0.028 C 
ATOM      3  C   UNL     1     182.415 186.132 193.112  1.00  0.00    -0.077 C 
ATOM      4  C   UNL     1     182.395 185.786 191.642  1.00  0.00     0.039 C 
BRANCH   3   5
ATOM      5  C   UNL     1     181.105 186.261 193.857  1.00  0.00     0.034 C 
BRANCH   5   6
ATOM      6  C   UNL     1     180.250 185.002 193.672  1.00  0.00     0.032 C 
BRANCH   6   7
ATOM      7  C   UNL     1     179.070 185.014 194.613  1.00  0.00    -0.028 C 
ATOM      8  C   UNL     1     178.336 182.706 193.976  1.00  0.00     0.039 C 
ATOM      9  C   UNL     1     178.220 183.976 194.783  1.00  0.00    -0.080 C 
ATOM     10  C   UNL     1     177.089 184.087 195.772  1.00  0.00     0.039 C 
ENDBRANCH   6   7
ENDBRANCH   5   6
ENDBRANCH   3   5
ENDBRANCH   1   2
BRANCH   1  11
ATOM     11  C   UNL     1     185.581 187.660 193.141  1.00  0.00     0.034 C 
BRANCH  11  12
ATOM     12  C   UNL     1     184.996 188.543 194.228  1.00  0.00    -0.077 C 
ATOM     13  C   UNL     1     185.384 188.487 195.523  1.00  0.00    -0.028 C 
ATOM     14  C   UNL     1     183.919 189.530 193.855  1.00  0.00     0.039 C 
BRANCH  13  15
ATOM     15  C   UNL     1     186.460 187.586 196.088  1.00  0.00     0.035 C 
BRANCH  15  16
ATOM     16  C   UNL     1     185.853 186.443 196.912  1.00  0.00     0.079 C 
BRANCH  16  17
ATOM     17  C   UNL     1     186.780 185.259 197.001  1.00  0.00     0.130 C 
ATOM     18  O   UNL     1     187.292 184.971 198.072  1.00  0.00    -0.300 OA
ATOM     19  C   UNL     1     187.061 184.406 195.799  1.00  0.00     0.087 C 
ENDBRANCH  16  17
ENDBRANCH  15  16
ENDBRANCH  13  15
ENDBRANCH  11  12
ENDBRANCH   1  11
TORSDOF 9
ENDMDL
MODEL 3
REMARK VINA RESULT:    -4.657      3.854      8.531
REMARK INTER + INTRA:          -8.564
REMARK INTER:                  -7.826
REMARK INTRA:                  -0.738
REMARK UNBOUND:                -1.457
REMARK SMILES CC(=O)CCC=C(C)CCC=C(C)CCC=C(C)C
REMARK SMILES IDX 10 1 11 2 12 3 13 4 14 5 15 6 16 7 18 8 17 9 19 10 9 11 7 12
REMARK SMILES IDX 6 13 8 14 5 15 4 16 2 17 3 18 1 19
REMARK H PARENT
REMARK Flexibility Score: inf
ROOT
ATOM      1  C   UNL     1     184.890 186.338 193.547  1.00  0.00     0.032 C 
ENDROOT
BRANCH   1   2
ATOM      2  C   UNL     1     183.459 186.353 194.020  1.00  0.00    -0.028 C 
ATOM      3  C   UNL     1     182.386 186.479 193.206  1.00  0.00    -0.077 C 
ATOM      4  C   UNL     1     182.530 186.550 191.703  1.00  0.00     0.039 C 
BRANCH   3   5
ATOM      5  C   UNL     1     181.003 186.534 193.816  1.00  0.00     0.034 C 
BRANCH   5   6
ATOM      6  C   UNL     1     180.347 185.148 193.798  1.00  0.00     0.032 C 
BRANCH   6   7
ATOM      7  C   UNL     1     179.163 185.104 194.732  1.00  0.00    -0.028 C 
ATOM      8  C   UNL     1     178.389 182.871 193.902  1.00  0.00     0.039 C 
ATOM      9  C   UNL     1     178.294 184.071 194.812  1.00  0.00    -0.080 C 
ATOM     10  C   UNL     1     177.160 184.121 195.804  1.00  0.00     0.039 C 
ENDBRANCH   6   7
ENDBRANCH   5   6
ENDBRANCH   3   5
ENDBRANCH   1   2
BRANCH   1  11
ATOM     11  C   UNL     1     185.767 185.521 194.504  1.00  0.00     0.034 C 
BRANCH  11  12
ATOM     12  C   UNL     1     186.730 186.412 195.264  1.00  0.00    -0.077 C 
ATOM     13  C   UNL     1     187.970 186.722 194.818  1.00  0.00    -0.028 C 
ATOM     14  C   UNL     1     186.296 186.980 196.592  1.00  0.00     0.039 C 
BRANCH  13  15
ATOM     15  C   UNL     1     188.578 186.274 193.506  1.00  0.00     0.035 C 
BRANCH  15  16
ATOM     16  C   UNL     1     189.993 185.718 193.710  1.00  0.00     0.079 C 
BRANCH  16  17
ATOM     17  C   UNL     1     191.050 186.705 193.288  1.00  0.00     0.130 C 
ATOM     18  O   UNL     1     190.888 187.368 192.276  1.00  0.00    -0.300 OA
ATOM     19  C   UNL     1     192.287 186.911 194.112  1.00  0.00     0.087 C 
ENDBRANCH  16  17
ENDBRANCH  15  16
ENDBRANCH  13  15
ENDBRANCH  11  12
ENDBRANCH   1  11
TORSDOF 9
ENDMDL
MODEL 4
REMARK VINA RESULT:    -4.626      5.514      7.953
REMARK INTER + INTRA:          -8.518
REMARK INTER:                  -6.945
REMARK INTRA:                  -1.572
REMARK UNBOUND:                -1.457
REMARK SMILES CC(=O)CCC=C(C)CCC=C(C)CCC=C(C)C
REMARK SMILES IDX 10 1 11 2 12 3 13 4 14 5 15 6 16 7 18 8 17 9 19 10 9 11 7 12
REMARK SMILES IDX 6 13 8 14 5 15 4 16 2 17 3 18 1 19
REMARK H PARENT
REMARK Flexibility Score: inf
ROOT
ATOM      1  C   UNL     1     189.311 184.029 191.856  1.00  0.00     0.032 C 
ENDROOT
BRANCH   1   2
ATOM      2  C   UNL     1     189.760 185.318 192.495  1.00  0.00    -0.028 C 
ATOM      3  C   UNL     1     190.882 185.452 193.240  1.00  0.00    -0.077 C 
ATOM      4  C   UNL     1     191.844 184.305 193.444  1.00  0.00     0.039 C 
BRANCH   3   5
ATOM      5  C   UNL     1     191.189 186.792 193.871  1.00  0.00     0.034 C 
BRANCH   5   6
ATOM      6  C   UNL     1     192.591 187.269 193.475  1.00  0.00     0.032 C 
BRANCH   6   7
ATOM      7  C   UNL     1     193.465 187.434 194.695  1.00  0.00    -0.028 C 
ATOM      8  C   UNL     1     194.313 189.680 193.980  1.00  0.00     0.039 C 
ATOM      9  C   UNL     1     194.219 188.527 194.950  1.00  0.00    -0.080 C 
ATOM     10  C   UNL     1     195.033 188.597 196.216  1.00  0.00     0.039 C 
ENDBRANCH   6   7
ENDBRANCH   5   6
ENDBRANCH   3   5
ENDBRANCH   1   2
BRANCH   1  11
ATOM     11  C   UNL     1     187.974 183.569 192.450  1.00  0.00     0.034 C 
BRANCH  11  12
ATOM     12  C   UNL     1     188.130 183.157 193.902  1.00  0.00    -0.077 C 
ATOM     13  C   UNL     1     187.623 183.867 194.937  1.00  0.00    -0.028 C 
ATOM     14  C   UNL     1     188.896 181.897 194.218  1.00  0.00     0.039 C 
BRANCH  13  15
ATOM     15  C   UNL     1     186.809 185.137 194.826  1.00  0.00     0.035 C 
BRANCH  15  16
ATOM     16  C   UNL     1     187.496 186.304 195.550  1.00  0.00     0.079 C 
BRANCH  16  17
ATOM     17  C   UNL     1     186.673 186.809 196.706  1.00  0.00     0.130 C 
ATOM     18  O   UNL     1     185.832 187.674 196.516  1.00  0.00    -0.300 OA
ATOM     19  C   UNL     1     186.846 186.243 198.084  1.00  0.00     0.087 C 
ENDBRANCH  16  17
ENDBRANCH  15  16
ENDBRANCH  13  15
ENDBRANCH  11  12
ENDBRANCH   1  11
TORSDOF 9
ENDMDL
MODEL 5
REMARK VINA RESULT:    -4.607      4.990      7.453
REMARK INTER + INTRA:          -8.488
REMARK INTER:                  -7.247
REMARK INTRA:                  -1.240
REMARK UNBOUND:                -1.457
REMARK SMILES CC(=O)CCC=C(C)CCC=C(C)CCC=C(C)C
REMARK SMILES IDX 10 1 11 2 12 3 13 4 14 5 15 6 16 7 18 8 17 9 19 10 9 11 7 12
REMARK SMILES IDX 6 13 8 14 5 15 4 16 2 17 3 18 1 19
REMARK H PARENT
REMARK Flexibility Score: inf
ROOT
ATOM      1  C   UNL     1     188.926 186.736 191.643  1.00  0.00     0.032 C 
ENDROOT
BRANCH   1   2
ATOM      2  C   UNL     1     190.184 186.783 192.470  1.00  0.00    -0.028 C 
ATOM      3  C   UNL     1     190.722 185.715 193.106  1.00  0.00    -0.077 C 
ATOM      4  C   UNL     1     190.128 184.332 192.980  1.00  0.00     0.039 C 
BRANCH   3   5
ATOM      5  C   UNL     1     191.961 185.911 193.950  1.00  0.00     0.034 C 
BRANCH   5   6
ATOM      6  C   UNL     1     192.381 187.386 193.964  1.00  0.00     0.032 C 
BRANCH   6   7
ATOM      7  C   UNL     1     193.661 187.571 194.741  1.00  0.00    -0.028 C 
ATOM      8  C   UNL     1     194.170 189.784 193.684  1.00  0.00     0.039 C 
ATOM      9  C   UNL     1     194.458 188.659 194.649  1.00  0.00    -0.080 C 
ATOM     10  C   UNL     1     195.702 188.752 195.494  1.00  0.00     0.039 C 
ENDBRANCH   6   7
ENDBRANCH   5   6
ENDBRANCH   3   5
ENDBRANCH   1   2
BRANCH   1  11
ATOM     11  C   UNL     1     187.734 187.276 192.442  1.00  0.00     0.034 C 
BRANCH  11  12
ATOM     12  C   UNL     1     186.743 186.174 192.764  1.00  0.00    -0.077 C 
ATOM     13  C   UNL     1     186.001 186.144 193.896  1.00  0.00    -0.028 C 
ATOM     14  C   UNL     1     186.576 185.042 191.781  1.00  0.00     0.039 C 
BRANCH  13  15
ATOM     15  C   UNL     1     186.008 187.193 194.987  1.00  0.00     0.035 C 
BRANCH  15  16
ATOM     16  C   UNL     1     187.153 186.954 195.981  1.00  0.00     0.079 C 
BRANCH  16  17
ATOM     17  C   UNL     1     186.734 186.055 197.115  1.00  0.00     0.130 C 
ATOM     18  O   UNL     1     187.004 184.864 197.073  1.00  0.00    -0.300 OA
ATOM     19  C   UNL     1     186.018 186.605 198.313  1.00  0.00     0.087 C 
ENDBRANCH  16  17
ENDBRANCH  15  16
ENDBRANCH  13  15
ENDBRANCH  11  12
ENDBRANCH   1  11
TORSDOF 9
ENDMDL
MODEL 6
REMARK VINA RESULT:    -4.581      5.760      9.954
REMARK INTER + INTRA:          -8.448
REMARK INTER:                  -7.324
REMARK INTRA:                  -1.124
REMARK UNBOUND:                -1.457
REMARK SMILES CC(=O)CCC=C(C)CCC=C(C)CCC=C(C)C
REMARK SMILES IDX 10 1 11 2 12 3 13 4 14 5 15 6 16 7 18 8 17 9 19 10 9 11 7 12
REMARK SMILES IDX 6 13 8 14 5 15 4 16 2 17 3 18 1 19
REMARK H PARENT
REMARK Flexibility Score: inf
ROOT
ATOM      1  C   UNL     1     188.598 186.066 194.493  1.00  0.00     0.032 C 
ENDROOT
BRANCH   1   2
ATOM      2  C   UNL     1     187.705 187.208 194.904  1.00  0.00    -0.028 C 
ATOM      3  C   UNL     1     186.579 187.071 195.642  1.00  0.00    -0.077 C 
ATOM      4  C   UNL     1     186.144 185.732 196.190  1.00  0.00     0.039 C 
BRANCH   3   5
ATOM      5  C   UNL     1     185.741 188.295 195.939  1.00  0.00     0.034 C 
BRANCH   5   6
ATOM      6  C   UNL     1     185.313 188.987 194.640  1.00  0.00     0.032 C 
BRANCH   6   7
ATOM      7  C   UNL     1     183.872 188.677 194.318  1.00  0.00    -0.028 C 
ATOM      8  C   UNL     1     184.455 186.801 192.765  1.00  0.00     0.039 C 
ATOM      9  C   UNL     1     183.471 187.676 193.502  1.00  0.00    -0.080 C 
ATOM     10  C   UNL     1     182.001 187.438 193.273  1.00  0.00     0.039 C 
ENDBRANCH   6   7
ENDBRANCH   5   6
ENDBRANCH   3   5
ENDBRANCH   1   2
BRANCH   1  11
ATOM     11  C   UNL     1     189.643 186.537 193.474  1.00  0.00     0.034 C 
BRANCH  11  12
ATOM     12  C   UNL     1     190.867 185.642 193.487  1.00  0.00    -0.077 C 
ATOM     13  C   UNL     1     192.114 186.086 193.770  1.00  0.00    -0.028 C 
ATOM     14  C   UNL     1     190.696 184.179 193.160  1.00  0.00     0.039 C 
BRANCH  13  15
ATOM     15  C   UNL     1     192.485 187.505 194.143  1.00  0.00     0.035 C 
BRANCH  15  16
ATOM     16  C   UNL     1     193.703 187.534 195.077  1.00  0.00     0.079 C 
BRANCH  16  17
ATOM     17  C   UNL     1     194.614 188.695 194.775  1.00  0.00     0.130 C 
ATOM     18  O   UNL     1     195.710 188.758 195.310  1.00  0.00    -0.300 OA
ATOM     19  C   UNL     1     194.210 189.761 193.800  1.00  0.00     0.087 C 
ENDBRANCH  16  17
ENDBRANCH  15  16
ENDBRANCH  13  15
ENDBRANCH  11  12
ENDBRANCH   1  11
TORSDOF 9
ENDMDL
MODEL 7
REMARK VINA RESULT:    -4.527      3.340      6.649
REMARK INTER + INTRA:          -8.367
REMARK INTER:                  -6.071
REMARK INTRA:                  -2.296
REMARK UNBOUND:                -1.457
REMARK SMILES CC(=O)CCC=C(C)CCC=C(C)CCC=C(C)C
REMARK SMILES IDX 10 1 11 2 12 3 13 4 14 5 15 6 16 7 18 8 17 9 19 10 9 11 7 12
REMARK SMILES IDX 6 13 8 14 5 15 4 16 2 17 3 18 1 19
REMARK H PARENT
REMARK Flexibility Score: inf
ROOT
ATOM      1  C   UNL     1     187.872 186.744 192.670  1.00  0.00     0.032 C 
ENDROOT
BRANCH   1   2
ATOM      2  C   UNL     1     186.367 186.680 192.698  1.00  0.00    -0.028 C 
ATOM      3  C   UNL     1     185.633 185.695 192.131  1.00  0.00    -0.077 C 
ATOM      4  C   UNL     1     186.279 184.506 191.460  1.00  0.00     0.039 C 
BRANCH   3   5
ATOM      5  C   UNL     1     184.124 185.779 192.186  1.00  0.00     0.034 C 
BRANCH   5   6
ATOM      6  C   UNL     1     183.656 186.234 193.573  1.00  0.00     0.032 C 
BRANCH   6   7
ATOM      7  C   UNL     1     182.372 187.020 193.474  1.00  0.00    -0.028 C 
ATOM      8  C   UNL     1     183.524 189.234 193.684  1.00  0.00     0.039 C 
ATOM      9  C   UNL     1     182.302 188.370 193.490  1.00  0.00    -0.080 C 
ATOM     10  C   UNL     1     180.965 189.053 193.355  1.00  0.00     0.039 C 
ENDBRANCH   6   7
ENDBRANCH   5   6
ENDBRANCH   3   5
ENDBRANCH   1   2
BRANCH   1  11
ATOM     11  C   UNL     1     188.451 186.473 194.063  1.00  0.00     0.034 C 
BRANCH  11  12
ATOM     12  C   UNL     1     188.499 184.985 194.358  1.00  0.00    -0.077 C 
ATOM     13  C   UNL     1     187.597 184.350 195.143  1.00  0.00    -0.028 C 
ATOM     14  C   UNL     1     189.613 184.165 193.758  1.00  0.00     0.039 C 
BRANCH  13  15
ATOM     15  C   UNL     1     186.400 184.990 195.812  1.00  0.00     0.035 C 
BRANCH  15  16
ATOM     16  C   UNL     1     186.783 185.607 197.164  1.00  0.00     0.079 C 
BRANCH  16  17
ATOM     17  C   UNL     1     186.065 186.907 197.412  1.00  0.00     0.130 C 
ATOM     18  O   UNL     1     185.723 187.202 198.547  1.00  0.00    -0.300 OA
ATOM     19  C   UNL     1     185.793 187.865 196.290  1.00  0.00     0.087 C 
ENDBRANCH  16  17
ENDBRANCH  15  16
ENDBRANCH  13  15
ENDBRANCH  11  12
ENDBRANCH   1  11
TORSDOF 9
ENDMDL
MODEL 8
REMARK VINA RESULT:    -4.498      5.370      9.325
REMARK INTER + INTRA:          -8.323
REMARK INTER:                  -6.875
REMARK INTRA:                  -1.448
REMARK UNBOUND:                -1.457
REMARK SMILES CC(=O)CCC=C(C)CCC=C(C)CCC=C(C)C
REMARK SMILES IDX 10 1 11 2 12 3 13 4 14 5 15 6 16 7 18 8 17 9 19 10 9 11 7 12
REMARK SMILES IDX 6 13 8 14 5 15 4 16 2 17 3 18 1 19
REMARK H PARENT
REMARK Flexibility Score: inf
ROOT
ATOM      1  C   UNL     1     188.371 187.149 192.523  1.00  0.00     0.032 C 
ENDROOT
BRANCH   1   2
ATOM      2  C   UNL     1     186.921 186.739 192.534  1.00  0.00    -0.028 C 
ATOM      3  C   UNL     1     185.905 187.532 192.948  1.00  0.00    -0.077 C 
ATOM      4  C   UNL     1     186.136 188.961 193.382  1.00  0.00     0.039 C 
BRANCH   3   5
ATOM      5  C   UNL     1     184.498 186.978 192.959  1.00  0.00     0.034 C 
BRANCH   5   6
ATOM      6  C   UNL     1     184.105 186.525 194.370  1.00  0.00     0.032 C 
BRANCH   6   7
ATOM      7  C   UNL     1     185.153 185.607 194.949  1.00  0.00    -0.028 C 
ATOM      8  C   UNL     1     185.875 187.263 196.684  1.00  0.00     0.039 C 
ATOM      9  C   UNL     1     185.933 185.914 196.010  1.00  0.00    -0.080 C 
ATOM     10  C   UNL     1     186.931 184.908 196.524  1.00  0.00     0.039 C 
ENDBRANCH   6   7
ENDBRANCH   5   6
ENDBRANCH   3   5
ENDBRANCH   1   2
BRANCH   1  11
ATOM     11  C   UNL     1     189.046 186.781 193.850  1.00  0.00     0.034 C 
BRANCH  11  12
ATOM     12  C   UNL     1     190.023 185.634 193.669  1.00  0.00    -0.077 C 
ATOM     13  C   UNL     1     191.359 185.806 193.532  1.00  0.00    -0.028 C 
ATOM     14  C   UNL     1     189.485 184.226 193.629  1.00  0.00     0.039 C 
BRANCH  13  15
ATOM     15  C   UNL     1     192.089 187.131 193.569  1.00  0.00     0.035 C 
BRANCH  15  16
ATOM     16  C   UNL     1     193.244 187.102 194.579  1.00  0.00     0.079 C 
BRANCH  16  17
ATOM     17  C   UNL     1     194.089 188.347 194.503  1.00  0.00     0.130 C 
ATOM     18  O   UNL     1     193.951 189.114 193.562  1.00  0.00    -0.300 OA
ATOM     19  C   UNL     1     195.075 188.678 195.583  1.00  0.00     0.087 C 
ENDBRANCH  16  17
ENDBRANCH  15  16
ENDBRANCH  13  15
ENDBRANCH  11  12
ENDBRANCH   1  11
TORSDOF 9
ENDMDL
MODEL 9
REMARK VINA RESULT:    -4.471     10.789     13.031
REMARK INTER + INTRA:          -8.280
REMARK INTER:                  -7.269
REMARK INTRA:                  -1.011
REMARK UNBOUND:                -1.457
REMARK SMILES CC(=O)CCC=C(C)CCC=C(C)CCC=C(C)C
REMARK SMILES IDX 10 1 11 2 12 3 13 4 14 5 15 6 16 7 18 8 17 9 19 10 9 11 7 12
REMARK SMILES IDX 6 13 8 14 5 15 4 16 2 17 3 18 1 19
REMARK H PARENT
REMARK Flexibility Score: inf
ROOT
ATOM      1  C   UNL     1     192.350 178.169 197.961  1.00  0.00     0.032 C 
ENDROOT
BRANCH   1   2
ATOM      2  C   UNL     1     193.134 177.934 196.696  1.00  0.00    -0.028 C 
ATOM      3  C   UNL     1     194.082 178.773 196.217  1.00  0.00    -0.077 C 
ATOM      4  C   UNL     1     194.495 180.018 196.967  1.00  0.00     0.039 C 
BRANCH   3   5
ATOM      5  C   UNL     1     194.757 178.446 194.904  1.00  0.00     0.034 C 
BRANCH   5   6
ATOM      6  C   UNL     1     195.600 179.631 194.418  1.00  0.00     0.032 C 
BRANCH   6   7
ATOM      7  C   UNL     1     195.312 179.935 192.969  1.00  0.00    -0.028 C 
ATOM      8  C   UNL     1     193.531 181.611 193.508  1.00  0.00     0.039 C 
ATOM      9  C   UNL     1     194.407 180.847 192.546  1.00  0.00    -0.080 C 
ATOM     10  C   UNL     1     194.220 181.090 191.071  1.00  0.00     0.039 C 
ENDBRANCH   6   7
ENDBRANCH   5   6
ENDBRANCH   3   5
ENDBRANCH   1   2
BRANCH   1  11
ATOM     11  C   UNL     1     191.877 176.837 198.558  1.00  0.00     0.034 C 
BRANCH  11  12
ATOM     12  C   UNL     1     191.415 177.011 199.993  1.00  0.00    -0.077 C 
ATOM     13  C   UNL     1     190.219 177.546 200.332  1.00  0.00    -0.028 C 
ATOM     14  C   UNL     1     192.335 176.576 201.106  1.00  0.00     0.039 C 
BRANCH  13  15
ATOM     15  C   UNL     1     189.154 178.018 199.367  1.00  0.00     0.035 C 
BRANCH  15  16
ATOM     16  C   UNL     1     189.025 179.547 199.383  1.00  0.00     0.079 C 
BRANCH  16  17
ATOM     17  C   UNL     1     188.098 180.021 200.472  1.00  0.00     0.130 C 
ATOM     18  O   UNL     1     186.904 179.770 200.401  1.00  0.00    -0.300 OA
ATOM     19  C   UNL     1     188.622 180.768 201.662  1.00  0.00     0.087 C 
ENDBRANCH  16  17
ENDBRANCH  15  16
ENDBRANCH  13  15
ENDBRANCH  11  12
ENDBRANCH   1  11
TORSDOF 9
ENDMDL
