MODEL 1
REMARK VINA RESULT:    -6.494      0.000      0.000
REMARK INTER + INTRA:          -7.153
REMARK INTER:                  -7.064
REMARK INTRA:                  -0.089
REMARK UNBOUND:                -0.089
REMARK SMILES CC1(C)CC[C@@]2(C(=O)[O-])CC[C@]3(C)C(=CC[C@@H]4[C@@]5(C)CC[C@H](O)C(C)(C)[C@H]5CC[C@@]43C)[C@H]2C1
REMARK SMILES IDX 6 1 5 2 10 3 32 4 4 5 11 6 14 7 33 8 2 9 12 10 15 11 1 12
REMARK SMILES IDX 3 13 13 14 30 15 16 16 17 17 29 18 31 19 18 20 28 21 27 22
REMARK SMILES IDX 20 23 19 24 24 25 21 26 22 27 25 28 26 29 7 30 8 31 9 32
REMARK SMILES IDX 23 33
REMARK H PARENT 23 34
REMARK Flexibility Score: inf
ROOT
ATOM      1  C   UNL     1       2.001   4.398 -24.993  1.00  0.00     0.017 C 
ATOM      2  C   UNL     1       2.082   2.902 -24.577  1.00  0.00     0.014 C 
ATOM      3  C   UNL     1       1.851   5.297 -23.749  1.00  0.00     0.014 C 
ATOM      4  C   UNL     1       3.286   4.841 -25.754  1.00  0.00     0.028 C 
ATOM      5  C   UNL     1       3.378   2.522 -23.851  1.00  0.00     0.007 C 
ATOM      6  C   UNL     1       1.627   6.774 -24.096  1.00  0.00     0.013 C 
ATOM      7  C   UNL     1       3.349   6.355 -25.998  1.00  0.00    -0.064 C 
ATOM      8  C   UNL     1       4.593   4.400 -25.028  1.00  0.00     0.015 C 
ATOM      9  C   UNL     1       4.643   2.899 -24.653  1.00  0.00    -0.035 C 
ATOM     10  C   UNL     1       2.442   7.389 -25.314  1.00  0.00    -0.006 C 
ATOM     11  C   UNL     1       4.274   6.783 -26.871  1.00  0.00    -0.027 C 
ATOM     12  C   UNL     1       4.786   2.019 -25.917  1.00  0.00     0.011 C 
ATOM     13  C   UNL     1       5.880   2.652 -23.762  1.00  0.00     0.011 C 
ATOM     14  C   UNL     1       1.402   7.825 -26.397  1.00  0.00     0.017 C 
ATOM     15  C   UNL     1       3.313   8.666 -24.857  1.00  0.00    -0.020 C 
ATOM     16  C   UNL     1       4.702   8.208 -27.032  1.00  0.00     0.032 C 
ATOM     17  C   UNL     1       4.074   9.307 -26.095  1.00  0.00     0.006 C 
ATOM     18  C   UNL     1       4.402   8.227 -23.837  1.00  0.00     0.008 C 
ATOM     19  C   UNL     1       2.334   9.714 -24.210  1.00  0.00     0.012 C 
ATOM     20  C   UNL     1       5.159  10.456 -25.767  1.00  0.00    -0.025 C 
ATOM     21  C   UNL     1       5.397   9.328 -23.455  1.00  0.00     0.005 C 
ATOM     22  C   UNL     1       6.173   9.952 -24.658  1.00  0.00     0.003 C 
ATOM     23  C   UNL     1       4.498  11.788 -25.280  1.00  0.00     0.010 C 
ATOM     24  C   UNL     1       5.876  10.793 -27.125  1.00  0.00     0.012 C 
ATOM     25  C   UNL     1       7.218  11.058 -24.165  1.00  0.00    -0.006 C 
ATOM     26  C   UNL     1       5.499  12.881 -24.861  1.00  0.00     0.033 C 
ATOM     27  C   UNL     1       6.473  12.379 -23.778  1.00  0.00     0.120 C 
ATOM     28  C   UNL     1       7.995  10.565 -22.910  1.00  0.00     0.014 C 
ATOM     29  C   UNL     1       8.310  11.319 -25.244  1.00  0.00     0.014 C 
ENDROOT
BRANCH   1  30
ATOM     30  C   UNL     1       0.763   4.507 -25.875  1.00  0.00     0.048 C 
ATOM     31  O   UNL     1       0.871   4.638 -27.124  1.00  0.00    -0.550 OA
ATOM     32  O   UNL     1      -0.504   4.345 -25.325  1.00  0.00    -0.550 OA
ENDBRANCH   1  30
BRANCH  27  33
ATOM     33  O   UNL     1       7.374  13.395 -23.404  1.00  0.00    -0.393 OA
ATOM     34  H   UNL     1       8.266  13.175 -23.779  1.00  0.00     0.210 HD
ENDBRANCH  27  33
TORSDOF 2
ENDMDL
MODEL 2
REMARK VINA RESULT:    -6.465      2.156      7.542
REMARK INTER + INTRA:          -7.121
REMARK INTER:                  -7.717
REMARK INTRA:                   0.596
REMARK UNBOUND:                -0.089
REMARK SMILES CC1(C)CC[C@@]2(C(=O)[O-])CC[C@]3(C)C(=CC[C@@H]4[C@@]5(C)CC[C@H](O)C(C)(C)[C@H]5CC[C@@]43C)[C@H]2C1
REMARK SMILES IDX 6 1 5 2 10 3 32 4 4 5 11 6 14 7 33 8 2 9 12 10 15 11 1 12
REMARK SMILES IDX 3 13 13 14 30 15 16 16 17 17 29 18 31 19 18 20 28 21 27 22
REMARK SMILES IDX 20 23 19 24 24 25 21 26 22 27 25 28 26 29 7 30 8 31 9 32
REMARK SMILES IDX 23 33
REMARK H PARENT 23 34
REMARK Flexibility Score: inf
ROOT
ATOM      1  C   UNL     1       3.360   9.853 -24.847  1.00  0.00     0.017 C 
ATOM      2  C   UNL     1       4.153  11.177 -25.038  1.00  0.00     0.014 C 
ATOM      3  C   UNL     1       3.030   9.220 -26.214  1.00  0.00     0.014 C 
ATOM      4  C   UNL     1       4.181   8.818 -24.023  1.00  0.00     0.028 C 
ATOM      5  C   UNL     1       5.581  10.982 -25.561  1.00  0.00     0.007 C 
ATOM      6  C   UNL     1       2.129   7.983 -26.105  1.00  0.00     0.013 C 
ATOM      7  C   UNL     1       3.534   7.427 -23.989  1.00  0.00    -0.064 C 
ATOM      8  C   UNL     1       5.646   8.673 -24.536  1.00  0.00     0.015 C 
ATOM      9  C   UNL     1       6.408  10.011 -24.689  1.00  0.00    -0.035 C 
ATOM     10  C   UNL     1       2.388   6.973 -24.906  1.00  0.00    -0.006 C 
ATOM     11  C   UNL     1       4.026   6.560 -23.091  1.00  0.00    -0.027 C 
ATOM     12  C   UNL     1       6.720  10.630 -23.306  1.00  0.00     0.011 C 
ATOM     13  C   UNL     1       7.752   9.738 -25.399  1.00  0.00     0.011 C 
ATOM     14  C   UNL     1       1.105   6.974 -24.012  1.00  0.00     0.017 C 
ATOM     15  C   UNL     1       2.670   5.480 -25.441  1.00  0.00    -0.020 C 
ATOM     16  C   UNL     1       3.755   5.087 -23.088  1.00  0.00     0.032 C 
ATOM     17  C   UNL     1       2.866   4.469 -24.232  1.00  0.00     0.006 C 
ATOM     18  C   UNL     1       3.988   5.455 -26.268  1.00  0.00     0.008 C 
ATOM     19  C   UNL     1       1.447   5.045 -26.331  1.00  0.00     0.012 C 
ATOM     20  C   UNL     1       3.375   2.982 -24.600  1.00  0.00    -0.025 C 
ATOM     21  C   UNL     1       4.446   4.055 -26.692  1.00  0.00     0.005 C 
ATOM     22  C   UNL     1       4.668   3.055 -25.512  1.00  0.00     0.003 C 
ATOM     23  C   UNL     1       2.283   2.138 -25.338  1.00  0.00     0.010 C 
ATOM     24  C   UNL     1       3.645   2.253 -23.235  1.00  0.00     0.012 C 
ATOM     25  C   UNL     1       5.186   1.638 -26.042  1.00  0.00    -0.006 C 
ATOM     26  C   UNL     1       2.756   0.746 -25.797  1.00  0.00     0.033 C 
ATOM     27  C   UNL     1       4.010   0.833 -26.688  1.00  0.00     0.120 C 
ATOM     28  C   UNL     1       6.289   1.821 -27.125  1.00  0.00     0.014 C 
ATOM     29  C   UNL     1       5.866   0.827 -24.900  1.00  0.00     0.014 C 
ENDROOT
BRANCH   1  30
ATOM     30  C   UNL     1       2.077  10.250 -24.127  1.00  0.00     0.048 C 
ATOM     31  O   UNL     1       2.118  10.909 -23.054  1.00  0.00    -0.550 OA
ATOM     32  O   UNL     1       0.840   9.991 -24.708  1.00  0.00    -0.550 OA
ENDBRANCH   1  30
BRANCH  27  33
ATOM     33  O   UNL     1       4.420  -0.448 -27.103  1.00  0.00    -0.393 OA
ATOM     34  H   UNL     1       3.800  -0.760 -27.811  1.00  0.00     0.210 HD
ENDBRANCH  27  33
TORSDOF 2
ENDMDL
MODEL 3
REMARK VINA RESULT:    -6.379      4.556      8.489
REMARK INTER + INTRA:          -7.028
REMARK INTER:                  -7.104
REMARK INTRA:                   0.077
REMARK UNBOUND:                -0.089
REMARK SMILES CC1(C)CC[C@@]2(C(=O)[O-])CC[C@]3(C)C(=CC[C@@H]4[C@@]5(C)CC[C@H](O)C(C)(C)[C@H]5CC[C@@]43C)[C@H]2C1
REMARK SMILES IDX 6 1 5 2 10 3 32 4 4 5 11 6 14 7 33 8 2 9 12 10 15 11 1 12
REMARK SMILES IDX 3 13 13 14 30 15 16 16 17 17 29 18 31 19 18 20 28 21 27 22
REMARK SMILES IDX 20 23 19 24 24 25 21 26 22 27 25 28 26 29 7 30 8 31 9 32
REMARK SMILES IDX 23 33
REMARK H PARENT 23 34
REMARK Flexibility Score: inf
ROOT
ATOM      1  C   UNL     1       4.312  -3.320 -23.919  1.00  0.00     0.017 C 
ATOM      2  C   UNL     1       3.679  -4.625 -23.359  1.00  0.00     0.014 C 
ATOM      3  C   UNL     1       3.742  -3.001 -25.316  1.00  0.00     0.014 C 
ATOM      4  C   UNL     1       4.016  -2.106 -22.989  1.00  0.00     0.028 C 
ATOM      5  C   UNL     1       2.197  -4.494 -22.987  1.00  0.00     0.007 C 
ATOM      6  C   UNL     1       4.425  -1.802 -25.987  1.00  0.00     0.013 C 
ATOM      7  C   UNL     1       4.434  -0.762 -23.603  1.00  0.00    -0.064 C 
ATOM      8  C   UNL     1       2.515  -2.019 -22.579  1.00  0.00     0.015 C 
ATOM      9  C   UNL     1       1.930  -3.332 -22.004  1.00  0.00    -0.035 C 
ATOM     10  C   UNL     1       4.804  -0.553 -25.079  1.00  0.00    -0.006 C 
ATOM     11  C   UNL     1       4.464   0.291 -22.773  1.00  0.00    -0.027 C 
ATOM     12  C   UNL     1       2.523  -3.635 -20.607  1.00  0.00     0.011 C 
ATOM     13  C   UNL     1       0.403  -3.166 -21.845  1.00  0.00     0.011 C 
ATOM     14  C   UNL     1       6.362  -0.412 -25.110  1.00  0.00     0.017 C 
ATOM     15  C   UNL     1       4.130   0.803 -25.628  1.00  0.00    -0.020 C 
ATOM     16  C   UNL     1       4.551   1.721 -23.209  1.00  0.00     0.032 C 
ATOM     17  C   UNL     1       4.565   2.052 -24.749  1.00  0.00     0.006 C 
ATOM     18  C   UNL     1       2.580   0.701 -25.528  1.00  0.00     0.008 C 
ATOM     19  C   UNL     1       4.579   0.998 -27.124  1.00  0.00     0.012 C 
ATOM     20  C   UNL     1       3.803   3.445 -25.033  1.00  0.00    -0.025 C 
ATOM     21  C   UNL     1       1.834   1.996 -25.869  1.00  0.00     0.005 C 
ATOM     22  C   UNL     1       2.234   3.228 -24.997  1.00  0.00     0.003 C 
ATOM     23  C   UNL     1       4.194   4.076 -26.411  1.00  0.00     0.010 C 
ATOM     24  C   UNL     1       4.293   4.455 -23.933  1.00  0.00     0.012 C 
ATOM     25  C   UNL     1       1.377   4.520 -25.390  1.00  0.00    -0.006 C 
ATOM     26  C   UNL     1       3.417   5.357 -26.770  1.00  0.00     0.033 C 
ATOM     27  C   UNL     1       1.893   5.128 -26.737  1.00  0.00     0.120 C 
ATOM     28  C   UNL     1      -0.124   4.154 -25.579  1.00  0.00     0.014 C 
ATOM     29  C   UNL     1       1.399   5.577 -24.247  1.00  0.00     0.014 C 
ENDROOT
BRANCH   1  30
ATOM     30  C   UNL     1       5.807  -3.602 -24.011  1.00  0.00     0.048 C 
ATOM     31  O   UNL     1       6.347  -3.864 -25.120  1.00  0.00    -0.550 OA
ATOM     32  O   UNL     1       6.616  -3.459 -22.889  1.00  0.00    -0.550 OA
ENDBRANCH   1  30
BRANCH  27  33
ATOM     33  O   UNL     1       1.202   6.308 -27.075  1.00  0.00    -0.393 OA
ATOM     34  H   UNL     1       1.861   6.972 -27.405  1.00  0.00     0.210 HD
ENDBRANCH  27  33
TORSDOF 2
ENDMDL
MODEL 4
REMARK VINA RESULT:    -6.345      1.282      1.567
REMARK INTER + INTRA:          -6.990
REMARK INTER:                  -7.069
REMARK INTRA:                   0.079
REMARK UNBOUND:                -0.089
REMARK SMILES CC1(C)CC[C@@]2(C(=O)[O-])CC[C@]3(C)C(=CC[C@@H]4[C@@]5(C)CC[C@H](O)C(C)(C)[C@H]5CC[C@@]43C)[C@H]2C1
REMARK SMILES IDX 6 1 5 2 10 3 32 4 4 5 11 6 14 7 33 8 2 9 12 10 15 11 1 12
REMARK SMILES IDX 3 13 13 14 30 15 16 16 17 17 29 18 31 19 18 20 28 21 27 22
REMARK SMILES IDX 20 23 19 24 24 25 21 26 22 27 25 28 26 29 7 30 8 31 9 32
REMARK SMILES IDX 23 33
REMARK H PARENT 23 34
REMARK Flexibility Score: inf
ROOT
ATOM      1  C   UNL     1       2.278   2.693 -25.065  1.00  0.00     0.017 C 
ATOM      2  C   UNL     1       2.587   1.227 -24.651  1.00  0.00     0.014 C 
ATOM      3  C   UNL     1       1.971   3.551 -23.821  1.00  0.00     0.014 C 
ATOM      4  C   UNL     1       3.488   3.336 -25.806  1.00  0.00     0.028 C 
ATOM      5  C   UNL     1       3.916   1.052 -23.907  1.00  0.00     0.007 C 
ATOM      6  C   UNL     1       1.522   4.977 -24.167  1.00  0.00     0.013 C 
ATOM      7  C   UNL     1       3.315   4.843 -26.045  1.00  0.00    -0.064 C 
ATOM      8  C   UNL     1       4.837   3.103 -25.062  1.00  0.00     0.015 C 
ATOM      9  C   UNL     1       5.117   1.627 -24.690  1.00  0.00    -0.035 C 
ATOM     10  C   UNL     1       2.247   5.718 -25.371  1.00  0.00    -0.006 C 
ATOM     11  C   UNL     1       4.173   5.415 -26.903  1.00  0.00    -0.027 C 
ATOM     12  C   UNL     1       5.415   0.786 -25.954  1.00  0.00     0.011 C 
ATOM     13  C   UNL     1       6.365   1.573 -23.781  1.00  0.00     0.011 C 
ATOM     14  C   UNL     1       1.167   5.990 -26.468  1.00  0.00     0.017 C 
ATOM     15  C   UNL     1       2.900   7.114 -24.899  1.00  0.00    -0.020 C 
ATOM     16  C   UNL     1       4.374   6.891 -27.054  1.00  0.00     0.032 C 
ATOM     17  C   UNL     1       3.568   7.873 -26.123  1.00  0.00     0.006 C 
ATOM     18  C   UNL     1       4.030   6.847 -23.863  1.00  0.00     0.008 C 
ATOM     19  C   UNL     1       1.759   7.991 -24.262  1.00  0.00     0.012 C 
ATOM     20  C   UNL     1       4.454   9.176 -25.777  1.00  0.00    -0.025 C 
ATOM     21  C   UNL     1       4.834   8.089 -23.465  1.00  0.00     0.005 C 
ATOM     22  C   UNL     1       5.519   8.833 -24.654  1.00  0.00     0.003 C 
ATOM     23  C   UNL     1       3.585  10.385 -25.296  1.00  0.00     0.010 C 
ATOM     24  C   UNL     1       5.128   9.628 -27.123  1.00  0.00     0.012 C 
ATOM     25  C   UNL     1       6.370  10.086 -24.143  1.00  0.00    -0.006 C 
ATOM     26  C   UNL     1       4.396  11.620 -24.859  1.00  0.00     0.033 C 
ATOM     27  C   UNL     1       5.422  11.272 -23.763  1.00  0.00     0.120 C 
ATOM     28  C   UNL     1       7.197   9.715 -22.877  1.00  0.00     0.014 C 
ATOM     29  C   UNL     1       7.422  10.521 -25.205  1.00  0.00     0.014 C 
ENDROOT
BRANCH   1  30
ATOM     30  C   UNL     1       1.050   2.611 -25.965  1.00  0.00     0.048 C 
ATOM     31  O   UNL     1       1.133   2.126 -27.125  1.00  0.00    -0.550 OA
ATOM     32  O   UNL     1      -0.202   2.961 -25.473  1.00  0.00    -0.550 OA
ENDBRANCH   1  30
BRANCH  27  33
ATOM     33  O   UNL     1       6.146  12.415 -23.373  1.00  0.00    -0.393 OA
ATOM     34  H   UNL     1       6.747  12.673 -24.119  1.00  0.00     0.210 HD
ENDBRANCH  27  33
TORSDOF 2
ENDMDL
MODEL 5
REMARK VINA RESULT:    -5.701      3.088      8.569
REMARK INTER + INTRA:          -6.290
REMARK INTER:                  -6.245
REMARK INTRA:                  -0.045
REMARK UNBOUND:                -0.089
REMARK SMILES CC1(C)CC[C@@]2(C(=O)[O-])CC[C@]3(C)C(=CC[C@@H]4[C@@]5(C)CC[C@H](O)C(C)(C)[C@H]5CC[C@@]43C)[C@H]2C1
REMARK SMILES IDX 6 1 5 2 10 3 32 4 4 5 11 6 14 7 33 8 2 9 12 10 15 11 1 12
REMARK SMILES IDX 3 13 13 14 30 15 16 16 17 17 29 18 31 19 18 20 28 21 27 22
REMARK SMILES IDX 20 23 19 24 24 25 21 26 22 27 25 28 26 29 7 30 8 31 9 32
REMARK SMILES IDX 23 33
REMARK H PARENT 23 34
REMARK Flexibility Score: inf
ROOT
ATOM      1  C   UNL     1       3.756   7.711 -23.603  1.00  0.00     0.017 C 
ATOM      2  C   UNL     1       3.108   9.071 -23.987  1.00  0.00     0.014 C 
ATOM      3  C   UNL     1       2.782   6.872 -22.751  1.00  0.00     0.014 C 
ATOM      4  C   UNL     1       4.121   6.883 -24.871  1.00  0.00     0.028 C 
ATOM      5  C   UNL     1       1.953   8.956 -24.989  1.00  0.00     0.007 C 
ATOM      6  C   UNL     1       3.407   5.575 -22.221  1.00  0.00     0.013 C 
ATOM      7  C   UNL     1       4.564   5.450 -24.546  1.00  0.00    -0.064 C 
ATOM      8  C   UNL     1       2.953   6.821 -25.901  1.00  0.00     0.015 C 
ATOM      9  C   UNL     1       2.353   8.199 -26.274  1.00  0.00    -0.035 C 
ATOM     10  C   UNL     1       4.377   4.764 -23.185  1.00  0.00    -0.006 C 
ATOM     11  C   UNL     1       5.147   4.764 -25.541  1.00  0.00    -0.027 C 
ATOM     12  C   UNL     1       3.350   9.024 -27.122  1.00  0.00     0.011 C 
ATOM     13  C   UNL     1       1.084   7.972 -27.125  1.00  0.00     0.011 C 
ATOM     14  C   UNL     1       5.792   4.753 -22.518  1.00  0.00     0.017 C 
ATOM     15  C   UNL     1       3.869   3.250 -23.396  1.00  0.00    -0.020 C 
ATOM     16  C   UNL     1       5.381   3.285 -25.537  1.00  0.00     0.032 C 
ATOM     17  C   UNL     1       4.878   2.434 -24.311  1.00  0.00     0.006 C 
ATOM     18  C   UNL     1       2.497   3.250 -24.129  1.00  0.00     0.008 C 
ATOM     19  C   UNL     1       3.743   2.578 -21.979  1.00  0.00     0.012 C 
ATOM     20  C   UNL     1       4.401   0.971 -24.798  1.00  0.00    -0.025 C 
ATOM     21  C   UNL     1       1.991   1.861 -24.532  1.00  0.00     0.005 C 
ATOM     22  C   UNL     1       2.961   1.054 -25.452  1.00  0.00     0.003 C 
ATOM     23  C   UNL     1       4.366  -0.071 -23.631  1.00  0.00     0.010 C 
ATOM     24  C   UNL     1       5.490   0.460 -25.809  1.00  0.00     0.012 C 
ATOM     25  C   UNL     1       2.335  -0.360 -25.858  1.00  0.00    -0.006 C 
ATOM     26  C   UNL     1       3.822  -1.456 -24.028  1.00  0.00     0.033 C 
ATOM     27  C   UNL     1       2.419  -1.360 -24.657  1.00  0.00     0.120 C 
ATOM     28  C   UNL     1       0.836  -0.212 -26.249  1.00  0.00     0.014 C 
ATOM     29  C   UNL     1       3.031  -0.939 -27.125  1.00  0.00     0.014 C 
ENDROOT
BRANCH   1  30
ATOM     30  C   UNL     1       4.995   8.067 -22.791  1.00  0.00     0.048 C 
ATOM     31  O   UNL     1       6.052   8.446 -23.362  1.00  0.00    -0.550 OA
ATOM     32  O   UNL     1       4.938   8.090 -21.402  1.00  0.00    -0.550 OA
ENDBRANCH   1  30
BRANCH  27  33
ATOM     33  O   UNL     1       1.937  -2.636 -25.005  1.00  0.00    -0.393 OA
ATOM     34  H   UNL     1       2.147  -3.262 -24.264  1.00  0.00     0.210 HD
ENDBRANCH  27  33
TORSDOF 2
ENDMDL
MODEL 6
REMARK VINA RESULT:    -5.084      3.439      6.564
REMARK INTER + INTRA:          -5.620
REMARK INTER:                  -5.479
REMARK INTRA:                  -0.141
REMARK UNBOUND:                -0.089
REMARK SMILES CC1(C)CC[C@@]2(C(=O)[O-])CC[C@]3(C)C(=CC[C@@H]4[C@@]5(C)CC[C@H](O)C(C)(C)[C@H]5CC[C@@]43C)[C@H]2C1
REMARK SMILES IDX 6 1 5 2 10 3 32 4 4 5 11 6 14 7 33 8 2 9 12 10 15 11 1 12
REMARK SMILES IDX 3 13 13 14 30 15 16 16 17 17 29 18 31 19 18 20 28 21 27 22
REMARK SMILES IDX 20 23 19 24 24 25 21 26 22 27 25 28 26 29 7 30 8 31 9 32
REMARK SMILES IDX 23 33
REMARK H PARENT 23 34
REMARK Flexibility Score: inf
ROOT
ATOM      1  C   UNL     1       3.896  -1.540 -24.027  1.00  0.00     0.017 C 
ATOM      2  C   UNL     1       3.999  -2.573 -22.869  1.00  0.00     0.014 C 
ATOM      3  C   UNL     1       2.428  -1.116 -24.241  1.00  0.00     0.014 C 
ATOM      4  C   UNL     1       4.725  -0.259 -23.714  1.00  0.00     0.028 C 
ATOM      5  C   UNL     1       3.714  -1.990 -21.480  1.00  0.00     0.007 C 
ATOM      6  C   UNL     1       2.236  -0.203 -25.459  1.00  0.00     0.013 C 
ATOM      7  C   UNL     1       4.486   0.873 -24.723  1.00  0.00    -0.064 C 
ATOM      8  C   UNL     1       4.462   0.289 -22.280  1.00  0.00     0.015 C 
ATOM      9  C   UNL     1       4.599  -0.766 -21.155  1.00  0.00    -0.035 C 
ATOM     10  C   UNL     1       3.338   0.907 -25.743  1.00  0.00    -0.006 C 
ATOM     11  C   UNL     1       5.350   1.899 -24.686  1.00  0.00    -0.027 C 
ATOM     12  C   UNL     1       6.077  -1.181 -20.964  1.00  0.00     0.011 C 
ATOM     13  C   UNL     1       4.107  -0.144 -19.830  1.00  0.00     0.011 C 
ATOM     14  C   UNL     1       3.989   0.573 -27.125  1.00  0.00     0.017 C 
ATOM     15  C   UNL     1       2.692   2.382 -25.794  1.00  0.00    -0.020 C 
ATOM     16  C   UNL     1       5.137   3.220 -25.359  1.00  0.00     0.032 C 
ATOM     17  C   UNL     1       3.792   3.474 -26.138  1.00  0.00     0.006 C 
ATOM     18  C   UNL     1       2.109   2.753 -24.400  1.00  0.00     0.008 C 
ATOM     19  C   UNL     1       1.558   2.377 -26.886  1.00  0.00     0.012 C 
ATOM     20  C   UNL     1       3.349   5.021 -26.009  1.00  0.00    -0.025 C 
ATOM     21  C   UNL     1       1.614   4.199 -24.281  1.00  0.00     0.005 C 
ATOM     22  C   UNL     1       2.690   5.286 -24.593  1.00  0.00     0.003 C 
ATOM     23  C   UNL     1       2.340   5.454 -27.125  1.00  0.00     0.010 C 
ATOM     24  C   UNL     1       4.648   5.877 -26.235  1.00  0.00     0.012 C 
ATOM     25  C   UNL     1       2.099   6.760 -24.402  1.00  0.00    -0.006 C 
ATOM     26  C   UNL     1       1.814   6.894 -26.983  1.00  0.00     0.033 C 
ATOM     27  C   UNL     1       1.170   7.135 -25.604  1.00  0.00     0.120 C 
ATOM     28  C   UNL     1       1.253   6.853 -23.099  1.00  0.00     0.014 C 
ATOM     29  C   UNL     1       3.241   7.803 -24.223  1.00  0.00     0.014 C 
ENDROOT
BRANCH   1  30
ATOM     30  C   UNL     1       4.423  -2.261 -25.262  1.00  0.00     0.048 C 
ATOM     31  O   UNL     1       5.649  -2.231 -25.551  1.00  0.00    -0.550 OA
ATOM     32  O   UNL     1       3.574  -3.059 -26.021  1.00  0.00    -0.550 OA
ENDBRANCH   1  30
BRANCH  27  33
ATOM     33  O   UNL     1       0.688   8.454 -25.499  1.00  0.00    -0.393 OA
ATOM     34  H   UNL     1       0.706   8.866 -26.402  1.00  0.00     0.210 HD
ENDBRANCH  27  33
TORSDOF 2
ENDMDL
MODEL 7
REMARK VINA RESULT:    -4.845      3.333      6.450
REMARK INTER + INTRA:          -5.359
REMARK INTER:                  -5.201
REMARK INTRA:                  -0.158
REMARK UNBOUND:                -0.089
REMARK SMILES CC1(C)CC[C@@]2(C(=O)[O-])CC[C@]3(C)C(=CC[C@@H]4[C@@]5(C)CC[C@H](O)C(C)(C)[C@H]5CC[C@@]43C)[C@H]2C1
REMARK SMILES IDX 6 1 5 2 10 3 32 4 4 5 11 6 14 7 33 8 2 9 12 10 15 11 1 12
REMARK SMILES IDX 3 13 13 14 30 15 16 16 17 17 29 18 31 19 18 20 28 21 27 22
REMARK SMILES IDX 20 23 19 24 24 25 21 26 22 27 25 28 26 29 7 30 8 31 9 32
REMARK SMILES IDX 23 33
REMARK H PARENT 23 34
REMARK Flexibility Score: inf
ROOT
ATOM      1  C   UNL     1       3.804  -0.944 -25.901  1.00  0.00     0.017 C 
ATOM      2  C   UNL     1       3.085  -2.220 -26.421  1.00  0.00     0.014 C 
ATOM      3  C   UNL     1       4.284  -0.076 -27.082  1.00  0.00     0.014 C 
ATOM      4  C   UNL     1       2.850  -0.078 -25.025  1.00  0.00     0.028 C 
ATOM      5  C   UNL     1       1.730  -1.951 -27.086  1.00  0.00     0.007 C 
ATOM      6  C   UNL     1       5.123   1.131 -26.642  1.00  0.00     0.013 C 
ATOM      7  C   UNL     1       3.442   1.292 -24.666  1.00  0.00    -0.064 C 
ATOM      8  C   UNL     1       1.459   0.141 -25.693  1.00  0.00     0.015 C 
ATOM      9  C   UNL     1       0.768  -1.157 -26.175  1.00  0.00    -0.035 C 
ATOM     10  C   UNL     1       4.680   1.911 -25.330  1.00  0.00    -0.006 C 
ATOM     11  C   UNL     1       2.811   1.982 -23.704  1.00  0.00    -0.027 C 
ATOM     12  C   UNL     1       0.302  -2.013 -24.974  1.00  0.00     0.011 C 
ATOM     13  C   UNL     1      -0.483  -0.776 -26.997  1.00  0.00     0.011 C 
ATOM     14  C   UNL     1       5.838   1.765 -24.289  1.00  0.00     0.017 C 
ATOM     15  C   UNL     1       4.420   3.472 -25.631  1.00  0.00    -0.020 C 
ATOM     16  C   UNL     1       3.031   3.434 -23.409  1.00  0.00     0.032 C 
ATOM     17  C   UNL     1       4.037   4.252 -24.302  1.00  0.00     0.006 C 
ATOM     18  C   UNL     1       3.218   3.630 -26.607  1.00  0.00     0.008 C 
ATOM     19  C   UNL     1       5.731   4.070 -26.264  1.00  0.00     0.012 C 
ATOM     20  C   UNL     1       3.532   5.776 -24.470  1.00  0.00    -0.025 C 
ATOM     21  C   UNL     1       2.772   5.078 -26.838  1.00  0.00     0.005 C 
ATOM     22  C   UNL     1       2.369   5.852 -25.543  1.00  0.00     0.003 C 
ATOM     23  C   UNL     1       4.680   6.748 -24.900  1.00  0.00     0.010 C 
ATOM     24  C   UNL     1       3.065   6.250 -23.047  1.00  0.00     0.012 C 
ATOM     25  C   UNL     1       1.876   7.335 -25.883  1.00  0.00    -0.006 C 
ATOM     26  C   UNL     1       4.224   8.194 -25.169  1.00  0.00     0.033 C 
ATOM     27  C   UNL     1       3.098   8.253 -26.219  1.00  0.00     0.120 C 
ATOM     28  C   UNL     1       0.927   7.335 -27.116  1.00  0.00     0.014 C 
ATOM     29  C   UNL     1       1.030   7.925 -24.717  1.00  0.00     0.014 C 
ENDROOT
BRANCH   1  30
ATOM     30  C   UNL     1       4.997  -1.449 -25.098  1.00  0.00     0.048 C 
ATOM     31  O   UNL     1       4.921  -1.585 -23.848  1.00  0.00    -0.550 OA
ATOM     32  O   UNL     1       6.148  -1.877 -25.750  1.00  0.00    -0.550 OA
ENDBRANCH   1  30
BRANCH  27  33
ATOM     33  O   UNL     1       2.702   9.583 -26.456  1.00  0.00    -0.393 OA
ATOM     34  H   UNL     1       1.815   9.724 -26.035  1.00  0.00     0.210 HD
ENDBRANCH  27  33
TORSDOF 2
ENDMDL
MODEL 8
REMARK VINA RESULT:    -4.656      3.460      9.057
REMARK INTER + INTRA:          -5.154
REMARK INTER:                  -5.410
REMARK INTRA:                   0.256
REMARK UNBOUND:                -0.089
REMARK SMILES CC1(C)CC[C@@]2(C(=O)[O-])CC[C@]3(C)C(=CC[C@@H]4[C@@]5(C)CC[C@H](O)C(C)(C)[C@H]5CC[C@@]43C)[C@H]2C1
REMARK SMILES IDX 6 1 5 2 10 3 32 4 4 5 11 6 14 7 33 8 2 9 12 10 15 11 1 12
REMARK SMILES IDX 3 13 13 14 30 15 16 16 17 17 29 18 31 19 18 20 28 21 27 22
REMARK SMILES IDX 20 23 19 24 24 25 21 26 22 27 25 28 26 29 7 30 8 31 9 32
REMARK SMILES IDX 23 33
REMARK H PARENT 23 34
REMARK Flexibility Score: inf
ROOT
ATOM      1  C   UNL     1       3.701   6.518 -23.617  1.00  0.00     0.017 C 
ATOM      2  C   UNL     1       2.823   7.744 -23.995  1.00  0.00     0.014 C 
ATOM      3  C   UNL     1       2.973   5.629 -22.589  1.00  0.00     0.014 C 
ATOM      4  C   UNL     1       4.017   5.645 -24.868  1.00  0.00     0.028 C 
ATOM      5  C   UNL     1       1.579   7.394 -24.821  1.00  0.00     0.007 C 
ATOM      6  C   UNL     1       3.839   4.475 -22.068  1.00  0.00     0.013 C 
ATOM      7  C   UNL     1       4.698   4.315 -24.516  1.00  0.00    -0.064 C 
ATOM      8  C   UNL     1       2.750   5.344 -25.723  1.00  0.00     0.015 C 
ATOM      9  C   UNL     1       1.917   6.594 -26.098  1.00  0.00    -0.035 C 
ATOM     10  C   UNL     1       4.785   3.724 -23.101  1.00  0.00    -0.006 C 
ATOM     11  C   UNL     1       5.243   3.633 -25.536  1.00  0.00    -0.027 C 
ATOM     12  C   UNL     1       2.671   7.472 -27.124  1.00  0.00     0.011 C 
ATOM     13  C   UNL     1       0.596   6.132 -26.751  1.00  0.00     0.011 C 
ATOM     14  C   UNL     1       6.259   3.956 -22.635  1.00  0.00     0.017 C 
ATOM     15  C   UNL     1       4.475   2.144 -23.145  1.00  0.00    -0.020 C 
ATOM     16  C   UNL     1       5.683   2.204 -25.470  1.00  0.00     0.032 C 
ATOM     17  C   UNL     1       5.467   1.397 -24.135  1.00  0.00     0.006 C 
ATOM     18  C   UNL     1       3.035   1.901 -23.682  1.00  0.00     0.008 C 
ATOM     19  C   UNL     1       4.626   1.579 -21.684  1.00  0.00     0.012 C 
ATOM     20  C   UNL     1       5.146  -0.151 -24.458  1.00  0.00    -0.025 C 
ATOM     21  C   UNL     1       2.686   0.428 -23.923  1.00  0.00     0.005 C 
ATOM     22  C   UNL     1       3.637  -0.315 -24.914  1.00  0.00     0.003 C 
ATOM     23  C   UNL     1       5.408  -1.090 -23.233  1.00  0.00     0.010 C 
ATOM     24  C   UNL     1       6.160  -0.594 -25.574  1.00  0.00     0.012 C 
ATOM     25  C   UNL     1       3.173  -1.828 -25.140  1.00  0.00    -0.006 C 
ATOM     26  C   UNL     1       5.021  -2.562 -23.464  1.00  0.00     0.033 C 
ATOM     27  C   UNL     1       3.550  -2.705 -23.900  1.00  0.00     0.120 C 
ATOM     28  C   UNL     1       1.631  -1.913 -25.331  1.00  0.00     0.014 C 
ATOM     29  C   UNL     1       3.779  -2.411 -26.450  1.00  0.00     0.014 C 
ENDROOT
BRANCH   1  30
ATOM     30  C   UNL     1       4.970   7.101 -23.007  1.00  0.00     0.048 C 
ATOM     31  O   UNL     1       5.748   7.814 -23.695  1.00  0.00    -0.550 OA
ATOM     32  O   UNL     1       5.225   6.949 -21.648  1.00  0.00    -0.550 OA
ENDBRANCH   1  30
BRANCH  27  33
ATOM     33  O   UNL     1       3.215  -4.059 -24.097  1.00  0.00    -0.393 OA
ATOM     34  H   UNL     1       3.624  -4.591 -23.366  1.00  0.00     0.210 HD
ENDBRANCH  27  33
TORSDOF 2
ENDMDL
MODEL 9
REMARK VINA RESULT:    -4.355      2.317      3.602
REMARK INTER + INTRA:          -4.826
REMARK INTER:                  -5.087
REMARK INTRA:                   0.261
REMARK UNBOUND:                -0.089
REMARK SMILES CC1(C)CC[C@@]2(C(=O)[O-])CC[C@]3(C)C(=CC[C@@H]4[C@@]5(C)CC[C@H](O)C(C)(C)[C@H]5CC[C@@]43C)[C@H]2C1
REMARK SMILES IDX 6 1 5 2 10 3 32 4 4 5 11 6 14 7 33 8 2 9 12 10 15 11 1 12
REMARK SMILES IDX 3 13 13 14 30 15 16 16 17 17 29 18 31 19 18 20 28 21 27 22
REMARK SMILES IDX 20 23 19 24 24 25 21 26 22 27 25 28 26 29 7 30 8 31 9 32
REMARK SMILES IDX 23 33
REMARK H PARENT 23 34
REMARK Flexibility Score: inf
ROOT
ATOM      1  C   UNL     1       4.657   3.918 -22.715  1.00  0.00     0.017 C 
ATOM      2  C   UNL     1       4.669   2.472 -23.286  1.00  0.00     0.014 C 
ATOM      3  C   UNL     1       6.095   4.465 -22.603  1.00  0.00     0.014 C 
ATOM      4  C   UNL     1       3.847   4.880 -23.635  1.00  0.00     0.028 C 
ATOM      5  C   UNL     1       5.073   2.383 -24.763  1.00  0.00     0.007 C 
ATOM      6  C   UNL     1       6.167   5.836 -21.918  1.00  0.00     0.013 C 
ATOM      7  C   UNL     1       3.984   6.355 -23.231  1.00  0.00    -0.064 C 
ATOM      8  C   UNL     1       4.235   4.738 -25.138  1.00  0.00     0.015 C 
ATOM      9  C   UNL     1       4.211   3.285 -25.672  1.00  0.00    -0.035 C 
ATOM     10  C   UNL     1       5.034   6.899 -22.251  1.00  0.00    -0.006 C 
ATOM     11  C   UNL     1       3.117   7.211 -23.793  1.00  0.00    -0.027 C 
ATOM     12  C   UNL     1       2.760   2.757 -25.768  1.00  0.00     0.011 C 
ATOM     13  C   UNL     1       4.815   3.270 -27.093  1.00  0.00     0.011 C 
ATOM     14  C   UNL     1       4.263   7.189 -20.922  1.00  0.00     0.017 C 
ATOM     15  C   UNL     1       5.659   8.270 -22.822  1.00  0.00    -0.020 C 
ATOM     16  C   UNL     1       3.256   8.702 -23.775  1.00  0.00     0.032 C 
ATOM     17  C   UNL     1       4.522   9.345 -23.093  1.00  0.00     0.006 C 
ATOM     18  C   UNL     1       6.362   8.005 -24.185  1.00  0.00     0.008 C 
ATOM     19  C   UNL     1       6.688   8.812 -21.762  1.00  0.00     0.012 C 
ATOM     20  C   UNL     1       4.960  10.689 -23.872  1.00  0.00    -0.025 C 
ATOM     21  C   UNL     1       6.853   9.266 -24.904  1.00  0.00     0.005 C 
ATOM     22  C   UNL     1       5.742  10.323 -25.200  1.00  0.00     0.003 C 
ATOM     23  C   UNL     1       5.859  11.626 -22.998  1.00  0.00     0.010 C 
ATOM     24  C   UNL     1       3.638  11.490 -24.157  1.00  0.00     0.012 C 
ATOM     25  C   UNL     1       6.334  11.581 -25.989  1.00  0.00    -0.006 C 
ATOM     26  C   UNL     1       6.383  12.874 -23.733  1.00  0.00     0.033 C 
ATOM     27  C   UNL     1       7.147  12.501 -25.019  1.00  0.00     0.120 C 
ATOM     28  C   UNL     1       7.294  11.122 -27.125  1.00  0.00     0.014 C 
ATOM     29  C   UNL     1       5.203  12.376 -26.707  1.00  0.00     0.014 C 
ENDROOT
BRANCH   1  30
ATOM     30  C   UNL     1       4.027   3.803 -21.333  1.00  0.00     0.048 C 
ATOM     31  O   UNL     1       4.597   3.153 -20.417  1.00  0.00    -0.550 OA
ATOM     32  O   UNL     1       2.870   4.514 -21.030  1.00  0.00    -0.550 OA
ENDBRANCH   1  30
BRANCH  27  33
ATOM     33  O   UNL     1       7.624  13.655 -25.670  1.00  0.00    -0.393 OA
ATOM     34  H   UNL     1       6.893  14.325 -25.693  1.00  0.00     0.210 HD
ENDBRANCH  27  33
TORSDOF 2
ENDMDL
