MODEL 1
REMARK VINA RESULT:     5.146      0.000      0.000
REMARK INTER + INTRA:           9.654
REMARK INTER:                  11.163
REMARK INTRA:                  -1.509
REMARK UNBOUND:                -1.509
REMARK SMILES CCCCCCCCCCCCCCCCCCCCCC(=O)[O-]
REMARK SMILES IDX 12 1 11 2 10 3 9 4 8 5 7 6 6 7 5 8 4 9 3 10 2 11 1 12 13 13
REMARK SMILES IDX 14 14 15 15 16 16 17 17 18 18 19 19 20 20 21 21 22 22 23 23
REMARK SMILES IDX 24 24
REMARK H PARENT
REMARK Flexibility Score: inf
ROOT
ATOM      1  C   UNL     1     -27.988 -19.978 -18.790  1.00  0.00     0.000 C 
ENDROOT
BRANCH   1   2
ATOM      2  C   UNL     1     -26.823 -20.943 -18.515  1.00  0.00     0.000 C 
BRANCH   2   3
ATOM      3  C   UNL     1     -27.210 -22.073 -17.545  1.00  0.00     0.000 C 
BRANCH   3   4
ATOM      4  C   UNL     1     -28.731 -22.122 -17.284  1.00  0.00    -0.000 C 
BRANCH   4   5
ATOM      5  C   UNL     1     -29.099 -22.125 -15.790  1.00  0.00    -0.000 C 
BRANCH   5   6
ATOM      6  C   UNL     1     -30.588 -21.832 -15.540  1.00  0.00    -0.000 C 
BRANCH   6   7
ATOM      7  C   UNL     1     -30.879 -21.465 -14.069  1.00  0.00    -0.000 C 
BRANCH   7   8
ATOM      8  C   UNL     1     -31.581 -20.104 -13.893  1.00  0.00    -0.000 C 
BRANCH   8   9
ATOM      9  C   UNL     1     -30.657 -18.938 -13.492  1.00  0.00    -0.000 C 
BRANCH   9  10
ATOM     10  C   UNL     1     -29.442 -19.340 -12.635  1.00  0.00    -0.000 C 
BRANCH  10  11
ATOM     11  C   UNL     1     -29.253 -18.436 -11.409  1.00  0.00    -0.003 C 
ATOM     12  C   UNL     1     -29.071 -16.978 -11.825  1.00  0.00     0.004 C 
ENDBRANCH  10  11
ENDBRANCH   9  10
ENDBRANCH   8   9
ENDBRANCH   7   8
ENDBRANCH   6   7
ENDBRANCH   5   6
ENDBRANCH   4   5
ENDBRANCH   3   4
ENDBRANCH   2   3
ENDBRANCH   1   2
BRANCH   1  13
ATOM     13  C   UNL     1     -28.233 -19.760 -20.294  1.00  0.00     0.000 C 
BRANCH  13  14
ATOM     14  C   UNL     1     -28.998 -20.937 -20.935  1.00  0.00     0.000 C 
BRANCH  14  15
ATOM     15  C   UNL     1     -28.082 -22.033 -21.507  1.00  0.00     0.000 C 
BRANCH  15  16
ATOM     16  C   UNL     1     -27.663 -21.765 -22.962  1.00  0.00     0.000 C 
BRANCH  16  17
ATOM     17  C   UNL     1     -28.868 -21.677 -23.913  1.00  0.00     0.000 C 
BRANCH  17  18
ATOM     18  C   UNL     1     -28.782 -20.471 -24.865  1.00  0.00     0.000 C 
BRANCH  18  19
ATOM     19  C   UNL     1     -30.127 -20.140 -25.537  1.00  0.00     0.000 C 
BRANCH  19  20
ATOM     20  C   UNL     1     -31.102 -19.315 -24.672  1.00  0.00     0.006 C 
BRANCH  20  21
ATOM     21  C   UNL     1     -32.266 -20.119 -24.073  1.00  0.00     0.053 C 
BRANCH  21  22
ATOM     22  C   UNL     1     -32.356 -19.955 -22.586  1.00  0.00     0.041 C 
ATOM     23  O   UNL     1     -32.653 -18.838 -22.088  1.00  0.00    -0.550 OA
ATOM     24  O   UNL     1     -32.131 -21.043 -21.750  1.00  0.00    -0.550 OA
ENDBRANCH  21  22
ENDBRANCH  20  21
ENDBRANCH  19  20
ENDBRANCH  18  19
ENDBRANCH  17  18
ENDBRANCH  16  17
ENDBRANCH  15  16
ENDBRANCH  14  15
ENDBRANCH  13  14
ENDBRANCH   1  13
TORSDOF 20
ENDMDL
