MODEL 1
REMARK VINA RESULT:    -3.963      0.000      0.000
REMARK INTER + INTRA:          -5.540
REMARK INTER:                  -5.353
REMARK INTRA:                  -0.187
REMARK UNBOUND:                -0.187
REMARK SMILES CCCCCCCC(=O)[O-]
REMARK SMILES IDX 5 1 6 2 7 3 8 4 9 5 10 6 4 7 3 8 2 9 1 10
REMARK H PARENT
REMARK Flexibility Score: inf
ROOT
ATOM      1  C   UNL     1      16.902  -5.268  12.383  1.00  0.00     0.000 C 
ENDROOT
BRANCH   1   2
ATOM      2  C   UNL     1      17.663  -4.477  13.457  1.00  0.00     0.006 C 
BRANCH   2   3
ATOM      3  C   UNL     1      19.184  -4.564  13.275  1.00  0.00     0.053 C 
BRANCH   3   4
ATOM      4  C   UNL     1      19.884  -4.849  14.568  1.00  0.00     0.041 C 
ATOM      5  O   UNL     1      20.463  -5.953  14.745  1.00  0.00    -0.550 OA
ATOM      6  O   UNL     1      19.869  -3.908  15.590  1.00  0.00    -0.550 OA
ENDBRANCH   3   4
ENDBRANCH   2   3
ENDBRANCH   1   2
BRANCH   1   7
ATOM      7  C   UNL     1      17.843  -5.716  11.260  1.00  0.00     0.000 C 
BRANCH   7   8
ATOM      8  C   UNL     1      17.074  -6.477  10.168  1.00  0.00    -0.000 C 
BRANCH   8   9
ATOM      9  C   UNL     1      17.818  -6.493   8.824  1.00  0.00    -0.003 C 
ATOM     10  C   UNL     1      16.895  -6.230   7.634  1.00  0.00     0.004 C 
ENDBRANCH   8   9
ENDBRANCH   7   8
ENDBRANCH   1   7
TORSDOF 6
ENDMDL
MODEL 2
REMARK VINA RESULT:    -3.661      1.554      1.879
REMARK INTER + INTRA:          -5.132
REMARK INTER:                  -4.950
REMARK INTRA:                  -0.182
REMARK UNBOUND:                -0.187
REMARK SMILES CCCCCCCC(=O)[O-]
REMARK SMILES IDX 5 1 6 2 7 3 8 4 9 5 10 6 4 7 3 8 2 9 1 10
REMARK H PARENT
REMARK Flexibility Score: inf
ROOT
ATOM      1  C   UNL     1      16.875  -4.893  12.368  1.00  0.00     0.000 C 
ENDROOT
BRANCH   1   2
ATOM      2  C   UNL     1      17.325  -4.771  13.832  1.00  0.00     0.006 C 
BRANCH   2   3
ATOM      3  C   UNL     1      17.382  -3.312  14.302  1.00  0.00     0.053 C 
BRANCH   3   4
ATOM      4  C   UNL     1      18.790  -2.804  14.369  1.00  0.00     0.041 C 
ATOM      5  O   UNL     1      19.114  -1.948  15.235  1.00  0.00    -0.550 OA
ATOM      6  O   UNL     1      19.736  -3.250  13.455  1.00  0.00    -0.550 OA
ENDBRANCH   3   4
ENDBRANCH   2   3
ENDBRANCH   1   2
BRANCH   1   7
ATOM      7  C   UNL     1      17.926  -5.630  11.530  1.00  0.00     0.000 C 
BRANCH   7   8
ATOM      8  C   UNL     1      17.263  -6.424  10.393  1.00  0.00    -0.000 C 
BRANCH   8   9
ATOM      9  C   UNL     1      18.034  -6.312   9.068  1.00  0.00    -0.003 C 
ATOM     10  C   UNL     1      17.112  -6.280   7.849  1.00  0.00     0.004 C 
ENDBRANCH   8   9
ENDBRANCH   7   8
ENDBRANCH   1   7
TORSDOF 6
ENDMDL
MODEL 3
REMARK VINA RESULT:    -3.613      3.644      5.816
REMARK INTER + INTRA:          -5.066
REMARK INTER:                  -4.858
REMARK INTRA:                  -0.208
REMARK UNBOUND:                -0.187
REMARK SMILES CCCCCCCC(=O)[O-]
REMARK SMILES IDX 5 1 6 2 7 3 8 4 9 5 10 6 4 7 3 8 2 9 1 10
REMARK H PARENT
REMARK Flexibility Score: inf
ROOT
ATOM      1  C   UNL     1      18.039  -5.439  11.582  1.00  0.00     0.000 C 
ENDROOT
BRANCH   1   2
ATOM      2  C   UNL     1      17.228  -6.002  10.406  1.00  0.00     0.006 C 
BRANCH   2   3
ATOM      3  C   UNL     1      18.123  -6.427   9.234  1.00  0.00     0.053 C 
BRANCH   3   4
ATOM      4  C   UNL     1      17.624  -5.888   7.928  1.00  0.00     0.041 C 
ATOM      5  O   UNL     1      16.897  -6.600   7.186  1.00  0.00    -0.550 OA
ATOM      6  O   UNL     1      17.988  -4.613   7.516  1.00  0.00    -0.550 OA
ENDBRANCH   3   4
ENDBRANCH   2   3
ENDBRANCH   1   2
BRANCH   1   7
ATOM      7  C   UNL     1      17.120  -5.053  12.747  1.00  0.00     0.000 C 
BRANCH   7   8
ATOM      8  C   UNL     1      17.835  -4.098  13.717  1.00  0.00    -0.000 C 
BRANCH   8   9
ATOM      9  C   UNL     1      19.365  -4.194  13.619  1.00  0.00    -0.003 C 
ATOM     10  C   UNL     1      19.975  -5.059  14.722  1.00  0.00     0.004 C 
ENDBRANCH   8   9
ENDBRANCH   7   8
ENDBRANCH   1   7
TORSDOF 6
ENDMDL
MODEL 4
REMARK VINA RESULT:    -3.238     13.109     14.341
REMARK INTER + INTRA:          -4.560
REMARK INTER:                  -3.976
REMARK INTRA:                  -0.584
REMARK UNBOUND:                -0.187
REMARK SMILES CCCCCCCC(=O)[O-]
REMARK SMILES IDX 5 1 6 2 7 3 8 4 9 5 10 6 4 7 3 8 2 9 1 10
REMARK H PARENT
REMARK Flexibility Score: inf
ROOT
ATOM      1  C   UNL     1      17.427   8.843  13.098  1.00  0.00     0.000 C 
ENDROOT
BRANCH   1   2
ATOM      2  C   UNL     1      18.618   9.749  12.752  1.00  0.00     0.006 C 
BRANCH   2   3
ATOM      3  C   UNL     1      19.000   9.668  11.268  1.00  0.00     0.053 C 
BRANCH   3   4
ATOM      4  C   UNL     1      20.468   9.435  11.083  1.00  0.00     0.041 C 
ATOM      5  O   UNL     1      21.233   9.390  12.083  1.00  0.00    -0.550 OA
ATOM      6  O   UNL     1      20.996   9.300   9.806  1.00  0.00    -0.550 OA
ENDBRANCH   3   4
ENDBRANCH   2   3
ENDBRANCH   1   2
BRANCH   1   7
ATOM      7  C   UNL     1      17.722   7.997  14.341  1.00  0.00     0.000 C 
BRANCH   7   8
ATOM      8  C   UNL     1      19.160   7.455  14.308  1.00  0.00    -0.000 C 
BRANCH   8   9
ATOM      9  C   UNL     1      19.244   6.042  13.708  1.00  0.00    -0.003 C 
ATOM     10  C   UNL     1      19.912   6.023  12.333  1.00  0.00     0.004 C 
ENDBRANCH   8   9
ENDBRANCH   7   8
ENDBRANCH   1   7
TORSDOF 6
ENDMDL
MODEL 5
REMARK VINA RESULT:    -3.225     21.123     22.436
REMARK INTER + INTRA:          -4.543
REMARK INTER:                  -4.322
REMARK INTRA:                  -0.221
REMARK UNBOUND:                -0.187
REMARK SMILES CCCCCCCC(=O)[O-]
REMARK SMILES IDX 5 1 6 2 7 3 8 4 9 5 10 6 4 7 3 8 2 9 1 10
REMARK H PARENT
REMARK Flexibility Score: inf
ROOT
ATOM      1  C   UNL     1      33.875  -0.739  -3.093  1.00  0.00     0.000 C 
ENDROOT
BRANCH   1   2
ATOM      2  C   UNL     1      32.652  -0.760  -4.022  1.00  0.00     0.006 C 
BRANCH   2   3
ATOM      3  C   UNL     1      31.335  -0.902  -3.247  1.00  0.00     0.053 C 
BRANCH   3   4
ATOM      4  C   UNL     1      30.894   0.403  -2.657  1.00  0.00     0.041 C 
ATOM      5  O   UNL     1      30.304   0.427  -1.545  1.00  0.00    -0.550 OA
ATOM      6  O   UNL     1      31.104   1.587  -3.351  1.00  0.00    -0.550 OA
ENDBRANCH   3   4
ENDBRANCH   2   3
ENDBRANCH   1   2
BRANCH   1   7
ATOM      7  C   UNL     1      35.154  -1.094  -3.858  1.00  0.00     0.000 C 
BRANCH   7   8
ATOM      8  C   UNL     1      35.233  -2.606  -4.124  1.00  0.00    -0.000 C 
BRANCH   8   9
ATOM      9  C   UNL     1      36.667  -3.149  -4.024  1.00  0.00    -0.003 C 
ATOM     10  C   UNL     1      36.936  -3.868  -2.702  1.00  0.00     0.004 C 
ENDBRANCH   8   9
ENDBRANCH   7   8
ENDBRANCH   1   7
TORSDOF 6
ENDMDL
MODEL 6
REMARK VINA RESULT:    -3.218     17.760     18.588
REMARK INTER + INTRA:          -4.534
REMARK INTER:                  -4.229
REMARK INTRA:                  -0.305
REMARK UNBOUND:                -0.187
REMARK SMILES CCCCCCCC(=O)[O-]
REMARK SMILES IDX 5 1 6 2 7 3 8 4 9 5 10 6 4 7 3 8 2 9 1 10
REMARK H PARENT
REMARK Flexibility Score: inf
ROOT
ATOM      1  C   UNL     1      35.963  -7.427  14.171  1.00  0.00     0.000 C 
ENDROOT
BRANCH   1   2
ATOM      2  C   UNL     1      35.837  -8.464  13.045  1.00  0.00     0.006 C 
BRANCH   2   3
ATOM      3  C   UNL     1      36.445  -7.967  11.727  1.00  0.00     0.053 C 
BRANCH   3   4
ATOM      4  C   UNL     1      35.618  -8.373  10.545  1.00  0.00     0.041 C 
ATOM      5  O   UNL     1      35.080  -9.511  10.510  1.00  0.00    -0.550 OA
ATOM      6  O   UNL     1      35.469  -7.508   9.469  1.00  0.00    -0.550 OA
ENDBRANCH   3   4
ENDBRANCH   2   3
ENDBRANCH   1   2
BRANCH   1   7
ATOM      7  C   UNL     1      36.864  -6.262  13.748  1.00  0.00     0.000 C 
BRANCH   7   8
ATOM      8  C   UNL     1      36.627  -5.032  14.638  1.00  0.00    -0.000 C 
BRANCH   8   9
ATOM      9  C   UNL     1      36.988  -3.715  13.933  1.00  0.00    -0.003 C 
ATOM     10  C   UNL     1      37.125  -3.872  12.419  1.00  0.00     0.004 C 
ENDBRANCH   8   9
ENDBRANCH   7   8
ENDBRANCH   1   7
TORSDOF 6
ENDMDL
MODEL 7
REMARK VINA RESULT:    -3.124     20.951     22.191
REMARK INTER + INTRA:          -4.407
REMARK INTER:                  -3.972
REMARK INTRA:                  -0.435
REMARK UNBOUND:                -0.187
REMARK SMILES CCCCCCCC(=O)[O-]
REMARK SMILES IDX 5 1 6 2 7 3 8 4 9 5 10 6 4 7 3 8 2 9 1 10
REMARK H PARENT
REMARK Flexibility Score: inf
ROOT
ATOM      1  C   UNL     1      31.237  -0.485  -2.488  1.00  0.00     0.000 C 
ENDROOT
BRANCH   1   2
ATOM      2  C   UNL     1      30.858   1.003  -2.456  1.00  0.00     0.006 C 
BRANCH   2   3
ATOM      3  C   UNL     1      31.036   1.678  -3.822  1.00  0.00     0.053 C 
BRANCH   3   4
ATOM      4  C   UNL     1      32.139   2.692  -3.803  1.00  0.00     0.041 C 
ATOM      5  O   UNL     1      33.310   2.360  -4.125  1.00  0.00    -0.550 OA
ATOM      6  O   UNL     1      31.879   3.995  -3.397  1.00  0.00    -0.550 OA
ENDBRANCH   3   4
ENDBRANCH   2   3
ENDBRANCH   1   2
BRANCH   1   7
ATOM      7  C   UNL     1      31.423  -0.973  -3.928  1.00  0.00     0.000 C 
BRANCH   7   8
ATOM      8  C   UNL     1      32.763  -1.707  -4.091  1.00  0.00    -0.000 C 
BRANCH   8   9
ATOM      9  C   UNL     1      33.930  -0.959  -3.426  1.00  0.00    -0.003 C 
ATOM     10  C   UNL     1      35.296  -1.478  -3.873  1.00  0.00     0.004 C 
ENDBRANCH   8   9
ENDBRANCH   7   8
ENDBRANCH   1   7
TORSDOF 6
ENDMDL
MODEL 8
REMARK VINA RESULT:    -3.121     12.131     13.572
REMARK INTER + INTRA:          -4.403
REMARK INTER:                  -4.108
REMARK INTRA:                  -0.295
REMARK UNBOUND:                -0.187
REMARK SMILES CCCCCCCC(=O)[O-]
REMARK SMILES IDX 5 1 6 2 7 3 8 4 9 5 10 6 4 7 3 8 2 9 1 10
REMARK H PARENT
REMARK Flexibility Score: inf
ROOT
ATOM      1  C   UNL     1      19.412   6.596  12.355  1.00  0.00     0.000 C 
ENDROOT
BRANCH   1   2
ATOM      2  C   UNL     1      18.846   7.974  12.728  1.00  0.00     0.006 C 
BRANCH   2   3
ATOM      3  C   UNL     1      18.955   8.980  11.574  1.00  0.00     0.053 C 
BRANCH   3   4
ATOM      4  C   UNL     1      20.382   9.290  11.239  1.00  0.00     0.041 C 
ATOM      5  O   UNL     1      20.772   9.259  10.042  1.00  0.00    -0.550 OA
ATOM      6  O   UNL     1      21.287   9.580  12.251  1.00  0.00    -0.550 OA
ENDBRANCH   3   4
ENDBRANCH   2   3
ENDBRANCH   1   2
BRANCH   1   7
ATOM      7  C   UNL     1      19.463   5.673  13.578  1.00  0.00     0.000 C 
BRANCH   7   8
ATOM      8  C   UNL     1      18.362   6.037  14.587  1.00  0.00    -0.000 C 
BRANCH   8   9
ATOM      9  C   UNL     1      18.609   5.425  15.975  1.00  0.00    -0.003 C 
ATOM     10  C   UNL     1      19.423   4.133  15.916  1.00  0.00     0.004 C 
ENDBRANCH   8   9
ENDBRANCH   7   8
ENDBRANCH   1   7
TORSDOF 6
ENDMDL
