MODEL 1
REMARK VINA RESULT:    -3.612      0.000      0.000
REMARK INTER + INTRA:          -5.250
REMARK INTER:                  -4.879
REMARK INTRA:                  -0.371
REMARK UNBOUND:                -0.371
REMARK SMILES CCCCCCCC(=O)[O-]
REMARK SMILES IDX 5 1 6 2 7 3 8 4 9 5 10 6 4 7 3 8 2 9 1 10
REMARK H PARENT
REMARK Flexibility Score: inf
ROOT
ATOM      1  C   UNL     1      28.061  30.532 -13.792  1.00  0.00     0.000 C 
ENDROOT
BRANCH   1   2
ATOM      2  C   UNL     1      26.609  30.760 -14.254  1.00  0.00     0.006 C 
BRANCH   2   3
ATOM      3  C   UNL     1      25.623  31.067 -13.115  1.00  0.00     0.053 C 
BRANCH   3   4
ATOM      4  C   UNL     1      24.830  32.310 -13.376  1.00  0.00     0.041 C 
ATOM      5  O   UNL     1      24.213  32.876 -12.437  1.00  0.00    -0.550 OA
ATOM      6  O   UNL     1      24.802  32.863 -14.651  1.00  0.00    -0.550 OA
ENDBRANCH   3   4
ENDBRANCH   2   3
ENDBRANCH   1   2
BRANCH   1   7
ATOM      7  C   UNL     1      28.161  29.575 -12.595  1.00  0.00     0.000 C 
BRANCH   7   8
ATOM      8  C   UNL     1      29.015  30.189 -11.474  1.00  0.00    -0.000 C 
BRANCH   8   9
ATOM      9  C   UNL     1      28.180  30.592 -10.249  1.00  0.00    -0.003 C 
ATOM     10  C   UNL     1      27.419  29.415  -9.639  1.00  0.00     0.004 C 
ENDBRANCH   8   9
ENDBRANCH   7   8
ENDBRANCH   1   7
TORSDOF 6
ENDMDL
MODEL 2
REMARK VINA RESULT:    -3.560      2.632      4.328
REMARK INTER + INTRA:          -5.180
REMARK INTER:                  -4.712
REMARK INTRA:                  -0.467
REMARK UNBOUND:                -0.371
REMARK SMILES CCCCCCCC(=O)[O-]
REMARK SMILES IDX 5 1 6 2 7 3 8 4 9 5 10 6 4 7 3 8 2 9 1 10
REMARK H PARENT
REMARK Flexibility Score: inf
ROOT
ATOM      1  C   UNL     1      27.358  30.548 -14.380  1.00  0.00     0.000 C 
ENDROOT
BRANCH   1   2
ATOM      2  C   UNL     1      28.294  30.391 -13.167  1.00  0.00     0.006 C 
BRANCH   2   3
ATOM      3  C   UNL     1      27.840  29.331 -12.150  1.00  0.00     0.053 C 
BRANCH   3   4
ATOM      4  C   UNL     1      28.073  29.769 -10.737  1.00  0.00     0.041 C 
ATOM      5  O   UNL     1      28.528  30.918 -10.498  1.00  0.00    -0.550 OA
ATOM      6  O   UNL     1      27.755  28.922  -9.683  1.00  0.00    -0.550 OA
ENDBRANCH   3   4
ENDBRANCH   2   3
ENDBRANCH   1   2
BRANCH   1   7
ATOM      7  C   UNL     1      25.872  30.544 -13.990  1.00  0.00     0.000 C 
BRANCH   7   8
ATOM      8  C   UNL     1      25.231  31.913 -14.263  1.00  0.00    -0.000 C 
BRANCH   8   9
ATOM      9  C   UNL     1      24.518  32.489 -13.030  1.00  0.00    -0.003 C 
ATOM     10  C   UNL     1      24.814  31.699 -11.755  1.00  0.00     0.004 C 
ENDBRANCH   8   9
ENDBRANCH   7   8
ENDBRANCH   1   7
TORSDOF 6
ENDMDL
MODEL 3
REMARK VINA RESULT:    -3.466      1.146      1.772
REMARK INTER + INTRA:          -5.052
REMARK INTER:                  -4.692
REMARK INTRA:                  -0.360
REMARK UNBOUND:                -0.371
REMARK SMILES CCCCCCCC(=O)[O-]
REMARK SMILES IDX 5 1 6 2 7 3 8 4 9 5 10 6 4 7 3 8 2 9 1 10
REMARK H PARENT
REMARK Flexibility Score: inf
ROOT
ATOM      1  C   UNL     1      26.534  30.952 -14.262  1.00  0.00     0.000 C 
ENDROOT
BRANCH   1   2
ATOM      2  C   UNL     1      25.565  31.220 -13.096  1.00  0.00     0.006 C 
BRANCH   2   3
ATOM      3  C   UNL     1      24.620  32.411 -13.319  1.00  0.00     0.053 C 
BRANCH   3   4
ATOM      4  C   UNL     1      23.554  32.103 -14.326  1.00  0.00     0.041 C 
ATOM      5  O   UNL     1      22.513  31.487 -13.977  1.00  0.00    -0.550 OA
ATOM      6  O   UNL     1      23.693  32.530 -15.641  1.00  0.00    -0.550 OA
ENDBRANCH   3   4
ENDBRANCH   2   3
ENDBRANCH   1   2
BRANCH   1   7
ATOM      7  C   UNL     1      27.925  30.505 -13.790  1.00  0.00     0.000 C 
BRANCH   7   8
ATOM      8  C   UNL     1      27.816  29.536 -12.603  1.00  0.00    -0.000 C 
BRANCH   8   9
ATOM      9  C   UNL     1      28.811  29.862 -11.479  1.00  0.00    -0.003 C 
ATOM     10  C   UNL     1      28.220  30.791 -10.418  1.00  0.00     0.004 C 
ENDBRANCH   8   9
ENDBRANCH   7   8
ENDBRANCH   1   7
TORSDOF 6
ENDMDL
MODEL 4
REMARK VINA RESULT:    -3.429      1.483      2.530
REMARK INTER + INTRA:          -5.003
REMARK INTER:                  -4.652
REMARK INTRA:                  -0.351
REMARK UNBOUND:                -0.371
REMARK SMILES CCCCCCCC(=O)[O-]
REMARK SMILES IDX 5 1 6 2 7 3 8 4 9 5 10 6 4 7 3 8 2 9 1 10
REMARK H PARENT
REMARK Flexibility Score: inf
ROOT
ATOM      1  C   UNL     1      25.156  30.305 -12.208  1.00  0.00     0.000 C 
ENDROOT
BRANCH   1   2
ATOM      2  C   UNL     1      24.316  31.438 -11.589  1.00  0.00     0.006 C 
BRANCH   2   3
ATOM      3  C   UNL     1      24.337  32.751 -12.389  1.00  0.00     0.053 C 
BRANCH   3   4
ATOM      4  C   UNL     1      24.114  32.522 -13.853  1.00  0.00     0.041 C 
ATOM      5  O   UNL     1      25.017  32.804 -14.682  1.00  0.00    -0.550 OA
ATOM      6  O   UNL     1      22.921  31.964 -14.297  1.00  0.00    -0.550 OA
ENDBRANCH   3   4
ENDBRANCH   2   3
ENDBRANCH   1   2
BRANCH   1   7
ATOM      7  C   UNL     1      26.654  30.437 -11.900  1.00  0.00     0.000 C 
BRANCH   7   8
ATOM      8  C   UNL     1      27.479  30.466 -13.195  1.00  0.00    -0.000 C 
BRANCH   8   9
ATOM      9  C   UNL     1      28.984  30.287 -12.942  1.00  0.00    -0.003 C 
ATOM     10  C   UNL     1      29.312  30.065 -11.466  1.00  0.00     0.004 C 
ENDBRANCH   8   9
ENDBRANCH   7   8
ENDBRANCH   1   7
TORSDOF 6
ENDMDL
MODEL 5
REMARK VINA RESULT:    -3.420      2.897      5.123
REMARK INTER + INTRA:          -4.991
REMARK INTER:                  -4.643
REMARK INTRA:                  -0.348
REMARK UNBOUND:                -0.371
REMARK SMILES CCCCCCCC(=O)[O-]
REMARK SMILES IDX 5 1 6 2 7 3 8 4 9 5 10 6 4 7 3 8 2 9 1 10
REMARK H PARENT
REMARK Flexibility Score: inf
ROOT
ATOM      1  C   UNL     1      25.577  31.180 -12.649  1.00  0.00     0.000 C 
ENDROOT
BRANCH   1   2
ATOM      2  C   UNL     1      26.395  30.564 -13.799  1.00  0.00     0.006 C 
BRANCH   2   3
ATOM      3  C   UNL     1      27.912  30.537 -13.552  1.00  0.00     0.053 C 
BRANCH   3   4
ATOM      4  C   UNL     1      28.292  29.555 -12.486  1.00  0.00     0.041 C 
ATOM      5  O   UNL     1      27.785  28.404 -12.477  1.00  0.00    -0.550 OA
ATOM      6  O   UNL     1      29.235  29.900 -11.526  1.00  0.00    -0.550 OA
ENDBRANCH   3   4
ENDBRANCH   2   3
ENDBRANCH   1   2
BRANCH   1   7
ATOM      7  C   UNL     1      24.632  32.295 -13.121  1.00  0.00     0.000 C 
BRANCH   7   8
ATOM      8  C   UNL     1      24.864  32.618 -14.605  1.00  0.00    -0.000 C 
BRANCH   8   9
ATOM      9  C   UNL     1      23.659  32.253 -15.485  1.00  0.00    -0.003 C 
ATOM     10  C   UNL     1      22.582  31.482 -14.722  1.00  0.00     0.004 C 
ENDBRANCH   8   9
ENDBRANCH   7   8
ENDBRANCH   1   7
TORSDOF 6
ENDMDL
MODEL 6
REMARK VINA RESULT:    -3.361      3.379      3.866
REMARK INTER + INTRA:          -4.911
REMARK INTER:                  -4.595
REMARK INTRA:                  -0.316
REMARK UNBOUND:                -0.371
REMARK SMILES CCCCCCCC(=O)[O-]
REMARK SMILES IDX 5 1 6 2 7 3 8 4 9 5 10 6 4 7 3 8 2 9 1 10
REMARK H PARENT
REMARK Flexibility Score: inf
ROOT
ATOM      1  C   UNL     1      27.196  30.493 -14.623  1.00  0.00     0.000 C 
ENDROOT
BRANCH   1   2
ATOM      2  C   UNL     1      26.217  29.396 -15.080  1.00  0.00     0.006 C 
BRANCH   2   3
ATOM      3  C   UNL     1      25.726  28.475 -13.951  1.00  0.00     0.053 C 
BRANCH   3   4
ATOM      4  C   UNL     1      26.287  27.092 -14.069  1.00  0.00     0.041 C 
ATOM      5  O   UNL     1      25.910  26.333 -15.000  1.00  0.00    -0.550 OA
ATOM      6  O   UNL     1      27.253  26.653 -13.172  1.00  0.00    -0.550 OA
ENDBRANCH   3   4
ENDBRANCH   2   3
ENDBRANCH   1   2
BRANCH   1   7
ATOM      7  C   UNL     1      27.497  30.434 -13.118  1.00  0.00     0.000 C 
BRANCH   7   8
ATOM      8  C   UNL     1      29.005  30.277 -12.867  1.00  0.00    -0.000 C 
BRANCH   8   9
ATOM      9  C   UNL     1      29.336  30.042 -11.386  1.00  0.00    -0.003 C 
ATOM     10  C   UNL     1      28.257  30.581 -10.447  1.00  0.00     0.004 C 
ENDBRANCH   8   9
ENDBRANCH   7   8
ENDBRANCH   1   7
TORSDOF 6
ENDMDL
MODEL 7
REMARK VINA RESULT:    -3.346      2.776      4.349
REMARK INTER + INTRA:          -4.891
REMARK INTER:                  -4.476
REMARK INTRA:                  -0.415
REMARK UNBOUND:                -0.371
REMARK SMILES CCCCCCCC(=O)[O-]
REMARK SMILES IDX 5 1 6 2 7 3 8 4 9 5 10 6 4 7 3 8 2 9 1 10
REMARK H PARENT
REMARK Flexibility Score: inf
ROOT
ATOM      1  C   UNL     1      25.628  30.747 -14.697  1.00  0.00     0.000 C 
ENDROOT
BRANCH   1   2
ATOM      2  C   UNL     1      27.073  30.565 -14.196  1.00  0.00     0.006 C 
BRANCH   2   3
ATOM      3  C   UNL     1      27.185  29.893 -12.818  1.00  0.00     0.053 C 
BRANCH   3   4
ATOM      4  C   UNL     1      28.457  30.258 -12.115  1.00  0.00     0.041 C 
ATOM      5  O   UNL     1      28.447  30.521 -10.884  1.00  0.00    -0.550 OA
ATOM      6  O   UNL     1      29.659  30.272 -12.812  1.00  0.00    -0.550 OA
ENDBRANCH   3   4
ENDBRANCH   2   3
ENDBRANCH   1   2
BRANCH   1   7
ATOM      7  C   UNL     1      25.134  32.196 -14.576  1.00  0.00     0.000 C 
BRANCH   7   8
ATOM      8  C   UNL     1      23.846  32.268 -13.741  1.00  0.00    -0.000 C 
BRANCH   8   9
ATOM      9  C   UNL     1      24.111  32.647 -12.276  1.00  0.00    -0.003 C 
ATOM     10  C   UNL     1      24.011  31.451 -11.330  1.00  0.00     0.004 C 
ENDBRANCH   8   9
ENDBRANCH   7   8
ENDBRANCH   1   7
TORSDOF 6
ENDMDL
MODEL 8
REMARK VINA RESULT:    -3.325      1.470      2.146
REMARK INTER + INTRA:          -4.862
REMARK INTER:                  -4.320
REMARK INTRA:                  -0.541
REMARK UNBOUND:                -0.371
REMARK SMILES CCCCCCCC(=O)[O-]
REMARK SMILES IDX 5 1 6 2 7 3 8 4 9 5 10 6 4 7 3 8 2 9 1 10
REMARK H PARENT
REMARK Flexibility Score: inf
ROOT
ATOM      1  C   UNL     1      28.478  29.515 -12.553  1.00  0.00     0.000 C 
ENDROOT
BRANCH   1   2
ATOM      2  C   UNL     1      28.213  30.534 -13.677  1.00  0.00     0.006 C 
BRANCH   2   3
ATOM      3  C   UNL     1      26.884  30.325 -14.421  1.00  0.00     0.053 C 
BRANCH   3   4
ATOM      4  C   UNL     1      25.710  30.337 -13.491  1.00  0.00     0.041 C 
ATOM      5  O   UNL     1      24.932  29.349 -13.442  1.00  0.00    -0.550 OA
ATOM      6  O   UNL     1      25.496  31.423 -12.651  1.00  0.00    -0.550 OA
ENDBRANCH   3   4
ENDBRANCH   2   3
ENDBRANCH   1   2
BRANCH   1   7
ATOM      7  C   UNL     1      29.086  30.158 -11.298  1.00  0.00     0.000 C 
BRANCH   7   8
ATOM      8  C   UNL     1      28.011  30.390 -10.225  1.00  0.00    -0.000 C 
BRANCH   8   9
ATOM      9  C   UNL     1      27.389  29.080  -9.717  1.00  0.00    -0.003 C 
ATOM     10  C   UNL     1      25.883  29.004  -9.973  1.00  0.00     0.004 C 
ENDBRANCH   8   9
ENDBRANCH   7   8
ENDBRANCH   1   7
TORSDOF 6
ENDMDL
MODEL 9
REMARK VINA RESULT:    -3.238      2.387      4.698
REMARK INTER + INTRA:          -4.744
REMARK INTER:                  -4.229
REMARK INTRA:                  -0.515
REMARK UNBOUND:                -0.371
REMARK SMILES CCCCCCCC(=O)[O-]
REMARK SMILES IDX 5 1 6 2 7 3 8 4 9 5 10 6 4 7 3 8 2 9 1 10
REMARK H PARENT
REMARK Flexibility Score: inf
ROOT
ATOM      1  C   UNL     1      24.518  30.611 -11.261  1.00  0.00     0.000 C 
ENDROOT
BRANCH   1   2
ATOM      2  C   UNL     1      26.010  30.821 -11.580  1.00  0.00     0.006 C 
BRANCH   2   3
ATOM      3  C   UNL     1      26.623  29.737 -12.481  1.00  0.00     0.053 C 
BRANCH   3   4
ATOM      4  C   UNL     1      27.606  30.307 -13.457  1.00  0.00     0.041 C 
ATOM      5  O   UNL     1      27.232  30.640 -14.612  1.00  0.00    -0.550 OA
ATOM      6  O   UNL     1      28.929  30.504 -13.079  1.00  0.00    -0.550 OA
ENDBRANCH   3   4
ENDBRANCH   2   3
ENDBRANCH   1   2
BRANCH   1   7
ATOM      7  C   UNL     1      23.601  31.552 -12.056  1.00  0.00     0.000 C 
BRANCH   7   8
ATOM      8  C   UNL     1      24.411  32.678 -12.716  1.00  0.00    -0.000 C 
BRANCH   8   9
ATOM      9  C   UNL     1      24.344  32.635 -14.250  1.00  0.00    -0.003 C 
ATOM     10  C   UNL     1      23.438  31.519 -14.769  1.00  0.00     0.004 C 
ENDBRANCH   8   9
ENDBRANCH   7   8
ENDBRANCH   1   7
TORSDOF 6
ENDMDL
