MODEL 1
REMARK VINA RESULT:    -7.419      0.000      0.000
REMARK INTER + INTRA:          -9.252
REMARK INTER:                  -8.937
REMARK INTRA:                  -0.315
REMARK UNBOUND:                -0.315
REMARK SMILES O=c1c(O)c(-c2ccc(O)c(O)c2)oc2cc(O)cc(O)c12
REMARK SMILES IDX 5 1 3 2 2 3 1 4 22 5 20 6 19 7 17 8 16 9 15 10 14 11 6 12
REMARK SMILES IDX 7 13 8 14 9 15 13 16 11 17 10 18 12 20 4 22 21 24 18 26
REMARK H PARENT 10 19 12 21 4 23 21 25 18 27
REMARK Flexibility Score: inf
ROOT
ATOM      1  C   UNL     1     -32.917  95.820   7.405  1.00  0.00     0.180 A 
ATOM      2  C   UNL     1     -34.150  95.163   7.230  1.00  0.00     0.208 A 
ATOM      3  C   UNL     1     -34.153  93.786   6.962  1.00  0.00     0.238 A 
ATOM      4  O   UNL     1     -35.251  93.189   6.792  1.00  0.00    -0.285 OA
ATOM      5  C   UNL     1     -32.930  93.086   6.895  1.00  0.00     0.111 A 
ATOM      6  C   UNL     1     -32.847  91.696   6.633  1.00  0.00     0.134 A 
ATOM      7  C   UNL     1     -31.592  91.071   6.592  1.00  0.00     0.093 A 
ATOM      8  C   UNL     1     -30.421  91.807   6.806  1.00  0.00     0.123 A 
ATOM      9  C   UNL     1     -30.499  93.177   7.063  1.00  0.00     0.094 A 
ATOM     10  C   UNL     1     -31.740  93.819   7.107  1.00  0.00     0.146 A 
ATOM     11  O   UNL     1     -31.784  95.124   7.350  1.00  0.00    -0.452 OA
ENDROOT
BRANCH   1  12
ATOM     12  C   UNL     1     -32.830  97.274   7.671  1.00  0.00     0.025 A 
ATOM     13  C   UNL     1     -32.928  98.215   6.632  1.00  0.00     0.016 A 
ATOM     14  C   UNL     1     -32.819  99.582   6.904  1.00  0.00     0.051 A 
ATOM     15  C   UNL     1     -32.597 100.026   8.214  1.00  0.00     0.157 A 
ATOM     16  C   UNL     1     -32.587  97.723   8.980  1.00  0.00     0.062 A 
ATOM     17  C   UNL     1     -32.479  99.095   9.253  1.00  0.00     0.158 A 
BRANCH  15  18
ATOM     18  O   UNL     1     -32.490 101.387   8.490  1.00  0.00    -0.504 OA
ATOM     19  H   UNL     1     -32.909 101.795   9.318  1.00  0.00     0.293 HD
ENDBRANCH  15  18
BRANCH  17  20
ATOM     20  O   UNL     1     -32.252  99.539  10.555  1.00  0.00    -0.504 OA
ATOM     21  H   UNL     1     -33.017  99.780  11.174  1.00  0.00     0.293 HD
ENDBRANCH  17  20
ENDBRANCH   1  12
BRANCH   2  22
ATOM     22  O   UNL     1     -35.349  95.870   7.350  1.00  0.00    -0.502 OA
ATOM     23  H   UNL     1     -35.400  96.783   7.784  1.00  0.00     0.293 HD
ENDBRANCH   2  22
BRANCH   6  24
ATOM     24  O   UNL     1     -33.997  90.936   6.416  1.00  0.00    -0.507 OA
ATOM     25  H   UNL     1     -34.892  91.200   6.810  1.00  0.00     0.293 HD
ENDBRANCH   6  24
BRANCH   8  26
ATOM     26  O   UNL     1     -29.175  91.186   6.766  1.00  0.00    -0.508 OA
ATOM     27  H   UNL     1     -28.633  91.142   5.911  1.00  0.00     0.293 HD
ENDBRANCH   8  26
TORSDOF 6
ENDMDL
MODEL 2
REMARK VINA RESULT:    -7.113      4.091      7.496
REMARK INTER + INTRA:          -8.884
REMARK INTER:                  -8.710
REMARK INTRA:                  -0.174
REMARK UNBOUND:                -0.315
REMARK SMILES O=c1c(O)c(-c2ccc(O)c(O)c2)oc2cc(O)cc(O)c12
REMARK SMILES IDX 5 1 3 2 2 3 1 4 22 5 20 6 19 7 17 8 16 9 15 10 14 11 6 12
REMARK SMILES IDX 7 13 8 14 9 15 13 16 11 17 10 18 12 20 4 22 21 24 18 26
REMARK H PARENT 10 19 12 21 4 23 21 25 18 27
REMARK Flexibility Score: inf
ROOT
ATOM      1  C   UNL     1     -30.301  91.205   7.736  1.00  0.00     0.180 A 
ATOM      2  C   UNL     1     -30.439  91.157   6.336  1.00  0.00     0.208 A 
ATOM      3  C   UNL     1     -31.610  91.663   5.751  1.00  0.00     0.238 A 
ATOM      4  O   UNL     1     -31.749  91.615   4.499  1.00  0.00    -0.285 OA
ATOM      5  C   UNL     1     -32.611  92.226   6.571  1.00  0.00     0.111 A 
ATOM      6  C   UNL     1     -33.819  92.762   6.060  1.00  0.00     0.134 A 
ATOM      7  C   UNL     1     -34.761  93.313   6.941  1.00  0.00     0.093 A 
ATOM      8  C   UNL     1     -34.519  93.339   8.319  1.00  0.00     0.123 A 
ATOM      9  C   UNL     1     -33.331  92.811   8.826  1.00  0.00     0.094 A 
ATOM     10  C   UNL     1     -32.379  92.256   7.966  1.00  0.00     0.146 A 
ATOM     11  O   UNL     1     -31.259  91.757   8.476  1.00  0.00    -0.452 OA
ENDROOT
BRANCH   1  12
ATOM     12  C   UNL     1     -29.105  90.673   8.428  1.00  0.00     0.025 A 
ATOM     13  C   UNL     1     -27.837  91.253   8.248  1.00  0.00     0.016 A 
ATOM     14  C   UNL     1     -26.718  90.718   8.893  1.00  0.00     0.051 A 
ATOM     15  C   UNL     1     -26.848  89.592   9.716  1.00  0.00     0.157 A 
ATOM     16  C   UNL     1     -29.226  89.532   9.238  1.00  0.00     0.062 A 
ATOM     17  C   UNL     1     -28.103  88.996   9.887  1.00  0.00     0.158 A 
BRANCH  15  18
ATOM     18  O   UNL     1     -25.735  89.058  10.363  1.00  0.00    -0.504 OA
ATOM     19  H   UNL     1     -25.814  88.605  11.266  1.00  0.00     0.293 HD
ENDBRANCH  15  18
BRANCH  17  20
ATOM     20  O   UNL     1     -28.229  87.872  10.701  1.00  0.00    -0.504 OA
ATOM     21  H   UNL     1     -28.668  87.924  11.613  1.00  0.00     0.293 HD
ENDBRANCH  17  20
ENDBRANCH   1  12
BRANCH   2  22
ATOM     22  O   UNL     1     -29.412  90.639   5.543  1.00  0.00    -0.502 OA
ATOM     23  H   UNL     1     -29.385  90.766   4.538  1.00  0.00     0.293 HD
ENDBRANCH   2  22
BRANCH   6  24
ATOM     24  O   UNL     1     -34.087  92.751   4.691  1.00  0.00    -0.507 OA
ATOM     25  H   UNL     1     -34.867  92.231   4.306  1.00  0.00     0.293 HD
ENDBRANCH   6  24
BRANCH   8  26
ATOM     26  O   UNL     1     -35.455  93.887   9.194  1.00  0.00    -0.508 OA
ATOM     27  H   UNL     1     -36.438  93.938   8.953  1.00  0.00     0.293 HD
ENDBRANCH   8  26
TORSDOF 6
ENDMDL
MODEL 3
REMARK VINA RESULT:    -6.913      1.382      3.214
REMARK INTER + INTRA:          -8.642
REMARK INTER:                  -8.389
REMARK INTRA:                  -0.253
REMARK UNBOUND:                -0.315
REMARK SMILES O=c1c(O)c(-c2ccc(O)c(O)c2)oc2cc(O)cc(O)c12
REMARK SMILES IDX 5 1 3 2 2 3 1 4 22 5 20 6 19 7 17 8 16 9 15 10 14 11 6 12
REMARK SMILES IDX 7 13 8 14 9 15 13 16 11 17 10 18 12 20 4 22 21 24 18 26
REMARK H PARENT 10 19 12 21 4 23 21 25 18 27
REMARK Flexibility Score: inf
ROOT
ATOM      1  C   UNL     1     -32.481  95.474   7.443  1.00  0.00     0.180 A 
ATOM      2  C   UNL     1     -31.203  94.889   7.528  1.00  0.00     0.208 A 
ATOM      3  C   UNL     1     -31.075  93.505   7.336  1.00  0.00     0.238 A 
ATOM      4  O   UNL     1     -29.937  92.969   7.420  1.00  0.00    -0.285 OA
ATOM      5  C   UNL     1     -32.220  92.734   7.043  1.00  0.00     0.111 A 
ATOM      6  C   UNL     1     -32.177  91.334   6.832  1.00  0.00     0.134 A 
ATOM      7  C   UNL     1     -33.359  90.639   6.535  1.00  0.00     0.093 A 
ATOM      8  C   UNL     1     -34.581  91.316   6.447  1.00  0.00     0.123 A 
ATOM      9  C   UNL     1     -34.627  92.695   6.655  1.00  0.00     0.094 A 
ATOM     10  C   UNL     1     -33.461  93.406   6.953  1.00  0.00     0.146 A 
ATOM     11  O   UNL     1     -33.535  94.717   7.151  1.00  0.00    -0.452 OA
ENDROOT
BRANCH   1  12
ATOM     12  C   UNL     1     -32.700  96.923   7.653  1.00  0.00     0.025 A 
ATOM     13  C   UNL     1     -32.593  97.502   8.929  1.00  0.00     0.016 A 
ATOM     14  C   UNL     1     -32.827  98.869   9.107  1.00  0.00     0.051 A 
ATOM     15  C   UNL     1     -33.183  99.672   8.016  1.00  0.00     0.157 A 
ATOM     16  C   UNL     1     -33.076  97.729   6.566  1.00  0.00     0.062 A 
ATOM     17  C   UNL     1     -33.310  99.101   6.744  1.00  0.00     0.158 A 
BRANCH  15  18
ATOM     18  O   UNL     1     -33.415 101.035   8.188  1.00  0.00    -0.504 OA
ATOM     19  H   UNL     1     -34.347 101.397   8.356  1.00  0.00     0.293 HD
ENDBRANCH  15  18
BRANCH  17  20
ATOM     20  O   UNL     1     -33.670  99.901   5.660  1.00  0.00    -0.504 OA
ATOM     21  H   UNL     1     -34.638 100.013   5.383  1.00  0.00     0.293 HD
ENDBRANCH  17  20
ENDBRANCH   1  12
BRANCH   2  22
ATOM     22  O   UNL     1     -30.079  95.682   7.770  1.00  0.00    -0.502 OA
ATOM     23  H   UNL     1     -29.957  96.595   7.348  1.00  0.00     0.293 HD
ENDBRANCH   2  22
BRANCH   6  24
ATOM     24  O   UNL     1     -30.974  90.632   6.913  1.00  0.00    -0.507 OA
ATOM     25  H   UNL     1     -30.509  90.273   6.087  1.00  0.00     0.293 HD
ENDBRANCH   6  24
BRANCH   8  26
ATOM     26  O   UNL     1     -35.754  90.626   6.151  1.00  0.00    -0.508 OA
ATOM     27  H   UNL     1     -36.469  91.028   5.557  1.00  0.00     0.293 HD
ENDBRANCH   8  26
TORSDOF 6
ENDMDL
MODEL 4
REMARK VINA RESULT:    -6.863     16.661     18.185
REMARK INTER + INTRA:          -8.582
REMARK INTER:                  -8.270
REMARK INTRA:                  -0.312
REMARK UNBOUND:                -0.315
REMARK SMILES O=c1c(O)c(-c2ccc(O)c(O)c2)oc2cc(O)cc(O)c12
REMARK SMILES IDX 5 1 3 2 2 3 1 4 22 5 20 6 19 7 17 8 16 9 15 10 14 11 6 12
REMARK SMILES IDX 7 13 8 14 9 15 13 16 11 17 10 18 12 20 4 22 21 24 18 26
REMARK H PARENT 10 19 12 21 4 23 21 25 18 27
REMARK Flexibility Score: inf
ROOT
ATOM      1  C   UNL     1     -20.337  97.414  -5.375  1.00  0.00     0.180 A 
ATOM      2  C   UNL     1     -18.946  97.488  -5.166  1.00  0.00     0.208 A 
ATOM      3  C   UNL     1     -18.279  96.372  -4.637  1.00  0.00     0.238 A 
ATOM      4  O   UNL     1     -17.036  96.431  -4.435  1.00  0.00    -0.285 OA
ATOM      5  C   UNL     1     -19.006  95.199  -4.346  1.00  0.00     0.111 A 
ATOM      6  C   UNL     1     -18.409  94.030  -3.815  1.00  0.00     0.134 A 
ATOM      7  C   UNL     1     -19.200  92.900  -3.561  1.00  0.00     0.093 A 
ATOM      8  C   UNL     1     -20.573  92.915  -3.828  1.00  0.00     0.123 A 
ATOM      9  C   UNL     1     -21.166  94.066  -4.351  1.00  0.00     0.094 A 
ATOM     10  C   UNL     1     -20.396  95.204  -4.609  1.00  0.00     0.146 A 
ATOM     11  O   UNL     1     -20.987  96.286  -5.103  1.00  0.00    -0.452 OA
ENDROOT
BRANCH   1  12
ATOM     12  C   UNL     1     -21.114  98.555  -5.911  1.00  0.00     0.025 A 
ATOM     13  C   UNL     1     -21.513  99.621  -5.086  1.00  0.00     0.016 A 
ATOM     14  C   UNL     1     -22.267 100.675  -5.610  1.00  0.00     0.051 A 
ATOM     15  C   UNL     1     -22.643 100.673  -6.959  1.00  0.00     0.157 A 
ATOM     16  C   UNL     1     -21.512  98.547  -7.259  1.00  0.00     0.062 A 
ATOM     17  C   UNL     1     -22.267  99.606  -7.784  1.00  0.00     0.158 A 
BRANCH  15  18
ATOM     18  O   UNL     1     -23.393 101.723  -7.485  1.00  0.00    -0.504 OA
ATOM     19  H   UNL     1     -24.362 101.865  -7.225  1.00  0.00     0.293 HD
ENDBRANCH  15  18
BRANCH  17  20
ATOM     20  O   UNL     1     -22.648  99.603  -9.125  1.00  0.00    -0.504 OA
ATOM     21  H   UNL     1     -21.999  99.347  -9.860  1.00  0.00     0.293 HD
ENDBRANCH  17  20
ENDBRANCH   1  12
BRANCH   2  22
ATOM     22  O   UNL     1     -18.241  98.644  -5.508  1.00  0.00    -0.502 OA
ATOM     23  H   UNL     1     -17.469  98.994  -4.954  1.00  0.00     0.293 HD
ENDBRANCH   2  22
BRANCH   6  24
ATOM     24  O   UNL     1     -17.042  93.984  -3.539  1.00  0.00    -0.507 OA
ATOM     25  H   UNL     1     -16.649  94.433  -2.720  1.00  0.00     0.293 HD
ENDBRANCH   6  24
BRANCH   8  26
ATOM     26  O   UNL     1     -21.358  91.793  -3.577  1.00  0.00    -0.508 OA
ATOM     27  H   UNL     1     -21.225  90.928  -4.089  1.00  0.00     0.293 HD
ENDBRANCH   8  26
TORSDOF 6
ENDMDL
MODEL 5
REMARK VINA RESULT:    -6.564      1.813      7.158
REMARK INTER + INTRA:          -8.222
REMARK INTER:                  -7.922
REMARK INTRA:                  -0.300
REMARK UNBOUND:                -0.315
REMARK SMILES O=c1c(O)c(-c2ccc(O)c(O)c2)oc2cc(O)cc(O)c12
REMARK SMILES IDX 5 1 3 2 2 3 1 4 22 5 20 6 19 7 17 8 16 9 15 10 14 11 6 12
REMARK SMILES IDX 7 13 8 14 9 15 13 16 11 17 10 18 12 20 4 22 21 24 18 26
REMARK H PARENT 10 19 12 21 4 23 21 25 18 27
REMARK Flexibility Score: inf
ROOT
ATOM      1  C   UNL     1     -33.486  95.360   8.120  1.00  0.00     0.180 A 
ATOM      2  C   UNL     1     -32.776  95.468   9.331  1.00  0.00     0.208 A 
ATOM      3  C   UNL     1     -32.393  96.740   9.783  1.00  0.00     0.238 A 
ATOM      4  O   UNL     1     -31.747  96.847  10.860  1.00  0.00    -0.285 OA
ATOM      5  C   UNL     1     -32.744  97.881   9.031  1.00  0.00     0.111 A 
ATOM      6  C   UNL     1     -32.400  99.199   9.419  1.00  0.00     0.134 A 
ATOM      7  C   UNL     1     -32.794 100.283   8.620  1.00  0.00     0.093 A 
ATOM      8  C   UNL     1     -33.523 100.075   7.444  1.00  0.00     0.123 A 
ATOM      9  C   UNL     1     -33.863  98.777   7.059  1.00  0.00     0.094 A 
ATOM     10  C   UNL     1     -33.479  97.683   7.839  1.00  0.00     0.146 A 
ATOM     11  O   UNL     1     -33.812  96.459   7.445  1.00  0.00    -0.452 OA
ENDROOT
BRANCH   1  12
ATOM     12  C   UNL     1     -33.907  94.052   7.567  1.00  0.00     0.025 A 
ATOM     13  C   UNL     1     -35.054  93.392   8.042  1.00  0.00     0.016 A 
ATOM     14  C   UNL     1     -35.418  92.147   7.522  1.00  0.00     0.051 A 
ATOM     15  C   UNL     1     -34.636  91.539   6.532  1.00  0.00     0.157 A 
ATOM     16  C   UNL     1     -33.115  93.428   6.589  1.00  0.00     0.062 A 
ATOM     17  C   UNL     1     -33.482  92.179   6.066  1.00  0.00     0.158 A 
BRANCH  15  18
ATOM     18  O   UNL     1     -34.997  90.298   6.009  1.00  0.00    -0.504 OA
ATOM     19  H   UNL     1     -34.799  90.051   5.046  1.00  0.00     0.293 HD
ENDBRANCH  15  18
BRANCH  17  20
ATOM     20  O   UNL     1     -32.701  91.570   5.085  1.00  0.00    -0.504 OA
ATOM     21  H   UNL     1     -32.621  91.960   4.153  1.00  0.00     0.293 HD
ENDBRANCH  17  20
ENDBRANCH   1  12
BRANCH   2  22
ATOM     22  O   UNL     1     -32.484  94.326  10.082  1.00  0.00    -0.502 OA
ATOM     23  H   UNL     1     -31.782  94.322  10.812  1.00  0.00     0.293 HD
ENDBRANCH   2  22
BRANCH   6  24
ATOM     24  O   UNL     1     -31.674  99.438  10.586  1.00  0.00    -0.507 OA
ATOM     25  H   UNL     1     -31.408  98.686  11.211  1.00  0.00     0.293 HD
ENDBRANCH   6  24
BRANCH   8  26
ATOM     26  O   UNL     1     -33.915 101.151   6.652  1.00  0.00    -0.508 OA
ATOM     27  H   UNL     1     -34.349 101.013   5.747  1.00  0.00     0.293 HD
ENDBRANCH   8  26
TORSDOF 6
ENDMDL
MODEL 6
REMARK VINA RESULT:    -6.397      2.486      6.864
REMARK INTER + INTRA:          -8.021
REMARK INTER:                  -7.773
REMARK INTRA:                  -0.248
REMARK UNBOUND:                -0.315
REMARK SMILES O=c1c(O)c(-c2ccc(O)c(O)c2)oc2cc(O)cc(O)c12
REMARK SMILES IDX 5 1 3 2 2 3 1 4 22 5 20 6 19 7 17 8 16 9 15 10 14 11 6 12
REMARK SMILES IDX 7 13 8 14 9 15 13 16 11 17 10 18 12 20 4 22 21 24 18 26
REMARK H PARENT 10 19 12 21 4 23 21 25 18 27
REMARK Flexibility Score: inf
ROOT
ATOM      1  C   UNL     1     -31.052  92.097   8.202  1.00  0.00     0.180 A 
ATOM      2  C   UNL     1     -32.073  91.313   7.630  1.00  0.00     0.208 A 
ATOM      3  C   UNL     1     -33.306  91.914   7.336  1.00  0.00     0.238 A 
ATOM      4  O   UNL     1     -34.231  91.219   6.835  1.00  0.00    -0.285 OA
ATOM      5  C   UNL     1     -33.491  93.288   7.597  1.00  0.00     0.111 A 
ATOM      6  C   UNL     1     -34.702  93.971   7.326  1.00  0.00     0.134 A 
ATOM      7  C   UNL     1     -34.804  95.342   7.606  1.00  0.00     0.093 A 
ATOM      8  C   UNL     1     -33.722  96.041   8.150  1.00  0.00     0.123 A 
ATOM      9  C   UNL     1     -32.527  95.371   8.420  1.00  0.00     0.094 A 
ATOM     10  C   UNL     1     -32.405  94.005   8.150  1.00  0.00     0.146 A 
ATOM     11  O   UNL     1     -31.258  93.393   8.421  1.00  0.00    -0.452 OA
ENDROOT
BRANCH   1  12
ATOM     12  C   UNL     1     -29.731  91.531   8.559  1.00  0.00     0.025 A 
ATOM     13  C   UNL     1     -28.591  91.784   7.778  1.00  0.00     0.016 A 
ATOM     14  C   UNL     1     -27.359  91.219   8.121  1.00  0.00     0.051 A 
ATOM     15  C   UNL     1     -27.253  90.384   9.241  1.00  0.00     0.157 A 
ATOM     16  C   UNL     1     -29.623  90.676   9.669  1.00  0.00     0.062 A 
ATOM     17  C   UNL     1     -28.387  90.110  10.015  1.00  0.00     0.158 A 
BRANCH  15  18
ATOM     18  O   UNL     1     -26.027  89.821   9.588  1.00  0.00    -0.504 OA
ATOM     19  H   UNL     1     -25.410  89.423   8.890  1.00  0.00     0.293 HD
ENDBRANCH  15  18
BRANCH  17  20
ATOM     20  O   UNL     1     -28.280  89.274  11.125  1.00  0.00    -0.504 OA
ATOM     21  H   UNL     1     -29.049  89.154  11.774  1.00  0.00     0.293 HD
ENDBRANCH  17  20
ENDBRANCH   1  12
BRANCH   2  22
ATOM     22  O   UNL     1     -31.847  89.966   7.336  1.00  0.00    -0.502 OA
ATOM     23  H   UNL     1     -32.434  89.225   7.701  1.00  0.00     0.293 HD
ENDBRANCH   2  22
BRANCH   6  24
ATOM     24  O   UNL     1     -35.798  93.301   6.783  1.00  0.00    -0.507 OA
ATOM     25  H   UNL     1     -36.724  93.713   6.775  1.00  0.00     0.293 HD
ENDBRANCH   6  24
BRANCH   8  26
ATOM     26  O   UNL     1     -33.823  97.402   8.427  1.00  0.00    -0.508 OA
ATOM     27  H   UNL     1     -34.540  97.766   9.044  1.00  0.00     0.293 HD
ENDBRANCH   8  26
TORSDOF 6
ENDMDL
MODEL 7
REMARK VINA RESULT:    -6.331      3.660      7.118
REMARK INTER + INTRA:          -7.942
REMARK INTER:                  -7.618
REMARK INTRA:                  -0.323
REMARK UNBOUND:                -0.315
REMARK SMILES O=c1c(O)c(-c2ccc(O)c(O)c2)oc2cc(O)cc(O)c12
REMARK SMILES IDX 5 1 3 2 2 3 1 4 22 5 20 6 19 7 17 8 16 9 15 10 14 11 6 12
REMARK SMILES IDX 7 13 8 14 9 15 13 16 11 17 10 18 12 20 4 22 21 24 18 26
REMARK H PARENT 10 19 12 21 4 23 21 25 18 27
REMARK Flexibility Score: inf
ROOT
ATOM      1  C   UNL     1     -30.712  91.938   8.821  1.00  0.00     0.180 A 
ATOM      2  C   UNL     1     -31.076  93.162   9.416  1.00  0.00     0.208 A 
ATOM      3  C   UNL     1     -32.345  93.697   9.147  1.00  0.00     0.238 A 
ATOM      4  O   UNL     1     -32.676  94.798   9.665  1.00  0.00    -0.285 OA
ATOM      5  C   UNL     1     -33.234  92.993   8.309  1.00  0.00     0.111 A 
ATOM      6  C   UNL     1     -34.533  93.461   7.992  1.00  0.00     0.134 A 
ATOM      7  C   UNL     1     -35.362  92.697   7.157  1.00  0.00     0.093 A 
ATOM      8  C   UNL     1     -34.919  91.477   6.635  1.00  0.00     0.123 A 
ATOM      9  C   UNL     1     -33.639  91.013   6.945  1.00  0.00     0.094 A 
ATOM     10  C   UNL     1     -32.797  91.759   7.773  1.00  0.00     0.146 A 
ATOM     11  O   UNL     1     -31.583  91.296   8.048  1.00  0.00    -0.452 OA
ENDROOT
BRANCH   1  12
ATOM     12  C   UNL     1     -29.384  91.320   9.040  1.00  0.00     0.025 A 
ATOM     13  C   UNL     1     -28.262  91.712   8.290  1.00  0.00     0.016 A 
ATOM     14  C   UNL     1     -27.024  91.097   8.498  1.00  0.00     0.051 A 
ATOM     15  C   UNL     1     -26.894  90.075   9.447  1.00  0.00     0.157 A 
ATOM     16  C   UNL     1     -29.253  90.281   9.976  1.00  0.00     0.062 A 
ATOM     17  C   UNL     1     -28.010  89.664  10.185  1.00  0.00     0.158 A 
BRANCH  15  18
ATOM     18  O   UNL     1     -25.661  89.461   9.659  1.00  0.00    -0.504 OA
ATOM     19  H   UNL     1     -25.458  88.963  10.518  1.00  0.00     0.293 HD
ENDBRANCH  15  18
BRANCH  17  20
ATOM     20  O   UNL     1     -27.879  88.643  11.125  1.00  0.00    -0.504 OA
ATOM     21  H   UNL     1     -27.839  88.838  12.118  1.00  0.00     0.293 HD
ENDBRANCH  17  20
ENDBRANCH   1  12
BRANCH   2  22
ATOM     22  O   UNL     1     -30.195  93.815  10.281  1.00  0.00    -0.502 OA
ATOM     23  H   UNL     1     -29.828  94.739  10.088  1.00  0.00     0.293 HD
ENDBRANCH   2  22
BRANCH   6  24
ATOM     24  O   UNL     1     -35.003  94.673   8.497  1.00  0.00    -0.507 OA
ATOM     25  H   UNL     1     -34.962  95.528   7.955  1.00  0.00     0.293 HD
ENDBRANCH   6  24
BRANCH   8  26
ATOM     26  O   UNL     1     -35.742  90.718   5.807  1.00  0.00    -0.508 OA
ATOM     27  H   UNL     1     -36.310  91.148   5.086  1.00  0.00     0.293 HD
ENDBRANCH   8  26
TORSDOF 6
ENDMDL
MODEL 8
REMARK VINA RESULT:    -6.303     16.871     19.489
REMARK INTER + INTRA:          -7.907
REMARK INTER:                  -7.722
REMARK INTRA:                  -0.185
REMARK UNBOUND:                -0.315
REMARK SMILES O=c1c(O)c(-c2ccc(O)c(O)c2)oc2cc(O)cc(O)c12
REMARK SMILES IDX 5 1 3 2 2 3 1 4 22 5 20 6 19 7 17 8 16 9 15 10 14 11 6 12
REMARK SMILES IDX 7 13 8 14 9 15 13 16 11 17 10 18 12 20 4 22 21 24 18 26
REMARK H PARENT 10 19 12 21 4 23 21 25 18 27
REMARK Flexibility Score: inf
ROOT
ATOM      1  C   UNL     1     -19.912  93.289  -5.219  1.00  0.00     0.180 A 
ATOM      2  C   UNL     1     -18.526  93.243  -4.975  1.00  0.00     0.208 A 
ATOM      3  C   UNL     1     -17.804  94.445  -4.933  1.00  0.00     0.238 A 
ATOM      4  O   UNL     1     -16.560  94.415  -4.727  1.00  0.00    -0.285 OA
ATOM      5  C   UNL     1     -18.479  95.671  -5.115  1.00  0.00     0.111 A 
ATOM      6  C   UNL     1     -17.825  96.927  -5.083  1.00  0.00     0.134 A 
ATOM      7  C   UNL     1     -18.569  98.102  -5.264  1.00  0.00     0.093 A 
ATOM      8  C   UNL     1     -19.951  98.046  -5.474  1.00  0.00     0.123 A 
ATOM      9  C   UNL     1     -20.599  96.810  -5.506  1.00  0.00     0.094 A 
ATOM     10  C   UNL     1     -19.876  95.626  -5.331  1.00  0.00     0.146 A 
ATOM     11  O   UNL     1     -20.517  94.464  -5.371  1.00  0.00    -0.452 OA
ENDROOT
BRANCH   1  12
ATOM     12  C   UNL     1     -20.740  92.063  -5.298  1.00  0.00     0.025 A 
ATOM     13  C   UNL     1     -21.694  91.761  -4.312  1.00  0.00     0.016 A 
ATOM     14  C   UNL     1     -22.446  90.585  -4.395  1.00  0.00     0.051 A 
ATOM     15  C   UNL     1     -22.246  89.692  -5.454  1.00  0.00     0.157 A 
ATOM     16  C   UNL     1     -20.528  91.154  -6.348  1.00  0.00     0.062 A 
ATOM     17  C   UNL     1     -21.284  89.975  -6.431  1.00  0.00     0.158 A 
BRANCH  15  18
ATOM     18  O   UNL     1     -22.996  88.520  -5.542  1.00  0.00    -0.504 OA
ATOM     19  H   UNL     1     -23.721  88.303  -4.868  1.00  0.00     0.293 HD
ENDBRANCH  15  18
BRANCH  17  20
ATOM     20  O   UNL     1     -21.082  89.082  -7.482  1.00  0.00    -0.504 OA
ATOM     21  H   UNL     1     -21.172  89.371  -8.448  1.00  0.00     0.293 HD
ENDBRANCH  17  20
ENDBRANCH   1  12
BRANCH   2  22
ATOM     22  O   UNL     1     -17.890  92.020  -4.750  1.00  0.00    -0.502 OA
ATOM     23  H   UNL     1     -17.470  91.481  -5.497  1.00  0.00     0.293 HD
ENDBRANCH   2  22
BRANCH   6  24
ATOM     24  O   UNL     1     -16.448  97.015  -4.875  1.00  0.00    -0.507 OA
ATOM     25  H   UNL     1     -16.062  97.312  -3.987  1.00  0.00     0.293 HD
ENDBRANCH   6  24
BRANCH   8  26
ATOM     26  O   UNL     1     -20.691  99.213  -5.652  1.00  0.00    -0.508 OA
ATOM     27  H   UNL     1     -21.615  99.321  -5.250  1.00  0.00     0.293 HD
ENDBRANCH   8  26
TORSDOF 6
ENDMDL
MODEL 9
REMARK VINA RESULT:    -6.174     16.456     18.717
REMARK INTER + INTRA:          -7.752
REMARK INTER:                  -7.831
REMARK INTRA:                   0.079
REMARK UNBOUND:                -0.315
REMARK SMILES O=c1c(O)c(-c2ccc(O)c(O)c2)oc2cc(O)cc(O)c12
REMARK SMILES IDX 5 1 3 2 2 3 1 4 22 5 20 6 19 7 17 8 16 9 15 10 14 11 6 12
REMARK SMILES IDX 7 13 8 14 9 15 13 16 11 17 10 18 12 20 4 22 21 24 18 26
REMARK H PARENT 10 19 12 21 4 23 21 25 18 27
REMARK Flexibility Score: inf
ROOT
ATOM      1  C   UNL     1     -21.108  93.063  -5.548  1.00  0.00     0.180 A 
ATOM      2  C   UNL     1     -22.113  94.050  -5.510  1.00  0.00     0.208 A 
ATOM      3  C   UNL     1     -21.740  95.392  -5.346  1.00  0.00     0.238 A 
ATOM      4  O   UNL     1     -22.632  96.282  -5.299  1.00  0.00    -0.285 OA
ATOM      5  C   UNL     1     -20.374  95.729  -5.244  1.00  0.00     0.111 A 
ATOM      6  C   UNL     1     -19.914  97.058  -5.081  1.00  0.00     0.134 A 
ATOM      7  C   UNL     1     -18.537  97.312  -4.997  1.00  0.00     0.093 A 
ATOM      8  C   UNL     1     -17.613  96.264  -5.072  1.00  0.00     0.123 A 
ATOM      9  C   UNL     1     -18.062  94.952  -5.232  1.00  0.00     0.094 A 
ATOM     10  C   UNL     1     -19.430  94.677  -5.316  1.00  0.00     0.146 A 
ATOM     11  O   UNL     1     -19.830  93.419  -5.463  1.00  0.00    -0.452 OA
ENDROOT
BRANCH   1  12
ATOM     12  C   UNL     1     -21.423  91.624  -5.698  1.00  0.00     0.025 A 
ATOM     13  C   UNL     1     -20.755  90.823  -6.641  1.00  0.00     0.016 A 
ATOM     14  C   UNL     1     -21.087  89.473  -6.781  1.00  0.00     0.051 A 
ATOM     15  C   UNL     1     -22.096  88.907  -5.992  1.00  0.00     0.157 A 
ATOM     16  C   UNL     1     -22.449  91.057  -4.924  1.00  0.00     0.062 A 
ATOM     17  C   UNL     1     -22.781  89.701  -5.064  1.00  0.00     0.158 A 
BRANCH  15  18
ATOM     18  O   UNL     1     -22.428  87.561  -6.127  1.00  0.00    -0.504 OA
ATOM     19  H   UNL     1     -23.151  87.254  -6.768  1.00  0.00     0.293 HD
ENDBRANCH  15  18
BRANCH  17  20
ATOM     20  O   UNL     1     -23.790  89.138  -4.284  1.00  0.00    -0.504 OA
ATOM     21  H   UNL     1     -23.623  88.854  -3.326  1.00  0.00     0.293 HD
ENDBRANCH  17  20
ENDBRANCH   1  12
BRANCH   2  22
ATOM     22  O   UNL     1     -23.456  93.695  -5.662  1.00  0.00    -0.502 OA
ATOM     23  H   UNL     1     -23.742  92.796  -6.029  1.00  0.00     0.293 HD
ENDBRANCH   2  22
BRANCH   6  24
ATOM     24  O   UNL     1     -20.811  98.124  -5.003  1.00  0.00    -0.507 OA
ATOM     25  H   UNL     1     -21.510  98.179  -4.271  1.00  0.00     0.293 HD
ENDBRANCH   6  24
BRANCH   8  26
ATOM     26  O   UNL     1     -16.246  96.516  -4.990  1.00  0.00    -0.508 OA
ATOM     27  H   UNL     1     -15.704  96.240  -4.179  1.00  0.00     0.293 HD
ENDBRANCH   8  26
TORSDOF 6
ENDMDL
