MODEL 1
REMARK VINA RESULT:    -3.446      0.000      0.000
REMARK INTER + INTRA:          -9.004
REMARK INTER:                  -6.669
REMARK INTRA:                  -2.335
REMARK UNBOUND:                -2.335
REMARK SMILES CCCCCCCCCCCCCCCCCC(=O)[O-]
REMARK SMILES IDX 10 1 11 2 12 3 13 4 14 5 15 6 16 7 17 8 18 9 19 10 20 11
REMARK SMILES IDX 9 12 8 13 7 14 6 15 5 16 4 17 3 18 2 19 1 20
REMARK H PARENT
REMARK Flexibility Score: inf
ROOT
ATOM      1  C   UNL     1      -8.906  19.411 -25.389  1.00  0.00     0.000 C 
ENDROOT
BRANCH   1   2
ATOM      2  C   UNL     1      -9.646  18.275 -24.659  1.00  0.00     0.000 C 
BRANCH   2   3
ATOM      3  C   UNL     1     -10.973  18.687 -23.991  1.00  0.00     0.000 C 
BRANCH   3   4
ATOM      4  C   UNL     1     -11.181  20.206 -23.830  1.00  0.00     0.000 C 
BRANCH   4   5
ATOM      5  C   UNL     1     -12.554  20.731 -24.294  1.00  0.00     0.000 C 
BRANCH   5   6
ATOM      6  C   UNL     1     -13.375  19.743 -25.143  1.00  0.00     0.000 C 
BRANCH   6   7
ATOM      7  C   UNL     1     -13.429  20.134 -26.629  1.00  0.00     0.006 C 
BRANCH   7   8
ATOM      8  C   UNL     1     -13.112  18.949 -27.551  1.00  0.00     0.053 C 
BRANCH   8   9
ATOM      9  C   UNL     1     -13.762  19.098 -28.893  1.00  0.00     0.041 C 
ATOM     10  O   UNL     1     -14.892  19.644 -28.994  1.00  0.00    -0.550 OA
ATOM     11  O   UNL     1     -13.129  18.607 -30.029  1.00  0.00    -0.550 OA
ENDBRANCH   8   9
ENDBRANCH   7   8
ENDBRANCH   6   7
ENDBRANCH   5   6
ENDBRANCH   4   5
ENDBRANCH   3   4
ENDBRANCH   2   3
ENDBRANCH   1   2
BRANCH   1  12
ATOM     12  C   UNL     1      -7.417  19.493 -25.014  1.00  0.00     0.000 C 
BRANCH  12  13
ATOM     13  C   UNL     1      -7.159  19.151 -23.529  1.00  0.00    -0.000 C 
BRANCH  13  14
ATOM     14  C   UNL     1      -7.364  20.340 -22.572  1.00  0.00    -0.000 C 
BRANCH  14  15
ATOM     15  C   UNL     1      -7.544  19.960 -21.091  1.00  0.00    -0.000 C 
BRANCH  15  16
ATOM     16  C   UNL     1      -8.074  18.533 -20.840  1.00  0.00    -0.000 C 
BRANCH  16  17
ATOM     17  C   UNL     1      -9.602  18.422 -20.691  1.00  0.00    -0.000 C 
BRANCH  17  18
ATOM     18  C   UNL     1     -10.266  19.756 -20.315  1.00  0.00    -0.000 C 
BRANCH  18  19
ATOM     19  C   UNL     1     -11.585  19.522 -19.569  1.00  0.00    -0.003 C 
ATOM     20  C   UNL     1     -12.771  19.540 -20.528  1.00  0.00     0.004 C 
ENDBRANCH  18  19
ENDBRANCH  17  18
ENDBRANCH  16  17
ENDBRANCH  15  16
ENDBRANCH  14  15
ENDBRANCH  13  14
ENDBRANCH  12  13
ENDBRANCH   1  12
TORSDOF 16
ENDMDL
MODEL 2
REMARK VINA RESULT:    -3.420      1.416      3.826
REMARK INTER + INTRA:          -8.955
REMARK INTER:                  -6.508
REMARK INTRA:                  -2.447
REMARK UNBOUND:                -2.335
REMARK SMILES CCCCCCCCCCCCCCCCCC(=O)[O-]
REMARK SMILES IDX 10 1 11 2 12 3 13 4 14 5 15 6 16 7 17 8 18 9 19 10 20 11
REMARK SMILES IDX 9 12 8 13 7 14 6 15 5 16 4 17 3 18 2 19 1 20
REMARK H PARENT
REMARK Flexibility Score: inf
ROOT
ATOM      1  C   UNL     1     -11.449  20.248 -20.193  1.00  0.00     0.000 C 
ENDROOT
BRANCH   1   2
ATOM      2  C   UNL     1     -12.734  19.488 -20.567  1.00  0.00     0.000 C 
BRANCH   2   3
ATOM      3  C   UNL     1     -13.260  19.761 -21.991  1.00  0.00     0.000 C 
BRANCH   3   4
ATOM      4  C   UNL     1     -12.458  20.804 -22.795  1.00  0.00     0.000 C 
BRANCH   4   5
ATOM      5  C   UNL     1     -12.472  20.602 -24.324  1.00  0.00     0.000 C 
BRANCH   5   6
ATOM      6  C   UNL     1     -12.082  19.190 -24.797  1.00  0.00     0.000 C 
BRANCH   6   7
ATOM      7  C   UNL     1     -12.876  18.733 -26.032  1.00  0.00     0.006 C 
BRANCH   7   8
ATOM      8  C   UNL     1     -13.302  19.913 -26.916  1.00  0.00     0.053 C 
BRANCH   8   9
ATOM      9  C   UNL     1     -14.777  19.910 -27.176  1.00  0.00     0.041 C 
ATOM     10  O   UNL     1     -15.214  19.895 -28.357  1.00  0.00    -0.550 OA
ATOM     11  O   UNL     1     -15.670  19.951 -26.112  1.00  0.00    -0.550 OA
ENDBRANCH   8   9
ENDBRANCH   7   8
ENDBRANCH   6   7
ENDBRANCH   5   6
ENDBRANCH   4   5
ENDBRANCH   3   4
ENDBRANCH   2   3
ENDBRANCH   1   2
BRANCH   1  12
ATOM     12  C   UNL     1     -10.933  19.895 -18.787  1.00  0.00     0.000 C 
BRANCH  12  13
ATOM     13  C   UNL     1      -9.940  18.712 -18.798  1.00  0.00    -0.000 C 
BRANCH  13  14
ATOM     14  C   UNL     1      -8.482  19.127 -19.067  1.00  0.00    -0.000 C 
BRANCH  14  15
ATOM     15  C   UNL     1      -7.879  18.578 -20.374  1.00  0.00    -0.000 C 
BRANCH  15  16
ATOM     16  C   UNL     1      -8.849  17.760 -21.250  1.00  0.00    -0.000 C 
BRANCH  16  17
ATOM     17  C   UNL     1      -9.293  18.452 -22.552  1.00  0.00    -0.000 C 
BRANCH  17  18
ATOM     18  C   UNL     1      -8.727  19.873 -22.698  1.00  0.00    -0.000 C 
BRANCH  18  19
ATOM     19  C   UNL     1      -8.507  20.227 -24.173  1.00  0.00    -0.003 C 
ATOM     20  C   UNL     1      -8.464  18.973 -25.041  1.00  0.00     0.004 C 
ENDBRANCH  18  19
ENDBRANCH  17  18
ENDBRANCH  16  17
ENDBRANCH  15  16
ENDBRANCH  14  15
ENDBRANCH  13  14
ENDBRANCH  12  13
ENDBRANCH   1  12
TORSDOF 16
ENDMDL
MODEL 3
REMARK VINA RESULT:    -3.363      3.476      6.372
REMARK INTER + INTRA:          -8.844
REMARK INTER:                  -6.510
REMARK INTRA:                  -2.334
REMARK UNBOUND:                -2.335
REMARK SMILES CCCCCCCCCCCCCCCCCC(=O)[O-]
REMARK SMILES IDX 10 1 11 2 12 3 13 4 14 5 15 6 16 7 17 8 18 9 19 10 20 11
REMARK SMILES IDX 9 12 8 13 7 14 6 15 5 16 4 17 3 18 2 19 1 20
REMARK H PARENT
REMARK Flexibility Score: inf
ROOT
ATOM      1  C   UNL     1     -10.943  17.719 -25.413  1.00  0.00     0.000 C 
ENDROOT
BRANCH   1   2
ATOM      2  C   UNL     1      -9.522  17.894 -24.847  1.00  0.00     0.000 C 
BRANCH   2   3
ATOM      3  C   UNL     1      -8.804  19.189 -25.279  1.00  0.00     0.000 C 
BRANCH   3   4
ATOM      4  C   UNL     1      -7.600  19.592 -24.406  1.00  0.00     0.000 C 
BRANCH   4   5
ATOM      5  C   UNL     1      -7.961  20.183 -23.028  1.00  0.00     0.000 C 
BRANCH   5   6
ATOM      6  C   UNL     1      -7.384  19.421 -21.822  1.00  0.00     0.000 C 
BRANCH   6   7
ATOM      7  C   UNL     1      -8.189  18.159 -21.472  1.00  0.00     0.006 C 
BRANCH   7   8
ATOM      8  C   UNL     1      -7.292  16.925 -21.315  1.00  0.00     0.053 C 
BRANCH   8   9
ATOM      9  C   UNL     1      -8.040  15.655 -21.584  1.00  0.00     0.041 C 
ATOM     10  O   UNL     1      -7.994  15.119 -22.723  1.00  0.00    -0.550 OA
ATOM     11  O   UNL     1      -8.813  15.078 -20.583  1.00  0.00    -0.550 OA
ENDBRANCH   8   9
ENDBRANCH   7   8
ENDBRANCH   6   7
ENDBRANCH   5   6
ENDBRANCH   4   5
ENDBRANCH   3   4
ENDBRANCH   2   3
ENDBRANCH   1   2
BRANCH   1  12
ATOM     12  C   UNL     1     -11.199  18.580 -26.662  1.00  0.00     0.000 C 
BRANCH  12  13
ATOM     13  C   UNL     1     -12.702  18.722 -26.987  1.00  0.00    -0.000 C 
BRANCH  13  14
ATOM     14  C   UNL     1     -13.374  19.929 -26.306  1.00  0.00    -0.000 C 
BRANCH  14  15
ATOM     15  C   UNL     1     -14.228  19.588 -25.071  1.00  0.00    -0.000 C 
BRANCH  15  16
ATOM     16  C   UNL     1     -13.829  20.321 -23.774  1.00  0.00    -0.000 C 
BRANCH  16  17
ATOM     17  C   UNL     1     -12.401  20.896 -23.763  1.00  0.00    -0.000 C 
BRANCH  17  18
ATOM     18  C   UNL     1     -11.493  20.223 -22.722  1.00  0.00    -0.000 C 
BRANCH  18  19
ATOM     19  C   UNL     1     -12.236  20.018 -21.397  1.00  0.00    -0.003 C 
ATOM     20  C   UNL     1     -11.295  20.175 -20.207  1.00  0.00     0.004 C 
ENDBRANCH  18  19
ENDBRANCH  17  18
ENDBRANCH  16  17
ENDBRANCH  15  16
ENDBRANCH  14  15
ENDBRANCH  13  14
ENDBRANCH  12  13
ENDBRANCH   1  12
TORSDOF 16
ENDMDL
MODEL 4
REMARK VINA RESULT:    -3.355      1.954      5.028
REMARK INTER + INTRA:          -8.829
REMARK INTER:                  -6.959
REMARK INTRA:                  -1.870
REMARK UNBOUND:                -2.335
REMARK SMILES CCCCCCCCCCCCCCCCCC(=O)[O-]
REMARK SMILES IDX 10 1 11 2 12 3 13 4 14 5 15 6 16 7 17 8 18 9 19 10 20 11
REMARK SMILES IDX 9 12 8 13 7 14 6 15 5 16 4 17 3 18 2 19 1 20
REMARK H PARENT
REMARK Flexibility Score: inf
ROOT
ATOM      1  C   UNL     1     -10.307  19.309 -20.722  1.00  0.00     0.000 C 
ENDROOT
BRANCH   1   2
ATOM      2  C   UNL     1     -11.527  20.206 -20.448  1.00  0.00     0.000 C 
BRANCH   2   3
ATOM      3  C   UNL     1     -12.894  19.552 -20.738  1.00  0.00     0.000 C 
BRANCH   3   4
ATOM      4  C   UNL     1     -13.411  19.730 -22.179  1.00  0.00     0.000 C 
BRANCH   4   5
ATOM      5  C   UNL     1     -12.958  21.026 -22.880  1.00  0.00     0.000 C 
BRANCH   5   6
ATOM      6  C   UNL     1     -12.456  20.843 -24.323  1.00  0.00     0.000 C 
BRANCH   6   7
ATOM      7  C   UNL     1     -13.084  19.627 -25.025  1.00  0.00     0.006 C 
BRANCH   7   8
ATOM      8  C   UNL     1     -13.103  19.786 -26.551  1.00  0.00     0.053 C 
BRANCH   8   9
ATOM      9  C   UNL     1     -12.609  18.554 -27.246  1.00  0.00     0.041 C 
ATOM     10  O   UNL     1     -11.480  18.548 -27.803  1.00  0.00    -0.550 OA
ATOM     11  O   UNL     1     -13.410  17.419 -27.301  1.00  0.00    -0.550 OA
ENDBRANCH   8   9
ENDBRANCH   7   8
ENDBRANCH   6   7
ENDBRANCH   5   6
ENDBRANCH   4   5
ENDBRANCH   3   4
ENDBRANCH   2   3
ENDBRANCH   1   2
BRANCH   1  12
ATOM     12  C   UNL     1      -9.784  19.436 -22.164  1.00  0.00     0.000 C 
BRANCH  12  13
ATOM     13  C   UNL     1      -9.781  18.086 -22.915  1.00  0.00    -0.000 C 
BRANCH  13  14
ATOM     14  C   UNL     1      -9.658  18.225 -24.444  1.00  0.00    -0.000 C 
BRANCH  14  15
ATOM     15  C   UNL     1      -8.979  19.520 -24.927  1.00  0.00    -0.000 C 
BRANCH  15  16
ATOM     16  C   UNL     1      -7.439  19.472 -24.981  1.00  0.00    -0.000 C 
BRANCH  16  17
ATOM     17  C   UNL     1      -6.760  20.784 -25.418  1.00  0.00    -0.000 C 
BRANCH  17  18
ATOM     18  C   UNL     1      -6.829  21.017 -26.935  1.00  0.00    -0.000 C 
BRANCH  18  19
ATOM     19  C   UNL     1      -5.478  21.497 -27.478  1.00  0.00    -0.003 C 
ATOM     20  C   UNL     1      -5.355  21.221 -28.973  1.00  0.00     0.004 C 
ENDBRANCH  18  19
ENDBRANCH  17  18
ENDBRANCH  16  17
ENDBRANCH  15  16
ENDBRANCH  14  15
ENDBRANCH  13  14
ENDBRANCH  12  13
ENDBRANCH   1  12
TORSDOF 16
ENDMDL
MODEL 5
REMARK VINA RESULT:    -3.320      4.347      8.095
REMARK INTER + INTRA:          -8.761
REMARK INTER:                  -6.319
REMARK INTRA:                  -2.442
REMARK UNBOUND:                -2.335
REMARK SMILES CCCCCCCCCCCCCCCCCC(=O)[O-]
REMARK SMILES IDX 10 1 11 2 12 3 13 4 14 5 15 6 16 7 17 8 18 9 19 10 20 11
REMARK SMILES IDX 9 12 8 13 7 14 6 15 5 16 4 17 3 18 2 19 1 20
REMARK H PARENT
REMARK Flexibility Score: inf
ROOT
ATOM      1  C   UNL     1     -14.115  19.873 -22.976  1.00  0.00     0.000 C 
ENDROOT
BRANCH   1   2
ATOM      2  C   UNL     1     -13.045  20.951 -23.226  1.00  0.00     0.000 C 
BRANCH   2   3
ATOM      3  C   UNL     1     -11.732  20.433 -23.847  1.00  0.00     0.000 C 
BRANCH   3   4
ATOM      4  C   UNL     1     -11.457  18.931 -23.637  1.00  0.00     0.000 C 
BRANCH   4   5
ATOM      5  C   UNL     1     -10.180  18.606 -22.837  1.00  0.00     0.000 C 
BRANCH   5   6
ATOM      6  C   UNL     1      -9.979  19.446 -21.564  1.00  0.00     0.000 C 
BRANCH   6   7
ATOM      7  C   UNL     1     -10.960  19.074 -20.440  1.00  0.00     0.006 C 
BRANCH   7   8
ATOM      8  C   UNL     1     -11.441  20.305 -19.660  1.00  0.00     0.053 C 
BRANCH   8   9
ATOM      9  C   UNL     1     -11.126  20.196 -18.199  1.00  0.00     0.041 C 
ATOM     10  O   UNL     1     -12.028  20.379 -17.340  1.00  0.00    -0.550 OA
ATOM     11  O   UNL     1      -9.828  19.919 -17.787  1.00  0.00    -0.550 OA
ENDBRANCH   8   9
ENDBRANCH   7   8
ENDBRANCH   6   7
ENDBRANCH   5   6
ENDBRANCH   4   5
ENDBRANCH   3   4
ENDBRANCH   2   3
ENDBRANCH   1   2
BRANCH   1  12
ATOM     12  C   UNL     1     -15.549  20.408 -23.126  1.00  0.00     0.000 C 
BRANCH  12  13
ATOM     13  C   UNL     1     -16.485  19.404 -23.835  1.00  0.00    -0.000 C 
BRANCH  13  14
ATOM     14  C   UNL     1     -15.765  18.149 -24.365  1.00  0.00    -0.000 C 
BRANCH  14  15
ATOM     15  C   UNL     1     -15.807  17.971 -25.894  1.00  0.00    -0.000 C 
BRANCH  15  16
ATOM     16  C   UNL     1     -16.103  19.255 -26.696  1.00  0.00    -0.000 C 
BRANCH  16  17
ATOM     17  C   UNL     1     -14.950  19.745 -27.591  1.00  0.00    -0.000 C 
BRANCH  17  18
ATOM     18  C   UNL     1     -13.619  19.874 -26.835  1.00  0.00    -0.000 C 
BRANCH  18  19
ATOM     19  C   UNL     1     -12.508  19.088 -27.542  1.00  0.00    -0.003 C 
ATOM     20  C   UNL     1     -12.388  17.676 -26.979  1.00  0.00     0.004 C 
ENDBRANCH  18  19
ENDBRANCH  17  18
ENDBRANCH  16  17
ENDBRANCH  15  16
ENDBRANCH  14  15
ENDBRANCH  13  14
ENDBRANCH  12  13
ENDBRANCH   1  12
TORSDOF 16
ENDMDL
MODEL 6
REMARK VINA RESULT:    -3.306      3.469      6.857
REMARK INTER + INTRA:          -8.733
REMARK INTER:                  -6.411
REMARK INTRA:                  -2.322
REMARK UNBOUND:                -2.335
REMARK SMILES CCCCCCCCCCCCCCCCCC(=O)[O-]
REMARK SMILES IDX 10 1 11 2 12 3 13 4 14 5 15 6 16 7 17 8 18 9 19 10 20 11
REMARK SMILES IDX 9 12 8 13 7 14 6 15 5 16 4 17 3 18 2 19 1 20
REMARK H PARENT
REMARK Flexibility Score: inf
ROOT
ATOM      1  C   UNL     1     -12.868  19.248 -21.152  1.00  0.00     0.000 C 
ENDROOT
BRANCH   1   2
ATOM      2  C   UNL     1     -11.710  20.153 -20.694  1.00  0.00     0.000 C 
BRANCH   2   3
ATOM      3  C   UNL     1     -10.323  19.478 -20.680  1.00  0.00     0.000 C 
BRANCH   3   4
ATOM      4  C   UNL     1      -9.568  19.509 -22.023  1.00  0.00     0.000 C 
BRANCH   4   5
ATOM      5  C   UNL     1      -9.702  18.233 -22.879  1.00  0.00     0.000 C 
BRANCH   5   6
ATOM      6  C   UNL     1      -9.298  18.394 -24.354  1.00  0.00     0.000 C 
BRANCH   6   7
ATOM      7  C   UNL     1      -8.719  19.784 -24.667  1.00  0.00     0.006 C 
BRANCH   7   8
ATOM      8  C   UNL     1      -7.253  19.713 -25.117  1.00  0.00     0.053 C 
BRANCH   8   9
ATOM      9  C   UNL     1      -6.310  19.798 -23.957  1.00  0.00     0.041 C 
ATOM     10  O   UNL     1      -6.348  20.787 -23.178  1.00  0.00    -0.550 OA
ATOM     11  O   UNL     1      -5.367  18.797 -23.754  1.00  0.00    -0.550 OA
ENDBRANCH   8   9
ENDBRANCH   7   8
ENDBRANCH   6   7
ENDBRANCH   5   6
ENDBRANCH   4   5
ENDBRANCH   3   4
ENDBRANCH   2   3
ENDBRANCH   1   2
BRANCH   1  12
ATOM     12  C   UNL     1     -13.594  19.789 -22.396  1.00  0.00     0.000 C 
BRANCH  12  13
ATOM     13  C   UNL     1     -12.860  20.988 -23.036  1.00  0.00    -0.000 C 
BRANCH  13  14
ATOM     14  C   UNL     1     -12.339  20.711 -24.459  1.00  0.00    -0.000 C 
BRANCH  14  15
ATOM     15  C   UNL     1     -12.773  19.361 -25.060  1.00  0.00    -0.000 C 
BRANCH  15  16
ATOM     16  C   UNL     1     -12.925  19.346 -26.595  1.00  0.00    -0.000 C 
BRANCH  16  17
ATOM     17  C   UNL     1     -14.209  20.007 -27.130  1.00  0.00    -0.000 C 
BRANCH  17  18
ATOM     18  C   UNL     1     -15.227  18.988 -27.666  1.00  0.00    -0.000 C 
BRANCH  18  19
ATOM     19  C   UNL     1     -16.551  19.080 -26.898  1.00  0.00    -0.003 C 
ATOM     20  C   UNL     1     -16.440  20.042 -25.720  1.00  0.00     0.004 C 
ENDBRANCH  18  19
ENDBRANCH  17  18
ENDBRANCH  16  17
ENDBRANCH  15  16
ENDBRANCH  14  15
ENDBRANCH  13  14
ENDBRANCH  12  13
ENDBRANCH   1  12
TORSDOF 16
ENDMDL
MODEL 7
REMARK VINA RESULT:    -3.288      4.128      6.427
REMARK INTER + INTRA:          -8.698
REMARK INTER:                  -6.463
REMARK INTRA:                  -2.236
REMARK UNBOUND:                -2.335
REMARK SMILES CCCCCCCCCCCCCCCCCC(=O)[O-]
REMARK SMILES IDX 10 1 11 2 12 3 13 4 14 5 15 6 16 7 17 8 18 9 19 10 20 11
REMARK SMILES IDX 9 12 8 13 7 14 6 15 5 16 4 17 3 18 2 19 1 20
REMARK H PARENT
REMARK Flexibility Score: inf
ROOT
ATOM      1  C   UNL     1     -10.510  19.117 -24.931  1.00  0.00     0.000 C 
ENDROOT
BRANCH   1   2
ATOM      2  C   UNL     1      -9.047  18.647 -25.025  1.00  0.00     0.000 C 
BRANCH   2   3
ATOM      3  C   UNL     1      -8.027  19.758 -25.348  1.00  0.00     0.000 C 
BRANCH   3   4
ATOM      4  C   UNL     1      -6.630  19.564 -24.726  1.00  0.00     0.000 C 
BRANCH   4   5
ATOM      5  C   UNL     1      -6.623  18.926 -23.322  1.00  0.00     0.000 C 
BRANCH   5   6
ATOM      6  C   UNL     1      -6.731  19.922 -22.154  1.00  0.00     0.000 C 
BRANCH   6   7
ATOM      7  C   UNL     1      -8.032  19.761 -21.350  1.00  0.00     0.006 C 
BRANCH   7   8
ATOM      8  C   UNL     1      -8.474  18.295 -21.251  1.00  0.00     0.053 C 
BRANCH   8   9
ATOM      9  C   UNL     1      -7.766  17.573 -20.145  1.00  0.00     0.041 C 
ATOM     10  O   UNL     1      -7.580  18.138 -19.035  1.00  0.00    -0.550 OA
ATOM     11  O   UNL     1      -7.287  16.285 -20.351  1.00  0.00    -0.550 OA
ENDBRANCH   8   9
ENDBRANCH   7   8
ENDBRANCH   6   7
ENDBRANCH   5   6
ENDBRANCH   4   5
ENDBRANCH   3   4
ENDBRANCH   2   3
ENDBRANCH   1   2
BRANCH   1  12
ATOM     12  C   UNL     1     -10.782  19.980 -23.687  1.00  0.00     0.000 C 
BRANCH  12  13
ATOM     13  C   UNL     1     -12.077  20.812 -23.814  1.00  0.00    -0.000 C 
BRANCH  13  14
ATOM     14  C   UNL     1     -13.357  20.029 -23.467  1.00  0.00    -0.000 C 
BRANCH  14  15
ATOM     15  C   UNL     1     -13.176  18.919 -22.414  1.00  0.00    -0.000 C 
BRANCH  15  16
ATOM     16  C   UNL     1     -13.977  19.116 -21.110  1.00  0.00    -0.000 C 
BRANCH  16  17
ATOM     17  C   UNL     1     -13.125  19.258 -19.836  1.00  0.00    -0.000 C 
BRANCH  17  18
ATOM     18  C   UNL     1     -11.783  19.963 -20.089  1.00  0.00    -0.000 C 
BRANCH  18  19
ATOM     19  C   UNL     1     -10.871  19.863 -18.861  1.00  0.00    -0.003 C 
ATOM     20  C   UNL     1     -11.622  20.230 -17.585  1.00  0.00     0.004 C 
ENDBRANCH  18  19
ENDBRANCH  17  18
ENDBRANCH  16  17
ENDBRANCH  15  16
ENDBRANCH  14  15
ENDBRANCH  13  14
ENDBRANCH  12  13
ENDBRANCH   1  12
TORSDOF 16
ENDMDL
MODEL 8
REMARK VINA RESULT:    -3.280      4.203      7.291
REMARK INTER + INTRA:          -8.684
REMARK INTER:                  -6.273
REMARK INTRA:                  -2.411
REMARK UNBOUND:                -2.335
REMARK SMILES CCCCCCCCCCCCCCCCCC(=O)[O-]
REMARK SMILES IDX 10 1 11 2 12 3 13 4 14 5 15 6 16 7 17 8 18 9 19 10 20 11
REMARK SMILES IDX 9 12 8 13 7 14 6 15 5 16 4 17 3 18 2 19 1 20
REMARK H PARENT
REMARK Flexibility Score: inf
ROOT
ATOM      1  C   UNL     1      -9.177  18.431 -24.918  1.00  0.00     0.000 C 
ENDROOT
BRANCH   1   2
ATOM      2  C   UNL     1      -8.630  19.870 -24.941  1.00  0.00     0.000 C 
BRANCH   2   3
ATOM      3  C   UNL     1      -7.189  20.010 -25.473  1.00  0.00     0.000 C 
BRANCH   3   4
ATOM      4  C   UNL     1      -6.118  20.280 -24.398  1.00  0.00     0.000 C 
BRANCH   4   5
ATOM      5  C   UNL     1      -5.135  19.119 -24.148  1.00  0.00     0.000 C 
BRANCH   5   6
ATOM      6  C   UNL     1      -5.030  18.659 -22.684  1.00  0.00     0.000 C 
BRANCH   6   7
ATOM      7  C   UNL     1      -6.394  18.604 -21.975  1.00  0.00     0.006 C 
BRANCH   7   8
ATOM      8  C   UNL     1      -6.497  19.628 -20.838  1.00  0.00     0.053 C 
BRANCH   8   9
ATOM      9  C   UNL     1      -6.956  18.997 -19.559  1.00  0.00     0.041 C 
ATOM     10  O   UNL     1      -6.124  18.455 -18.784  1.00  0.00    -0.550 OA
ATOM     11  O   UNL     1      -8.308  18.982 -19.237  1.00  0.00    -0.550 OA
ENDBRANCH   8   9
ENDBRANCH   7   8
ENDBRANCH   6   7
ENDBRANCH   5   6
ENDBRANCH   4   5
ENDBRANCH   3   4
ENDBRANCH   2   3
ENDBRANCH   1   2
BRANCH   1  12
ATOM     12  C   UNL     1      -9.753  18.031 -23.549  1.00  0.00     0.000 C 
BRANCH  12  13
ATOM     13  C   UNL     1      -9.941  19.242 -22.608  1.00  0.00    -0.000 C 
BRANCH  13  14
ATOM     14  C   UNL     1     -11.305  19.269 -21.894  1.00  0.00    -0.000 C 
BRANCH  14  15
ATOM     15  C   UNL     1     -12.189  20.486 -22.224  1.00  0.00    -0.000 C 
BRANCH  15  16
ATOM     16  C   UNL     1     -12.212  20.895 -23.711  1.00  0.00    -0.000 C 
BRANCH  16  17
ATOM     17  C   UNL     1     -13.312  20.225 -24.555  1.00  0.00    -0.000 C 
BRANCH  17  18
ATOM     18  C   UNL     1     -12.788  19.050 -25.396  1.00  0.00    -0.000 C 
BRANCH  18  19
ATOM     19  C   UNL     1     -12.621  19.459 -26.864  1.00  0.00    -0.003 C 
ATOM     20  C   UNL     1     -11.744  18.464 -27.618  1.00  0.00     0.004 C 
ENDBRANCH  18  19
ENDBRANCH  17  18
ENDBRANCH  16  17
ENDBRANCH  15  16
ENDBRANCH  14  15
ENDBRANCH  13  14
ENDBRANCH  12  13
ENDBRANCH   1  12
TORSDOF 16
ENDMDL
MODEL 9
REMARK VINA RESULT:    -3.273      4.298      5.999
REMARK INTER + INTRA:          -8.669
REMARK INTER:                  -6.250
REMARK INTRA:                  -2.419
REMARK UNBOUND:                -2.335
REMARK SMILES CCCCCCCCCCCCCCCCCC(=O)[O-]
REMARK SMILES IDX 10 1 11 2 12 3 13 4 14 5 15 6 16 7 17 8 18 9 19 10 20 11
REMARK SMILES IDX 9 12 8 13 7 14 6 15 5 16 4 17 3 18 2 19 1 20
REMARK H PARENT
REMARK Flexibility Score: inf
ROOT
ATOM      1  C   UNL     1     -10.938  19.822 -23.689  1.00  0.00     0.000 C 
ENDROOT
BRANCH   1   2
ATOM      2  C   UNL     1     -12.109  20.803 -23.877  1.00  0.00     0.000 C 
BRANCH   2   3
ATOM      3  C   UNL     1     -13.496  20.240 -23.504  1.00  0.00     0.000 C 
BRANCH   3   4
ATOM      4  C   UNL     1     -13.496  18.786 -22.994  1.00  0.00     0.000 C 
BRANCH   4   5
ATOM      5  C   UNL     1     -14.215  18.564 -21.648  1.00  0.00     0.000 C 
BRANCH   5   6
ATOM      6  C   UNL     1     -13.626  19.344 -20.460  1.00  0.00     0.000 C 
BRANCH   6   7
ATOM      7  C   UNL     1     -12.111  19.132 -20.298  1.00  0.00     0.006 C 
BRANCH   7   8
ATOM      8  C   UNL     1     -11.418  20.353 -19.680  1.00  0.00     0.053 C 
BRANCH   8   9
ATOM      9  C   UNL     1     -11.189  20.179 -18.209  1.00  0.00     0.041 C 
ATOM     10  O   UNL     1     -12.151  20.268 -17.402  1.00  0.00    -0.550 OA
ATOM     11  O   UNL     1      -9.906  19.947 -17.729  1.00  0.00    -0.550 OA
ENDBRANCH   8   9
ENDBRANCH   7   8
ENDBRANCH   6   7
ENDBRANCH   5   6
ENDBRANCH   4   5
ENDBRANCH   3   4
ENDBRANCH   2   3
ENDBRANCH   1   2
BRANCH   1  12
ATOM     12  C   UNL     1     -10.531  19.119 -24.995  1.00  0.00     0.000 C 
BRANCH  12  13
ATOM     13  C   UNL     1      -9.044  18.703 -25.007  1.00  0.00    -0.000 C 
BRANCH  13  14
ATOM     14  C   UNL     1      -8.082  19.842 -25.394  1.00  0.00    -0.000 C 
BRANCH  14  15
ATOM     15  C   UNL     1      -7.243  20.409 -24.234  1.00  0.00    -0.000 C 
BRANCH  15  16
ATOM     16  C   UNL     1      -6.138  19.472 -23.705  1.00  0.00    -0.000 C 
BRANCH  16  17
ATOM     17  C   UNL     1      -6.439  18.810 -22.348  1.00  0.00    -0.000 C 
BRANCH  17  18
ATOM     18  C   UNL     1      -7.592  19.490 -21.593  1.00  0.00    -0.000 C 
BRANCH  18  19
ATOM     19  C   UNL     1      -8.636  18.461 -21.144  1.00  0.00    -0.003 C 
ATOM     20  C   UNL     1      -8.358  17.091 -21.754  1.00  0.00     0.004 C 
ENDBRANCH  18  19
ENDBRANCH  17  18
ENDBRANCH  16  17
ENDBRANCH  15  16
ENDBRANCH  14  15
ENDBRANCH  13  14
ENDBRANCH  12  13
ENDBRANCH   1  12
TORSDOF 16
ENDMDL
