MODEL 1
REMARK VINA RESULT:     0.000      0.000      0.000
REMARK INTER + INTRA:          -1.478
REMARK INTER:                   0.000
REMARK INTRA:                  -1.478
REMARK UNBOUND:                -1.478
REMARK SMILES O=C(CO)[C@@H](O)[C@H](O)[C@@H](O)CO
REMARK SMILES IDX 7 1 9 2 11 3 12 4 10 6 5 8 2 9 1 10 3 11 4 12 6 14 8 16
REMARK H PARENT 12 5 10 7 4 13 6 15 8 17
REMARK Flexibility Score: inf
ROOT
ATOM      1  C   UNL     1      21.404  64.795  28.114  1.00  0.00     0.181 C 
ENDROOT
BRANCH   1   2
ATOM      2  C   UNL     1      20.414  64.850  26.920  1.00  0.00     0.171 C 
BRANCH   2   3
ATOM      3  C   UNL     1      20.086  63.448  26.380  1.00  0.00     0.190 C 
BRANCH   3   4
ATOM      4  O   UNL     1      20.660  62.477  27.209  1.00  0.00    -0.394 OA
ATOM      5  H   UNL     1      21.390  62.932  27.703  1.00  0.00     0.210 HD
ENDBRANCH   3   4
ENDBRANCH   2   3
BRANCH   2   6
ATOM      6  O   UNL     1      20.895  65.678  25.889  1.00  0.00    -0.388 OA
ATOM      7  H   UNL     1      21.878  65.547  25.828  1.00  0.00     0.211 HD
ENDBRANCH   2   6
ENDBRANCH   1   2
BRANCH   1   8
ATOM      8  C   UNL     1      21.375  66.104  28.942  1.00  0.00     0.214 C 
BRANCH   8   9
ATOM      9  C   UNL     1      22.750  66.737  29.022  1.00  0.00     0.189 C 
ATOM     10  O   UNL     1      23.572  66.302  29.815  1.00  0.00    -0.294 OA
BRANCH   9  11
ATOM     11  C   UNL     1      23.128  67.900  28.144  1.00  0.00     0.234 C 
BRANCH  11  12
ATOM     12  O   UNL     1      22.948  67.565  26.796  1.00  0.00    -0.388 OA
ATOM     13  H   UNL     1      23.149  68.381  26.268  1.00  0.00     0.211 HD
ENDBRANCH  11  12
ENDBRANCH   9  11
ENDBRANCH   8   9
BRANCH   8  14
ATOM     14  O   UNL     1      20.439  67.025  28.437  1.00  0.00    -0.382 OA
ATOM     15  H   UNL     1      19.662  67.047  29.055  1.00  0.00     0.211 HD
ENDBRANCH   8  14
ENDBRANCH   1   8
BRANCH   1  16
ATOM     16  O   UNL     1      22.711  64.538  27.662  1.00  0.00    -0.387 OA
ATOM     17  H   UNL     1      23.302  64.529  28.460  1.00  0.00     0.211 HD
ENDBRANCH   1  16
TORSDOF 10
ENDMDL
MODEL 2
REMARK VINA RESULT:     0.000     13.866     15.136
REMARK INTER + INTRA:          -1.478
REMARK INTER:                   0.000
REMARK INTRA:                  -1.478
REMARK UNBOUND:                -1.478
REMARK SMILES O=C(CO)[C@@H](O)[C@H](O)[C@@H](O)CO
REMARK SMILES IDX 7 1 9 2 11 3 12 4 10 6 5 8 2 9 1 10 3 11 4 12 6 14 8 16
REMARK H PARENT 12 5 10 7 4 13 6 15 8 17
REMARK Flexibility Score: inf
ROOT
ATOM      1  C   UNL     1      28.131  56.994  17.078  1.00  0.00     0.181 C 
ENDROOT
BRANCH   1   2
ATOM      2  C   UNL     1      28.966  56.683  15.809  1.00  0.00     0.171 C 
BRANCH   2   3
ATOM      3  C   UNL     1      29.987  55.561  16.053  1.00  0.00     0.190 C 
BRANCH   3   4
ATOM      4  O   UNL     1      29.792  55.015  17.327  1.00  0.00    -0.394 OA
ATOM      5  H   UNL     1      30.159  55.676  17.970  1.00  0.00     0.210 HD
ENDBRANCH   3   4
ENDBRANCH   2   3
BRANCH   2   6
ATOM      6  O   UNL     1      29.604  57.836  15.316  1.00  0.00    -0.388 OA
ATOM      7  H   UNL     1      30.029  58.300  16.085  1.00  0.00     0.211 HD
ENDBRANCH   2   6
ENDBRANCH   1   2
BRANCH   1   8
ATOM      8  C   UNL     1      26.826  57.756  16.733  1.00  0.00     0.214 C 
BRANCH   8   9
ATOM      9  C   UNL     1      26.745  59.076  17.475  1.00  0.00     0.189 C 
ATOM     10  O   UNL     1      26.395  59.092  18.646  1.00  0.00    -0.294 OA
BRANCH   9  11
ATOM     11  C   UNL     1      27.082  60.377  16.797  1.00  0.00     0.234 C 
BRANCH  11  12
ATOM     12  O   UNL     1      28.379  60.323  16.269  1.00  0.00    -0.388 OA
ATOM     13  H   UNL     1      28.920  60.987  16.770  1.00  0.00     0.211 HD
ENDBRANCH  11  12
ENDBRANCH   9  11
ENDBRANCH   8   9
BRANCH   8  14
ATOM     14  O   UNL     1      26.688  57.962  15.348  1.00  0.00    -0.382 OA
ATOM     15  H   UNL     1      26.712  58.939  15.177  1.00  0.00     0.211 HD
ENDBRANCH   8  14
ENDBRANCH   1   8
BRANCH   1  16
ATOM     16  O   UNL     1      28.891  57.733  18.003  1.00  0.00    -0.387 OA
ATOM     17  H   UNL     1      29.726  57.222  18.172  1.00  0.00     0.211 HD
ENDBRANCH   1  16
TORSDOF 10
ENDMDL
MODEL 3
REMARK VINA RESULT:     0.001      8.960     10.992
REMARK INTER + INTRA:          -1.477
REMARK INTER:                   0.000
REMARK INTRA:                  -1.477
REMARK UNBOUND:                -1.478
REMARK SMILES O=C(CO)[C@@H](O)[C@H](O)[C@@H](O)CO
REMARK SMILES IDX 7 1 9 2 11 3 12 4 10 6 5 8 2 9 1 10 3 11 4 12 6 14 8 16
REMARK H PARENT 12 5 10 7 4 13 6 15 8 17
REMARK Flexibility Score: inf
ROOT
ATOM      1  C   UNL     1      24.142  59.312  19.626  1.00  0.00     0.181 C 
ENDROOT
BRANCH   1   2
ATOM      2  C   UNL     1      24.249  60.286  20.829  1.00  0.00     0.171 C 
BRANCH   2   3
ATOM      3  C   UNL     1      25.389  59.897  21.783  1.00  0.00     0.190 C 
BRANCH   3   4
ATOM      4  O   UNL     1      26.125  58.841  21.233  1.00  0.00    -0.394 OA
ATOM      5  H   UNL     1      25.580  58.024  21.369  1.00  0.00     0.210 HD
ENDBRANCH   3   4
ENDBRANCH   2   3
BRANCH   2   6
ATOM      6  O   UNL     1      23.030  60.382  21.525  1.00  0.00    -0.388 OA
ATOM      7  H   UNL     1      23.238  60.602  22.471  1.00  0.00     0.211 HD
ENDBRANCH   2   6
ENDBRANCH   1   2
BRANCH   1   8
ATOM      8  C   UNL     1      23.344  59.936  18.453  1.00  0.00     0.214 C 
BRANCH   8   9
ATOM      9  C   UNL     1      22.154  59.075  18.075  1.00  0.00     0.189 C 
ATOM     10  O   UNL     1      22.320  58.084  17.380  1.00  0.00    -0.294 OA
BRANCH   9  11
ATOM     11  C   UNL     1      20.763  59.418  18.535  1.00  0.00     0.234 C 
BRANCH  11  12
ATOM     12  O   UNL     1      20.727  59.513  19.933  1.00  0.00    -0.388 OA
ATOM     13  H   UNL     1      19.995  58.919  20.242  1.00  0.00     0.211 HD
ENDBRANCH  11  12
ENDBRANCH   9  11
ENDBRANCH   8   9
BRANCH   8  14
ATOM     14  O   UNL     1      22.928  61.249  18.740  1.00  0.00    -0.382 OA
ATOM     15  H   UNL     1      23.581  61.876  18.333  1.00  0.00     0.211 HD
ENDBRANCH   8  14
ENDBRANCH   1   8
BRANCH   1  16
ATOM     16  O   UNL     1      23.549  58.099  20.022  1.00  0.00    -0.387 OA
ATOM     17  H   UNL     1      24.255  57.401  19.986  1.00  0.00     0.211 HD
ENDBRANCH   1  16
TORSDOF 10
ENDMDL
MODEL 4
REMARK VINA RESULT:     0.001      6.962      7.736
REMARK INTER + INTRA:          -1.477
REMARK INTER:                   0.000
REMARK INTRA:                  -1.477
REMARK UNBOUND:                -1.478
REMARK SMILES O=C(CO)[C@@H](O)[C@H](O)[C@@H](O)CO
REMARK SMILES IDX 7 1 9 2 11 3 12 4 10 6 5 8 2 9 1 10 3 11 4 12 6 14 8 16
REMARK H PARENT 12 5 10 7 4 13 6 15 8 17
REMARK Flexibility Score: inf
ROOT
ATOM      1  C   UNL     1      18.048  66.382  22.084  1.00  0.00     0.181 C 
ENDROOT
BRANCH   1   2
ATOM      2  C   UNL     1      16.570  65.978  22.324  1.00  0.00     0.171 C 
BRANCH   2   3
ATOM      3  C   UNL     1      16.404  64.456  22.458  1.00  0.00     0.190 C 
BRANCH   3   4
ATOM      4  O   UNL     1      17.663  63.844  22.469  1.00  0.00    -0.394 OA
ATOM      5  H   UNL     1      17.494  62.866  22.473  1.00  0.00     0.210 HD
ENDBRANCH   3   4
ENDBRANCH   2   3
BRANCH   2   6
ATOM      6  O   UNL     1      15.727  66.482  21.316  1.00  0.00    -0.388 OA
ATOM      7  H   UNL     1      16.299  66.762  20.555  1.00  0.00     0.211 HD
ENDBRANCH   2   6
ENDBRANCH   1   2
BRANCH   1   8
ATOM      8  C   UNL     1      18.294  67.877  22.413  1.00  0.00     0.214 C 
BRANCH   8   9
ATOM      9  C   UNL     1      18.858  68.619  21.216  1.00  0.00     0.189 C 
ATOM     10  O   UNL     1      20.047  68.525  20.951  1.00  0.00    -0.294 OA
BRANCH   9  11
ATOM     11  C   UNL     1      17.982  69.479  20.345  1.00  0.00     0.234 C 
BRANCH  11  12
ATOM     12  O   UNL     1      16.910  68.727  19.848  1.00  0.00    -0.388 OA
ATOM     13  H   UNL     1      16.122  69.330  19.826  1.00  0.00     0.211 HD
ENDBRANCH  11  12
ENDBRANCH   9  11
ENDBRANCH   8   9
BRANCH   8  14
ATOM     14  O   UNL     1      17.128  68.511  22.879  1.00  0.00    -0.382 OA
ATOM     15  H   UNL     1      16.860  68.078  23.731  1.00  0.00     0.211 HD
ENDBRANCH   8  14
ENDBRANCH   1   8
BRANCH   1  16
ATOM     16  O   UNL     1      18.426  66.110  20.757  1.00  0.00    -0.387 OA
ATOM     17  H   UNL     1      17.631  66.276  20.185  1.00  0.00     0.211 HD
ENDBRANCH   1  16
TORSDOF 10
ENDMDL
MODEL 5
REMARK VINA RESULT:     0.001      5.668      7.243
REMARK INTER + INTRA:          -1.477
REMARK INTER:                   0.000
REMARK INTRA:                  -1.477
REMARK UNBOUND:                -1.478
REMARK SMILES O=C(CO)[C@@H](O)[C@H](O)[C@@H](O)CO
REMARK SMILES IDX 7 1 9 2 11 3 12 4 10 6 5 8 2 9 1 10 3 11 4 12 6 14 8 16
REMARK H PARENT 12 5 10 7 4 13 6 15 8 17
REMARK Flexibility Score: inf
ROOT
ATOM      1  C   UNL     1      16.482  64.381  24.800  1.00  0.00     0.181 C 
ENDROOT
BRANCH   1   2
ATOM      2  C   UNL     1      16.148  65.891  24.686  1.00  0.00     0.171 C 
BRANCH   2   3
ATOM      3  C   UNL     1      14.971  66.290  25.591  1.00  0.00     0.190 C 
BRANCH   3   4
ATOM      4  O   UNL     1      14.602  65.202  26.391  1.00  0.00    -0.394 OA
ATOM      5  H   UNL     1      13.748  64.862  26.019  1.00  0.00     0.210 HD
ENDBRANCH   3   4
ENDBRANCH   2   3
BRANCH   2   6
ATOM      6  O   UNL     1      15.897  66.265  23.353  1.00  0.00    -0.388 OA
ATOM      7  H   UNL     1      15.070  66.815  23.342  1.00  0.00     0.211 HD
ENDBRANCH   2   6
ENDBRANCH   1   2
BRANCH   1   8
ATOM      8  C   UNL     1      17.909  64.069  24.282  1.00  0.00     0.214 C 
BRANCH   8   9
ATOM      9  C   UNL     1      17.880  63.038  23.170  1.00  0.00     0.189 C 
ATOM     10  O   UNL     1      17.766  61.853  23.446  1.00  0.00    -0.294 OA
BRANCH   9  11
ATOM     11  C   UNL     1      17.994  63.443  21.725  1.00  0.00     0.234 C 
BRANCH  11  12
ATOM     12  O   UNL     1      16.993  64.369  21.404  1.00  0.00    -0.388 OA
ATOM     13  H   UNL     1      17.453  65.196  21.105  1.00  0.00     0.211 HD
ENDBRANCH  11  12
ENDBRANCH   9  11
ENDBRANCH   8   9
BRANCH   8  14
ATOM     14  O   UNL     1      18.580  65.231  23.858  1.00  0.00    -0.382 OA
ATOM     15  H   UNL     1      18.503  65.288  22.870  1.00  0.00     0.211 HD
ENDBRANCH   8  14
ENDBRANCH   1   8
BRANCH   1  16
ATOM     16  O   UNL     1      15.535  63.611  24.100  1.00  0.00    -0.387 OA
ATOM     17  H   UNL     1      14.817  63.371  24.743  1.00  0.00     0.211 HD
ENDBRANCH   1  16
TORSDOF 10
ENDMDL
MODEL 6
REMARK VINA RESULT:     0.001      6.008      7.661
REMARK INTER + INTRA:          -1.477
REMARK INTER:                   0.000
REMARK INTRA:                  -1.477
REMARK UNBOUND:                -1.478
REMARK SMILES O=C(CO)[C@@H](O)[C@H](O)[C@@H](O)CO
REMARK SMILES IDX 7 1 9 2 11 3 12 4 10 6 5 8 2 9 1 10 3 11 4 12 6 14 8 16
REMARK H PARENT 12 5 10 7 4 13 6 15 8 17
REMARK Flexibility Score: inf
ROOT
ATOM      1  C   UNL     1      22.910  62.524  22.425  1.00  0.00     0.181 C 
ENDROOT
BRANCH   1   2
ATOM      2  C   UNL     1      22.876  63.639  21.348  1.00  0.00     0.171 C 
BRANCH   2   3
ATOM      3  C   UNL     1      23.715  64.861  21.758  1.00  0.00     0.190 C 
BRANCH   3   4
ATOM      4  O   UNL     1      24.408  64.580  22.942  1.00  0.00    -0.394 OA
ATOM      5  H   UNL     1      23.733  64.596  23.668  1.00  0.00     0.210 HD
ENDBRANCH   3   4
ENDBRANCH   2   3
BRANCH   2   6
ATOM      6  O   UNL     1      21.557  64.023  21.045  1.00  0.00    -0.388 OA
ATOM      7  H   UNL     1      21.174  63.338  20.437  1.00  0.00     0.211 HD
ENDBRANCH   2   6
ENDBRANCH   1   2
BRANCH   1   8
ATOM      8  C   UNL     1      22.481  61.153  21.844  1.00  0.00     0.214 C 
BRANCH   8   9
ATOM      9  C   UNL     1      21.302  60.576  22.602  1.00  0.00     0.189 C 
ATOM     10  O   UNL     1      21.486  60.017  23.673  1.00  0.00    -0.294 OA
BRANCH   9  11
ATOM     11  C   UNL     1      19.901  60.672  22.061  1.00  0.00     0.234 C 
BRANCH  11  12
ATOM     12  O   UNL     1      19.570  62.011  21.816  1.00  0.00    -0.388 OA
ATOM     13  H   UNL     1      18.583  62.049  21.719  1.00  0.00     0.211 HD
ENDBRANCH  11  12
ENDBRANCH   9  11
ENDBRANCH   8   9
BRANCH   8  14
ATOM     14  O   UNL     1      22.189  61.233  20.469  1.00  0.00    -0.382 OA
ATOM     15  H   UNL     1      21.731  62.097  20.301  1.00  0.00     0.211 HD
ENDBRANCH   8  14
ENDBRANCH   1   8
BRANCH   1  16
ATOM     16  O   UNL     1      22.090  62.863  23.516  1.00  0.00    -0.387 OA
ATOM     17  H   UNL     1      21.219  63.167  23.147  1.00  0.00     0.211 HD
ENDBRANCH   1  16
TORSDOF 10
ENDMDL
MODEL 7
REMARK VINA RESULT:     0.001      4.704      6.673
REMARK INTER + INTRA:          -1.477
REMARK INTER:                   0.000
REMARK INTRA:                  -1.477
REMARK UNBOUND:                -1.478
REMARK SMILES O=C(CO)[C@@H](O)[C@H](O)[C@@H](O)CO
REMARK SMILES IDX 7 1 9 2 11 3 12 4 10 6 5 8 2 9 1 10 3 11 4 12 6 14 8 16
REMARK H PARENT 12 5 10 7 4 13 6 15 8 17
REMARK Flexibility Score: inf
ROOT
ATOM      1  C   UNL     1      16.997  65.814  22.942  1.00  0.00     0.181 C 
ENDROOT
BRANCH   1   2
ATOM      2  C   UNL     1      15.814  65.569  23.915  1.00  0.00     0.171 C 
BRANCH   2   3
ATOM      3  C   UNL     1      14.620  66.489  23.613  1.00  0.00     0.190 C 
BRANCH   3   4
ATOM      4  O   UNL     1      14.866  67.210  22.438  1.00  0.00    -0.394 OA
ATOM      5  H   UNL     1      15.201  68.098  22.725  1.00  0.00     0.210 HD
ENDBRANCH   3   4
ENDBRANCH   2   3
BRANCH   2   6
ATOM      6  O   UNL     1      16.215  65.702  25.257  1.00  0.00    -0.388 OA
ATOM      7  H   UNL     1      16.565  66.624  25.379  1.00  0.00     0.211 HD
ENDBRANCH   2   6
ENDBRANCH   1   2
BRANCH   1   8
ATOM      8  C   UNL     1      17.983  64.618  22.926  1.00  0.00     0.214 C 
BRANCH   8   9
ATOM      9  C   UNL     1      19.389  65.058  23.285  1.00  0.00     0.189 C 
ATOM     10  O   UNL     1      20.090  65.594  22.440  1.00  0.00    -0.294 OA
BRANCH   9  11
ATOM     11  C   UNL     1      19.946  64.844  24.667  1.00  0.00     0.234 C 
BRANCH  11  12
ATOM     12  O   UNL     1      19.112  65.441  25.621  1.00  0.00    -0.388 OA
ATOM     13  H   UNL     1      18.828  66.315  25.246  1.00  0.00     0.211 HD
ENDBRANCH  11  12
ENDBRANCH   9  11
ENDBRANCH   8   9
BRANCH   8  14
ATOM     14  O   UNL     1      17.562  63.578  23.775  1.00  0.00    -0.382 OA
ATOM     15  H   UNL     1      18.266  63.433  24.459  1.00  0.00     0.211 HD
ENDBRANCH   8  14
ENDBRANCH   1   8
BRANCH   1  16
ATOM     16  O   UNL     1      17.678  66.998  23.278  1.00  0.00    -0.387 OA
ATOM     17  H   UNL     1      18.006  67.400  22.430  1.00  0.00     0.211 HD
ENDBRANCH   1  16
TORSDOF 10
ENDMDL
MODEL 8
REMARK VINA RESULT:     0.001      5.039      6.871
REMARK INTER + INTRA:          -1.477
REMARK INTER:                   0.000
REMARK INTRA:                  -1.477
REMARK UNBOUND:                -1.478
REMARK SMILES O=C(CO)[C@@H](O)[C@H](O)[C@@H](O)CO
REMARK SMILES IDX 7 1 9 2 11 3 12 4 10 6 5 8 2 9 1 10 3 11 4 12 6 14 8 16
REMARK H PARENT 12 5 10 7 4 13 6 15 8 17
REMARK Flexibility Score: inf
ROOT
ATOM      1  C   UNL     1      20.580  65.816  21.780  1.00  0.00     0.181 C 
ENDROOT
BRANCH   1   2
ATOM      2  C   UNL     1      20.038  65.532  20.355  1.00  0.00     0.171 C 
BRANCH   2   3
ATOM      3  C   UNL     1      20.926  66.158  19.267  1.00  0.00     0.190 C 
BRANCH   3   4
ATOM      4  O   UNL     1      22.075  66.704  19.852  1.00  0.00    -0.394 OA
ATOM      5  H   UNL     1      21.836  66.903  20.794  1.00  0.00     0.210 HD
ENDBRANCH   3   4
ENDBRANCH   2   3
BRANCH   2   6
ATOM      6  O   UNL     1      18.706  65.960  20.214  1.00  0.00    -0.388 OA
ATOM      7  H   UNL     1      18.667  66.585  19.444  1.00  0.00     0.211 HD
ENDBRANCH   2   6
ENDBRANCH   1   2
BRANCH   1   8
ATOM      8  C   UNL     1      19.994  64.830  22.823  1.00  0.00     0.214 C 
BRANCH   8   9
ATOM      9  C   UNL     1      19.284  65.568  23.941  1.00  0.00     0.189 C 
ATOM     10  O   UNL     1      19.936  66.070  24.845  1.00  0.00    -0.294 OA
BRANCH   9  11
ATOM     11  C   UNL     1      17.784  65.692  23.968  1.00  0.00     0.234 C 
BRANCH  11  12
ATOM     12  O   UNL     1      17.329  66.283  22.782  1.00  0.00    -0.388 OA
ATOM     13  H   UNL     1      16.359  66.455  22.901  1.00  0.00     0.211 HD
ENDBRANCH  11  12
ENDBRANCH   9  11
ENDBRANCH   8   9
BRANCH   8  14
ATOM     14  O   UNL     1      19.132  63.890  22.230  1.00  0.00    -0.382 OA
ATOM     15  H   UNL     1      18.249  63.954  22.678  1.00  0.00     0.211 HD
ENDBRANCH   8  14
ENDBRANCH   1   8
BRANCH   1  16
ATOM     16  O   UNL     1      20.303  67.142  22.160  1.00  0.00    -0.387 OA
ATOM     17  H   UNL     1      21.132  67.513  22.561  1.00  0.00     0.211 HD
ENDBRANCH   1  16
TORSDOF 10
ENDMDL
MODEL 9
REMARK VINA RESULT:     0.001      3.338      5.057
REMARK INTER + INTRA:          -1.477
REMARK INTER:                   0.000
REMARK INTRA:                  -1.477
REMARK UNBOUND:                -1.478
REMARK SMILES O=C(CO)[C@@H](O)[C@H](O)[C@@H](O)CO
REMARK SMILES IDX 7 1 9 2 11 3 12 4 10 6 5 8 2 9 1 10 3 11 4 12 6 14 8 16
REMARK H PARENT 12 5 10 7 4 13 6 15 8 17
REMARK Flexibility Score: inf
ROOT
ATOM      1  C   UNL     1      20.433  66.970  24.682  1.00  0.00     0.181 C 
ENDROOT
BRANCH   1   2
ATOM      2  C   UNL     1      21.224  68.115  23.999  1.00  0.00     0.171 C 
BRANCH   2   3
ATOM      3  C   UNL     1      20.297  69.233  23.494  1.00  0.00     0.190 C 
BRANCH   3   4
ATOM      4  O   UNL     1      18.985  68.984  23.915  1.00  0.00    -0.394 OA
ATOM      5  H   UNL     1      19.034  68.825  24.893  1.00  0.00     0.210 HD
ENDBRANCH   3   4
ENDBRANCH   2   3
BRANCH   2   6
ATOM      6  O   UNL     1      22.033  67.632  22.954  1.00  0.00    -0.388 OA
ATOM      7  H   UNL     1      21.714  68.044  22.109  1.00  0.00     0.211 HD
ENDBRANCH   2   6
ENDBRANCH   1   2
BRANCH   1   8
ATOM      8  C   UNL     1      21.345  66.102  25.585  1.00  0.00     0.214 C 
BRANCH   8   9
ATOM      9  C   UNL     1      21.305  64.643  25.171  1.00  0.00     0.189 C 
ATOM     10  O   UNL     1      20.367  63.941  25.517  1.00  0.00    -0.294 OA
BRANCH   9  11
ATOM     11  C   UNL     1      22.404  64.035  24.342  1.00  0.00     0.234 C 
BRANCH  11  12
ATOM     12  O   UNL     1      22.568  64.757  23.153  1.00  0.00    -0.388 OA
ATOM     13  H   UNL     1      23.388  65.305  23.261  1.00  0.00     0.211 HD
ENDBRANCH  11  12
ENDBRANCH   9  11
ENDBRANCH   8   9
BRANCH   8  14
ATOM     14  O   UNL     1      22.672  66.572  25.598  1.00  0.00    -0.382 OA
ATOM     15  H   UNL     1      22.993  66.563  26.537  1.00  0.00     0.211 HD
ENDBRANCH   8  14
ENDBRANCH   1   8
BRANCH   1  16
ATOM     16  O   UNL     1      19.798  66.164  23.719  1.00  0.00    -0.387 OA
ATOM     17  H   UNL     1      20.489  65.559  23.340  1.00  0.00     0.211 HD
ENDBRANCH   1  16
TORSDOF 10
ENDMDL
