MODEL 1
REMARK VINA RESULT:    -5.802      0.000      0.000
REMARK INTER + INTRA:          -8.065
REMARK INTER:                  -7.328
REMARK INTRA:                  -0.736
REMARK UNBOUND:                -0.736
REMARK SMILES Oc1cc(O)cc(CCc2ccccc2O)c1
REMARK SMILES IDX 9 1 10 2 12 3 13 4 11 5 14 6 15 7 16 8 8 10 7 11 6 12 17 13
REMARK SMILES IDX 4 14 2 15 3 16 5 17 1 19
REMARK H PARENT 16 9 5 18 1 20
REMARK Flexibility Score: inf
ROOT
ATOM      1  C   UNL     1      19.353  49.368  47.096  1.00  0.00     0.044 C 
ENDROOT
BRANCH   1   2
ATOM      2  C   UNL     1      18.090  49.675  46.331  1.00  0.00    -0.006 A 
ATOM      3  C   UNL     1      15.752  49.187  45.869  1.00  0.00     0.001 A 
ATOM      4  C   UNL     1      15.739  50.171  44.878  1.00  0.00     0.004 A 
ATOM      5  C   UNL     1      16.923  48.936  46.590  1.00  0.00     0.007 A 
ATOM      6  C   UNL     1      16.896  50.901  44.602  1.00  0.00     0.046 A 
ATOM      7  C   UNL     1      18.076  50.656  45.319  1.00  0.00     0.118 A 
BRANCH   7   8
ATOM      8  O   UNL     1      19.232  51.381  45.027  1.00  0.00    -0.508 OA
ATOM      9  H   UNL     1      19.496  52.198  45.564  1.00  0.00     0.293 HD
ENDBRANCH   7   8
ENDBRANCH   1   2
BRANCH   1  10
ATOM     10  C   UNL     1      19.709  47.882  46.975  1.00  0.00     0.040 C 
BRANCH  10  11
ATOM     11  C   UNL     1      20.254  47.580  45.606  1.00  0.00    -0.040 A 
ATOM     12  C   UNL     1      19.823  46.438  44.909  1.00  0.00     0.050 A 
ATOM     13  C   UNL     1      21.154  48.464  44.990  1.00  0.00     0.050 A 
ATOM     14  C   UNL     1      20.304  46.172  43.623  1.00  0.00     0.119 A 
ATOM     15  C   UNL     1      21.637  48.200  43.701  1.00  0.00     0.119 A 
ATOM     16  C   UNL     1      21.214  47.053  43.022  1.00  0.00     0.092 A 
BRANCH  14  17
ATOM     17  O   UNL     1      19.871  45.031  42.950  1.00  0.00    -0.508 OA
ATOM     18  H   UNL     1      18.946  44.978  42.540  1.00  0.00     0.293 HD
ENDBRANCH  14  17
BRANCH  15  19
ATOM     19  O   UNL     1      22.535  49.069  43.087  1.00  0.00    -0.508 OA
ATOM     20  H   UNL     1      22.493  50.070  43.241  1.00  0.00     0.293 HD
ENDBRANCH  15  19
ENDBRANCH  10  11
ENDBRANCH   1  10
TORSDOF 6
ENDMDL
MODEL 2
REMARK VINA RESULT:    -5.777      0.097      2.037
REMARK INTER + INTRA:          -8.034
REMARK INTER:                  -7.295
REMARK INTRA:                  -0.739
REMARK UNBOUND:                -0.736
REMARK SMILES Oc1cc(O)cc(CCc2ccccc2O)c1
REMARK SMILES IDX 9 1 10 2 12 3 13 4 11 5 14 6 15 7 16 8 8 10 7 11 6 12 17 13
REMARK SMILES IDX 4 14 2 15 3 16 5 17 1 19
REMARK H PARENT 16 9 5 18 1 20
REMARK Flexibility Score: inf
ROOT
ATOM      1  C   UNL     1      19.360  49.365  47.088  1.00  0.00     0.044 C 
ENDROOT
BRANCH   1   2
ATOM      2  C   UNL     1      18.073  49.629  46.348  1.00  0.00    -0.006 A 
ATOM      3  C   UNL     1      15.733  49.091  45.961  1.00  0.00     0.001 A 
ATOM      4  C   UNL     1      15.678  50.043  44.942  1.00  0.00     0.004 A 
ATOM      5  C   UNL     1      16.926  48.880  46.659  1.00  0.00     0.007 A 
ATOM      6  C   UNL     1      16.815  50.784  44.614  1.00  0.00     0.046 A 
ATOM      7  C   UNL     1      18.017  50.579  45.307  1.00  0.00     0.118 A 
BRANCH   7   8
ATOM      8  O   UNL     1      19.153  51.312  44.964  1.00  0.00    -0.508 OA
ATOM      9  H   UNL     1      19.373  52.192  45.415  1.00  0.00     0.293 HD
ENDBRANCH   7   8
ENDBRANCH   1   2
BRANCH   1  10
ATOM     10  C   UNL     1      19.771  47.895  46.949  1.00  0.00     0.040 C 
BRANCH  10  11
ATOM     11  C   UNL     1      20.228  47.605  45.545  1.00  0.00    -0.040 A 
ATOM     12  C   UNL     1      21.130  48.469  44.901  1.00  0.00     0.050 A 
ATOM     13  C   UNL     1      19.803  46.439  44.888  1.00  0.00     0.050 A 
ATOM     14  C   UNL     1      21.581  48.184  43.609  1.00  0.00     0.119 A 
ATOM     15  C   UNL     1      20.254  46.151  43.593  1.00  0.00     0.119 A 
ATOM     16  C   UNL     1      21.140  47.025  42.955  1.00  0.00     0.092 A 
BRANCH  14  17
ATOM     17  O   UNL     1      22.470  49.056  42.984  1.00  0.00    -0.508 OA
ATOM     18  H   UNL     1      22.912  49.815  43.490  1.00  0.00     0.293 HD
ENDBRANCH  14  17
BRANCH  15  19
ATOM     19  O   UNL     1      19.831  45.000  42.933  1.00  0.00    -0.508 OA
ATOM     20  H   UNL     1      19.342  45.047  42.047  1.00  0.00     0.293 HD
ENDBRANCH  15  19
ENDBRANCH  10  11
ENDBRANCH   1  10
TORSDOF 6
ENDMDL
MODEL 3
REMARK VINA RESULT:    -5.720      2.669      5.482
REMARK INTER + INTRA:          -7.961
REMARK INTER:                  -7.181
REMARK INTRA:                  -0.780
REMARK UNBOUND:                -0.736
REMARK SMILES Oc1cc(O)cc(CCc2ccccc2O)c1
REMARK SMILES IDX 9 1 10 2 12 3 13 4 11 5 14 6 15 7 16 8 8 10 7 11 6 12 17 13
REMARK SMILES IDX 4 14 2 15 3 16 5 17 1 19
REMARK H PARENT 16 9 5 18 1 20
REMARK Flexibility Score: inf
ROOT
ATOM      1  C   UNL     1      18.492  49.534  45.603  1.00  0.00     0.044 C 
ENDROOT
BRANCH   1   2
ATOM      2  C   UNL     1      19.496  48.747  44.799  1.00  0.00    -0.006 A 
ATOM      3  C   UNL     1      21.625  48.650  43.626  1.00  0.00     0.001 A 
ATOM      4  C   UNL     1      21.358  47.335  43.242  1.00  0.00     0.004 A 
ATOM      5  C   UNL     1      20.697  49.356  44.396  1.00  0.00     0.007 A 
ATOM      6  C   UNL     1      20.162  46.723  43.623  1.00  0.00     0.046 A 
ATOM      7  C   UNL     1      19.224  47.423  44.396  1.00  0.00     0.118 A 
BRANCH   7   8
ATOM      8  O   UNL     1      18.025  46.810  44.760  1.00  0.00    -0.508 OA
ATOM      9  H   UNL     1      18.002  46.032  45.408  1.00  0.00     0.293 HD
ENDBRANCH   7   8
ENDBRANCH   1   2
BRANCH   1  10
ATOM     10  C   UNL     1      18.101  50.820  44.866  1.00  0.00     0.040 C 
BRANCH  10  11
ATOM     11  C   UNL     1      17.244  50.505  43.671  1.00  0.00    -0.040 A 
ATOM     12  C   UNL     1      17.733  50.725  42.372  1.00  0.00     0.050 A 
ATOM     13  C   UNL     1      15.972  49.936  43.841  1.00  0.00     0.050 A 
ATOM     14  C   UNL     1      16.950  50.403  41.259  1.00  0.00     0.119 A 
ATOM     15  C   UNL     1      15.186  49.612  42.727  1.00  0.00     0.119 A 
ATOM     16  C   UNL     1      15.676  49.849  41.439  1.00  0.00     0.092 A 
BRANCH  14  17
ATOM     17  O   UNL     1      17.449  50.635  39.978  1.00  0.00    -0.508 OA
ATOM     18  H   UNL     1      17.484  49.899  39.283  1.00  0.00     0.293 HD
ENDBRANCH  14  17
BRANCH  15  19
ATOM     19  O   UNL     1      13.921  49.053  42.889  1.00  0.00    -0.508 OA
ATOM     20  H   UNL     1      13.105  49.629  43.060  1.00  0.00     0.293 HD
ENDBRANCH  15  19
ENDBRANCH  10  11
ENDBRANCH   1  10
TORSDOF 6
ENDMDL
MODEL 4
REMARK VINA RESULT:    -5.670      2.675      5.199
REMARK INTER + INTRA:          -7.898
REMARK INTER:                  -7.225
REMARK INTRA:                  -0.673
REMARK UNBOUND:                -0.736
REMARK SMILES Oc1cc(O)cc(CCc2ccccc2O)c1
REMARK SMILES IDX 9 1 10 2 12 3 13 4 11 5 14 6 15 7 16 8 8 10 7 11 6 12 17 13
REMARK SMILES IDX 4 14 2 15 3 16 5 17 1 19
REMARK H PARENT 16 9 5 18 1 20
REMARK Flexibility Score: inf
ROOT
ATOM      1  C   UNL     1      17.910  49.319  46.007  1.00  0.00     0.044 C 
ENDROOT
BRANCH   1   2
ATOM      2  C   UNL     1      19.118  48.527  45.575  1.00  0.00    -0.006 A 
ATOM      3  C   UNL     1      21.438  48.480  44.843  1.00  0.00     0.001 A 
ATOM      4  C   UNL     1      21.369  47.093  44.701  1.00  0.00     0.004 A 
ATOM      5  C   UNL     1      20.317  49.196  45.273  1.00  0.00     0.007 A 
ATOM      6  C   UNL     1      20.179  46.418  44.984  1.00  0.00     0.046 A 
ATOM      7  C   UNL     1      19.049  47.128  45.415  1.00  0.00     0.118 A 
BRANCH   7   8
ATOM      8  O   UNL     1      17.860  46.449  45.682  1.00  0.00    -0.508 OA
ATOM      9  H   UNL     1      16.970  46.777  45.328  1.00  0.00     0.293 HD
ENDBRANCH   7   8
ENDBRANCH   1   2
BRANCH   1  10
ATOM     10  C   UNL     1      17.773  50.594  45.168  1.00  0.00     0.040 C 
BRANCH  10  11
ATOM     11  C   UNL     1      17.021  50.313  43.896  1.00  0.00    -0.040 A 
ATOM     12  C   UNL     1      15.682  49.890  43.945  1.00  0.00     0.050 A 
ATOM     13  C   UNL     1      17.631  50.526  42.650  1.00  0.00     0.050 A 
ATOM     14  C   UNL     1      14.970  49.659  42.763  1.00  0.00     0.119 A 
ATOM     15  C   UNL     1      16.919  50.295  41.464  1.00  0.00     0.119 A 
ATOM     16  C   UNL     1      15.592  49.859  41.524  1.00  0.00     0.092 A 
BRANCH  14  17
ATOM     17  O   UNL     1      13.645  49.232  42.832  1.00  0.00    -0.508 OA
ATOM     18  H   UNL     1      12.877  49.892  42.845  1.00  0.00     0.293 HD
ENDBRANCH  14  17
BRANCH  15  19
ATOM     19  O   UNL     1      17.521  50.498  40.225  1.00  0.00    -0.508 OA
ATOM     20  H   UNL     1      18.387  50.036  39.974  1.00  0.00     0.293 HD
ENDBRANCH  15  19
ENDBRANCH  10  11
ENDBRANCH   1  10
TORSDOF 6
ENDMDL
MODEL 5
REMARK VINA RESULT:    -5.657      2.662      5.652
REMARK INTER + INTRA:          -7.882
REMARK INTER:                  -7.361
REMARK INTRA:                  -0.521
REMARK UNBOUND:                -0.736
REMARK SMILES Oc1cc(O)cc(CCc2ccccc2O)c1
REMARK SMILES IDX 9 1 10 2 12 3 13 4 11 5 14 6 15 7 16 8 8 10 7 11 6 12 17 13
REMARK SMILES IDX 4 14 2 15 3 16 5 17 1 19
REMARK H PARENT 16 9 5 18 1 20
REMARK Flexibility Score: inf
ROOT
ATOM      1  C   UNL     1      19.688  49.014  43.750  1.00  0.00     0.044 C 
ENDROOT
BRANCH   1   2
ATOM      2  C   UNL     1      20.801  49.396  44.692  1.00  0.00    -0.006 A 
ATOM      3  C   UNL     1      21.515  50.166  46.886  1.00  0.00     0.001 A 
ATOM      4  C   UNL     1      22.842  50.181  46.453  1.00  0.00     0.004 A 
ATOM      5  C   UNL     1      20.498  49.780  46.009  1.00  0.00     0.007 A 
ATOM      6  C   UNL     1      23.155  49.815  45.143  1.00  0.00     0.046 A 
ATOM      7  C   UNL     1      22.141  49.428  44.255  1.00  0.00     0.118 A 
BRANCH   7   8
ATOM      8  O   UNL     1      22.461  49.078  42.943  1.00  0.00    -0.508 OA
ATOM      9  H   UNL     1      22.242  48.162  42.569  1.00  0.00     0.293 HD
ENDBRANCH   7   8
ENDBRANCH   1   2
BRANCH   1  10
ATOM     10  C   UNL     1      18.852  50.243  43.376  1.00  0.00     0.040 C 
BRANCH  10  11
ATOM     11  C   UNL     1      17.383  49.927  43.454  1.00  0.00    -0.040 A 
ATOM     12  C   UNL     1      16.775  49.692  44.699  1.00  0.00     0.050 A 
ATOM     13  C   UNL     1      16.597  49.922  42.291  1.00  0.00     0.050 A 
ATOM     14  C   UNL     1      15.403  49.430  44.776  1.00  0.00     0.119 A 
ATOM     15  C   UNL     1      15.222  49.660  42.366  1.00  0.00     0.119 A 
ATOM     16  C   UNL     1      14.629  49.412  43.608  1.00  0.00     0.092 A 
BRANCH  14  17
ATOM     17  O   UNL     1      14.819  49.192  46.019  1.00  0.00    -0.508 OA
ATOM     18  H   UNL     1      14.053  49.761  46.362  1.00  0.00     0.293 HD
ENDBRANCH  14  17
BRANCH  15  19
ATOM     19  O   UNL     1      14.438  49.646  41.215  1.00  0.00    -0.508 OA
ATOM     20  H   UNL     1      13.450  49.868  41.245  1.00  0.00     0.293 HD
ENDBRANCH  15  19
ENDBRANCH  10  11
ENDBRANCH   1  10
TORSDOF 6
ENDMDL
MODEL 6
REMARK VINA RESULT:    -5.654      1.979      3.403
REMARK INTER + INTRA:          -7.878
REMARK INTER:                  -7.295
REMARK INTRA:                  -0.583
REMARK UNBOUND:                -0.736
REMARK SMILES Oc1cc(O)cc(CCc2ccccc2O)c1
REMARK SMILES IDX 9 1 10 2 12 3 13 4 11 5 14 6 15 7 16 8 8 10 7 11 6 12 17 13
REMARK SMILES IDX 4 14 2 15 3 16 5 17 1 19
REMARK H PARENT 16 9 5 18 1 20
REMARK Flexibility Score: inf
ROOT
ATOM      1  C   UNL     1      17.834  50.953  44.825  1.00  0.00     0.044 C 
ENDROOT
BRANCH   1   2
ATOM      2  C   UNL     1      17.028  50.406  43.674  1.00  0.00    -0.006 A 
ATOM      3  C   UNL     1      16.800  49.997  41.286  1.00  0.00     0.001 A 
ATOM      4  C   UNL     1      15.528  49.462  41.496  1.00  0.00     0.004 A 
ATOM      5  C   UNL     1      17.546  50.472  42.368  1.00  0.00     0.007 A 
ATOM      6  C   UNL     1      14.997  49.403  42.786  1.00  0.00     0.046 A 
ATOM      7  C   UNL     1      15.737  49.879  43.878  1.00  0.00     0.118 A 
BRANCH   7   8
ATOM      8  O   UNL     1      15.194  49.830  45.162  1.00  0.00    -0.508 OA
ATOM      9  H   UNL     1      14.625  49.050  45.469  1.00  0.00     0.293 HD
ENDBRANCH   7   8
ENDBRANCH   1   2
BRANCH   1  10
ATOM     10  C   UNL     1      18.425  49.812  45.660  1.00  0.00     0.040 C 
BRANCH  10  11
ATOM     11  C   UNL     1      19.415  49.022  44.849  1.00  0.00    -0.040 A 
ATOM     12  C   UNL     1      20.607  49.621  44.407  1.00  0.00     0.050 A 
ATOM     13  C   UNL     1      19.185  47.664  44.575  1.00  0.00     0.050 A 
ATOM     14  C   UNL     1      21.544  48.880  43.681  1.00  0.00     0.119 A 
ATOM     15  C   UNL     1      20.123  46.919  43.847  1.00  0.00     0.119 A 
ATOM     16  C   UNL     1      21.299  47.529  43.400  1.00  0.00     0.092 A 
BRANCH  14  17
ATOM     17  O   UNL     1      22.717  49.494  43.245  1.00  0.00    -0.508 OA
ATOM     18  H   UNL     1      23.306  49.070  42.538  1.00  0.00     0.293 HD
ENDBRANCH  14  17
BRANCH  15  19
ATOM     19  O   UNL     1      19.898  45.574  43.567  1.00  0.00    -0.508 OA
ATOM     20  H   UNL     1      20.575  44.861  43.811  1.00  0.00     0.293 HD
ENDBRANCH  15  19
ENDBRANCH  10  11
ENDBRANCH   1  10
TORSDOF 6
ENDMDL
MODEL 7
REMARK VINA RESULT:    -5.629      1.955      2.707
REMARK INTER + INTRA:          -7.846
REMARK INTER:                  -7.246
REMARK INTRA:                  -0.600
REMARK UNBOUND:                -0.736
REMARK SMILES Oc1cc(O)cc(CCc2ccccc2O)c1
REMARK SMILES IDX 9 1 10 2 12 3 13 4 11 5 14 6 15 7 16 8 8 10 7 11 6 12 17 13
REMARK SMILES IDX 4 14 2 15 3 16 5 17 1 19
REMARK H PARENT 16 9 5 18 1 20
REMARK Flexibility Score: inf
ROOT
ATOM      1  C   UNL     1      17.889  50.919  44.860  1.00  0.00     0.044 C 
ENDROOT
BRANCH   1   2
ATOM      2  C   UNL     1      17.057  50.434  43.699  1.00  0.00    -0.006 A 
ATOM      3  C   UNL     1      16.802  50.095  41.304  1.00  0.00     0.001 A 
ATOM      4  C   UNL     1      15.511  49.604  41.507  1.00  0.00     0.004 A 
ATOM      5  C   UNL     1      17.571  50.512  42.394  1.00  0.00     0.007 A 
ATOM      6  C   UNL     1      14.983  49.535  42.798  1.00  0.00     0.046 A 
ATOM      7  C   UNL     1      15.747  49.953  43.898  1.00  0.00     0.118 A 
BRANCH   7   8
ATOM      8  O   UNL     1      15.208  49.893  45.183  1.00  0.00    -0.508 OA
ATOM      9  H   UNL     1      14.610  49.129  45.474  1.00  0.00     0.293 HD
ENDBRANCH   7   8
ENDBRANCH   1   2
BRANCH   1  10
ATOM     10  C   UNL     1      18.442  49.734  45.660  1.00  0.00     0.040 C 
BRANCH  10  11
ATOM     11  C   UNL     1      19.466  48.984  44.853  1.00  0.00    -0.040 A 
ATOM     12  C   UNL     1      19.226  47.655  44.466  1.00  0.00     0.050 A 
ATOM     13  C   UNL     1      20.643  49.623  44.432  1.00  0.00     0.050 A 
ATOM     14  C   UNL     1      20.163  46.966  43.689  1.00  0.00     0.119 A 
ATOM     15  C   UNL     1      21.583  48.934  43.653  1.00  0.00     0.119 A 
ATOM     16  C   UNL     1      21.342  47.607  43.286  1.00  0.00     0.092 A 
BRANCH  14  17
ATOM     17  O   UNL     1      19.911  45.645  43.321  1.00  0.00    -0.508 OA
ATOM     18  H   UNL     1      20.645  45.047  42.960  1.00  0.00     0.293 HD
ENDBRANCH  14  17
BRANCH  15  19
ATOM     19  O   UNL     1      22.756  49.560  43.237  1.00  0.00    -0.508 OA
ATOM     20  H   UNL     1      23.145  50.345  43.745  1.00  0.00     0.293 HD
ENDBRANCH  15  19
ENDBRANCH  10  11
ENDBRANCH   1  10
TORSDOF 6
ENDMDL
MODEL 8
REMARK VINA RESULT:    -5.619      2.632      5.659
REMARK INTER + INTRA:          -7.834
REMARK INTER:                  -7.219
REMARK INTRA:                  -0.615
REMARK UNBOUND:                -0.736
REMARK SMILES Oc1cc(O)cc(CCc2ccccc2O)c1
REMARK SMILES IDX 9 1 10 2 12 3 13 4 11 5 14 6 15 7 16 8 8 10 7 11 6 12 17 13
REMARK SMILES IDX 4 14 2 15 3 16 5 17 1 19
REMARK H PARENT 16 9 5 18 1 20
REMARK Flexibility Score: inf
ROOT
ATOM      1  C   UNL     1      18.921  49.107  45.673  1.00  0.00     0.044 C 
ENDROOT
BRANCH   1   2
ATOM      2  C   UNL     1      19.805  48.092  44.994  1.00  0.00    -0.006 A 
ATOM      3  C   UNL     1      21.252  47.486  43.135  1.00  0.00     0.001 A 
ATOM      4  C   UNL     1      21.403  46.204  43.664  1.00  0.00     0.004 A 
ATOM      5  C   UNL     1      20.454  48.426  43.793  1.00  0.00     0.007 A 
ATOM      6  C   UNL     1      20.753  45.855  44.849  1.00  0.00     0.046 A 
ATOM      7  C   UNL     1      19.948  46.790  45.516  1.00  0.00     0.118 A 
BRANCH   7   8
ATOM      8  O   UNL     1      19.290  46.429  46.692  1.00  0.00    -0.508 OA
ATOM      9  H   UNL     1      18.465  46.923  47.012  1.00  0.00     0.293 HD
ENDBRANCH   7   8
ENDBRANCH   1   2
BRANCH   1  10
ATOM     10  C   UNL     1      18.373  50.112  44.654  1.00  0.00     0.040 C 
BRANCH  10  11
ATOM     11  C   UNL     1      16.971  49.744  44.251  1.00  0.00    -0.040 A 
ATOM     12  C   UNL     1      16.020  49.404  45.228  1.00  0.00     0.050 A 
ATOM     13  C   UNL     1      16.585  49.793  42.902  1.00  0.00     0.050 A 
ATOM     14  C   UNL     1      14.707  49.094  44.858  1.00  0.00     0.119 A 
ATOM     15  C   UNL     1      15.270  49.483  42.529  1.00  0.00     0.119 A 
ATOM     16  C   UNL     1      14.336  49.131  43.508  1.00  0.00     0.092 A 
BRANCH  14  17
ATOM     17  O   UNL     1      13.780  48.752  45.841  1.00  0.00    -0.508 OA
ATOM     18  H   UNL     1      12.795  48.649  45.626  1.00  0.00     0.293 HD
ENDBRANCH  14  17
BRANCH  15  19
ATOM     19  O   UNL     1      14.883  49.523  41.192  1.00  0.00    -0.508 OA
ATOM     20  H   UNL     1      15.558  49.662  40.449  1.00  0.00     0.293 HD
ENDBRANCH  15  19
ENDBRANCH  10  11
ENDBRANCH   1  10
TORSDOF 6
ENDMDL
MODEL 9
REMARK VINA RESULT:    -5.570      2.634      4.791
REMARK INTER + INTRA:          -7.771
REMARK INTER:                  -7.069
REMARK INTRA:                  -0.703
REMARK UNBOUND:                -0.736
REMARK SMILES Oc1cc(O)cc(CCc2ccccc2O)c1
REMARK SMILES IDX 9 1 10 2 12 3 13 4 11 5 14 6 15 7 16 8 8 10 7 11 6 12 17 13
REMARK SMILES IDX 4 14 2 15 3 16 5 17 1 19
REMARK H PARENT 16 9 5 18 1 20
REMARK Flexibility Score: inf
ROOT
ATOM      1  C   UNL     1      19.060  50.309  45.322  1.00  0.00     0.044 C 
ENDROOT
BRANCH   1   2
ATOM      2  C   UNL     1      19.752  48.996  45.055  1.00  0.00    -0.006 A 
ATOM      3  C   UNL     1      19.875  46.589  45.388  1.00  0.00     0.001 A 
ATOM      4  C   UNL     1      21.050  46.541  44.637  1.00  0.00     0.004 A 
ATOM      5  C   UNL     1      19.230  47.811  45.601  1.00  0.00     0.007 A 
ATOM      6  C   UNL     1      21.586  47.713  44.101  1.00  0.00     0.046 A 
ATOM      7  C   UNL     1      20.947  48.944  44.310  1.00  0.00     0.118 A 
BRANCH   7   8
ATOM      8  O   UNL     1      21.497  50.113  43.783  1.00  0.00    -0.508 OA
ATOM      9  H   UNL     1      20.925  50.806  43.316  1.00  0.00     0.293 HD
ENDBRANCH   7   8
ENDBRANCH   1   2
BRANCH   1  10
ATOM     10  C   UNL     1      17.554  50.187  45.067  1.00  0.00     0.040 C 
BRANCH  10  11
ATOM     11  C   UNL     1      17.261  50.241  43.593  1.00  0.00    -0.040 A 
ATOM     12  C   UNL     1      16.288  49.395  43.033  1.00  0.00     0.050 A 
ATOM     13  C   UNL     1      17.915  51.175  42.774  1.00  0.00     0.050 A 
ATOM     14  C   UNL     1      15.992  49.466  41.668  1.00  0.00     0.119 A 
ATOM     15  C   UNL     1      17.619  51.248  41.406  1.00  0.00     0.119 A 
ATOM     16  C   UNL     1      16.660  50.392  40.856  1.00  0.00     0.092 A 
BRANCH  14  17
ATOM     17  O   UNL     1      15.029  48.614  41.130  1.00  0.00    -0.508 OA
ATOM     18  H   UNL     1      15.160  48.169  40.229  1.00  0.00     0.293 HD
ENDBRANCH  14  17
BRANCH  15  19
ATOM     19  O   UNL     1      18.269  52.168  40.587  1.00  0.00    -0.508 OA
ATOM     20  H   UNL     1      18.158  53.166  40.719  1.00  0.00     0.293 HD
ENDBRANCH  15  19
ENDBRANCH  10  11
ENDBRANCH   1  10
TORSDOF 6
ENDMDL
