MODEL 1
REMARK VINA RESULT:    -4.189      0.000      0.000
REMARK INTER + INTRA:          -9.495
REMARK INTER:                  -7.618
REMARK INTRA:                  -1.877
REMARK UNBOUND:                -1.877
REMARK SMILES CCCCCCCCCCCCCCCC(=O)[O-]
REMARK SMILES IDX 9 1 10 2 11 3 12 4 13 5 14 6 15 7 16 8 17 9 18 10 8 11 7 12
REMARK SMILES IDX 6 13 5 14 4 15 3 16 2 17 1 18
REMARK H PARENT
REMARK Flexibility Score: inf
ROOT
ATOM      1  C   UNL     1      28.813  12.712 -14.655  1.00  0.00     0.000 C 
ENDROOT
BRANCH   1   2
ATOM      2  C   UNL     1      29.273  11.252 -14.534  1.00  0.00     0.000 C 
BRANCH   2   3
ATOM      3  C   UNL     1      30.689  11.122 -13.950  1.00  0.00     0.000 C 
BRANCH   3   4
ATOM      4  C   UNL     1      30.685  10.586 -12.508  1.00  0.00     0.000 C 
BRANCH   4   5
ATOM      5  C   UNL     1      29.271  10.481 -11.911  1.00  0.00     0.000 C 
BRANCH   5   6
ATOM      6  C   UNL     1      28.869  11.624 -10.957  1.00  0.00     0.006 C 
BRANCH   6   7
ATOM      7  C   UNL     1      27.350  11.852 -10.856  1.00  0.00     0.053 C 
BRANCH   7   8
ATOM      8  C   UNL     1      26.957  13.257 -11.199  1.00  0.00     0.041 C 
ATOM      9  O   UNL     1      27.832  14.098 -11.534  1.00  0.00    -0.550 OA
ATOM     10  O   UNL     1      25.627  13.652 -11.110  1.00  0.00    -0.550 OA
ENDBRANCH   7   8
ENDBRANCH   6   7
ENDBRANCH   5   6
ENDBRANCH   4   5
ENDBRANCH   3   4
ENDBRANCH   2   3
ENDBRANCH   1   2
BRANCH   1  11
ATOM     11  C   UNL     1      29.994  13.675 -14.474  1.00  0.00     0.000 C 
BRANCH  11  12
ATOM     12  C   UNL     1      29.513  15.129 -14.399  1.00  0.00    -0.000 C 
BRANCH  12  13
ATOM     13  C   UNL     1      29.938  15.914 -15.650  1.00  0.00    -0.000 C 
BRANCH  13  14
ATOM     14  C   UNL     1      30.496  15.008 -16.759  1.00  0.00    -0.000 C 
BRANCH  14  15
ATOM     15  C   UNL     1      29.475  14.749 -17.880  1.00  0.00    -0.000 C 
BRANCH  15  16
ATOM     16  C   UNL     1      29.366  13.260 -18.247  1.00  0.00    -0.000 C 
BRANCH  16  17
ATOM     17  C   UNL     1      30.668  12.488 -17.981  1.00  0.00    -0.003 C 
ATOM     18  C   UNL     1      30.680  11.159 -18.732  1.00  0.00     0.004 C 
ENDBRANCH  16  17
ENDBRANCH  15  16
ENDBRANCH  14  15
ENDBRANCH  13  14
ENDBRANCH  12  13
ENDBRANCH  11  12
ENDBRANCH   1  11
TORSDOF 14
ENDMDL
MODEL 2
REMARK VINA RESULT:    -4.026      1.125      3.027
REMARK INTER + INTRA:          -9.199
REMARK INTER:                  -7.524
REMARK INTRA:                  -1.675
REMARK UNBOUND:                -1.877
REMARK SMILES CCCCCCCCCCCCCCCC(=O)[O-]
REMARK SMILES IDX 9 1 10 2 11 3 12 4 13 5 14 6 15 7 16 8 17 9 18 10 8 11 7 12
REMARK SMILES IDX 6 13 5 14 4 15 3 16 2 17 1 18
REMARK H PARENT
REMARK Flexibility Score: inf
ROOT
ATOM      1  C   UNL     1      29.270  11.753 -14.476  1.00  0.00     0.000 C 
ENDROOT
BRANCH   1   2
ATOM      2  C   UNL     1      30.098  11.088 -13.367  1.00  0.00     0.000 C 
BRANCH   2   3
ATOM      3  C   UNL     1      29.238  10.256 -12.402  1.00  0.00     0.000 C 
BRANCH   3   4
ATOM      4  C   UNL     1      29.063  10.936 -11.033  1.00  0.00     0.000 C 
BRANCH   4   5
ATOM      5  C   UNL     1      27.740  11.712 -10.913  1.00  0.00     0.000 C 
BRANCH   5   6
ATOM      6  C   UNL     1      27.806  13.197 -11.322  1.00  0.00     0.006 C 
BRANCH   6   7
ATOM      7  C   UNL     1      26.702  13.627 -12.305  1.00  0.00     0.053 C 
BRANCH   7   8
ATOM      8  C   UNL     1      25.627  14.435 -11.643  1.00  0.00     0.041 C 
ATOM      9  O   UNL     1      25.473  14.385 -10.394  1.00  0.00    -0.550 OA
ATOM     10  O   UNL     1      24.766  15.213 -12.408  1.00  0.00    -0.550 OA
ENDBRANCH   7   8
ENDBRANCH   6   7
ENDBRANCH   5   6
ENDBRANCH   4   5
ENDBRANCH   3   4
ENDBRANCH   2   3
ENDBRANCH   1   2
BRANCH   1  11
ATOM     11  C   UNL     1      29.209  10.862 -15.723  1.00  0.00     0.000 C 
BRANCH  11  12
ATOM     12  C   UNL     1      30.507  10.960 -16.535  1.00  0.00    -0.000 C 
BRANCH  12  13
ATOM     13  C   UNL     1      30.280  11.733 -17.843  1.00  0.00    -0.000 C 
BRANCH  13  14
ATOM     14  C   UNL     1      30.719  13.203 -17.749  1.00  0.00    -0.000 C 
BRANCH  14  15
ATOM     15  C   UNL     1      29.546  14.152 -17.450  1.00  0.00    -0.000 C 
BRANCH  15  16
ATOM     16  C   UNL     1      29.993  15.432 -16.724  1.00  0.00    -0.000 C 
BRANCH  16  17
ATOM     17  C   UNL     1      30.449  15.166 -15.281  1.00  0.00    -0.003 C 
ATOM     18  C   UNL     1      29.320  15.437 -14.290  1.00  0.00     0.004 C 
ENDBRANCH  16  17
ENDBRANCH  15  16
ENDBRANCH  14  15
ENDBRANCH  13  14
ENDBRANCH  12  13
ENDBRANCH  11  12
ENDBRANCH   1  11
TORSDOF 14
ENDMDL
MODEL 3
REMARK VINA RESULT:    -3.975     16.573     18.385
REMARK INTER + INTRA:          -9.104
REMARK INTER:                  -7.174
REMARK INTRA:                  -1.930
REMARK UNBOUND:                -1.877
REMARK SMILES CCCCCCCCCCCCCCCC(=O)[O-]
REMARK SMILES IDX 9 1 10 2 11 3 12 4 13 5 14 6 15 7 16 8 17 9 18 10 8 11 7 12
REMARK SMILES IDX 6 13 5 14 4 15 3 16 2 17 1 18
REMARK H PARENT
REMARK Flexibility Score: inf
ROOT
ATOM      1  C   UNL     1      19.726  -0.187 -16.224  1.00  0.00     0.000 C 
ENDROOT
BRANCH   1   2
ATOM      2  C   UNL     1      19.538  -1.136 -17.417  1.00  0.00     0.000 C 
BRANCH   2   3
ATOM      3  C   UNL     1      18.166  -1.831 -17.414  1.00  0.00     0.000 C 
BRANCH   3   4
ATOM      4  C   UNL     1      17.288  -1.407 -18.604  1.00  0.00     0.000 C 
BRANCH   4   5
ATOM      5  C   UNL     1      17.217   0.119 -18.784  1.00  0.00     0.000 C 
BRANCH   5   6
ATOM      6  C   UNL     1      16.193   0.843 -17.887  1.00  0.00     0.006 C 
BRANCH   6   7
ATOM      7  C   UNL     1      16.638   2.245 -17.433  1.00  0.00     0.053 C 
BRANCH   7   8
ATOM      8  C   UNL     1      15.999   3.338 -18.236  1.00  0.00     0.041 C 
ATOM      9  O   UNL     1      16.600   3.835 -19.224  1.00  0.00    -0.550 OA
ATOM     10  O   UNL     1      14.755   3.838 -17.870  1.00  0.00    -0.550 OA
ENDBRANCH   7   8
ENDBRANCH   6   7
ENDBRANCH   5   6
ENDBRANCH   4   5
ENDBRANCH   3   4
ENDBRANCH   2   3
ENDBRANCH   1   2
BRANCH   1  11
ATOM     11  C   UNL     1      18.943  -0.683 -15.001  1.00  0.00     0.000 C 
BRANCH  11  12
ATOM     12  C   UNL     1      18.008   0.408 -14.465  1.00  0.00    -0.000 C 
BRANCH  12  13
ATOM     13  C   UNL     1      16.628  -0.172 -14.120  1.00  0.00    -0.000 C 
BRANCH  13  14
ATOM     14  C   UNL     1      16.134   0.257 -12.729  1.00  0.00    -0.000 C 
BRANCH  14  15
ATOM     15  C   UNL     1      15.992  -0.931 -11.761  1.00  0.00    -0.000 C 
BRANCH  15  16
ATOM     16  C   UNL     1      17.174  -1.911 -11.852  1.00  0.00    -0.000 C 
BRANCH  16  17
ATOM     17  C   UNL     1      18.248  -1.645 -10.787  1.00  0.00    -0.003 C 
ATOM     18  C   UNL     1      19.640  -1.600 -11.410  1.00  0.00     0.004 C 
ENDBRANCH  16  17
ENDBRANCH  15  16
ENDBRANCH  14  15
ENDBRANCH  13  14
ENDBRANCH  12  13
ENDBRANCH  11  12
ENDBRANCH   1  11
TORSDOF 14
ENDMDL
MODEL 4
REMARK VINA RESULT:    -3.953      1.145      2.084
REMARK INTER + INTRA:          -9.065
REMARK INTER:                  -7.154
REMARK INTRA:                  -1.912
REMARK UNBOUND:                -1.877
REMARK SMILES CCCCCCCCCCCCCCCC(=O)[O-]
REMARK SMILES IDX 9 1 10 2 11 3 12 4 13 5 14 6 15 7 16 8 17 9 18 10 8 11 7 12
REMARK SMILES IDX 6 13 5 14 4 15 3 16 2 17 1 18
REMARK H PARENT
REMARK Flexibility Score: inf
ROOT
ATOM      1  C   UNL     1      29.860  10.538 -14.162  1.00  0.00     0.000 C 
ENDROOT
BRANCH   1   2
ATOM      2  C   UNL     1      31.087  10.888 -13.306  1.00  0.00     0.000 C 
BRANCH   2   3
ATOM      3  C   UNL     1      30.838  10.692 -11.802  1.00  0.00     0.000 C 
BRANCH   3   4
ATOM      4  C   UNL     1      29.441  10.119 -11.505  1.00  0.00     0.000 C 
BRANCH   4   5
ATOM      5  C   UNL     1      28.654  10.957 -10.483  1.00  0.00     0.000 C 
BRANCH   5   6
ATOM      6  C   UNL     1      28.118  12.306 -11.006  1.00  0.00     0.006 C 
BRANCH   6   7
ATOM      7  C   UNL     1      26.599  12.486 -10.836  1.00  0.00     0.053 C 
BRANCH   7   8
ATOM      8  C   UNL     1      26.164  13.906 -11.034  1.00  0.00     0.041 C 
ATOM      9  O   UNL     1      26.998  14.784 -11.380  1.00  0.00    -0.550 OA
ATOM     10  O   UNL     1      24.845  14.273 -10.796  1.00  0.00    -0.550 OA
ENDBRANCH   7   8
ENDBRANCH   6   7
ENDBRANCH   5   6
ENDBRANCH   4   5
ENDBRANCH   3   4
ENDBRANCH   2   3
ENDBRANCH   1   2
BRANCH   1  11
ATOM     11  C   UNL     1      29.547  11.663 -15.156  1.00  0.00     0.000 C 
BRANCH  11  12
ATOM     12  C   UNL     1      28.518  12.641 -14.576  1.00  0.00    -0.000 C 
BRANCH  12  13
ATOM     13  C   UNL     1      29.210  13.872 -13.971  1.00  0.00    -0.000 C 
BRANCH  13  14
ATOM     14  C   UNL     1      30.499  14.255 -14.715  1.00  0.00    -0.000 C 
BRANCH  14  15
ATOM     15  C   UNL     1      30.407  15.640 -15.380  1.00  0.00    -0.000 C 
BRANCH  15  16
ATOM     16  C   UNL     1      30.014  15.558 -16.863  1.00  0.00    -0.000 C 
BRANCH  16  17
ATOM     17  C   UNL     1      30.379  14.208 -17.499  1.00  0.00    -0.003 C 
ATOM     18  C   UNL     1      29.230  13.675 -18.352  1.00  0.00     0.004 C 
ENDBRANCH  16  17
ENDBRANCH  15  16
ENDBRANCH  14  15
ENDBRANCH  13  14
ENDBRANCH  12  13
ENDBRANCH  11  12
ENDBRANCH   1  11
TORSDOF 14
ENDMDL
MODEL 5
REMARK VINA RESULT:    -3.942      2.441      6.027
REMARK INTER + INTRA:          -9.044
REMARK INTER:                  -7.264
REMARK INTRA:                  -1.780
REMARK UNBOUND:                -1.877
REMARK SMILES CCCCCCCCCCCCCCCC(=O)[O-]
REMARK SMILES IDX 9 1 10 2 11 3 12 4 13 5 14 6 15 7 16 8 17 9 18 10 8 11 7 12
REMARK SMILES IDX 6 13 5 14 4 15 3 16 2 17 1 18
REMARK H PARENT
REMARK Flexibility Score: inf
ROOT
ATOM      1  C   UNL     1      26.675  13.555 -12.293  1.00  0.00     0.000 C 
ENDROOT
BRANCH   1   2
ATOM      2  C   UNL     1      26.603  15.088 -12.348  1.00  0.00     0.000 C 
BRANCH   2   3
ATOM      3  C   UNL     1      27.945  15.733 -12.729  1.00  0.00     0.000 C 
BRANCH   3   4
ATOM      4  C   UNL     1      28.715  14.915 -13.780  1.00  0.00     0.000 C 
BRANCH   4   5
ATOM      5  C   UNL     1      29.657  15.776 -14.639  1.00  0.00     0.000 C 
BRANCH   5   6
ATOM      6  C   UNL     1      30.485  15.006 -15.688  1.00  0.00     0.006 C 
BRANCH   6   7
ATOM      7  C   UNL     1      29.917  15.082 -17.116  1.00  0.00     0.053 C 
BRANCH   7   8
ATOM      8  C   UNL     1      29.424  13.756 -17.610  1.00  0.00     0.041 C 
ATOM      9  O   UNL     1      28.278  13.344 -17.288  1.00  0.00    -0.550 OA
ATOM     10  O   UNL     1      30.245  12.952 -18.392  1.00  0.00    -0.550 OA
ENDBRANCH   7   8
ENDBRANCH   6   7
ENDBRANCH   5   6
ENDBRANCH   4   5
ENDBRANCH   3   4
ENDBRANCH   2   3
ENDBRANCH   1   2
BRANCH   1  11
ATOM     11  C   UNL     1      26.327  13.041 -10.890  1.00  0.00     0.000 C 
BRANCH  11  12
ATOM     12  C   UNL     1      27.075  11.739 -10.579  1.00  0.00    -0.000 C 
BRANCH  12  13
ATOM     13  C   UNL     1      28.558  11.852 -10.964  1.00  0.00    -0.000 C 
BRANCH  13  14
ATOM     14  C   UNL     1      29.292  10.503 -10.902  1.00  0.00    -0.000 C 
BRANCH  14  15
ATOM     15  C   UNL     1      30.059  10.187 -12.198  1.00  0.00    -0.000 C 
BRANCH  15  16
ATOM     16  C   UNL     1      30.810  11.409 -12.751  1.00  0.00    -0.000 C 
BRANCH  16  17
ATOM     17  C   UNL     1      30.661  11.557 -14.273  1.00  0.00    -0.003 C 
ATOM     18  C   UNL     1      29.210  11.364 -14.704  1.00  0.00     0.004 C 
ENDBRANCH  16  17
ENDBRANCH  15  16
ENDBRANCH  14  15
ENDBRANCH  13  14
ENDBRANCH  12  13
ENDBRANCH  11  12
ENDBRANCH   1  11
TORSDOF 14
ENDMDL
MODEL 6
REMARK VINA RESULT:    -3.914      1.243      4.789
REMARK INTER + INTRA:          -8.995
REMARK INTER:                  -7.386
REMARK INTRA:                  -1.609
REMARK UNBOUND:                -1.877
REMARK SMILES CCCCCCCCCCCCCCCC(=O)[O-]
REMARK SMILES IDX 9 1 10 2 11 3 12 4 13 5 14 6 15 7 16 8 17 9 18 10 8 11 7 12
REMARK SMILES IDX 6 13 5 14 4 15 3 16 2 17 1 18
REMARK H PARENT
REMARK Flexibility Score: inf
ROOT
ATOM      1  C   UNL     1      29.406  13.150 -18.285  1.00  0.00     0.000 C 
ENDROOT
BRANCH   1   2
ATOM      2  C   UNL     1      28.947  13.959 -17.063  1.00  0.00     0.000 C 
BRANCH   2   3
ATOM      3  C   UNL     1      29.972  15.023 -16.636  1.00  0.00     0.000 C 
BRANCH   3   4
ATOM      4  C   UNL     1      29.898  15.342 -15.132  1.00  0.00     0.000 C 
BRANCH   4   5
ATOM      5  C   UNL     1      29.185  14.247 -14.321  1.00  0.00     0.000 C 
BRANCH   5   6
ATOM      6  C   UNL     1      28.345  14.749 -13.129  1.00  0.00     0.006 C 
BRANCH   6   7
ATOM      7  C   UNL     1      27.399  13.688 -12.536  1.00  0.00     0.053 C 
BRANCH   7   8
ATOM      8  C   UNL     1      26.246  14.297 -11.798  1.00  0.00     0.041 C 
ATOM      9  O   UNL     1      25.518  15.160 -12.357  1.00  0.00    -0.550 OA
ATOM     10  O   UNL     1      25.997  13.944 -10.477  1.00  0.00    -0.550 OA
ENDBRANCH   7   8
ENDBRANCH   6   7
ENDBRANCH   5   6
ENDBRANCH   4   5
ENDBRANCH   3   4
ENDBRANCH   2   3
ENDBRANCH   1   2
BRANCH   1  11
ATOM     11  C   UNL     1      30.726  12.424 -17.997  1.00  0.00     0.000 C 
BRANCH  11  12
ATOM     12  C   UNL     1      30.474  10.980 -17.548  1.00  0.00    -0.000 C 
BRANCH  12  13
ATOM     13  C   UNL     1      30.739  10.818 -16.043  1.00  0.00    -0.000 C 
BRANCH  13  14
ATOM     14  C   UNL     1      29.445  10.737 -15.217  1.00  0.00    -0.000 C 
BRANCH  14  15
ATOM     15  C   UNL     1      29.646  10.016 -13.873  1.00  0.00    -0.000 C 
BRANCH  15  16
ATOM     16  C   UNL     1      29.883  10.993 -12.710  1.00  0.00    -0.000 C 
BRANCH  16  17
ATOM     17  C   UNL     1      29.157  10.571 -11.424  1.00  0.00    -0.003 C 
ATOM     18  C   UNL     1      29.824   9.351 -10.793  1.00  0.00     0.004 C 
ENDBRANCH  16  17
ENDBRANCH  15  16
ENDBRANCH  14  15
ENDBRANCH  13  14
ENDBRANCH  12  13
ENDBRANCH  11  12
ENDBRANCH   1  11
TORSDOF 14
ENDMDL
MODEL 7
REMARK VINA RESULT:    -3.905      1.597      3.551
REMARK INTER + INTRA:          -8.978
REMARK INTER:                  -7.159
REMARK INTRA:                  -1.820
REMARK UNBOUND:                -1.877
REMARK SMILES CCCCCCCCCCCCCCCC(=O)[O-]
REMARK SMILES IDX 9 1 10 2 11 3 12 4 13 5 14 6 15 7 16 8 17 9 18 10 8 11 7 12
REMARK SMILES IDX 6 13 5 14 4 15 3 16 2 17 1 18
REMARK H PARENT
REMARK Flexibility Score: inf
ROOT
ATOM      1  C   UNL     1      29.787   9.322 -12.678  1.00  0.00     0.000 C 
ENDROOT
BRANCH   1   2
ATOM      2  C   UNL     1      30.066   9.037 -11.196  1.00  0.00     0.000 C 
BRANCH   2   3
ATOM      3  C   UNL     1      30.022  10.305 -10.328  1.00  0.00     0.000 C 
BRANCH   3   4
ATOM      4  C   UNL     1      28.829  11.214 -10.673  1.00  0.00     0.000 C 
BRANCH   4   5
ATOM      5  C   UNL     1      29.259  12.600 -11.183  1.00  0.00     0.000 C 
BRANCH   5   6
ATOM      6  C   UNL     1      28.129  13.466 -11.778  1.00  0.00     0.006 C 
BRANCH   6   7
ATOM      7  C   UNL     1      26.712  12.978 -11.424  1.00  0.00     0.053 C 
BRANCH   7   8
ATOM      8  C   UNL     1      25.751  14.109 -11.216  1.00  0.00     0.041 C 
ATOM      9  O   UNL     1      25.337  14.780 -12.199  1.00  0.00    -0.550 OA
ATOM     10  O   UNL     1      25.343  14.452  -9.933  1.00  0.00    -0.550 OA
ENDBRANCH   7   8
ENDBRANCH   6   7
ENDBRANCH   5   6
ENDBRANCH   4   5
ENDBRANCH   3   4
ENDBRANCH   2   3
ENDBRANCH   1   2
BRANCH   1  11
ATOM     11  C   UNL     1      31.040   9.864 -13.378  1.00  0.00     0.000 C 
BRANCH  11  12
ATOM     12  C   UNL     1      30.702  11.077 -14.254  1.00  0.00    -0.000 C 
BRANCH  12  13
ATOM     13  C   UNL     1      29.206  11.103 -14.602  1.00  0.00    -0.000 C 
BRANCH  13  14
ATOM     14  C   UNL     1      28.787  12.392 -15.328  1.00  0.00    -0.000 C 
BRANCH  14  15
ATOM     15  C   UNL     1      29.977  13.111 -15.987  1.00  0.00    -0.000 C 
BRANCH  15  16
ATOM     16  C   UNL     1      29.712  14.609 -16.208  1.00  0.00    -0.000 C 
BRANCH  16  17
ATOM     17  C   UNL     1      29.743  15.416 -14.901  1.00  0.00    -0.003 C 
ATOM     18  C   UNL     1      29.736  16.916 -15.182  1.00  0.00     0.004 C 
ENDBRANCH  16  17
ENDBRANCH  15  16
ENDBRANCH  14  15
ENDBRANCH  13  14
ENDBRANCH  12  13
ENDBRANCH  11  12
ENDBRANCH   1  11
TORSDOF 14
ENDMDL
MODEL 8
REMARK VINA RESULT:    -3.885      2.039      5.866
REMARK INTER + INTRA:          -8.942
REMARK INTER:                  -7.029
REMARK INTRA:                  -1.913
REMARK UNBOUND:                -1.877
REMARK SMILES CCCCCCCCCCCCCCCC(=O)[O-]
REMARK SMILES IDX 9 1 10 2 11 3 12 4 13 5 14 6 15 7 16 8 17 9 18 10 8 11 7 12
REMARK SMILES IDX 6 13 5 14 4 15 3 16 2 17 1 18
REMARK H PARENT
REMARK Flexibility Score: inf
ROOT
ATOM      1  C   UNL     1      30.831  10.564 -15.756  1.00  0.00     0.000 C 
ENDROOT
BRANCH   1   2
ATOM      2  C   UNL     1      30.989  10.056 -17.197  1.00  0.00     0.000 C 
BRANCH   2   3
ATOM      3  C   UNL     1      30.388  11.018 -18.235  1.00  0.00     0.000 C 
BRANCH   3   4
ATOM      4  C   UNL     1      30.836  12.474 -18.018  1.00  0.00     0.000 C 
BRANCH   4   5
ATOM      5  C   UNL     1      29.684  13.483 -18.161  1.00  0.00     0.000 C 
BRANCH   5   6
ATOM      6  C   UNL     1      29.395  14.338 -16.910  1.00  0.00     0.006 C 
BRANCH   6   7
ATOM      7  C   UNL     1      30.061  15.726 -16.931  1.00  0.00     0.053 C 
BRANCH   7   8
ATOM      8  C   UNL     1      30.046  16.390 -15.587  1.00  0.00     0.041 C 
ATOM      9  O   UNL     1      29.544  15.801 -14.594  1.00  0.00    -0.550 OA
ATOM     10  O   UNL     1      30.548  17.677 -15.438  1.00  0.00    -0.550 OA
ENDBRANCH   7   8
ENDBRANCH   6   7
ENDBRANCH   5   6
ENDBRANCH   4   5
ENDBRANCH   3   4
ENDBRANCH   2   3
ENDBRANCH   1   2
BRANCH   1  11
ATOM     11  C   UNL     1      29.356  10.572 -15.337  1.00  0.00     0.000 C 
BRANCH  11  12
ATOM     12  C   UNL     1      29.034  11.798 -14.474  1.00  0.00    -0.000 C 
BRANCH  12  13
ATOM     13  C   UNL     1      30.311  12.377 -13.844  1.00  0.00    -0.000 C 
BRANCH  13  14
ATOM     14  C   UNL     1      30.390  12.130 -12.329  1.00  0.00    -0.000 C 
BRANCH  14  15
ATOM     15  C   UNL     1      29.037  11.710 -11.727  1.00  0.00    -0.000 C 
BRANCH  15  16
ATOM     16  C   UNL     1      29.161  10.500 -10.788  1.00  0.00    -0.000 C 
BRANCH  16  17
ATOM     17  C   UNL     1      30.264   9.523 -11.221  1.00  0.00    -0.003 C 
ATOM     18  C   UNL     1      29.721   8.479 -12.194  1.00  0.00     0.004 C 
ENDBRANCH  16  17
ENDBRANCH  15  16
ENDBRANCH  14  15
ENDBRANCH  13  14
ENDBRANCH  12  13
ENDBRANCH  11  12
ENDBRANCH   1  11
TORSDOF 14
ENDMDL
MODEL 9
REMARK VINA RESULT:    -3.879      3.398      6.713
REMARK INTER + INTRA:          -8.931
REMARK INTER:                  -7.214
REMARK INTRA:                  -1.717
REMARK UNBOUND:                -1.877
REMARK SMILES CCCCCCCCCCCCCCCC(=O)[O-]
REMARK SMILES IDX 9 1 10 2 11 3 12 4 13 5 14 6 15 7 16 8 17 9 18 10 8 11 7 12
REMARK SMILES IDX 6 13 5 14 4 15 3 16 2 17 1 18
REMARK H PARENT
REMARK Flexibility Score: inf
ROOT
ATOM      1  C   UNL     1      28.419  12.682 -16.133  1.00  0.00     0.000 C 
ENDROOT
BRANCH   1   2
ATOM      2  C   UNL     1      29.350  13.676 -16.842  1.00  0.00     0.000 C 
BRANCH   2   3
ATOM      3  C   UNL     1      29.805  13.182 -18.225  1.00  0.00     0.000 C 
BRANCH   3   4
ATOM      4  C   UNL     1      30.995  12.210 -18.141  1.00  0.00     0.000 C 
BRANCH   4   5
ATOM      5  C   UNL     1      30.655  10.800 -18.655  1.00  0.00     0.000 C 
BRANCH   5   6
ATOM      6  C   UNL     1      30.281   9.773 -17.567  1.00  0.00     0.006 C 
BRANCH   6   7
ATOM      7  C   UNL     1      30.078   8.342 -18.097  1.00  0.00     0.053 C 
BRANCH   7   8
ATOM      8  C   UNL     1      28.974   7.619 -17.388  1.00  0.00     0.041 C 
ATOM      9  O   UNL     1      29.018   7.459 -16.140  1.00  0.00    -0.550 OA
ATOM     10  O   UNL     1      27.913   7.083 -18.109  1.00  0.00    -0.550 OA
ENDBRANCH   7   8
ENDBRANCH   6   7
ENDBRANCH   5   6
ENDBRANCH   4   5
ENDBRANCH   3   4
ENDBRANCH   2   3
ENDBRANCH   1   2
BRANCH   1  11
ATOM     11  C   UNL     1      28.805  12.528 -14.656  1.00  0.00     0.000 C 
BRANCH  11  12
ATOM     12  C   UNL     1      30.326  12.417 -14.493  1.00  0.00    -0.000 C 
BRANCH  12  13
ATOM     13  C   UNL     1      30.717  11.053 -13.904  1.00  0.00    -0.000 C 
BRANCH  13  14
ATOM     14  C   UNL     1      29.511  10.118 -13.716  1.00  0.00    -0.000 C 
BRANCH  14  15
ATOM     15  C   UNL     1      29.349   9.648 -12.260  1.00  0.00    -0.000 C 
BRANCH  15  16
ATOM     16  C   UNL     1      28.932  10.787 -11.315  1.00  0.00    -0.000 C 
BRANCH  16  17
ATOM     17  C   UNL     1      29.647  10.722  -9.957  1.00  0.00    -0.003 C 
ATOM     18  C   UNL     1      30.663   9.584  -9.925  1.00  0.00     0.004 C 
ENDBRANCH  16  17
ENDBRANCH  15  16
ENDBRANCH  14  15
ENDBRANCH  13  14
ENDBRANCH  12  13
ENDBRANCH  11  12
ENDBRANCH   1  11
TORSDOF 14
ENDMDL
