MODEL 1
REMARK VINA RESULT:    -4.819      0.000      0.000
REMARK INTER + INTRA:          -5.306
REMARK INTER:                  -5.242
REMARK INTRA:                  -0.064
REMARK UNBOUND:                -0.064
REMARK SMILES COc1cc2ccc(=O)oc2cc1O
REMARK SMILES IDX 3 1 13 2 12 3 11 4 5 5 4 6 6 7 7 8 8 9 9 10 10 11 2 12 1 13
REMARK SMILES IDX 14 14
REMARK H PARENT 14 15
REMARK Flexibility Score: inf
ROOT
ATOM      1  C   UNL     1      37.496 -44.019  23.062  1.00  0.00     0.161 A 
ATOM      2  C   UNL     1      37.832 -44.698  21.874  1.00  0.00     0.161 A 
ATOM      3  C   UNL     1      38.399 -44.003  20.800  1.00  0.00     0.098 A 
ATOM      4  C   UNL     1      38.640 -42.631  20.894  1.00  0.00     0.142 A 
ATOM      5  C   UNL     1      38.308 -41.941  22.079  1.00  0.00     0.022 A 
ATOM      6  C   UNL     1      37.739 -42.633  23.157  1.00  0.00     0.062 A 
ATOM      7  C   UNL     1      38.561 -40.566  22.142  1.00  0.00     0.019 A 
ATOM      8  C   UNL     1      39.129 -39.923  21.043  1.00  0.00     0.094 A 
ATOM      9  C   UNL     1      39.431 -40.672  19.901  1.00  0.00     0.336 A 
ATOM     10  O   UNL     1      39.943 -40.110  18.899  1.00  0.00    -0.246 OA
ATOM     11  O   UNL     1      39.180 -41.978  19.867  1.00  0.00    -0.423 OA
ENDROOT
BRANCH   1  12
ATOM     12  O   UNL     1      36.929 -44.746  24.119  1.00  0.00    -0.493 OA
ATOM     13  C   UNL     1      37.660 -45.279  25.219  1.00  0.00     0.278 C 
ENDBRANCH   1  12
BRANCH   2  14
ATOM     14  O   UNL     1      37.606 -46.069  21.742  1.00  0.00    -0.504 OA
ATOM     15  H   UNL     1      37.257 -46.634  22.505  1.00  0.00     0.293 HD
ENDBRANCH   2  14
TORSDOF 2
ENDMDL
MODEL 2
REMARK VINA RESULT:    -4.718      1.524      2.329
REMARK INTER + INTRA:          -5.195
REMARK INTER:                  -5.144
REMARK INTRA:                  -0.051
REMARK UNBOUND:                -0.064
REMARK SMILES COc1cc2ccc(=O)oc2cc1O
REMARK SMILES IDX 3 1 13 2 12 3 11 4 5 5 4 6 6 7 7 8 8 9 9 10 10 11 2 12 1 13
REMARK SMILES IDX 14 14
REMARK H PARENT 14 15
REMARK Flexibility Score: inf
ROOT
ATOM      1  C   UNL     1      38.415 -43.309  21.284  1.00  0.00     0.161 A 
ATOM      2  C   UNL     1      38.807 -43.155  19.939  1.00  0.00     0.161 A 
ATOM      3  C   UNL     1      39.179 -41.896  19.453  1.00  0.00     0.098 A 
ATOM      4  C   UNL     1      39.166 -40.781  20.294  1.00  0.00     0.142 A 
ATOM      5  C   UNL     1      38.775 -40.925  21.642  1.00  0.00     0.022 A 
ATOM      6  C   UNL     1      38.401 -42.183  22.133  1.00  0.00     0.062 A 
ATOM      7  C   UNL     1      38.772 -39.789  22.459  1.00  0.00     0.019 A 
ATOM      8  C   UNL     1      39.152 -38.559  21.924  1.00  0.00     0.094 A 
ATOM      9  C   UNL     1      39.527 -38.493  20.578  1.00  0.00     0.336 A 
ATOM     10  O   UNL     1      39.873 -37.392  20.076  1.00  0.00    -0.246 OA
ATOM     11  O   UNL     1      39.522 -39.588  19.823  1.00  0.00    -0.423 OA
ENDROOT
BRANCH   1  12
ATOM     12  O   UNL     1      38.048 -44.585  21.738  1.00  0.00    -0.493 OA
ATOM     13  C   UNL     1      36.878 -44.868  22.500  1.00  0.00     0.278 C 
ENDBRANCH   1  12
BRANCH   2  14
ATOM     14  O   UNL     1      38.833 -44.244  19.069  1.00  0.00    -0.504 OA
ATOM     15  H   UNL     1      38.236 -45.051  19.196  1.00  0.00     0.293 HD
ENDBRANCH   2  14
TORSDOF 2
ENDMDL
MODEL 3
REMARK VINA RESULT:    -4.676      2.023      5.647
REMARK INTER + INTRA:          -5.150
REMARK INTER:                  -5.137
REMARK INTRA:                  -0.012
REMARK UNBOUND:                -0.064
REMARK SMILES COc1cc2ccc(=O)oc2cc1O
REMARK SMILES IDX 3 1 13 2 12 3 11 4 5 5 4 6 6 7 7 8 8 9 9 10 10 11 2 12 1 13
REMARK SMILES IDX 14 14
REMARK H PARENT 14 15
REMARK Flexibility Score: inf
ROOT
ATOM      1  C   UNL     1      39.475 -38.908  20.341  1.00  0.00     0.161 A 
ATOM      2  C   UNL     1      38.928 -39.015  21.635  1.00  0.00     0.161 A 
ATOM      3  C   UNL     1      38.512 -40.259  22.124  1.00  0.00     0.098 A 
ATOM      4  C   UNL     1      38.636 -41.406  21.337  1.00  0.00     0.142 A 
ATOM      5  C   UNL     1      39.183 -41.309  20.041  1.00  0.00     0.022 A 
ATOM      6  C   UNL     1      39.600 -40.066  19.547  1.00  0.00     0.062 A 
ATOM      7  C   UNL     1      39.294 -42.476  19.277  1.00  0.00     0.019 A 
ATOM      8  C   UNL     1      38.866 -43.690  19.813  1.00  0.00     0.094 A 
ATOM      9  C   UNL     1      38.333 -43.709  21.106  1.00  0.00     0.336 A 
ATOM     10  O   UNL     1      37.940 -44.794  21.608  1.00  0.00    -0.246 OA
ATOM     11  O   UNL     1      38.239 -42.584  21.812  1.00  0.00    -0.423 OA
ENDROOT
BRANCH   1  12
ATOM     12  O   UNL     1      39.881 -37.646  19.882  1.00  0.00    -0.493 OA
ATOM     13  C   UNL     1      41.129 -37.035  20.192  1.00  0.00     0.278 C 
ENDBRANCH   1  12
BRANCH   2  14
ATOM     14  O   UNL     1      38.787 -37.892  22.451  1.00  0.00    -0.504 OA
ATOM     15  H   UNL     1      37.905 -37.644  22.880  1.00  0.00     0.293 HD
ENDBRANCH   2  14
TORSDOF 2
ENDMDL
MODEL 4
REMARK VINA RESULT:    -4.590      1.156      4.778
REMARK INTER + INTRA:          -5.056
REMARK INTER:                  -5.012
REMARK INTRA:                  -0.044
REMARK UNBOUND:                -0.064
REMARK SMILES COc1cc2ccc(=O)oc2cc1O
REMARK SMILES IDX 3 1 13 2 12 3 11 4 5 5 4 6 6 7 7 8 8 9 9 10 10 11 2 12 1 13
REMARK SMILES IDX 14 14
REMARK H PARENT 14 15
REMARK Flexibility Score: inf
ROOT
ATOM      1  C   UNL     1      38.811 -42.111  20.425  1.00  0.00     0.161 A 
ATOM      2  C   UNL     1      38.748 -43.501  20.204  1.00  0.00     0.161 A 
ATOM      3  C   UNL     1      38.358 -44.363  21.236  1.00  0.00     0.098 A 
ATOM      4  C   UNL     1      38.026 -43.855  22.493  1.00  0.00     0.142 A 
ATOM      5  C   UNL     1      38.086 -42.465  22.725  1.00  0.00     0.022 A 
ATOM      6  C   UNL     1      38.476 -41.599  21.695  1.00  0.00     0.062 A 
ATOM      7  C   UNL     1      37.748 -41.987  23.997  1.00  0.00     0.019 A 
ATOM      8  C   UNL     1      37.365 -42.890  24.988  1.00  0.00     0.094 A 
ATOM      9  C   UNL     1      37.330 -44.255  24.685  1.00  0.00     0.336 A 
ATOM     10  O   UNL     1      36.988 -45.085  25.566  1.00  0.00    -0.246 OA
ATOM     11  O   UNL     1      37.656 -44.683  23.468  1.00  0.00    -0.423 OA
ENDROOT
BRANCH   1  12
ATOM     12  O   UNL     1      39.206 -41.276  19.369  1.00  0.00    -0.493 OA
ATOM     13  C   UNL     1      39.677 -39.941  19.526  1.00  0.00     0.278 C 
ENDBRANCH   1  12
BRANCH   2  14
ATOM     14  O   UNL     1      39.072 -44.046  18.961  1.00  0.00    -0.504 OA
ATOM     15  H   UNL     1      39.592 -44.908  18.869  1.00  0.00     0.293 HD
ENDBRANCH   2  14
TORSDOF 2
ENDMDL
MODEL 5
REMARK VINA RESULT:    -4.533      1.542      2.520
REMARK INTER + INTRA:          -4.994
REMARK INTER:                  -4.947
REMARK INTRA:                  -0.047
REMARK UNBOUND:                -0.064
REMARK SMILES COc1cc2ccc(=O)oc2cc1O
REMARK SMILES IDX 3 1 13 2 12 3 11 4 5 5 4 6 6 7 7 8 8 9 9 10 10 11 2 12 1 13
REMARK SMILES IDX 14 14
REMARK H PARENT 14 15
REMARK Flexibility Score: inf
ROOT
ATOM      1  C   UNL     1      37.936 -43.595  22.511  1.00  0.00     0.161 A 
ATOM      2  C   UNL     1      37.857 -42.535  23.435  1.00  0.00     0.161 A 
ATOM      3  C   UNL     1      38.216 -41.237  23.052  1.00  0.00     0.098 A 
ATOM      4  C   UNL     1      38.654 -40.979  21.751  1.00  0.00     0.142 A 
ATOM      5  C   UNL     1      38.736 -42.034  20.818  1.00  0.00     0.022 A 
ATOM      6  C   UNL     1      38.378 -43.335  21.197  1.00  0.00     0.062 A 
ATOM      7  C   UNL     1      39.179 -41.743  19.523  1.00  0.00     0.019 A 
ATOM      8  C   UNL     1      39.523 -40.433  19.194  1.00  0.00     0.094 A 
ATOM      9  C   UNL     1      39.416 -39.439  20.173  1.00  0.00     0.336 A 
ATOM     10  O   UNL     1      39.722 -38.250  19.896  1.00  0.00    -0.246 OA
ATOM     11  O   UNL     1      38.992 -39.742  21.397  1.00  0.00    -0.423 OA
ENDROOT
BRANCH   1  12
ATOM     12  O   UNL     1      37.569 -44.884  22.928  1.00  0.00    -0.493 OA
ATOM     13  C   UNL     1      36.906 -45.842  22.108  1.00  0.00     0.278 C 
ENDBRANCH   1  12
BRANCH   2  14
ATOM     14  O   UNL     1      37.425 -42.753  24.743  1.00  0.00    -0.504 OA
ATOM     15  H   UNL     1      38.046 -43.087  25.469  1.00  0.00     0.293 HD
ENDBRANCH   2  14
TORSDOF 2
ENDMDL
MODEL 6
REMARK VINA RESULT:    -4.326      1.970      4.137
REMARK INTER + INTRA:          -4.769
REMARK INTER:                  -4.721
REMARK INTRA:                  -0.049
REMARK UNBOUND:                -0.064
REMARK SMILES COc1cc2ccc(=O)oc2cc1O
REMARK SMILES IDX 3 1 13 2 12 3 11 4 5 5 4 6 6 7 7 8 8 9 9 10 10 11 2 12 1 13
REMARK SMILES IDX 14 14
REMARK H PARENT 14 15
REMARK Flexibility Score: inf
ROOT
ATOM      1  C   UNL     1      38.391 -43.536  21.139  1.00  0.00     0.161 A 
ATOM      2  C   UNL     1      37.892 -44.481  22.057  1.00  0.00     0.161 A 
ATOM      3  C   UNL     1      37.533 -44.085  23.351  1.00  0.00     0.098 A 
ATOM      4  C   UNL     1      37.664 -42.751  23.745  1.00  0.00     0.142 A 
ATOM      5  C   UNL     1      38.162 -41.798  22.833  1.00  0.00     0.022 A 
ATOM      6  C   UNL     1      38.523 -42.190  21.537  1.00  0.00     0.062 A 
ATOM      7  C   UNL     1      38.282 -40.470  23.257  1.00  0.00     0.019 A 
ATOM      8  C   UNL     1      37.909 -40.129  24.557  1.00  0.00     0.094 A 
ATOM      9  C   UNL     1      37.423 -41.129  25.406  1.00  0.00     0.336 A 
ATOM     10  O   UNL     1      37.082 -40.843  26.583  1.00  0.00    -0.246 OA
ATOM     11  O   UNL     1      37.319 -42.385  24.977  1.00  0.00    -0.423 OA
ENDROOT
BRANCH   1  12
ATOM     12  O   UNL     1      38.742 -43.967  19.850  1.00  0.00    -0.493 OA
ATOM     13  C   UNL     1      39.904 -43.543  19.144  1.00  0.00     0.278 C 
ENDBRANCH   1  12
BRANCH   2  14
ATOM     14  O   UNL     1      37.747 -45.822  21.702  1.00  0.00    -0.504 OA
ATOM     15  H   UNL     1      37.924 -46.575  22.353  1.00  0.00     0.293 HD
ENDBRANCH   2  14
TORSDOF 2
ENDMDL
MODEL 7
REMARK VINA RESULT:    -4.253      9.526     10.877
REMARK INTER + INTRA:          -4.690
REMARK INTER:                  -4.646
REMARK INTRA:                  -0.044
REMARK UNBOUND:                -0.064
REMARK SMILES COc1cc2ccc(=O)oc2cc1O
REMARK SMILES IDX 3 1 13 2 12 3 11 4 5 5 4 6 6 7 7 8 8 9 9 10 10 11 2 12 1 13
REMARK SMILES IDX 14 14
REMARK H PARENT 14 15
REMARK Flexibility Score: inf
ROOT
ATOM      1  C   UNL     1      42.535 -44.591  30.765  1.00  0.00     0.161 A 
ATOM      2  C   UNL     1      41.702 -44.025  31.750  1.00  0.00     0.161 A 
ATOM      3  C   UNL     1      41.940 -42.725  32.212  1.00  0.00     0.098 A 
ATOM      4  C   UNL     1      43.001 -41.975  31.701  1.00  0.00     0.142 A 
ATOM      5  C   UNL     1      43.841 -42.533  30.714  1.00  0.00     0.022 A 
ATOM      6  C   UNL     1      43.608 -43.834  30.249  1.00  0.00     0.062 A 
ATOM      7  C   UNL     1      44.897 -41.757  30.222  1.00  0.00     0.019 A 
ATOM      8  C   UNL     1      45.088 -40.468  30.717  1.00  0.00     0.094 A 
ATOM      9  C   UNL     1      44.215 -39.982  31.696  1.00  0.00     0.336 A 
ATOM     10  O   UNL     1      44.370 -38.820  32.155  1.00  0.00    -0.246 OA
ATOM     11  O   UNL     1      43.219 -40.740  32.146  1.00  0.00    -0.423 OA
ENDROOT
BRANCH   1  12
ATOM     12  O   UNL     1      42.269 -45.897  30.325  1.00  0.00    -0.493 OA
ATOM     13  C   UNL     1      41.381 -46.227  29.262  1.00  0.00     0.278 C 
ENDBRANCH   1  12
BRANCH   2  14
ATOM     14  O   UNL     1      40.632 -44.742  32.285  1.00  0.00    -0.504 OA
ATOM     15  H   UNL     1      40.529 -45.739  32.150  1.00  0.00     0.293 HD
ENDBRANCH   2  14
TORSDOF 2
ENDMDL
MODEL 8
REMARK VINA RESULT:    -4.206      9.482     10.326
REMARK INTER + INTRA:          -4.639
REMARK INTER:                  -4.575
REMARK INTRA:                  -0.064
REMARK UNBOUND:                -0.064
REMARK SMILES COc1cc2ccc(=O)oc2cc1O
REMARK SMILES IDX 3 1 13 2 12 3 11 4 5 5 4 6 6 7 7 8 8 9 9 10 10 11 2 12 1 13
REMARK SMILES IDX 14 14
REMARK H PARENT 14 15
REMARK Flexibility Score: inf
ROOT
ATOM      1  C   UNL     1      41.441 -44.762  31.173  1.00  0.00     0.161 A 
ATOM      2  C   UNL     1      42.225 -44.960  30.019  1.00  0.00     0.161 A 
ATOM      3  C   UNL     1      43.232 -44.047  29.685  1.00  0.00     0.098 A 
ATOM      4  C   UNL     1      43.473 -42.933  30.492  1.00  0.00     0.142 A 
ATOM      5  C   UNL     1      42.694 -42.726  31.649  1.00  0.00     0.022 A 
ATOM      6  C   UNL     1      41.683 -43.637  31.987  1.00  0.00     0.062 A 
ATOM      7  C   UNL     1      42.958 -41.600  32.436  1.00  0.00     0.019 A 
ATOM      8  C   UNL     1      43.975 -40.723  32.059  1.00  0.00     0.094 A 
ATOM      9  C   UNL     1      44.705 -40.993  30.897  1.00  0.00     0.336 A 
ATOM     10  O   UNL     1      45.626 -40.214  30.539  1.00  0.00    -0.246 OA
ATOM     11  O   UNL     1      44.433 -42.072  30.166  1.00  0.00    -0.423 OA
ENDROOT
BRANCH   1  12
ATOM     12  O   UNL     1      40.439 -45.696  31.478  1.00  0.00    -0.493 OA
ATOM     13  C   UNL     1      39.067 -45.554  31.125  1.00  0.00     0.278 C 
ENDBRANCH   1  12
BRANCH   2  14
ATOM     14  O   UNL     1      42.015 -46.061  29.188  1.00  0.00    -0.504 OA
ATOM     15  H   UNL     1      42.632 -46.281  28.417  1.00  0.00     0.293 HD
ENDBRANCH   2  14
TORSDOF 2
ENDMDL
MODEL 9
REMARK VINA RESULT:    -4.172      1.285      4.778
REMARK INTER + INTRA:          -4.601
REMARK INTER:                  -4.555
REMARK INTRA:                  -0.046
REMARK UNBOUND:                -0.064
REMARK SMILES COc1cc2ccc(=O)oc2cc1O
REMARK SMILES IDX 3 1 13 2 12 3 11 4 5 5 4 6 6 7 7 8 8 9 9 10 10 11 2 12 1 13
REMARK SMILES IDX 14 14
REMARK H PARENT 14 15
REMARK Flexibility Score: inf
ROOT
ATOM      1  C   UNL     1      38.796 -40.707  21.520  1.00  0.00     0.161 A 
ATOM      2  C   UNL     1      39.082 -41.457  20.362  1.00  0.00     0.161 A 
ATOM      3  C   UNL     1      38.741 -42.813  20.298  1.00  0.00     0.098 A 
ATOM      4  C   UNL     1      38.113 -43.436  21.378  1.00  0.00     0.142 A 
ATOM      5  C   UNL     1      37.823 -42.695  22.542  1.00  0.00     0.022 A 
ATOM      6  C   UNL     1      38.163 -41.337  22.611  1.00  0.00     0.062 A 
ATOM      7  C   UNL     1      37.194 -43.348  23.608  1.00  0.00     0.019 A 
ATOM      8  C   UNL     1      36.875 -44.700  23.490  1.00  0.00     0.094 A 
ATOM      9  C   UNL     1      37.195 -45.371  22.305  1.00  0.00     0.336 A 
ATOM     10  O   UNL     1      36.916 -46.592  22.180  1.00  0.00    -0.246 OA
ATOM     11  O   UNL     1      37.792 -44.726  21.307  1.00  0.00    -0.423 OA
ENDROOT
BRANCH   1  12
ATOM     12  O   UNL     1      39.152 -39.350  21.552  1.00  0.00    -0.493 OA
ATOM     13  C   UNL     1      39.548 -38.644  22.724  1.00  0.00     0.278 C 
ENDBRANCH   1  12
BRANCH   2  14
ATOM     14  O   UNL     1      39.708 -40.869  19.263  1.00  0.00    -0.504 OA
ATOM     15  H   UNL     1      39.204 -40.301  18.594  1.00  0.00     0.293 HD
ENDBRANCH   2  14
TORSDOF 2
ENDMDL
