MODEL 1
REMARK VINA RESULT:    -1.896      0.000      0.000
REMARK INTER + INTRA:          -2.242
REMARK INTER:                  -2.006
REMARK INTRA:                  -0.235
REMARK UNBOUND:                -0.235
REMARK SMILES C=C1CC[C@H](C(C)C)[C@H]2C=C(C)CC[C@@H]12
REMARK SMILES IDX 12 1 11 2 10 3 9 4 15 5 14 6 13 7 2 8 1 9 3 10 4 11 5 12
REMARK SMILES IDX 6 13 7 14 8 15
REMARK H PARENT
REMARK Flexibility Score: inf
ROOT
ATOM      1  C   UNL     1       4.413  11.535  11.592  1.00  0.00     0.039 C 
ATOM      2  C   UNL     1       4.544  10.051  11.804  1.00  0.00    -0.077 C 
ATOM      3  C   UNL     1       5.203   9.604  12.894  1.00  0.00    -0.024 C 
ATOM      4  C   UNL     1       5.438   8.133  13.190  1.00  0.00     0.022 C 
ATOM      5  C   UNL     1       4.378   7.255  12.475  1.00  0.00     0.022 C 
ATOM      6  C   UNL     1       4.236   7.655  10.998  1.00  0.00     0.013 C 
ATOM      7  C   UNL     1       3.797   9.117  10.875  1.00  0.00     0.031 C 
ATOM      8  C   UNL     1       4.705   5.780  12.593  1.00  0.00    -0.074 C 
ATOM      9  C   UNL     1       3.723   4.876  12.737  1.00  0.00     0.008 C 
ATOM     10  C   UNL     1       6.126   5.328  12.373  1.00  0.00     0.031 C 
ATOM     11  C   UNL     1       7.094   6.200  13.174  1.00  0.00     0.009 C 
ATOM     12  C   UNL     1       6.906   7.703  12.852  1.00  0.00    -0.001 C 
ENDROOT
BRANCH  12  13
ATOM     13  C   UNL     1       7.998   8.600  13.531  1.00  0.00    -0.014 C 
ATOM     14  C   UNL     1       9.423   8.188  13.125  1.00  0.00     0.007 C 
ATOM     15  C   UNL     1       7.889   8.667  15.064  1.00  0.00     0.007 C 
ENDBRANCH  12  13
TORSDOF 1
ENDMDL
MODEL 2
REMARK VINA RESULT:    -0.849      2.360      5.534
REMARK INTER + INTRA:          -1.134
REMARK INTER:                  -0.871
REMARK INTRA:                  -0.263
REMARK UNBOUND:                -0.235
REMARK SMILES C=C1CC[C@H](C(C)C)[C@H]2C=C(C)CC[C@@H]12
REMARK SMILES IDX 12 1 11 2 10 3 9 4 15 5 14 6 13 7 2 8 1 9 3 10 4 11 5 12
REMARK SMILES IDX 6 13 7 14 8 15
REMARK H PARENT
REMARK Flexibility Score: inf
ROOT
ATOM      1  C   UNL     1       6.509   8.634  11.842  1.00  0.00     0.039 C 
ATOM      2  C   UNL     1       5.086   9.123  11.844  1.00  0.00    -0.077 C 
ATOM      3  C   UNL     1       4.805  10.314  11.274  1.00  0.00    -0.024 C 
ATOM      4  C   UNL     1       3.418  10.932  11.256  1.00  0.00     0.022 C 
ATOM      5  C   UNL     1       2.329   9.836  11.408  1.00  0.00     0.022 C 
ATOM      6  C   UNL     1       2.658   8.892  12.575  1.00  0.00     0.013 C 
ATOM      7  C   UNL     1       4.000   8.193  12.343  1.00  0.00     0.031 C 
ATOM      8  C   UNL     1       0.952  10.442  11.589  1.00  0.00    -0.074 C 
ATOM      9  C   UNL     1      -0.125   9.855  11.043  1.00  0.00     0.008 C 
ATOM     10  C   UNL     1       0.786  11.608  12.530  1.00  0.00     0.031 C 
ATOM     11  C   UNL     1       1.852  12.670  12.259  1.00  0.00     0.009 C 
ATOM     12  C   UNL     1       3.279  12.072  12.320  1.00  0.00    -0.001 C 
ENDROOT
BRANCH  12  13
ATOM     13  C   UNL     1       4.392  13.173  12.213  1.00  0.00    -0.014 C 
ATOM     14  C   UNL     1       4.335  14.171  13.382  1.00  0.00     0.007 C 
ATOM     15  C   UNL     1       4.396  13.931  10.875  1.00  0.00     0.007 C 
ENDBRANCH  12  13
TORSDOF 1
ENDMDL
MODEL 3
REMARK VINA RESULT:     0.164      1.195      3.991
REMARK INTER + INTRA:          -0.062
REMARK INTER:                   0.202
REMARK INTRA:                  -0.264
REMARK UNBOUND:                -0.235
REMARK SMILES C=C1CC[C@H](C(C)C)[C@H]2C=C(C)CC[C@@H]12
REMARK SMILES IDX 12 1 11 2 10 3 9 4 15 5 14 6 13 7 2 8 1 9 3 10 4 11 5 12
REMARK SMILES IDX 6 13 7 14 8 15
REMARK H PARENT
REMARK Flexibility Score: inf
ROOT
ATOM      1  C   UNL     1       9.170   8.847  13.233  1.00  0.00     0.039 C 
ATOM      2  C   UNL     1       7.820   8.190  13.149  1.00  0.00    -0.077 C 
ATOM      3  C   UNL     1       6.913   8.673  12.273  1.00  0.00    -0.024 C 
ATOM      4  C   UNL     1       5.505   8.123  12.132  1.00  0.00     0.022 C 
ATOM      5  C   UNL     1       5.437   6.655  12.632  1.00  0.00     0.022 C 
ATOM      6  C   UNL     1       6.108   6.510  14.007  1.00  0.00     0.013 C 
ATOM      7  C   UNL     1       7.582   6.916  13.934  1.00  0.00     0.031 C 
ATOM      8  C   UNL     1       4.010   6.150  12.685  1.00  0.00    -0.074 C 
ATOM      9  C   UNL     1       3.728   4.875  12.371  1.00  0.00     0.008 C 
ATOM     10  C   UNL     1       2.940   7.044  13.259  1.00  0.00     0.031 C 
ATOM     11  C   UNL     1       3.034   8.445  12.655  1.00  0.00     0.009 C 
ATOM     12  C   UNL     1       4.450   9.047  12.830  1.00  0.00    -0.001 C 
ENDROOT
BRANCH  12  13
ATOM     13  C   UNL     1       4.523  10.545  12.372  1.00  0.00    -0.014 C 
ATOM     14  C   UNL     1       3.614  11.455  13.214  1.00  0.00     0.007 C 
ATOM     15  C   UNL     1       4.236  10.756  10.876  1.00  0.00     0.007 C 
ENDBRANCH  12  13
TORSDOF 1
ENDMDL
MODEL 4
REMARK VINA RESULT:     0.315      4.184      6.821
REMARK INTER + INTRA:           0.098
REMARK INTER:                   0.391
REMARK INTRA:                  -0.293
REMARK UNBOUND:                -0.235
REMARK SMILES C=C1CC[C@H](C(C)C)[C@H]2C=C(C)CC[C@@H]12
REMARK SMILES IDX 12 1 11 2 10 3 9 4 15 5 14 6 13 7 2 8 1 9 3 10 4 11 5 12
REMARK SMILES IDX 6 13 7 14 8 15
REMARK H PARENT
REMARK Flexibility Score: inf
ROOT
ATOM      1  C   UNL     1       3.060  14.251  16.971  1.00  0.00     0.039 C 
ATOM      2  C   UNL     1       3.025  13.501  15.667  1.00  0.00    -0.077 C 
ATOM      3  C   UNL     1       3.957  13.778  14.731  1.00  0.00    -0.024 C 
ATOM      4  C   UNL     1       3.996  13.121  13.363  1.00  0.00     0.022 C 
ATOM      5  C   UNL     1       3.268  11.750  13.393  1.00  0.00     0.022 C 
ATOM      6  C   UNL     1       1.894  11.871  14.071  1.00  0.00     0.013 C 
ATOM      7  C   UNL     1       2.046  12.355  15.515  1.00  0.00     0.031 C 
ATOM      8  C   UNL     1       3.122  11.167  12.002  1.00  0.00    -0.074 C 
ATOM      9  C   UNL     1       3.227   9.843  11.807  1.00  0.00     0.008 C 
ATOM     10  C   UNL     1       2.687  12.068  10.875  1.00  0.00     0.031 C 
ATOM     11  C   UNL     1       3.506  13.359  10.875  1.00  0.00     0.009 C 
ATOM     12  C   UNL     1       3.443  14.073  12.249  1.00  0.00    -0.001 C 
ENDROOT
BRANCH  12  13
ATOM     13  C   UNL     1       4.134  15.481  12.222  1.00  0.00    -0.014 C 
ATOM     14  C   UNL     1       3.152  16.616  12.554  1.00  0.00     0.007 C 
ATOM     15  C   UNL     1       4.870  15.791  10.908  1.00  0.00     0.007 C 
ENDBRANCH  12  13
TORSDOF 1
ENDMDL
MODEL 5
REMARK VINA RESULT:     0.472      2.913      5.542
REMARK INTER + INTRA:           0.264
REMARK INTER:                   0.317
REMARK INTRA:                  -0.053
REMARK UNBOUND:                -0.235
REMARK SMILES C=C1CC[C@H](C(C)C)[C@H]2C=C(C)CC[C@@H]12
REMARK SMILES IDX 12 1 11 2 10 3 9 4 15 5 14 6 13 7 2 8 1 9 3 10 4 11 5 12
REMARK SMILES IDX 6 13 7 14 8 15
REMARK H PARENT
REMARK Flexibility Score: inf
ROOT
ATOM      1  C   UNL     1       4.941  15.156  10.888  1.00  0.00     0.039 C 
ATOM      2  C   UNL     1       3.888  14.211  11.401  1.00  0.00    -0.077 C 
ATOM      3  C   UNL     1       4.275  13.111  12.081  1.00  0.00    -0.024 C 
ATOM      4  C   UNL     1       3.310  12.064  12.606  1.00  0.00     0.022 C 
ATOM      5  C   UNL     1       1.894  12.672  12.798  1.00  0.00     0.022 C 
ATOM      6  C   UNL     1       1.460  13.460  11.552  1.00  0.00     0.013 C 
ATOM      7  C   UNL     1       2.432  14.609  11.274  1.00  0.00     0.031 C 
ATOM      8  C   UNL     1       0.871  11.605  13.132  1.00  0.00    -0.074 C 
ATOM      9  C   UNL     1      -0.124  11.866  13.995  1.00  0.00     0.008 C 
ATOM     10  C   UNL     1       0.884  10.313  12.356  1.00  0.00     0.031 C 
ATOM     11  C   UNL     1       2.303   9.748  12.282  1.00  0.00     0.009 C 
ATOM     12  C   UNL     1       3.299  10.783  11.704  1.00  0.00    -0.001 C 
ENDROOT
BRANCH  12  13
ATOM     13  C   UNL     1       4.722  10.171  11.460  1.00  0.00    -0.014 C 
ATOM     14  C   UNL     1       4.651   8.751  10.875  1.00  0.00     0.007 C 
ATOM     15  C   UNL     1       5.628  10.182  12.703  1.00  0.00     0.007 C 
ENDBRANCH  12  13
TORSDOF 1
ENDMDL
MODEL 6
REMARK VINA RESULT:     0.505      2.737      5.616
REMARK INTER + INTRA:           0.299
REMARK INTER:                   0.055
REMARK INTRA:                   0.244
REMARK UNBOUND:                -0.235
REMARK SMILES C=C1CC[C@H](C(C)C)[C@H]2C=C(C)CC[C@@H]12
REMARK SMILES IDX 12 1 11 2 10 3 9 4 15 5 14 6 13 7 2 8 1 9 3 10 4 11 5 12
REMARK SMILES IDX 6 13 7 14 8 15
REMARK H PARENT
REMARK Flexibility Score: inf
ROOT
ATOM      1  C   UNL     1       2.660  14.845  11.129  1.00  0.00     0.039 C 
ATOM      2  C   UNL     1       3.149  13.448  11.397  1.00  0.00    -0.077 C 
ATOM      3  C   UNL     1       2.359  12.406  11.062  1.00  0.00    -0.024 C 
ATOM      4  C   UNL     1       2.723  10.956  11.326  1.00  0.00     0.022 C 
ATOM      5  C   UNL     1       4.262  10.792  11.450  1.00  0.00     0.022 C 
ATOM      6  C   UNL     1       4.853  11.844  12.402  1.00  0.00     0.013 C 
ATOM      7  C   UNL     1       4.569  13.257  11.886  1.00  0.00     0.031 C 
ATOM      8  C   UNL     1       4.638   9.397  11.906  1.00  0.00    -0.074 C 
ATOM      9  C   UNL     1       5.740   8.799  11.425  1.00  0.00     0.008 C 
ATOM     10  C   UNL     1       3.861   8.762  13.031  1.00  0.00     0.031 C 
ATOM     11  C   UNL     1       2.358   8.904  12.788  1.00  0.00     0.009 C 
ATOM     12  C   UNL     1       1.954  10.382  12.564  1.00  0.00    -0.001 C 
ENDROOT
BRANCH  12  13
ATOM     13  C   UNL     1       0.399  10.570  12.483  1.00  0.00    -0.014 C 
ATOM     14  C   UNL     1      -0.106  10.605  11.031  1.00  0.00     0.007 C 
ATOM     15  C   UNL     1      -0.124  11.797  13.250  1.00  0.00     0.007 C 
ENDBRANCH  12  13
TORSDOF 1
ENDMDL
MODEL 7
REMARK VINA RESULT:     1.046      3.551      6.934
REMARK INTER + INTRA:           0.872
REMARK INTER:                   1.133
REMARK INTRA:                  -0.261
REMARK UNBOUND:                -0.235
REMARK SMILES C=C1CC[C@H](C(C)C)[C@H]2C=C(C)CC[C@@H]12
REMARK SMILES IDX 12 1 11 2 10 3 9 4 15 5 14 6 13 7 2 8 1 9 3 10 4 11 5 12
REMARK SMILES IDX 6 13 7 14 8 15
REMARK H PARENT
REMARK Flexibility Score: inf
ROOT
ATOM      1  C   UNL     1       1.701  11.972  16.606  1.00  0.00     0.039 C 
ATOM      2  C   UNL     1       2.298  12.588  15.370  1.00  0.00    -0.077 C 
ATOM      3  C   UNL     1       1.884  12.154  14.161  1.00  0.00    -0.024 C 
ATOM      4  C   UNL     1       2.445  12.666  12.846  1.00  0.00     0.022 C 
ATOM      5  C   UNL     1       3.059  14.080  13.026  1.00  0.00     0.022 C 
ATOM      6  C   UNL     1       3.990  14.124  14.248  1.00  0.00     0.013 C 
ATOM      7  C   UNL     1       3.222  13.778  15.525  1.00  0.00     0.031 C 
ATOM      8  C   UNL     1       3.797  14.530  11.782  1.00  0.00    -0.074 C 
ATOM      9  C   UNL     1       3.765  15.817  11.401  1.00  0.00     0.008 C 
ATOM     10  C   UNL     1       4.703  13.552  11.078  1.00  0.00     0.031 C 
ATOM     11  C   UNL     1       3.992  12.214  10.875  1.00  0.00     0.009 C 
ATOM     12  C   UNL     1       3.452  11.648  12.212  1.00  0.00    -0.001 C 
ENDROOT
BRANCH  12  13
ATOM     13  C   UNL     1       2.870  10.199  12.055  1.00  0.00    -0.014 C 
ATOM     14  C   UNL     1       3.937   9.191  11.598  1.00  0.00     0.007 C 
ATOM     15  C   UNL     1       1.641  10.116  11.134  1.00  0.00     0.007 C 
ENDBRANCH  12  13
TORSDOF 1
ENDMDL
