MODEL 1
REMARK VINA RESULT:    -1.873      0.000      0.000
REMARK INTER + INTRA:           1.337
REMARK INTER:                  -2.749
REMARK INTRA:                   4.086
REMARK UNBOUND:                 4.086
REMARK SMILES C=C1C=C[C@@H](C(C)C)CCC(C)=CCC1
REMARK SMILES IDX 3 1 4 2 5 3 9 4 10 5 11 6 12 7 13 8 6 10 7 11 8 12 2 13 1 14
REMARK SMILES IDX 15 15 14 16
REMARK H PARENT
REMARK Flexibility Score: 70.00
ROOT
ATOM      1  C   UNL     1     137.705 137.127 121.543  1.00  0.00    -0.001 C 
ATOM      2  C   UNL     1     137.576 138.040 122.518  1.00  0.00    -0.023 C 
ENDROOT
BRANCH   2   3
ATOM      3  C   UNL     1     137.185 137.708 123.946  1.00  0.00     0.014 C 
BRANCH   3   4
ATOM      4  C   UNL     1     137.155 136.166 124.189  1.00  0.00     0.012 C 
BRANCH   4   5
ATOM      5  C   UNL     1     137.861 135.639 125.468  1.00  0.00     0.031 C 
BRANCH   5   6
ATOM      6  C   UNL     1     139.374 135.801 125.474  1.00  0.00    -0.077 C 
ATOM      7  C   UNL     1     140.074 135.949 126.804  1.00  0.00     0.039 C 
ATOM      8  C   UNL     1     140.152 135.728 124.366  1.00  0.00    -0.028 CG0
ATOM      9  G   UNL     1     139.677 135.723 122.934  1.00  0.00     0.000 G0
ENDBRANCH   5   6
ENDBRANCH   4   5
ENDBRANCH   3   4
BRANCH   3  10
ATOM     10  C   UNL     1     135.814 138.373 124.288  1.00  0.00    -0.010 C 
ATOM     11  C   UNL     1     135.099 138.869 123.016  1.00  0.00     0.008 C 
ATOM     12  C   UNL     1     135.973 139.554 125.262  1.00  0.00     0.008 C 
ENDBRANCH   3  10
ENDBRANCH   2   3
BRANCH   1  13
ATOM     13  C   UNL     1     137.505 135.679 121.748  1.00  0.00    -0.055 C 
ATOM     14  C   UNL     1     136.428 135.088 121.226  1.00  0.00     0.012 C 
BRANCH  13  15
ATOM     15  C   UNL     1     138.508 134.875 122.545  1.00  0.00     0.039 C 
BRANCH  15  16
ATOM     16  C   UNL     1     139.754 135.714 122.907  1.00  0.00     0.032 CG0
ATOM     17  G   UNL     1     140.114 135.712 124.372  1.00  0.00     0.000 G0
ENDBRANCH  15  16
ENDBRANCH  13  15
ENDBRANCH   1  13
TORSDOF 1
ENDMDL
MODEL 2
REMARK VINA RESULT:    -1.574     13.795     15.646
REMARK INTER + INTRA:           1.776
REMARK INTER:                   0.596
REMARK INTRA:                   1.179
REMARK UNBOUND:                 4.086
REMARK SMILES C=C1C=C[C@@H](C(C)C)CCC(C)=CCC1
REMARK SMILES IDX 3 1 4 2 5 3 9 4 10 5 11 6 12 7 13 8 6 10 7 11 8 12 2 13 1 14
REMARK SMILES IDX 15 15 14 16
REMARK H PARENT
REMARK Flexibility Score: 70.00
ROOT
ATOM      1  C   UNL     1     151.544 137.260 123.553  1.00  0.00    -0.001 C 
ATOM      2  C   UNL     1     151.876 138.050 122.521  1.00  0.00    -0.023 C 
ENDROOT
BRANCH   2   3
ATOM      3  C   UNL     1     152.779 137.620 121.380  1.00  0.00     0.014 C 
BRANCH   3   4
ATOM      4  C   UNL     1     154.199 138.258 121.498  1.00  0.00     0.012 C 
BRANCH   4   5
ATOM      5  C   UNL     1     155.122 137.724 122.626  1.00  0.00     0.031 C 
BRANCH   5   6
ATOM      6  C   UNL     1     154.841 138.300 124.006  1.00  0.00    -0.077 C 
ATOM      7  C   UNL     1     155.052 139.779 124.223  1.00  0.00     0.039 C 
ATOM      8  C   UNL     1     154.321 137.589 125.037  1.00  0.00    -0.028 CG0
ATOM      9  G   UNL     1     154.157 136.090 125.101  1.00  0.00     0.000 G0
ENDBRANCH   5   6
ENDBRANCH   4   5
ENDBRANCH   3   4
BRANCH   3  10
ATOM     10  C   UNL     1     152.105 137.961 120.013  1.00  0.00    -0.010 C 
ATOM     11  C   UNL     1     151.809 136.685 119.200  1.00  0.00     0.008 C 
ATOM     12  C   UNL     1     152.974 138.903 119.161  1.00  0.00     0.008 C 
ENDBRANCH   3  10
ENDBRANCH   2   3
BRANCH   1  13
ATOM     13  C   UNL     1     151.999 135.863 123.693  1.00  0.00    -0.055 C 
ATOM     14  C   UNL     1     151.093 134.884 123.753  1.00  0.00     0.012 C 
BRANCH  13  15
ATOM     15  C   UNL     1     153.475 135.544 123.770  1.00  0.00     0.039 C 
BRANCH  15  16
ATOM     16  C   UNL     1     154.113 136.102 125.061  1.00  0.00     0.032 CG0
ATOM     17  G   UNL     1     154.305 137.599 125.078  1.00  0.00     0.000 G0
ENDBRANCH  15  16
ENDBRANCH  13  15
ENDBRANCH   1  13
TORSDOF 1
ENDMDL
