MODEL 1
REMARK VINA RESULT:    -4.010      0.000      0.000
REMARK INTER + INTRA:          -4.592
REMARK INTER:                  -4.362
REMARK INTRA:                  -0.230
REMARK UNBOUND:                -0.230
REMARK SMILES O=C([O-])c1ccccc1O
REMARK SMILES IDX 4 1 9 2 5 3 8 4 6 5 7 6 2 7 1 8 3 9 10 10
REMARK H PARENT 10 11
REMARK Flexibility Score: inf
ROOT
ATOM      1  C   UNL     1     110.143 116.191 126.217  1.00  0.00     0.039 A 
ATOM      2  C   UNL     1     109.602 117.286 125.503  1.00  0.00     0.124 A 
ATOM      3  C   UNL     1     109.328 115.520 127.152  1.00  0.00     0.014 A 
ATOM      4  C   UNL     1     108.276 117.685 125.734  1.00  0.00     0.047 A 
ATOM      5  C   UNL     1     108.011 115.929 127.371  1.00  0.00     0.001 A 
ATOM      6  C   UNL     1     107.485 117.009 126.664  1.00  0.00     0.004 A 
ENDROOT
BRANCH   1   7
ATOM      7  C   UNL     1     111.541 115.734 126.004  1.00  0.00     0.075 C 
ATOM      8  O   UNL     1     111.901 115.290 124.882  1.00  0.00    -0.545 OA
ATOM      9  O   UNL     1     112.476 115.783 127.031  1.00  0.00    -0.545 OA
ENDBRANCH   1   7
BRANCH   2  10
ATOM     10  O   UNL     1     110.369 117.979 124.568  1.00  0.00    -0.507 OA
ATOM     11  H   UNL     1     109.966 118.343 123.712  1.00  0.00     0.293 HD
ENDBRANCH   2  10
TORSDOF 2
ENDMDL
MODEL 2
REMARK VINA RESULT:    -4.001      1.622      3.504
REMARK INTER + INTRA:          -4.582
REMARK INTER:                  -4.338
REMARK INTRA:                  -0.244
REMARK UNBOUND:                -0.230
REMARK SMILES O=C([O-])c1ccccc1O
REMARK SMILES IDX 4 1 9 2 5 3 8 4 6 5 7 6 2 7 1 8 3 9 10 10
REMARK H PARENT 10 11
REMARK Flexibility Score: inf
ROOT
ATOM      1  C   UNL     1     108.461 118.041 125.267  1.00  0.00     0.039 A 
ATOM      2  C   UNL     1     109.357 117.148 125.902  1.00  0.00     0.124 A 
ATOM      3  C   UNL     1     107.076 117.866 125.462  1.00  0.00     0.014 A 
ATOM      4  C   UNL     1     108.859 116.113 126.708  1.00  0.00     0.047 A 
ATOM      5  C   UNL     1     106.595 116.831 126.267  1.00  0.00     0.001 A 
ATOM      6  C   UNL     1     107.484 115.955 126.889  1.00  0.00     0.004 A 
ENDROOT
BRANCH   1   7
ATOM      7  C   UNL     1     108.944 119.152 124.406  1.00  0.00     0.075 C 
ATOM      8  O   UNL     1     109.945 119.834 124.750  1.00  0.00    -0.545 OA
ATOM      9  O   UNL     1     108.306 119.462 123.210  1.00  0.00    -0.545 OA
ENDBRANCH   1   7
BRANCH   2  10
ATOM     10  O   UNL     1     110.735 117.283 125.739  1.00  0.00    -0.507 OA
ATOM     11  H   UNL     1     111.391 116.700 126.246  1.00  0.00     0.293 HD
ENDBRANCH   2  10
TORSDOF 2
ENDMDL
MODEL 3
REMARK VINA RESULT:    -3.888      1.001      2.203
REMARK INTER + INTRA:          -4.458
REMARK INTER:                  -4.233
REMARK INTRA:                  -0.225
REMARK UNBOUND:                -0.230
REMARK SMILES O=C([O-])c1ccccc1O
REMARK SMILES IDX 4 1 9 2 5 3 8 4 6 5 7 6 2 7 1 8 3 9 10 10
REMARK H PARENT 10 11
REMARK Flexibility Score: inf
ROOT
ATOM      1  C   UNL     1     110.241 116.089 126.258  1.00  0.00     0.039 A 
ATOM      2  C   UNL     1     109.487 115.420 127.252  1.00  0.00     0.124 A 
ATOM      3  C   UNL     1     109.639 117.147 125.547  1.00  0.00     0.014 A 
ATOM      4  C   UNL     1     108.166 115.815 127.512  1.00  0.00     0.047 A 
ATOM      5  C   UNL     1     108.323 117.528 125.816  1.00  0.00     0.001 A 
ATOM      6  C   UNL     1     107.587 116.864 126.797  1.00  0.00     0.004 A 
ENDROOT
BRANCH   1   7
ATOM      7  C   UNL     1     111.643 115.705 125.951  1.00  0.00     0.075 C 
ATOM      8  O   UNL     1     111.954 115.300 124.799  1.00  0.00    -0.545 OA
ATOM      9  O   UNL     1     112.637 115.781 126.920  1.00  0.00    -0.545 OA
ENDBRANCH   1   7
BRANCH   2  10
ATOM     10  O   UNL     1     110.041 114.369 127.982  1.00  0.00    -0.507 OA
ATOM     11  H   UNL     1     109.603 114.017 128.826  1.00  0.00     0.293 HD
ENDBRANCH   2  10
TORSDOF 2
ENDMDL
MODEL 4
REMARK VINA RESULT:    -3.800      1.599      2.253
REMARK INTER + INTRA:          -4.363
REMARK INTER:                  -4.116
REMARK INTRA:                  -0.247
REMARK UNBOUND:                -0.230
REMARK SMILES O=C([O-])c1ccccc1O
REMARK SMILES IDX 4 1 9 2 5 3 8 4 6 5 7 6 2 7 1 8 3 9 10 10
REMARK H PARENT 10 11
REMARK Flexibility Score: inf
ROOT
ATOM      1  C   UNL     1     108.417 116.338 126.794  1.00  0.00     0.039 A 
ATOM      2  C   UNL     1     108.640 117.367 125.849  1.00  0.00     0.124 A 
ATOM      3  C   UNL     1     107.093 115.923 127.046  1.00  0.00     0.014 A 
ATOM      4  C   UNL     1     107.553 117.953 125.183  1.00  0.00     0.047 A 
ATOM      5  C   UNL     1     106.021 116.516 126.375  1.00  0.00     0.001 A 
ATOM      6  C   UNL     1     106.250 117.530 125.446  1.00  0.00     0.004 A 
ENDROOT
BRANCH   1   7
ATOM      7  C   UNL     1     109.538 115.688 127.522  1.00  0.00     0.075 C 
ATOM      8  O   UNL     1     109.406 115.361 128.731  1.00  0.00    -0.545 OA
ATOM      9  O   UNL     1     110.748 115.429 126.890  1.00  0.00    -0.545 OA
ENDBRANCH   1   7
BRANCH   2  10
ATOM     10  O   UNL     1     109.932 117.809 125.567  1.00  0.00    -0.507 OA
ATOM     11  H   UNL     1     110.287 117.848 124.618  1.00  0.00     0.293 HD
ENDBRANCH   2  10
TORSDOF 2
ENDMDL
MODEL 5
REMARK VINA RESULT:    -3.740      1.449      3.305
REMARK INTER + INTRA:          -4.298
REMARK INTER:                  -4.047
REMARK INTRA:                  -0.250
REMARK UNBOUND:                -0.230
REMARK SMILES O=C([O-])c1ccccc1O
REMARK SMILES IDX 4 1 9 2 5 3 8 4 6 5 7 6 2 7 1 8 3 9 10 10
REMARK H PARENT 10 11
REMARK Flexibility Score: inf
ROOT
ATOM      1  C   UNL     1     108.708 117.086 126.031  1.00  0.00     0.039 A 
ATOM      2  C   UNL     1     109.998 116.536 125.840  1.00  0.00     0.124 A 
ATOM      3  C   UNL     1     107.957 116.680 127.154  1.00  0.00     0.014 A 
ATOM      4  C   UNL     1     110.505 115.606 126.760  1.00  0.00     0.047 A 
ATOM      5  C   UNL     1     108.475 115.753 128.060  1.00  0.00     0.001 A 
ATOM      6  C   UNL     1     109.747 115.216 127.864  1.00  0.00     0.004 A 
ENDROOT
BRANCH   1   7
ATOM      7  C   UNL     1     108.131 118.074 125.084  1.00  0.00     0.075 C 
ATOM      8  O   UNL     1     106.913 118.020 124.772  1.00  0.00    -0.545 OA
ATOM      9  O   UNL     1     108.918 119.074 124.523  1.00  0.00    -0.545 OA
ENDBRANCH   1   7
BRANCH   2  10
ATOM     10  O   UNL     1     110.778 116.908 124.746  1.00  0.00    -0.507 OA
ATOM     11  H   UNL     1     110.801 116.356 123.895  1.00  0.00     0.293 HD
ENDBRANCH   2  10
TORSDOF 2
ENDMDL
MODEL 6
REMARK VINA RESULT:    -3.736      5.474      6.717
REMARK INTER + INTRA:          -4.293
REMARK INTER:                  -4.052
REMARK INTRA:                  -0.241
REMARK UNBOUND:                -0.230
REMARK SMILES O=C([O-])c1ccccc1O
REMARK SMILES IDX 4 1 9 2 5 3 8 4 6 5 7 6 2 7 1 8 3 9 10 10
REMARK H PARENT 10 11
REMARK Flexibility Score: inf
ROOT
ATOM      1  C   UNL     1     109.573 115.323 131.824  1.00  0.00     0.039 A 
ATOM      2  C   UNL     1     110.111 115.207 133.127  1.00  0.00     0.124 A 
ATOM      3  C   UNL     1     108.658 116.363 131.557  1.00  0.00     0.014 A 
ATOM      4  C   UNL     1     109.731 116.119 134.125  1.00  0.00     0.047 A 
ATOM      5  C   UNL     1     108.290 117.262 132.561  1.00  0.00     0.001 A 
ATOM      6  C   UNL     1     108.825 117.140 133.842  1.00  0.00     0.004 A 
ENDROOT
BRANCH   1   7
ATOM      7  C   UNL     1     109.947 114.382 130.737  1.00  0.00     0.075 C 
ATOM      8  O   UNL     1     111.149 114.268 130.380  1.00  0.00    -0.545 OA
ATOM      9  O   UNL     1     108.986 113.612 130.091  1.00  0.00    -0.545 OA
ENDBRANCH   1   7
BRANCH   2  10
ATOM     10  O   UNL     1     111.019 114.196 133.437  1.00  0.00    -0.507 OA
ATOM     11  H   UNL     1     110.747 113.219 133.448  1.00  0.00     0.293 HD
ENDBRANCH   2  10
TORSDOF 2
ENDMDL
MODEL 7
REMARK VINA RESULT:    -3.596      1.889      3.442
REMARK INTER + INTRA:          -4.141
REMARK INTER:                  -3.886
REMARK INTRA:                  -0.255
REMARK UNBOUND:                -0.230
REMARK SMILES O=C([O-])c1ccccc1O
REMARK SMILES IDX 4 1 9 2 5 3 8 4 6 5 7 6 2 7 1 8 3 9 10 10
REMARK H PARENT 10 11
REMARK Flexibility Score: inf
ROOT
ATOM      1  C   UNL     1     109.358 115.319 127.444  1.00  0.00     0.039 A 
ATOM      2  C   UNL     1     110.352 114.971 128.389  1.00  0.00     0.124 A 
ATOM      3  C   UNL     1     108.025 114.929 127.687  1.00  0.00     0.014 A 
ATOM      4  C   UNL     1     110.001 114.250 129.541  1.00  0.00     0.047 A 
ATOM      5  C   UNL     1     107.690 114.211 128.837  1.00  0.00     0.001 A 
ATOM      6  C   UNL     1     108.676 113.871 129.762  1.00  0.00     0.004 A 
ENDROOT
BRANCH   1   7
ATOM      7  C   UNL     1     109.684 116.083 126.212  1.00  0.00     0.075 C 
ATOM      8  O   UNL     1     108.976 117.066 125.867  1.00  0.00    -0.545 OA
ATOM      9  O   UNL     1     110.768 115.732 125.416  1.00  0.00    -0.545 OA
ENDBRANCH   1   7
BRANCH   2  10
ATOM     10  O   UNL     1     111.683 115.336 128.193  1.00  0.00    -0.507 OA
ATOM     11  H   UNL     1     111.938 116.254 127.845  1.00  0.00     0.293 HD
ENDBRANCH   2  10
TORSDOF 2
ENDMDL
MODEL 8
REMARK VINA RESULT:    -3.581      5.764      6.491
REMARK INTER + INTRA:          -4.125
REMARK INTER:                  -3.877
REMARK INTRA:                  -0.248
REMARK UNBOUND:                -0.230
REMARK SMILES O=C([O-])c1ccccc1O
REMARK SMILES IDX 4 1 9 2 5 3 8 4 6 5 7 6 2 7 1 8 3 9 10 10
REMARK H PARENT 10 11
REMARK Flexibility Score: inf
ROOT
ATOM      1  C   UNL     1     108.508 116.846 131.843  1.00  0.00     0.039 A 
ATOM      2  C   UNL     1     108.505 118.240 131.600  1.00  0.00     0.124 A 
ATOM      3  C   UNL     1     108.886 116.380 133.119  1.00  0.00     0.014 A 
ATOM      4  C   UNL     1     108.875 119.129 132.621  1.00  0.00     0.047 A 
ATOM      5  C   UNL     1     109.251 117.277 134.125  1.00  0.00     0.001 A 
ATOM      6  C   UNL     1     109.247 118.649 133.877  1.00  0.00     0.004 A 
ENDROOT
BRANCH   1   7
ATOM      7  C   UNL     1     108.123 115.868 130.792  1.00  0.00     0.075 C 
ATOM      8  O   UNL     1     107.458 114.842 131.091  1.00  0.00    -0.545 OA
ATOM      9  O   UNL     1     108.486 116.062 129.464  1.00  0.00    -0.545 OA
ENDBRANCH   1   7
BRANCH   2  10
ATOM     10  O   UNL     1     108.138 118.747 130.354  1.00  0.00    -0.507 OA
ATOM     11  H   UNL     1     108.607 118.460 129.502  1.00  0.00     0.293 HD
ENDBRANCH   2  10
TORSDOF 2
ENDMDL
MODEL 9
REMARK VINA RESULT:    -3.578      4.632      5.700
REMARK INTER + INTRA:          -4.122
REMARK INTER:                  -3.870
REMARK INTRA:                  -0.252
REMARK UNBOUND:                -0.230
REMARK SMILES O=C([O-])c1ccccc1O
REMARK SMILES IDX 4 1 9 2 5 3 8 4 6 5 7 6 2 7 1 8 3 9 10 10
REMARK H PARENT 10 11
REMARK Flexibility Score: inf
ROOT
ATOM      1  C   UNL     1     108.391 114.085 129.834  1.00  0.00     0.039 A 
ATOM      2  C   UNL     1     109.742 113.699 129.997  1.00  0.00     0.124 A 
ATOM      3  C   UNL     1     107.855 115.061 130.699  1.00  0.00     0.014 A 
ATOM      4  C   UNL     1     110.521 114.286 131.006  1.00  0.00     0.047 A 
ATOM      5  C   UNL     1     108.642 115.636 131.699  1.00  0.00     0.001 A 
ATOM      6  C   UNL     1     109.972 115.249 131.854  1.00  0.00     0.004 A 
ENDROOT
BRANCH   1   7
ATOM      7  C   UNL     1     107.530 113.492 128.778  1.00  0.00     0.075 C 
ATOM      8  O   UNL     1     106.402 113.014 129.071  1.00  0.00    -0.545 OA
ATOM      9  O   UNL     1     107.947 113.449 127.452  1.00  0.00    -0.545 OA
ENDBRANCH   1   7
BRANCH   2  10
ATOM     10  O   UNL     1     110.316 112.739 129.164  1.00  0.00    -0.507 OA
ATOM     11  H   UNL     1     111.061 112.972 128.517  1.00  0.00     0.293 HD
ENDBRANCH   2  10
TORSDOF 2
ENDMDL
