MODEL 1
REMARK VINA RESULT:    -5.754      0.000      0.000
REMARK INTER + INTRA:          -8.222
REMARK INTER:                  -7.100
REMARK INTRA:                  -1.122
REMARK UNBOUND:                -1.122
REMARK SMILES CC(C)=CCC[C@H](C)c1ccc(C)cc1
REMARK SMILES IDX 6 1 7 2 8 3 9 4 13 5 12 6 11 7 14 8 10 9 15 10 5 11 4 12
REMARK SMILES IDX 2 13 1 14 3 15
REMARK H PARENT
REMARK Flexibility Score: inf
ROOT
ATOM      1  C   UNL     1     -27.239  -2.437 -21.750  1.00  0.00     0.012 C 
ENDROOT
BRANCH   1   2
ATOM      2  C   UNL     1     -28.577  -2.813 -21.079  1.00  0.00     0.016 C 
ATOM      3  C   UNL     1     -29.738  -2.693 -22.075  1.00  0.00     0.013 C 
BRANCH   2   4
ATOM      4  C   UNL     1     -28.848  -1.976 -19.840  1.00  0.00    -0.045 A 
ATOM      5  C   UNL     1     -29.605   0.368 -16.292  1.00  0.00     0.044 C 
ATOM      6  C   UNL     1     -29.313  -0.440 -17.521  1.00  0.00    -0.051 A 
ATOM      7  C   UNL     1     -29.329   0.165 -18.786  1.00  0.00     0.004 A 
ATOM      8  C   UNL     1     -29.088  -1.821 -17.423  1.00  0.00     0.004 A 
ATOM      9  C   UNL     1     -29.092  -0.593 -19.935  1.00  0.00     0.004 A 
ATOM     10  C   UNL     1     -28.851  -2.581 -18.572  1.00  0.00     0.004 A 
ENDBRANCH   2   4
ENDBRANCH   1   2
BRANCH   1  11
ATOM     11  C   UNL     1     -26.065  -3.263 -21.202  1.00  0.00     0.028 C 
BRANCH  11  12
ATOM     12  C   UNL     1     -26.499  -4.678 -20.907  1.00  0.00    -0.028 C 
ATOM     13  C   UNL     1     -26.412  -5.267 -19.696  1.00  0.00    -0.080 C 
ATOM     14  C   UNL     1     -26.925  -6.676 -19.543  1.00  0.00     0.039 C 
ATOM     15  C   UNL     1     -25.804  -4.563 -18.504  1.00  0.00     0.039 C 
ENDBRANCH  11  12
ENDBRANCH   1  11
TORSDOF 4
ENDMDL
MODEL 2
REMARK VINA RESULT:    -5.705      2.002      3.173
REMARK INTER + INTRA:          -8.162
REMARK INTER:                  -6.942
REMARK INTRA:                  -1.220
REMARK UNBOUND:                -1.122
REMARK SMILES CC(C)=CCC[C@H](C)c1ccc(C)cc1
REMARK SMILES IDX 6 1 7 2 8 3 9 4 13 5 12 6 11 7 14 8 10 9 15 10 5 11 4 12
REMARK SMILES IDX 2 13 1 14 3 15
REMARK H PARENT
REMARK Flexibility Score: inf
ROOT
ATOM      1  C   UNL     1     -26.605  -2.565 -21.733  1.00  0.00     0.012 C 
ENDROOT
BRANCH   1   2
ATOM      2  C   UNL     1     -28.099  -2.282 -22.001  1.00  0.00     0.016 C 
ATOM      3  C   UNL     1     -28.410  -0.791 -21.821  1.00  0.00     0.013 C 
BRANCH   2   4
ATOM      4  C   UNL     1     -29.006  -3.127 -21.122  1.00  0.00    -0.045 A 
ATOM      5  C   UNL     1     -31.585  -5.496 -18.595  1.00  0.00     0.044 C 
ATOM      6  C   UNL     1     -30.714  -4.657 -19.481  1.00  0.00    -0.051 A 
ATOM      7  C   UNL     1     -30.474  -5.044 -20.807  1.00  0.00     0.004 A 
ATOM      8  C   UNL     1     -30.078  -3.516 -18.972  1.00  0.00     0.004 A 
ATOM      9  C   UNL     1     -29.634  -4.282 -21.624  1.00  0.00     0.004 A 
ATOM     10  C   UNL     1     -29.236  -2.754 -19.787  1.00  0.00     0.004 A 
ENDBRANCH   2   4
ENDBRANCH   1   2
BRANCH   1  11
ATOM     11  C   UNL     1     -26.361  -4.018 -21.297  1.00  0.00     0.028 C 
BRANCH  11  12
ATOM     12  C   UNL     1     -25.931  -4.077 -19.852  1.00  0.00    -0.028 C 
ATOM     13  C   UNL     1     -26.296  -5.046 -18.985  1.00  0.00    -0.080 C 
ATOM     14  C   UNL     1     -25.754  -4.994 -17.580  1.00  0.00     0.039 C 
ATOM     15  C   UNL     1     -27.239  -6.159 -19.379  1.00  0.00     0.039 C 
ENDBRANCH  11  12
ENDBRANCH   1  11
TORSDOF 4
ENDMDL
MODEL 3
REMARK VINA RESULT:    -5.597      1.355      2.479
REMARK INTER + INTRA:          -8.028
REMARK INTER:                  -6.533
REMARK INTRA:                  -1.496
REMARK UNBOUND:                -1.122
REMARK SMILES CC(C)=CCC[C@H](C)c1ccc(C)cc1
REMARK SMILES IDX 6 1 7 2 8 3 9 4 13 5 12 6 11 7 14 8 10 9 15 10 5 11 4 12
REMARK SMILES IDX 2 13 1 14 3 15
REMARK H PARENT
REMARK Flexibility Score: inf
ROOT
ATOM      1  C   UNL     1     -29.344  -5.856 -20.047  1.00  0.00     0.012 C 
ENDROOT
BRANCH   1   2
ATOM      2  C   UNL     1     -29.919  -4.600 -20.737  1.00  0.00     0.016 C 
ATOM      3  C   UNL     1     -29.294  -4.408 -22.125  1.00  0.00     0.013 C 
BRANCH   2   4
ATOM      4  C   UNL     1     -29.736  -3.351 -19.892  1.00  0.00    -0.045 A 
ATOM      5  C   UNL     1     -29.211   0.224 -17.526  1.00  0.00     0.044 C 
ATOM      6  C   UNL     1     -29.421  -1.008 -18.354  1.00  0.00    -0.051 A 
ATOM      7  C   UNL     1     -29.916  -2.180 -17.764  1.00  0.00     0.004 A 
ATOM      8  C   UNL     1     -29.062  -1.019 -19.709  1.00  0.00     0.004 A 
ATOM      9  C   UNL     1     -30.080  -3.340 -18.527  1.00  0.00     0.004 A 
ATOM     10  C   UNL     1     -29.224  -2.178 -20.473  1.00  0.00     0.004 A 
ENDBRANCH   2   4
ENDBRANCH   1   2
BRANCH   1  11
ATOM     11  C   UNL     1     -27.858  -6.066 -20.373  1.00  0.00     0.028 C 
BRANCH  11  12
ATOM     12  C   UNL     1     -26.989  -5.589 -19.236  1.00  0.00    -0.028 C 
ATOM     13  C   UNL     1     -26.132  -4.548 -19.313  1.00  0.00    -0.080 C 
ATOM     14  C   UNL     1     -25.358  -4.161 -18.080  1.00  0.00     0.039 C 
ATOM     15  C   UNL     1     -25.919  -3.780 -20.598  1.00  0.00     0.039 C 
ENDBRANCH  11  12
ENDBRANCH   1  11
TORSDOF 4
ENDMDL
MODEL 4
REMARK VINA RESULT:    -5.433     12.159     14.873
REMARK INTER + INTRA:          -7.826
REMARK INTER:                  -6.754
REMARK INTRA:                  -1.072
REMARK UNBOUND:                -1.122
REMARK SMILES CC(C)=CCC[C@H](C)c1ccc(C)cc1
REMARK SMILES IDX 6 1 7 2 8 3 9 4 13 5 12 6 11 7 14 8 10 9 15 10 5 11 4 12
REMARK SMILES IDX 2 13 1 14 3 15
REMARK H PARENT
REMARK Flexibility Score: inf
ROOT
ATOM      1  C   UNL     1     -27.161  -1.185  -5.564  1.00  0.00     0.012 C 
ENDROOT
BRANCH   1   2
ATOM      2  C   UNL     1     -26.902  -2.508  -6.316  1.00  0.00     0.016 C 
ATOM      3  C   UNL     1     -27.459  -2.440  -7.744  1.00  0.00     0.013 C 
BRANCH   2   4
ATOM      4  C   UNL     1     -27.473  -3.706  -5.576  1.00  0.00    -0.045 A 
ATOM      5  C   UNL     1     -29.056  -7.125  -3.464  1.00  0.00     0.044 C 
ATOM      6  C   UNL     1     -28.500  -5.924  -4.171  1.00  0.00    -0.051 A 
ATOM      7  C   UNL     1     -29.344  -4.866  -4.535  1.00  0.00     0.004 A 
ATOM      8  C   UNL     1     -27.146  -5.881  -4.533  1.00  0.00     0.004 A 
ATOM      9  C   UNL     1     -28.835  -3.762  -5.225  1.00  0.00     0.004 A 
ATOM     10  C   UNL     1     -26.636  -4.778  -5.224  1.00  0.00     0.004 A 
ENDBRANCH   2   4
ENDBRANCH   1   2
BRANCH   1  11
ATOM     11  C   UNL     1     -28.045  -0.223  -6.373  1.00  0.00     0.028 C 
BRANCH  11  12
ATOM     12  C   UNL     1     -29.338   0.053  -5.646  1.00  0.00    -0.028 C 
ATOM     13  C   UNL     1     -30.559  -0.304  -6.098  1.00  0.00    -0.080 C 
ATOM     14  C   UNL     1     -31.761   0.003  -5.241  1.00  0.00     0.039 C 
ATOM     15  C   UNL     1     -30.752  -0.982  -7.435  1.00  0.00     0.039 C 
ENDBRANCH  11  12
ENDBRANCH   1  11
TORSDOF 4
ENDMDL
MODEL 5
REMARK VINA RESULT:    -5.214     12.921     14.858
REMARK INTER + INTRA:          -7.556
REMARK INTER:                  -6.939
REMARK INTRA:                  -0.617
REMARK UNBOUND:                -1.122
REMARK SMILES CC(C)=CCC[C@H](C)c1ccc(C)cc1
REMARK SMILES IDX 6 1 7 2 8 3 9 4 13 5 12 6 11 7 14 8 10 9 15 10 5 11 4 12
REMARK SMILES IDX 2 13 1 14 3 15
REMARK H PARENT
REMARK Flexibility Score: inf
ROOT
ATOM      1  C   UNL     1     -27.913  -3.468  -4.632  1.00  0.00     0.012 C 
ENDROOT
BRANCH   1   2
ATOM      2  C   UNL     1     -28.225  -4.938  -4.277  1.00  0.00     0.016 C 
ATOM      3  C   UNL     1     -27.089  -5.861  -4.736  1.00  0.00     0.013 C 
BRANCH   2   4
ATOM      4  C   UNL     1     -29.552  -5.395  -4.858  1.00  0.00    -0.045 A 
ATOM      5  C   UNL     1     -33.311  -6.737  -6.509  1.00  0.00     0.044 C 
ATOM      6  C   UNL     1     -32.015  -6.281  -5.908  1.00  0.00    -0.051 A 
ATOM      7  C   UNL     1     -31.893  -4.985  -5.389  1.00  0.00     0.004 A 
ATOM      8  C   UNL     1     -30.894  -7.124  -5.922  1.00  0.00     0.004 A 
ATOM      9  C   UNL     1     -30.676  -4.546  -4.861  1.00  0.00     0.004 A 
ATOM     10  C   UNL     1     -29.675  -6.687  -5.396  1.00  0.00     0.004 A 
ENDBRANCH   2   4
ENDBRANCH   1   2
BRANCH   1  11
ATOM     11  C   UNL     1     -27.143  -3.343  -5.955  1.00  0.00     0.028 C 
BRANCH  11  12
ATOM     12  C   UNL     1     -27.510  -2.064  -6.667  1.00  0.00    -0.028 C 
ATOM     13  C   UNL     1     -26.924  -0.869  -6.440  1.00  0.00    -0.080 C 
ATOM     14  C   UNL     1     -27.368   0.316  -7.259  1.00  0.00     0.039 C 
ATOM     15  C   UNL     1     -25.858  -0.686  -5.384  1.00  0.00     0.039 C 
ENDBRANCH  11  12
ENDBRANCH   1  11
TORSDOF 4
ENDMDL
MODEL 6
REMARK VINA RESULT:    -5.206     13.022     14.904
REMARK INTER + INTRA:          -7.546
REMARK INTER:                  -6.920
REMARK INTRA:                  -0.626
REMARK UNBOUND:                -1.122
REMARK SMILES CC(C)=CCC[C@H](C)c1ccc(C)cc1
REMARK SMILES IDX 6 1 7 2 8 3 9 4 13 5 12 6 11 7 14 8 10 9 15 10 5 11 4 12
REMARK SMILES IDX 2 13 1 14 3 15
REMARK H PARENT
REMARK Flexibility Score: inf
ROOT
ATOM      1  C   UNL     1     -27.950  -3.480  -4.623  1.00  0.00     0.012 C 
ENDROOT
BRANCH   1   2
ATOM      2  C   UNL     1     -28.238  -4.957  -4.279  1.00  0.00     0.016 C 
ATOM      3  C   UNL     1     -27.087  -5.859  -4.744  1.00  0.00     0.013 C 
BRANCH   2   4
ATOM      4  C   UNL     1     -29.558  -5.431  -4.863  1.00  0.00    -0.045 A 
ATOM      5  C   UNL     1     -33.326  -6.738  -6.521  1.00  0.00     0.044 C 
ATOM      6  C   UNL     1     -32.009  -6.273  -5.972  1.00  0.00    -0.051 A 
ATOM      7  C   UNL     1     -30.896  -7.125  -5.990  1.00  0.00     0.004 A 
ATOM      8  C   UNL     1     -31.899  -5.009  -5.376  1.00  0.00     0.004 A 
ATOM      9  C   UNL     1     -29.678  -6.707  -5.447  1.00  0.00     0.004 A 
ATOM     10  C   UNL     1     -30.682  -4.589  -4.832  1.00  0.00     0.004 A 
ENDBRANCH   2   4
ENDBRANCH   1   2
BRANCH   1  11
ATOM     11  C   UNL     1     -27.166  -3.334  -5.936  1.00  0.00     0.028 C 
BRANCH  11  12
ATOM     12  C   UNL     1     -27.495  -2.026  -6.612  1.00  0.00    -0.028 C 
ATOM     13  C   UNL     1     -26.858  -0.860  -6.372  1.00  0.00    -0.080 C 
ATOM     14  C   UNL     1     -27.271   0.360  -7.155  1.00  0.00     0.039 C 
ATOM     15  C   UNL     1     -25.765  -0.744  -5.335  1.00  0.00     0.039 C 
ENDBRANCH  11  12
ENDBRANCH   1  11
TORSDOF 4
ENDMDL
MODEL 7
REMARK VINA RESULT:    -5.180     12.639     14.625
REMARK INTER + INTRA:          -7.514
REMARK INTER:                  -6.812
REMARK INTRA:                  -0.702
REMARK UNBOUND:                -1.122
REMARK SMILES CC(C)=CCC[C@H](C)c1ccc(C)cc1
REMARK SMILES IDX 6 1 7 2 8 3 9 4 13 5 12 6 11 7 14 8 10 9 15 10 5 11 4 12
REMARK SMILES IDX 2 13 1 14 3 15
REMARK H PARENT
REMARK Flexibility Score: inf
ROOT
ATOM      1  C   UNL     1     -26.887  -3.361  -5.976  1.00  0.00     0.012 C 
ENDROOT
BRANCH   1   2
ATOM      2  C   UNL     1     -27.442  -4.358  -4.936  1.00  0.00     0.016 C 
ATOM      3  C   UNL     1     -26.556  -5.608  -4.854  1.00  0.00     0.013 C 
BRANCH   2   4
ATOM      4  C   UNL     1     -28.882  -4.742  -5.226  1.00  0.00    -0.045 A 
ATOM      5  C   UNL     1     -32.972  -5.874  -6.032  1.00  0.00     0.044 C 
ATOM      6  C   UNL     1     -31.559  -5.476  -5.723  1.00  0.00    -0.051 A 
ATOM      7  C   UNL     1     -31.148  -4.145  -5.889  1.00  0.00     0.004 A 
ATOM      8  C   UNL     1     -30.622  -6.442  -5.332  1.00  0.00     0.004 A 
ATOM      9  C   UNL     1     -29.824  -3.779  -5.636  1.00  0.00     0.004 A 
ATOM     10  C   UNL     1     -29.296  -6.078  -5.079  1.00  0.00     0.004 A 
ENDBRANCH   2   4
ENDBRANCH   1   2
BRANCH   1  11
ATOM     11  C   UNL     1     -26.759  -1.941  -5.405  1.00  0.00     0.028 C 
BRANCH  11  12
ATOM     12  C   UNL     1     -26.765  -0.918  -6.513  1.00  0.00    -0.028 C 
ATOM     13  C   UNL     1     -27.704   0.041  -6.663  1.00  0.00    -0.080 C 
ATOM     14  C   UNL     1     -27.556   1.021  -7.798  1.00  0.00     0.039 C 
ATOM     15  C   UNL     1     -28.898   0.143  -5.742  1.00  0.00     0.039 C 
ENDBRANCH  11  12
ENDBRANCH   1  11
TORSDOF 4
ENDMDL
MODEL 8
REMARK VINA RESULT:    -5.138     10.775     13.519
REMARK INTER + INTRA:          -7.462
REMARK INTER:                  -6.873
REMARK INTRA:                  -0.589
REMARK UNBOUND:                -1.122
REMARK SMILES CC(C)=CCC[C@H](C)c1ccc(C)cc1
REMARK SMILES IDX 6 1 7 2 8 3 9 4 13 5 12 6 11 7 14 8 10 9 15 10 5 11 4 12
REMARK SMILES IDX 2 13 1 14 3 15
REMARK H PARENT
REMARK Flexibility Score: inf
ROOT
ATOM      1  C   UNL     1     -27.716  -2.298  -4.857  1.00  0.00     0.012 C 
ENDROOT
BRANCH   1   2
ATOM      2  C   UNL     1     -26.808  -1.690  -5.948  1.00  0.00     0.016 C 
ATOM      3  C   UNL     1     -25.752  -0.768  -5.325  1.00  0.00     0.013 C 
BRANCH   2   4
ATOM      4  C   UNL     1     -27.606  -0.950  -7.007  1.00  0.00    -0.045 A 
ATOM      5  C   UNL     1     -29.892   1.118 -10.032  1.00  0.00     0.044 C 
ATOM      6  C   UNL     1     -29.124   0.398  -8.965  1.00  0.00    -0.051 A 
ATOM      7  C   UNL     1     -28.476   1.119  -7.952  1.00  0.00     0.004 A 
ATOM      8  C   UNL     1     -28.990  -0.997  -9.009  1.00  0.00     0.004 A 
ATOM      9  C   UNL     1     -27.729   0.452  -6.977  1.00  0.00     0.004 A 
ATOM     10  C   UNL     1     -28.243  -1.666  -8.035  1.00  0.00     0.004 A 
ENDBRANCH   2   4
ENDBRANCH   1   2
BRANCH   1  11
ATOM     11  C   UNL     1     -28.153  -3.730  -5.200  1.00  0.00     0.028 C 
BRANCH  11  12
ATOM     12  C   UNL     1     -26.961  -4.653  -5.254  1.00  0.00    -0.028 C 
ATOM     13  C   UNL     1     -26.929  -5.893  -4.719  1.00  0.00    -0.080 C 
ATOM     14  C   UNL     1     -25.679  -6.717  -4.888  1.00  0.00     0.039 C 
ATOM     15  C   UNL     1     -28.098  -6.462  -3.948  1.00  0.00     0.039 C 
ENDBRANCH  11  12
ENDBRANCH   1  11
TORSDOF 4
ENDMDL
MODEL 9
REMARK VINA RESULT:    -5.018     12.592     14.346
REMARK INTER + INTRA:          -7.314
REMARK INTER:                  -6.196
REMARK INTRA:                  -1.118
REMARK UNBOUND:                -1.122
REMARK SMILES CC(C)=CCC[C@H](C)c1ccc(C)cc1
REMARK SMILES IDX 6 1 7 2 8 3 9 4 13 5 12 6 11 7 14 8 10 9 15 10 5 11 4 12
REMARK SMILES IDX 2 13 1 14 3 15
REMARK H PARENT
REMARK Flexibility Score: inf
ROOT
ATOM      1  C   UNL     1     -28.866  -5.834  -4.118  1.00  0.00     0.012 C 
ENDROOT
BRANCH   1   2
ATOM      2  C   UNL     1     -27.850  -5.460  -5.218  1.00  0.00     0.016 C 
ATOM      3  C   UNL     1     -26.422  -5.817  -4.784  1.00  0.00     0.013 C 
BRANCH   2   4
ATOM      4  C   UNL     1     -27.940  -3.993  -5.602  1.00  0.00    -0.045 A 
ATOM      5  C   UNL     1     -28.154   0.177  -6.707  1.00  0.00     0.044 C 
ATOM      6  C   UNL     1     -28.081  -1.278  -6.353  1.00  0.00    -0.051 A 
ATOM      7  C   UNL     1     -29.254  -2.002  -6.092  1.00  0.00     0.004 A 
ATOM      8  C   UNL     1     -26.837  -1.911  -6.214  1.00  0.00     0.004 A 
ATOM      9  C   UNL     1     -29.186  -3.349  -5.727  1.00  0.00     0.004 A 
ATOM     10  C   UNL     1     -26.767  -3.258  -5.848  1.00  0.00     0.004 A 
ENDBRANCH   2   4
ENDBRANCH   1   2
BRANCH   1  11
ATOM     11  C   UNL     1     -29.770  -7.003  -4.538  1.00  0.00     0.028 C 
BRANCH  11  12
ATOM     12  C   UNL     1     -29.961  -7.019  -6.035  1.00  0.00    -0.028 C 
ATOM     13  C   UNL     1     -31.009  -6.460  -6.677  1.00  0.00    -0.080 C 
ATOM     14  C   UNL     1     -31.044  -6.519  -8.183  1.00  0.00     0.039 C 
ATOM     15  C   UNL     1     -32.145  -5.799  -5.931  1.00  0.00     0.039 C 
ENDBRANCH  11  12
ENDBRANCH   1  11
TORSDOF 4
ENDMDL
