MODEL 1
REMARK VINA RESULT:    -3.938      0.000      0.000
REMARK INTER + INTRA:          -5.241
REMARK INTER:                  -5.319
REMARK INTRA:                   0.078
REMARK UNBOUND:                 0.078
REMARK SMILES C=C1C(=O)O[C@H]2[C@@H]1CCC(C)=CCC[C@@]1(C)O[C@@H]21
REMARK SMILES IDX 6 1 7 2 2 3 1 4 3 5 4 6 5 7 8 8 9 9 10 10 11 11 12 12 18 14
REMARK SMILES IDX 15 15 17 16 16 17 14 18 13 19
REMARK H PARENT
REMARK Flexibility Score: 70.00
ROOT
ATOM      1  C   UNL     1       8.801  -7.438  -9.238  1.00  0.00     0.216 C 
ATOM      2  C   UNL     1       8.072  -7.898  -7.928  1.00  0.00     0.070 C 
ATOM      3  C   UNL     1       8.880  -7.113  -6.924  1.00  0.00     0.037 C 
ATOM      4  C   UNL     1       9.001  -7.382  -5.625  1.00  0.00     0.021 C 
ATOM      5  C   UNL     1       9.452  -5.976  -7.620  1.00  0.00     0.334 C 
ATOM      6  O   UNL     1      10.018  -4.989  -7.083  1.00  0.00    -0.247 OA
ATOM      7  O   UNL     1       9.274  -6.118  -8.980  1.00  0.00    -0.455 OA
ENDROOT
BRANCH   2   8
ATOM      8  C   UNL     1       6.601  -7.440  -7.751  1.00  0.00     0.017 C 
BRANCH   8   9
ATOM      9  C   UNL     1       5.566  -8.543  -7.507  1.00  0.00     0.031 C 
BRANCH   9  10
ATOM     10  C   UNL     1       6.094  -9.956  -7.385  1.00  0.00    -0.077 C 
ATOM     11  C   UNL     1       6.471 -10.471  -6.018  1.00  0.00     0.039 C 
ATOM     12  C   UNL     1       6.073 -10.842  -8.406  1.00  0.00    -0.028 CG0
ATOM     13  G   UNL     1       6.024 -10.492  -9.880  1.00  0.00     0.000 G0
ENDBRANCH   9  10
ENDBRANCH   8   9
ENDBRANCH   2   8
BRANCH   1  14
ATOM     14  C   UNL     1       8.259  -7.687 -10.669  1.00  0.00     0.192 C 
ATOM     15  C   UNL     1       7.456  -8.825 -11.228  1.00  0.00     0.096 C 
ATOM     16  O   UNL     1       6.844  -7.764 -10.555  1.00  0.00    -0.362 OA
ATOM     17  C   UNL     1       7.108  -8.781 -12.724  1.00  0.00     0.045 C 
BRANCH  15  18
ATOM     18  C   UNL     1       7.422 -10.176 -10.496  1.00  0.00     0.042 C 
BRANCH  18  19
ATOM     19  C   UNL     1       6.023 -10.507  -9.891  1.00  0.00     0.030 CG0
ATOM     20  G   UNL     1       6.066 -10.847  -8.415  1.00  0.00     0.000 G0
ENDBRANCH  18  19
ENDBRANCH  15  18
ENDBRANCH   1  14
TORSDOF 0
ENDMDL
MODEL 2
REMARK VINA RESULT:    -3.812      2.946      4.993
REMARK INTER + INTRA:          -5.070
REMARK INTER:                  -5.278
REMARK INTRA:                   0.207
REMARK UNBOUND:                 0.078
REMARK SMILES C=C1C(=O)O[C@H]2[C@@H]1CCC(C)=CCC[C@@]1(C)O[C@@H]21
REMARK SMILES IDX 6 1 7 2 2 3 1 4 3 5 4 6 5 7 8 8 9 9 10 10 11 11 12 12 18 14
REMARK SMILES IDX 15 15 17 16 16 17 14 18 13 19
REMARK H PARENT
REMARK Flexibility Score: 70.00
ROOT
ATOM      1  C   UNL     1       6.136  -9.153 -13.337  1.00  0.00     0.216 C 
ATOM      2  C   UNL     1       6.575 -10.481 -12.630  1.00  0.00     0.070 C 
ATOM      3  C   UNL     1       7.758 -10.828 -13.501  1.00  0.00     0.037 C 
ATOM      4  C   UNL     1       8.300 -12.036 -13.651  1.00  0.00     0.021 C 
ATOM      5  C   UNL     1       8.234  -9.596 -14.098  1.00  0.00     0.334 C 
ATOM      6  O   UNL     1       9.317  -9.447 -14.722  1.00  0.00    -0.247 OA
ATOM      7  O   UNL     1       7.327  -8.582 -13.873  1.00  0.00    -0.455 OA
ENDROOT
BRANCH   2   8
ATOM      8  C   UNL     1       7.126 -10.354 -11.186  1.00  0.00     0.017 C 
BRANCH   8   9
ATOM      9  C   UNL     1       6.089 -10.343 -10.058  1.00  0.00     0.031 C 
BRANCH   9  10
ATOM     10  C   UNL     1       6.544  -9.802  -8.721  1.00  0.00    -0.077 C 
ATOM     11  C   UNL     1       7.050 -10.773  -7.683  1.00  0.00     0.039 C 
ATOM     12  C   UNL     1       6.696  -8.482  -8.472  1.00  0.00    -0.028 CG0
ATOM     13  G   UNL     1       6.003  -7.357  -9.214  1.00  0.00     0.000 G0
ENDBRANCH   9  10
ENDBRANCH   8   9
ENDBRANCH   2   8
BRANCH   1  14
ATOM     14  C   UNL     1       5.119  -8.144 -12.742  1.00  0.00     0.192 C 
ATOM     15  C   UNL     1       5.286  -7.099 -11.678  1.00  0.00     0.096 C 
ATOM     16  O   UNL     1       5.639  -6.848 -13.007  1.00  0.00    -0.362 OA
ATOM     17  C   UNL     1       4.048  -6.278 -11.290  1.00  0.00     0.045 C 
BRANCH  15  18
ATOM     18  C   UNL     1       6.461  -7.185 -10.691  1.00  0.00     0.042 C 
BRANCH  18  19
ATOM     19  C   UNL     1       6.001  -7.344  -9.209  1.00  0.00     0.030 CG0
ATOM     20  G   UNL     1       6.696  -8.475  -8.477  1.00  0.00     0.000 G0
ENDBRANCH  18  19
ENDBRANCH  15  18
ENDBRANCH   1  14
TORSDOF 0
ENDMDL
MODEL 3
REMARK VINA RESULT:    -3.665      2.343      3.442
REMARK INTER + INTRA:          -4.872
REMARK INTER:                  -5.014
REMARK INTRA:                   0.142
REMARK UNBOUND:                 0.078
REMARK SMILES C=C1C(=O)O[C@H]2[C@@H]1CCC(C)=CCC[C@@]1(C)O[C@@H]21
REMARK SMILES IDX 6 1 7 2 2 3 1 4 3 5 4 6 5 7 8 8 9 9 10 10 11 11 12 12 18 14
REMARK SMILES IDX 15 15 17 16 16 17 14 18 13 19
REMARK H PARENT
REMARK Flexibility Score: 70.00
ROOT
ATOM      1  C   UNL     1       6.778  -6.553  -7.537  1.00  0.00     0.216 C 
ATOM      2  C   UNL     1       7.135  -8.006  -8.006  1.00  0.00     0.070 C 
ATOM      3  C   UNL     1       8.350  -8.238  -7.142  1.00  0.00     0.037 C 
ATOM      4  C   UNL     1       9.320  -9.123  -7.366  1.00  0.00     0.021 C 
ATOM      5  C   UNL     1       8.239  -7.363  -5.991  1.00  0.00     0.334 C 
ATOM      6  O   UNL     1       8.951  -7.410  -4.955  1.00  0.00    -0.247 OA
ATOM      7  O   UNL     1       7.213  -6.461  -6.182  1.00  0.00    -0.455 OA
ENDROOT
BRANCH   2   8
ATOM      8  C   UNL     1       6.125  -9.125  -7.639  1.00  0.00     0.017 C 
BRANCH   8   9
ATOM      9  C   UNL     1       5.814 -10.150  -8.734  1.00  0.00     0.031 C 
BRANCH   9  10
ATOM     10  C   UNL     1       6.266  -9.805 -10.136  1.00  0.00    -0.077 C 
ATOM     11  C   UNL     1       7.485 -10.498 -10.693  1.00  0.00     0.039 C 
ATOM     12  C   UNL     1       5.532  -9.049 -10.983  1.00  0.00    -0.028 CG0
ATOM     13  G   UNL     1       4.472  -8.044 -10.579  1.00  0.00     0.000 G0
ENDBRANCH   9  10
ENDBRANCH   8   9
ENDBRANCH   2   8
BRANCH   1  14
ATOM     14  C   UNL     1       5.442  -5.836  -7.860  1.00  0.00     0.192 C 
ATOM     15  C   UNL     1       4.513  -5.978  -9.030  1.00  0.00     0.096 C 
ATOM     16  O   UNL     1       4.451  -6.853  -7.942  1.00  0.00    -0.362 OA
ATOM     17  C   UNL     1       3.270  -5.077  -9.063  1.00  0.00     0.045 C 
BRANCH  15  18
ATOM     18  C   UNL     1       5.018  -6.596 -10.344  1.00  0.00     0.042 C 
BRANCH  18  19
ATOM     19  C   UNL     1       4.458  -8.029 -10.599  1.00  0.00     0.030 CG0
ATOM     20  G   UNL     1       5.522  -9.036 -10.986  1.00  0.00     0.000 G0
ENDBRANCH  18  19
ENDBRANCH  15  18
ENDBRANCH   1  14
TORSDOF 0
ENDMDL
MODEL 4
REMARK VINA RESULT:    -3.646      1.663      3.539
REMARK INTER + INTRA:          -4.847
REMARK INTER:                  -4.980
REMARK INTRA:                   0.133
REMARK UNBOUND:                 0.078
REMARK SMILES C=C1C(=O)O[C@H]2[C@@H]1CCC(C)=CCC[C@@]1(C)O[C@@H]21
REMARK SMILES IDX 6 1 7 2 2 3 1 4 3 5 4 6 5 7 8 8 9 9 10 10 11 11 12 12 18 14
REMARK SMILES IDX 15 15 17 16 16 17 14 18 13 19
REMARK H PARENT
REMARK Flexibility Score: 70.00
ROOT
ATOM      1  C   UNL     1       7.838  -7.859  -6.640  1.00  0.00     0.216 C 
ATOM      2  C   UNL     1       7.578  -7.379  -8.109  1.00  0.00     0.070 C 
ATOM      3  C   UNL     1       8.207  -6.010  -8.023  1.00  0.00     0.037 C 
ATOM      4  C   UNL     1       7.957  -4.974  -8.821  1.00  0.00     0.021 C 
ATOM      5  C   UNL     1       9.180  -6.047  -6.948  1.00  0.00     0.334 C 
ATOM      6  O   UNL     1      10.043  -5.165  -6.701  1.00  0.00    -0.247 OA
ATOM      7  O   UNL     1       9.039  -7.212  -6.224  1.00  0.00    -0.455 OA
ENDROOT
BRANCH   2   8
ATOM      8  C   UNL     1       8.336  -8.131  -9.234  1.00  0.00     0.017 C 
BRANCH   8   9
ATOM      9  C   UNL     1       7.474  -8.878 -10.257  1.00  0.00     0.031 C 
BRANCH   9  10
ATOM     10  C   UNL     1       5.994  -8.564 -10.258  1.00  0.00    -0.077 C 
ATOM     11  C   UNL     1       5.511  -7.361 -11.031  1.00  0.00     0.039 C 
ATOM     12  C   UNL     1       5.061  -9.405  -9.760  1.00  0.00    -0.028 CG0
ATOM     13  G   UNL     1       5.304 -10.479  -8.718  1.00  0.00     0.000 G0
ENDBRANCH   9  10
ENDBRANCH   8   9
ENDBRANCH   2   8
BRANCH   1  14
ATOM     14  C   UNL     1       7.665  -9.322  -6.158  1.00  0.00     0.192 C 
ATOM     15  C   UNL     1       6.680 -10.378  -6.568  1.00  0.00     0.096 C 
ATOM     16  O   UNL     1       7.846 -10.146  -7.303  1.00  0.00    -0.362 OA
ATOM     17  C   UNL     1       6.760 -11.737  -5.856  1.00  0.00     0.045 C 
BRANCH  15  18
ATOM     18  C   UNL     1       5.371  -9.980  -7.266  1.00  0.00     0.042 C 
BRANCH  18  19
ATOM     19  C   UNL     1       5.279 -10.500  -8.734  1.00  0.00     0.030 CG0
ATOM     20  G   UNL     1       5.072  -9.400  -9.755  1.00  0.00     0.000 G0
ENDBRANCH  18  19
ENDBRANCH  15  18
ENDBRANCH   1  14
TORSDOF 0
ENDMDL
MODEL 5
REMARK VINA RESULT:    -3.573     10.829     12.751
REMARK INTER + INTRA:          -4.748
REMARK INTER:                  -5.289
REMARK INTRA:                   0.541
REMARK UNBOUND:                 0.078
REMARK SMILES C=C1C(=O)O[C@H]2[C@@H]1CCC(C)=CCC[C@@]1(C)O[C@@H]21
REMARK SMILES IDX 6 1 7 2 2 3 1 4 3 5 4 6 5 7 8 8 9 9 10 10 11 11 12 12 18 14
REMARK SMILES IDX 15 15 17 16 16 17 14 18 13 19
REMARK H PARENT
REMARK Flexibility Score: 70.00
ROOT
ATOM      1  C   UNL     1       6.993 -21.193  -8.941  1.00  0.00     0.216 C 
ATOM      2  C   UNL     1       7.137 -20.228 -10.168  1.00  0.00     0.070 C 
ATOM      3  C   UNL     1       6.010 -20.761 -11.017  1.00  0.00     0.037 C 
ATOM      4  C   UNL     1       5.878 -20.619 -12.335  1.00  0.00     0.021 C 
ATOM      5  C   UNL     1       5.063 -21.406 -10.127  1.00  0.00     0.334 C 
ATOM      6  O   UNL     1       3.905 -21.793 -10.433  1.00  0.00    -0.247 OA
ATOM      7  O   UNL     1       5.610 -21.529  -8.867  1.00  0.00    -0.455 OA
ENDROOT
BRANCH   2   8
ATOM      8  C   UNL     1       6.819 -18.731  -9.920  1.00  0.00     0.017 C 
BRANCH   8   9
ATOM      9  C   UNL     1       6.508 -18.329  -8.475  1.00  0.00     0.031 C 
BRANCH   9  10
ATOM     10  C   UNL     1       5.047 -18.199  -8.104  1.00  0.00    -0.077 C 
ATOM     11  C   UNL     1       4.119 -17.491  -9.060  1.00  0.00     0.039 C 
ATOM     12  C   UNL     1       4.493 -18.843  -7.053  1.00  0.00    -0.028 CG0
ATOM     13  G   UNL     1       5.237 -19.346  -5.832  1.00  0.00     0.000 G0
ENDBRANCH   9  10
ENDBRANCH   8   9
ENDBRANCH   2   8
BRANCH   1  14
ATOM     14  C   UNL     1       7.704 -20.982  -7.579  1.00  0.00     0.192 C 
ATOM     15  C   UNL     1       7.165 -21.014  -6.178  1.00  0.00     0.096 C 
ATOM     16  O   UNL     1       7.531 -22.187  -6.845  1.00  0.00    -0.362 OA
ATOM     17  C   UNL     1       8.147 -20.722  -5.034  1.00  0.00     0.045 C 
BRANCH  15  18
ATOM     18  C   UNL     1       5.659 -20.842  -5.928  1.00  0.00     0.042 C 
BRANCH  18  19
ATOM     19  C   UNL     1       5.224 -19.347  -5.828  1.00  0.00     0.030 CG0
ATOM     20  G   UNL     1       4.500 -18.843  -7.060  1.00  0.00     0.000 G0
ENDBRANCH  18  19
ENDBRANCH  15  18
ENDBRANCH   1  14
TORSDOF 0
ENDMDL
MODEL 6
REMARK VINA RESULT:    -3.547     10.118     12.537
REMARK INTER + INTRA:          -4.713
REMARK INTER:                  -4.851
REMARK INTRA:                   0.138
REMARK UNBOUND:                 0.078
REMARK SMILES C=C1C(=O)O[C@H]2[C@@H]1CCC(C)=CCC[C@@]1(C)O[C@@H]21
REMARK SMILES IDX 6 1 7 2 2 3 1 4 3 5 4 6 5 7 8 8 9 9 10 10 11 11 12 12 18 14
REMARK SMILES IDX 15 15 17 16 16 17 14 18 13 19
REMARK H PARENT
REMARK Flexibility Score: 70.00
ROOT
ATOM      1  C   UNL     1       6.027 -19.241  -9.974  1.00  0.00     0.216 C 
ATOM      2  C   UNL     1       5.469 -20.623  -9.487  1.00  0.00     0.070 C 
ATOM      3  C   UNL     1       5.242 -21.270 -10.831  1.00  0.00     0.037 C 
ATOM      4  C   UNL     1       4.420 -22.286 -11.089  1.00  0.00     0.021 C 
ATOM      5  C   UNL     1       6.127 -20.623 -11.780  1.00  0.00     0.334 C 
ATOM      6  O   UNL     1       6.371 -21.015 -12.950  1.00  0.00    -0.247 OA
ATOM      7  O   UNL     1       6.690 -19.500 -11.209  1.00  0.00    -0.455 OA
ENDROOT
BRANCH   2   8
ATOM      8  C   UNL     1       6.458 -21.545  -8.726  1.00  0.00     0.017 C 
BRANCH   8   9
ATOM      9  C   UNL     1       6.089 -21.898  -7.282  1.00  0.00     0.031 C 
BRANCH   9  10
ATOM     10  C   UNL     1       4.684 -21.557  -6.835  1.00  0.00    -0.077 C 
ATOM     11  C   UNL     1       3.572 -22.530  -7.140  1.00  0.00     0.039 C 
ATOM     12  C   UNL     1       4.402 -20.517  -6.018  1.00  0.00    -0.028 CG0
ATOM     13  G   UNL     1       5.260 -19.282  -5.830  1.00  0.00     0.000 G0
ENDBRANCH   9  10
ENDBRANCH   8   9
ENDBRANCH   2   8
BRANCH   1  14
ATOM     14  C   UNL     1       6.716 -18.205  -9.049  1.00  0.00     0.192 C 
ATOM     15  C   UNL     1       6.465 -17.856  -7.611  1.00  0.00     0.096 C 
ATOM     16  O   UNL     1       7.272 -18.940  -7.967  1.00  0.00    -0.362 OA
ATOM     17  C   UNL     1       7.316 -16.736  -6.994  1.00  0.00     0.045 C 
BRANCH  15  18
ATOM     18  C   UNL     1       5.125 -18.220  -6.953  1.00  0.00     0.042 C 
BRANCH  18  19
ATOM     19  C   UNL     1       5.272 -19.276  -5.815  1.00  0.00     0.030 CG0
ATOM     20  G   UNL     1       4.407 -20.505  -6.012  1.00  0.00     0.000 G0
ENDBRANCH  18  19
ENDBRANCH  15  18
ENDBRANCH   1  14
TORSDOF 0
ENDMDL
MODEL 7
REMARK VINA RESULT:    -3.474      2.809      4.847
REMARK INTER + INTRA:          -4.615
REMARK INTER:                  -4.812
REMARK INTRA:                   0.197
REMARK UNBOUND:                 0.078
REMARK SMILES C=C1C(=O)O[C@H]2[C@@H]1CCC(C)=CCC[C@@]1(C)O[C@@H]21
REMARK SMILES IDX 6 1 7 2 2 3 1 4 3 5 4 6 5 7 8 8 9 9 10 10 11 11 12 12 18 14
REMARK SMILES IDX 15 15 17 16 16 17 14 18 13 19
REMARK H PARENT
REMARK Flexibility Score: 70.00
ROOT
ATOM      1  C   UNL     1       8.234  -8.693  -7.369  1.00  0.00     0.216 C 
ATOM      2  C   UNL     1       6.863  -8.711  -8.129  1.00  0.00     0.070 C 
ATOM      3  C   UNL     1       6.501 -10.161  -7.925  1.00  0.00     0.037 C 
ATOM      4  C   UNL     1       5.653 -10.875  -8.663  1.00  0.00     0.021 C 
ATOM      5  C   UNL     1       7.201 -10.621  -6.740  1.00  0.00     0.334 C 
ATOM      6  O   UNL     1       7.000 -11.708  -6.138  1.00  0.00    -0.247 OA
ATOM      7  O   UNL     1       8.127  -9.679  -6.344  1.00  0.00    -0.455 OA
ENDROOT
BRANCH   2   8
ATOM      8  C   UNL     1       5.707  -7.887  -7.502  1.00  0.00     0.017 C 
BRANCH   8   9
ATOM      9  C   UNL     1       5.215  -6.680  -8.306  1.00  0.00     0.031 C 
BRANCH   9  10
ATOM     10  C   UNL     1       5.595  -6.636  -9.770  1.00  0.00    -0.077 C 
ATOM     11  C   UNL     1       4.798  -7.464 -10.748  1.00  0.00     0.039 C 
ATOM     12  C   UNL     1       6.489  -5.757 -10.274  1.00  0.00    -0.028 CG0
ATOM     13  G   UNL     1       7.586  -5.064  -9.491  1.00  0.00     0.000 G0
ENDBRANCH   9  10
ENDBRANCH   8   9
ENDBRANCH   2   8
BRANCH   1  14
ATOM     14  C   UNL     1       8.997  -7.402  -6.978  1.00  0.00     0.192 C 
ATOM     15  C   UNL     1       9.114  -6.082  -7.683  1.00  0.00     0.096 C 
ATOM     16  O   UNL     1       8.019  -6.376  -6.867  1.00  0.00    -0.362 OA
ATOM     17  C   UNL     1       9.993  -5.004  -7.031  1.00  0.00     0.045 C 
BRANCH  15  18
ATOM     18  C   UNL     1       8.807  -5.982  -9.186  1.00  0.00     0.042 C 
BRANCH  18  19
ATOM     19  C   UNL     1       7.588  -5.061  -9.500  1.00  0.00     0.030 CG0
ATOM     20  G   UNL     1       6.496  -5.752 -10.291  1.00  0.00     0.000 G0
ENDBRANCH  18  19
ENDBRANCH  15  18
ENDBRANCH   1  14
TORSDOF 0
ENDMDL
MODEL 8
REMARK VINA RESULT:    -3.432      2.286      4.039
REMARK INTER + INTRA:          -4.558
REMARK INTER:                  -4.648
REMARK INTRA:                   0.091
REMARK UNBOUND:                 0.078
REMARK SMILES C=C1C(=O)O[C@H]2[C@@H]1CCC(C)=CCC[C@@]1(C)O[C@@H]21
REMARK SMILES IDX 6 1 7 2 2 3 1 4 3 5 4 6 5 7 8 8 9 9 10 10 11 11 12 12 18 14
REMARK SMILES IDX 15 15 17 16 16 17 14 18 13 19
REMARK H PARENT
REMARK Flexibility Score: 70.00
ROOT
ATOM      1  C   UNL     1       7.600  -9.219  -6.681  1.00  0.00     0.216 C 
ATOM      2  C   UNL     1       6.480  -8.489  -7.500  1.00  0.00     0.070 C 
ATOM      3  C   UNL     1       7.214  -7.206  -7.805  1.00  0.00     0.037 C 
ATOM      4  C   UNL     1       6.661  -6.038  -8.128  1.00  0.00     0.021 C 
ATOM      5  C   UNL     1       8.634  -7.492  -7.744  1.00  0.00     0.334 C 
ATOM      6  O   UNL     1       9.559  -6.733  -8.131  1.00  0.00    -0.247 OA
ATOM      7  O   UNL     1       8.840  -8.744  -7.203  1.00  0.00    -0.455 OA
ENDROOT
BRANCH   2   8
ATOM      8  C   UNL     1       6.103  -9.107  -8.871  1.00  0.00     0.017 C 
BRANCH   8   9
ATOM      9  C   UNL     1       4.613  -9.361  -9.119  1.00  0.00     0.031 C 
BRANCH   9  10
ATOM     10  C   UNL     1       3.668  -9.029  -7.985  1.00  0.00    -0.077 C 
ATOM     11  C   UNL     1       3.010  -7.671  -7.967  1.00  0.00     0.039 C 
ATOM     12  C   UNL     1       3.239  -9.946  -7.090  1.00  0.00    -0.028 CG0
ATOM     13  G   UNL     1       3.951 -11.236  -6.735  1.00  0.00     0.000 G0
ENDBRANCH   9  10
ENDBRANCH   8   9
ENDBRANCH   2   8
BRANCH   1  14
ATOM     14  C   UNL     1       7.565 -10.723  -6.306  1.00  0.00     0.192 C 
ATOM     15  C   UNL     1       6.407 -11.633  -6.015  1.00  0.00     0.096 C 
ATOM     16  O   UNL     1       6.817 -11.373  -7.325  1.00  0.00    -0.362 OA
ATOM     17  C   UNL     1       6.725 -13.086  -5.633  1.00  0.00     0.045 C 
BRANCH  15  18
ATOM     18  C   UNL     1       5.043 -11.042  -5.623  1.00  0.00     0.042 C 
BRANCH  18  19
ATOM     19  C   UNL     1       3.956 -11.233  -6.724  1.00  0.00     0.030 CG0
ATOM     20  G   UNL     1       3.232  -9.953  -7.089  1.00  0.00     0.000 G0
ENDBRANCH  18  19
ENDBRANCH  15  18
ENDBRANCH   1  14
TORSDOF 0
ENDMDL
MODEL 9
REMARK VINA RESULT:    -3.225      2.980      4.788
REMARK INTER + INTRA:          -4.278
REMARK INTER:                  -4.505
REMARK INTRA:                   0.227
REMARK UNBOUND:                 0.078
REMARK SMILES C=C1C(=O)O[C@H]2[C@@H]1CCC(C)=CCC[C@@]1(C)O[C@@H]21
REMARK SMILES IDX 6 1 7 2 2 3 1 4 3 5 4 6 5 7 8 8 9 9 10 10 11 11 12 12 18 14
REMARK SMILES IDX 15 15 17 16 16 17 14 18 13 19
REMARK H PARENT
REMARK Flexibility Score: 70.00
ROOT
ATOM      1  C   UNL     1       6.793 -10.280  -8.519  1.00  0.00     0.216 C 
ATOM      2  C   UNL     1       5.238 -10.170  -8.355  1.00  0.00     0.070 C 
ATOM      3  C   UNL     1       5.045 -11.195  -7.265  1.00  0.00     0.037 C 
ATOM      4  C   UNL     1       3.914 -11.836  -6.976  1.00  0.00     0.021 C 
ATOM      5  C   UNL     1       6.302 -11.312  -6.551  1.00  0.00     0.334 C 
ATOM      6  O   UNL     1       6.479 -11.913  -5.460  1.00  0.00    -0.247 OA
ATOM      7  O   UNL     1       7.297 -10.647  -7.236  1.00  0.00    -0.455 OA
ENDROOT
BRANCH   2   8
ATOM      8  C   UNL     1       4.688  -8.834  -7.792  1.00  0.00     0.017 C 
BRANCH   8   9
ATOM      9  C   UNL     1       4.418  -7.722  -8.811  1.00  0.00     0.031 C 
BRANCH   9  10
ATOM     10  C   UNL     1       4.298  -6.315  -8.268  1.00  0.00    -0.077 C 
ATOM     11  C   UNL     1       2.924  -5.774  -7.959  1.00  0.00     0.039 C 
ATOM     12  C   UNL     1       5.364  -5.585  -7.872  1.00  0.00    -0.028 CG0
ATOM     13  G   UNL     1       6.793  -5.781  -8.337  1.00  0.00     0.000 G0
ENDBRANCH   9  10
ENDBRANCH   8   9
ENDBRANCH   2   8
BRANCH   1  14
ATOM     14  C   UNL     1       7.660  -9.268  -9.313  1.00  0.00     0.192 C 
ATOM     15  C   UNL     1       8.143  -7.895  -8.947  1.00  0.00     0.096 C 
ATOM     16  O   UNL     1       8.827  -9.041  -8.534  1.00  0.00    -0.362 OA
ATOM     17  C   UNL     1       8.966  -7.130  -9.995  1.00  0.00     0.045 C 
BRANCH  15  18
ATOM     18  C   UNL     1       7.445  -7.105  -7.829  1.00  0.00     0.042 C 
BRANCH  18  19
ATOM     19  C   UNL     1       6.796  -5.779  -8.333  1.00  0.00     0.030 CG0
ATOM     20  G   UNL     1       5.369  -5.585  -7.860  1.00  0.00     0.000 G0
ENDBRANCH  18  19
ENDBRANCH  15  18
ENDBRANCH   1  14
TORSDOF 0
ENDMDL
