MODEL 1
REMARK VINA RESULT:    -6.266      0.000      0.000
REMARK INTER + INTRA:          -9.472
REMARK INTER:                  -9.197
REMARK INTRA:                  -0.275
REMARK UNBOUND:                -0.275
REMARK SMILES CC(C)(O)CC[C@H](O)[C@@](C)(O)[C@H]1CC[C@@]2(O)C3=CC(=O)[C@@H]4C[C@H](O)[C@@H](O)C[C@]4(C)[C@H]3CC[C@]12C
REMARK SMILES IDX 6 1 7 2 9 3 10 4 12 5 34 6 33 7 32 8 15 9 31 10 17 11 14 12
REMARK SMILES IDX 13 13 30 14 18 15 28 16 19 17 21 18 27 19 29 20 20 21 22 22
REMARK SMILES IDX 25 23 23 24 16 25 26 27 24 29 11 31 8 33 5 35 2 36 1 37 3 38
REMARK SMILES IDX 4 39
REMARK H PARENT 16 26 26 28 24 30 11 32 8 34 4 40
REMARK Flexibility Score: inf
ROOT
ATOM      1  C   UNL     1       8.520  17.434  14.817  1.00  0.00     0.038 C 
ENDROOT
BRANCH   1   2
ATOM      2  C   UNL     1       9.640  18.192  15.581  1.00  0.00     0.146 C 
BRANCH   2   3
ATOM      3  C   UNL     1      10.579  19.054  14.646  1.00  0.00     0.091 C 
ATOM      4  C   UNL     1      11.612  18.095  13.993  1.00  0.00     0.045 C 
BRANCH   3   5
ATOM      5  C   UNL     1      11.260  20.217  15.493  1.00  0.00     0.032 C 
ATOM      6  C   UNL     1      12.651  21.228  13.572  1.00  0.00     0.015 C 
ATOM      7  C   UNL     1      11.752  21.537  14.810  1.00  0.00     0.006 C 
ATOM      8  C   UNL     1      10.644  22.543  14.371  1.00  0.00     0.011 C 
ATOM      9  C   UNL     1      12.547  22.177  15.984  1.00  0.00     0.092 C 
ATOM     10  C   UNL     1      11.222  23.942  13.993  1.00  0.00     0.009 C 
ATOM     11  C   UNL     1      13.195  23.454  15.468  1.00  0.00    -0.031 C 
ATOM     12  C   UNL     1      13.387  21.005  16.518  1.00  0.00     0.041 C 
ATOM     13  C   UNL     1      12.452  19.785  16.394  1.00  0.00     0.010 C 
ATOM     14  C   UNL     1      12.188  24.529  15.069  1.00  0.00     0.025 C 
ATOM     15  C   UNL     1      14.476  23.508  15.076  1.00  0.00     0.050 C 
ATOM     16  C   UNL     1      12.858  25.919  14.727  1.00  0.00    -0.013 C 
ATOM     17  C   UNL     1      14.973  24.583  14.210  1.00  0.00     0.159 C 
ATOM     18  C   UNL     1      14.078  25.724  13.769  1.00  0.00     0.070 C 
ATOM     19  C   UNL     1      13.336  26.567  16.071  1.00  0.00     0.042 C 
ATOM     20  C   UNL     1      11.798  26.843  14.061  1.00  0.00     0.013 C 
ATOM     21  O   UNL     1      16.142  24.486  13.748  1.00  0.00    -0.295 OA
ATOM     22  C   UNL     1      14.889  27.035  13.598  1.00  0.00     0.047 C 
ATOM     23  C   UNL     1      14.218  27.827  15.931  1.00  0.00     0.143 C 
ATOM     24  C   UNL     1      15.377  27.623  14.934  1.00  0.00     0.143 C 
BRANCH   9  25
ATOM     25  O   UNL     1      11.656  22.540  17.022  1.00  0.00    -0.385 OA
ATOM     26  H   UNL     1      10.732  22.342  16.715  1.00  0.00     0.211 HD
ENDBRANCH   9  25
BRANCH  23  27
ATOM     27  O   UNL     1      13.436  28.934  15.564  1.00  0.00    -0.390 OA
ATOM     28  H   UNL     1      12.508  28.748  15.866  1.00  0.00     0.211 HD
ENDBRANCH  23  27
BRANCH  24  29
ATOM     29  O   UNL     1      16.358  26.788  15.496  1.00  0.00    -0.390 OA
ATOM     30  H   UNL     1      16.557  26.081  14.828  1.00  0.00     0.211 HD
ENDBRANCH  24  29
ENDBRANCH   3   5
BRANCH   3  31
ATOM     31  O   UNL     1       9.820  19.611  13.599  1.00  0.00    -0.387 OA
ATOM     32  H   UNL     1      10.258  20.452  13.312  1.00  0.00     0.211 HD
ENDBRANCH   3  31
ENDBRANCH   2   3
BRANCH   2  33
ATOM     33  O   UNL     1       9.085  18.971  16.619  1.00  0.00    -0.390 OA
ATOM     34  H   UNL     1       8.810  18.363  17.353  1.00  0.00     0.211 HD
ENDBRANCH   2  33
ENDBRANCH   1   2
BRANCH   1  35
ATOM     35  C   UNL     1       7.371  17.011  15.756  1.00  0.00     0.037 C 
BRANCH  35  36
ATOM     36  C   UNL     1       5.945  17.252  15.184  1.00  0.00     0.059 C 
ATOM     37  C   UNL     1       5.470  16.063  14.317  1.00  0.00     0.042 C 
ATOM     38  C   UNL     1       5.983  18.509  14.298  1.00  0.00     0.042 C 
BRANCH  36  39
ATOM     39  O   UNL     1       5.034  17.504  16.230  1.00  0.00    -0.390 OA
ATOM     40  H   UNL     1       5.157  16.816  16.933  1.00  0.00     0.211 HD
ENDBRANCH  36  39
ENDBRANCH  35  36
ENDBRANCH   1  35
TORSDOF 11
ENDMDL
MODEL 2
REMARK VINA RESULT:    -6.103      4.633      8.656
REMARK INTER + INTRA:          -9.232
REMARK INTER:                  -8.633
REMARK INTRA:                  -0.599
REMARK UNBOUND:                -0.275
REMARK SMILES CC(C)(O)CC[C@H](O)[C@@](C)(O)[C@H]1CC[C@@]2(O)C3=CC(=O)[C@@H]4C[C@H](O)[C@@H](O)C[C@]4(C)[C@H]3CC[C@]12C
REMARK SMILES IDX 6 1 7 2 9 3 10 4 12 5 34 6 33 7 32 8 15 9 31 10 17 11 14 12
REMARK SMILES IDX 13 13 30 14 18 15 28 16 19 17 21 18 27 19 29 20 20 21 22 22
REMARK SMILES IDX 25 23 23 24 16 25 26 27 24 29 11 31 8 33 5 35 2 36 1 37 3 38
REMARK SMILES IDX 4 39
REMARK H PARENT 16 26 26 28 24 30 11 32 8 34 4 40
REMARK Flexibility Score: inf
ROOT
ATOM      1  C   UNL     1      15.323  16.351  15.499  1.00  0.00     0.038 C 
ENDROOT
BRANCH   1   2
ATOM      2  C   UNL     1      14.530  17.489  14.798  1.00  0.00     0.146 C 
BRANCH   2   3
ATOM      3  C   UNL     1      14.347  18.782  15.690  1.00  0.00     0.091 C 
ATOM      4  C   UNL     1      15.460  18.775  16.774  1.00  0.00     0.045 C 
BRANCH   3   5
ATOM      5  C   UNL     1      12.880  18.807  16.305  1.00  0.00     0.032 C 
ATOM      6  C   UNL     1      11.643  19.446  14.135  1.00  0.00     0.015 C 
ATOM      7  C   UNL     1      11.620  18.548  15.412  1.00  0.00     0.006 C 
ATOM      8  C   UNL     1      11.379  17.072  14.968  1.00  0.00     0.011 C 
ATOM      9  C   UNL     1      10.490  18.944  16.404  1.00  0.00     0.092 C 
ATOM     10  C   UNL     1       9.961  16.856  14.357  1.00  0.00     0.009 C 
ATOM     11  C   UNL     1       9.163  18.847  15.665  1.00  0.00    -0.031 C 
ATOM     12  C   UNL     1      10.990  20.276  16.990  1.00  0.00     0.041 C 
ATOM     13  C   UNL     1      12.514  20.079  17.122  1.00  0.00     0.010 C 
ATOM     14  C   UNL     1       8.807  17.424  15.241  1.00  0.00     0.025 C 
ATOM     15  C   UNL     1       8.549  19.915  15.134  1.00  0.00     0.050 C 
ATOM     16  C   UNL     1       7.345  17.293  14.656  1.00  0.00    -0.013 C 
ATOM     17  C   UNL     1       7.527  19.778  14.092  1.00  0.00     0.159 C 
ATOM     18  C   UNL     1       7.066  18.418  13.607  1.00  0.00     0.070 C 
ATOM     19  C   UNL     1       6.335  17.417  15.848  1.00  0.00     0.042 C 
ATOM     20  C   UNL     1       7.187  15.893  13.994  1.00  0.00     0.013 C 
ATOM     21  O   UNL     1       7.108  20.823  13.524  1.00  0.00    -0.295 OA
ATOM     22  C   UNL     1       5.573  18.453  13.186  1.00  0.00     0.047 C 
ATOM     23  C   UNL     1       4.847  17.539  15.456  1.00  0.00     0.143 C 
ATOM     24  C   UNL     1       4.612  18.616  14.376  1.00  0.00     0.143 C 
BRANCH   9  25
ATOM     25  O   UNL     1      10.450  18.022  17.477  1.00  0.00    -0.385 OA
ATOM     26  H   UNL     1       9.571  17.559  17.449  1.00  0.00     0.211 HD
ENDBRANCH   9  25
BRANCH  23  27
ATOM     27  O   UNL     1       4.347  16.296  15.037  1.00  0.00    -0.390 OA
ATOM     28  H   UNL     1       4.869  16.027  14.236  1.00  0.00     0.211 HD
ENDBRANCH  23  27
BRANCH  24  29
ATOM     29  O   UNL     1       4.750  19.899  14.933  1.00  0.00    -0.390 OA
ATOM     30  H   UNL     1       3.866  20.344  14.860  1.00  0.00     0.211 HD
ENDBRANCH  24  29
ENDBRANCH   3   5
BRANCH   3  31
ATOM     31  O   UNL     1      14.551  19.931  14.902  1.00  0.00    -0.387 OA
ATOM     32  H   UNL     1      15.416  19.833  14.429  1.00  0.00     0.211 HD
ENDBRANCH   3  31
ENDBRANCH   2   3
BRANCH   2  33
ATOM     33  O   UNL     1      15.113  17.797  13.551  1.00  0.00    -0.390 OA
ATOM     34  H   UNL     1      14.428  17.665  12.844  1.00  0.00     0.211 HD
ENDBRANCH   2  33
ENDBRANCH   1   2
BRANCH   1  35
ATOM     35  C   UNL     1      14.382  15.296  16.118  1.00  0.00     0.037 C 
BRANCH  35  36
ATOM     36  C   UNL     1      14.429  13.903  15.429  1.00  0.00     0.059 C 
ATOM     37  C   UNL     1      13.010  13.350  15.163  1.00  0.00     0.042 C 
ATOM     38  C   UNL     1      15.160  12.924  16.363  1.00  0.00     0.042 C 
BRANCH  36  39
ATOM     39  O   UNL     1      15.171  13.973  14.233  1.00  0.00    -0.390 OA
ATOM     40  H   UNL     1      15.703  14.811  14.236  1.00  0.00     0.211 HD
ENDBRANCH  36  39
ENDBRANCH  35  36
ENDBRANCH   1  35
TORSDOF 11
ENDMDL
MODEL 3
REMARK VINA RESULT:    -5.848      3.257      9.822
REMARK INTER + INTRA:          -8.858
REMARK INTER:                  -8.486
REMARK INTRA:                  -0.371
REMARK UNBOUND:                -0.275
REMARK SMILES CC(C)(O)CC[C@H](O)[C@@](C)(O)[C@H]1CC[C@@]2(O)C3=CC(=O)[C@@H]4C[C@H](O)[C@@H](O)C[C@]4(C)[C@H]3CC[C@]12C
REMARK SMILES IDX 6 1 7 2 9 3 10 4 12 5 34 6 33 7 32 8 15 9 31 10 17 11 14 12
REMARK SMILES IDX 13 13 30 14 18 15 28 16 19 17 21 18 27 19 29 20 20 21 22 22
REMARK SMILES IDX 25 23 23 24 16 25 26 27 24 29 11 31 8 33 5 35 2 36 1 37 3 38
REMARK SMILES IDX 4 39
REMARK H PARENT 16 26 26 28 24 30 11 32 8 34 4 40
REMARK Flexibility Score: inf
ROOT
ATOM      1  C   UNL     1      13.584  24.872  15.644  1.00  0.00     0.038 C 
ENDROOT
BRANCH   1   2
ATOM      2  C   UNL     1      14.492  23.620  15.495  1.00  0.00     0.146 C 
BRANCH   2   3
ATOM      3  C   UNL     1      13.948  22.557  14.459  1.00  0.00     0.091 C 
ATOM      4  C   UNL     1      12.734  23.187  13.723  1.00  0.00     0.045 C 
BRANCH   3   5
ATOM      5  C   UNL     1      13.583  21.206  15.216  1.00  0.00     0.032 C 
ATOM      6  C   UNL     1      12.775  19.897  13.146  1.00  0.00     0.015 C 
ATOM      7  C   UNL     1      13.597  19.828  14.472  1.00  0.00     0.006 C 
ATOM      8  C   UNL     1      15.002  19.234  14.146  1.00  0.00     0.011 C 
ATOM      9  C   UNL     1      12.929  18.925  15.547  1.00  0.00     0.092 C 
ATOM     10  C   UNL     1      14.930  17.743  13.695  1.00  0.00     0.009 C 
ATOM     11  C   UNL     1      12.766  17.534  14.952  1.00  0.00    -0.031 C 
ATOM     12  C   UNL     1      11.716  19.756  15.997  1.00  0.00     0.041 C 
ATOM     13  C   UNL     1      12.232  21.210  15.987  1.00  0.00     0.010 C 
ATOM     14  C   UNL     1      14.093  16.840  14.654  1.00  0.00     0.025 C 
ATOM     15  C   UNL     1      11.612  17.103  14.422  1.00  0.00     0.050 C 
ATOM     16  C   UNL     1      13.928  15.327  14.228  1.00  0.00    -0.013 C 
ATOM     17  C   UNL     1      11.564  15.965  13.498  1.00  0.00     0.159 C 
ATOM     18  C   UNL     1      12.810  15.177  13.146  1.00  0.00     0.070 C 
ATOM     19  C   UNL     1      13.543  14.507  15.506  1.00  0.00     0.042 C 
ATOM     20  C   UNL     1      15.284  14.806  13.672  1.00  0.00     0.013 C 
ATOM     21  O   UNL     1      10.475  15.715  12.913  1.00  0.00    -0.295 OA
ATOM     22  C   UNL     1      12.469  13.687  12.876  1.00  0.00     0.047 C 
ATOM     23  C   UNL     1      13.117  13.043  15.260  1.00  0.00     0.143 C 
ATOM     24  C   UNL     1      12.057  12.921  14.146  1.00  0.00     0.143 C 
BRANCH   9  25
ATOM     25  O   UNL     1      13.780  18.811  16.672  1.00  0.00    -0.385 OA
ATOM     26  H   UNL     1      13.533  17.982  17.159  1.00  0.00     0.211 HD
ENDBRANCH   9  25
BRANCH  23  27
ATOM     27  O   UNL     1      14.238  12.249  14.970  1.00  0.00    -0.390 OA
ATOM     28  H   UNL     1      13.951  11.301  15.047  1.00  0.00     0.211 HD
ENDBRANCH  23  27
BRANCH  24  29
ATOM     29  O   UNL     1      10.814  13.388  14.606  1.00  0.00    -0.390 OA
ATOM     30  H   UNL     1      10.612  12.896  15.445  1.00  0.00     0.211 HD
ENDBRANCH  24  29
ENDBRANCH   3   5
BRANCH   3  31
ATOM     31  O   UNL     1      14.931  22.304  13.483  1.00  0.00    -0.387 OA
ATOM     32  H   UNL     1      15.082  21.326  13.442  1.00  0.00     0.211 HD
ENDBRANCH   3  31
ENDBRANCH   2   3
BRANCH   2  33
ATOM     33  O   UNL     1      15.815  24.007  15.196  1.00  0.00    -0.390 OA
ATOM     34  H   UNL     1      15.984  23.828  14.235  1.00  0.00     0.211 HD
ENDBRANCH   2  33
ENDBRANCH   1   2
BRANCH   1  35
ATOM     35  C   UNL     1      14.382  26.105  16.116  1.00  0.00     0.037 C 
BRANCH  35  36
ATOM     36  C   UNL     1      14.175  27.381  15.250  1.00  0.00     0.059 C 
ATOM     37  C   UNL     1      13.652  27.033  13.837  1.00  0.00     0.042 C 
ATOM     38  C   UNL     1      15.531  28.091  15.101  1.00  0.00     0.042 C 
BRANCH  36  39
ATOM     39  O   UNL     1      13.302  28.277  15.900  1.00  0.00    -0.390 OA
ATOM     40  H   UNL     1      12.901  27.820  16.684  1.00  0.00     0.211 HD
ENDBRANCH  36  39
ENDBRANCH  35  36
ENDBRANCH   1  35
TORSDOF 11
ENDMDL
MODEL 4
REMARK VINA RESULT:    -5.797      1.409      1.636
REMARK INTER + INTRA:          -8.783
REMARK INTER:                  -8.173
REMARK INTRA:                  -0.610
REMARK UNBOUND:                -0.275
REMARK SMILES CC(C)(O)CC[C@H](O)[C@@](C)(O)[C@H]1CC[C@@]2(O)C3=CC(=O)[C@@H]4C[C@H](O)[C@@H](O)C[C@]4(C)[C@H]3CC[C@]12C
REMARK SMILES IDX 6 1 7 2 9 3 10 4 12 5 34 6 33 7 32 8 15 9 31 10 17 11 14 12
REMARK SMILES IDX 13 13 30 14 18 15 28 16 19 17 21 18 27 19 29 20 20 21 22 22
REMARK SMILES IDX 25 23 23 24 16 25 26 27 24 29 11 31 8 33 5 35 2 36 1 37 3 38
REMARK SMILES IDX 4 39
REMARK H PARENT 16 26 26 28 24 30 11 32 8 34 4 40
REMARK Flexibility Score: inf
ROOT
ATOM      1  C   UNL     1       9.640  18.206  15.401  1.00  0.00     0.038 C 
ENDROOT
BRANCH   1   2
ATOM      2  C   UNL     1      10.394  17.635  14.168  1.00  0.00     0.146 C 
BRANCH   2   3
ATOM      3  C   UNL     1      11.951  17.914  14.187  1.00  0.00     0.091 C 
ATOM      4  C   UNL     1      12.663  16.607  14.632  1.00  0.00     0.045 C 
BRANCH   3   5
ATOM      5  C   UNL     1      12.263  19.148  15.142  1.00  0.00     0.032 C 
ATOM      6  C   UNL     1      13.590  20.541  13.425  1.00  0.00     0.015 C 
ATOM      7  C   UNL     1      12.519  20.580  14.561  1.00  0.00     0.006 C 
ATOM      8  C   UNL     1      11.268  21.344  14.028  1.00  0.00     0.011 C 
ATOM      9  C   UNL     1      13.024  21.311  15.837  1.00  0.00     0.092 C 
ATOM     10  C   UNL     1      11.557  22.853  13.762  1.00  0.00     0.009 C 
ATOM     11  C   UNL     1      13.424  22.725  15.438  1.00  0.00    -0.031 C 
ATOM     12  C   UNL     1      14.043  20.322  16.427  1.00  0.00     0.041 C 
ATOM     13  C   UNL     1      13.420  18.937  16.160  1.00  0.00     0.010 C 
ATOM     14  C   UNL     1      12.250  23.576  14.959  1.00  0.00     0.025 C 
ATOM     15  C   UNL     1      14.695  23.077  15.196  1.00  0.00     0.050 C 
ATOM     16  C   UNL     1      12.627  25.094  14.738  1.00  0.00    -0.013 C 
ATOM     17  C   UNL     1      15.029  24.280  14.427  1.00  0.00     0.159 C 
ATOM     18  C   UNL     1      13.954  25.222  13.920  1.00  0.00     0.070 C 
ATOM     19  C   UNL     1      12.806  25.756  16.147  1.00  0.00     0.042 C 
ATOM     20  C   UNL     1      11.465  25.801  13.983  1.00  0.00     0.013 C 
ATOM     21  O   UNL     1      16.232  24.465  14.099  1.00  0.00    -0.295 OA
ATOM     22  C   UNL     1      14.468  26.685  13.884  1.00  0.00     0.047 C 
ATOM     23  C   UNL     1      13.396  27.183  16.147  1.00  0.00     0.143 C 
ATOM     24  C   UNL     1      14.670  27.291  15.284  1.00  0.00     0.143 C 
BRANCH   9  25
ATOM     25  O   UNL     1      11.971  21.414  16.777  1.00  0.00    -0.385 OA
ATOM     26  H   UNL     1      12.134  22.223  17.330  1.00  0.00     0.211 HD
ENDBRANCH   9  25
BRANCH  23  27
ATOM     27  O   UNL     1      12.431  28.112  15.727  1.00  0.00    -0.390 OA
ATOM     28  H   UNL     1      11.561  27.822  16.110  1.00  0.00     0.211 HD
ENDBRANCH  23  27
BRANCH  24  29
ATOM     29  O   UNL     1      15.747  26.659  15.929  1.00  0.00    -0.390 OA
ATOM     30  H   UNL     1      16.427  26.460  15.234  1.00  0.00     0.211 HD
ENDBRANCH  24  29
ENDBRANCH   3   5
BRANCH   3  31
ATOM     31  O   UNL     1      12.395  18.198  12.882  1.00  0.00    -0.387 OA
ATOM     32  H   UNL     1      13.374  18.346  12.913  1.00  0.00     0.211 HD
ENDBRANCH   3  31
ENDBRANCH   2   3
BRANCH   2  33
ATOM     33  O   UNL     1      10.115  16.260  14.015  1.00  0.00    -0.390 OA
ATOM     34  H   UNL     1       9.835  16.100  13.076  1.00  0.00     0.211 HD
ENDBRANCH   2  33
ENDBRANCH   1   2
BRANCH   1  35
ATOM     35  C   UNL     1       8.269  18.797  15.009  1.00  0.00     0.037 C 
BRANCH  35  36
ATOM     36  C   UNL     1       7.098  17.774  15.015  1.00  0.00     0.059 C 
ATOM     37  C   UNL     1       5.725  18.479  15.110  1.00  0.00     0.042 C 
ATOM     38  C   UNL     1       7.257  16.861  16.242  1.00  0.00     0.042 C 
BRANCH  36  39
ATOM     39  O   UNL     1       7.160  16.952  13.871  1.00  0.00    -0.390 OA
ATOM     40  H   UNL     1       6.977  17.507  13.069  1.00  0.00     0.211 HD
ENDBRANCH  36  39
ENDBRANCH  35  36
ENDBRANCH   1  35
TORSDOF 11
ENDMDL
MODEL 5
REMARK VINA RESULT:    -5.645      1.695      9.485
REMARK INTER + INTRA:          -8.560
REMARK INTER:                  -8.445
REMARK INTRA:                  -0.115
REMARK UNBOUND:                -0.275
REMARK SMILES CC(C)(O)CC[C@H](O)[C@@](C)(O)[C@H]1CC[C@@]2(O)C3=CC(=O)[C@@H]4C[C@H](O)[C@@H](O)C[C@]4(C)[C@H]3CC[C@]12C
REMARK SMILES IDX 6 1 7 2 9 3 10 4 12 5 34 6 33 7 32 8 15 9 31 10 17 11 14 12
REMARK SMILES IDX 13 13 30 14 18 15 28 16 19 17 21 18 27 19 29 20 20 21 22 22
REMARK SMILES IDX 25 23 23 24 16 25 26 27 24 29 11 31 8 33 5 35 2 36 1 37 3 38
REMARK SMILES IDX 4 39
REMARK H PARENT 16 26 26 28 24 30 11 32 8 34 4 40
REMARK Flexibility Score: inf
ROOT
ATOM      1  C   UNL     1      13.270  24.438  14.764  1.00  0.00     0.038 C 
ENDROOT
BRANCH   1   2
ATOM      2  C   UNL     1      14.063  23.152  15.124  1.00  0.00     0.146 C 
BRANCH   2   3
ATOM      3  C   UNL     1      13.695  21.904  14.226  1.00  0.00     0.091 C 
ATOM      4  C   UNL     1      12.972  22.427  12.955  1.00  0.00     0.045 C 
BRANCH   3   5
ATOM      5  C   UNL     1      12.813  20.879  15.066  1.00  0.00     0.032 C 
ATOM      6  C   UNL     1      10.582  21.319  13.850  1.00  0.00     0.015 C 
ATOM      7  C   UNL     1      11.522  20.232  14.460  1.00  0.00     0.006 C 
ATOM      8  C   UNL     1      11.744  19.120  13.389  1.00  0.00     0.011 C 
ATOM      9  C   UNL     1      10.922  19.566  15.731  1.00  0.00     0.092 C 
ATOM     10  C   UNL     1      10.440  18.325  13.074  1.00  0.00     0.009 C 
ATOM     11  C   UNL     1       9.582  18.953  15.350  1.00  0.00    -0.031 C 
ATOM     12  C   UNL     1      11.029  20.675  16.791  1.00  0.00     0.041 C 
ATOM     13  C   UNL     1      12.369  21.370  16.474  1.00  0.00     0.010 C 
ATOM     14  C   UNL     1       9.701  17.808  14.348  1.00  0.00     0.025 C 
ATOM     15  C   UNL     1       8.413  19.566  15.585  1.00  0.00     0.050 C 
ATOM     16  C   UNL     1       8.339  17.043  14.106  1.00  0.00    -0.013 C 
ATOM     17  C   UNL     1       7.189  19.195  14.866  1.00  0.00     0.159 C 
ATOM     18  C   UNL     1       7.171  18.055  13.866  1.00  0.00     0.070 C 
ATOM     19  C   UNL     1       8.039  16.180  15.379  1.00  0.00     0.042 C 
ATOM     20  C   UNL     1       8.494  16.105  12.875  1.00  0.00     0.013 C 
ATOM     21  O   UNL     1       6.166  19.915  15.016  1.00  0.00    -0.295 OA
ATOM     22  C   UNL     1       5.791  17.347  13.854  1.00  0.00     0.047 C 
ATOM     23  C   UNL     1       6.640  15.530  15.435  1.00  0.00     0.143 C 
ATOM     24  C   UNL     1       5.513  16.541  15.135  1.00  0.00     0.143 C 
BRANCH   9  25
ATOM     25  O   UNL     1      11.766  18.514  16.162  1.00  0.00    -0.385 OA
ATOM     26  H   UNL     1      11.208  17.861  16.662  1.00  0.00     0.211 HD
ENDBRANCH   9  25
BRANCH  23  27
ATOM     27  O   UNL     1       6.572  14.436  14.558  1.00  0.00    -0.390 OA
ATOM     28  H   UNL     1       5.739  13.940  14.774  1.00  0.00     0.211 HD
ENDBRANCH  23  27
BRANCH  24  29
ATOM     29  O   UNL     1       5.342  17.413  16.224  1.00  0.00    -0.390 OA
ATOM     30  H   UNL     1       4.444  17.825  16.128  1.00  0.00     0.211 HD
ENDBRANCH  24  29
ENDBRANCH   3   5
BRANCH   3  31
ATOM     31  O   UNL     1      14.875  21.269  13.794  1.00  0.00    -0.387 OA
ATOM     32  H   UNL     1      14.626  20.423  13.344  1.00  0.00     0.211 HD
ENDBRANCH   3  31
ENDBRANCH   2   3
BRANCH   2  33
ATOM     33  O   UNL     1      15.450  23.411  15.110  1.00  0.00    -0.390 OA
ATOM     34  H   UNL     1      15.852  22.919  14.348  1.00  0.00     0.211 HD
ENDBRANCH   2  33
ENDBRANCH   1   2
BRANCH   1  35
ATOM     35  C   UNL     1      14.205  25.580  14.314  1.00  0.00     0.037 C 
BRANCH  35  36
ATOM     36  C   UNL     1      14.658  26.534  15.456  1.00  0.00     0.059 C 
ATOM     37  C   UNL     1      13.611  26.604  16.591  1.00  0.00     0.042 C 
ATOM     38  C   UNL     1      14.827  27.946  14.869  1.00  0.00     0.042 C 
BRANCH  36  39
ATOM     39  O   UNL     1      15.914  26.136  15.957  1.00  0.00    -0.390 OA
ATOM     40  H   UNL     1      16.366  25.574  15.276  1.00  0.00     0.211 HD
ENDBRANCH  36  39
ENDBRANCH  35  36
ENDBRANCH   1  35
TORSDOF 11
ENDMDL
MODEL 6
REMARK VINA RESULT:    -5.638      3.293      8.727
REMARK INTER + INTRA:          -8.550
REMARK INTER:                  -8.633
REMARK INTRA:                   0.083
REMARK UNBOUND:                -0.275
REMARK SMILES CC(C)(O)CC[C@H](O)[C@@](C)(O)[C@H]1CC[C@@]2(O)C3=CC(=O)[C@@H]4C[C@H](O)[C@@H](O)C[C@]4(C)[C@H]3CC[C@]12C
REMARK SMILES IDX 6 1 7 2 9 3 10 4 12 5 34 6 33 7 32 8 15 9 31 10 17 11 14 12
REMARK SMILES IDX 13 13 30 14 18 15 28 16 19 17 21 18 27 19 29 20 20 21 22 22
REMARK SMILES IDX 25 23 23 24 16 25 26 27 24 29 11 31 8 33 5 35 2 36 1 37 3 38
REMARK SMILES IDX 4 39
REMARK H PARENT 16 26 26 28 24 30 11 32 8 34 4 40
REMARK Flexibility Score: inf
ROOT
ATOM      1  C   UNL     1      13.726  25.488  15.852  1.00  0.00     0.038 C 
ENDROOT
BRANCH   1   2
ATOM      2  C   UNL     1      12.661  25.213  14.754  1.00  0.00     0.146 C 
BRANCH   2   3
ATOM      3  C   UNL     1      11.361  24.492  15.292  1.00  0.00     0.091 C 
ATOM      4  C   UNL     1      11.357  24.609  16.841  1.00  0.00     0.045 C 
BRANCH   3   5
ATOM      5  C   UNL     1      11.334  22.984  14.783  1.00  0.00     0.032 C 
ATOM      6  C   UNL     1      13.879  22.578  14.876  1.00  0.00     0.015 C 
ATOM      7  C   UNL     1      12.468  21.976  15.168  1.00  0.00     0.006 C 
ATOM      8  C   UNL     1      12.456  21.450  16.637  1.00  0.00     0.011 C 
ATOM      9  C   UNL     1      12.115  20.788  14.228  1.00  0.00     0.092 C 
ATOM     10  C   UNL     1      13.411  20.235  16.845  1.00  0.00     0.009 C 
ATOM     11  C   UNL     1      13.190  19.724  14.396  1.00  0.00    -0.031 C 
ATOM     12  C   UNL     1      11.866  21.475  12.875  1.00  0.00     0.041 C 
ATOM     13  C   UNL     1      11.160  22.795  13.248  1.00  0.00     0.010 C 
ATOM     14  C   UNL     1      13.217  19.102  15.790  1.00  0.00     0.025 C 
ATOM     15  C   UNL     1      14.219  19.594  13.546  1.00  0.00     0.050 C 
ATOM     16  C   UNL     1      14.192  17.863  15.904  1.00  0.00    -0.013 C 
ATOM     17  C   UNL     1      15.443  18.877  13.920  1.00  0.00     0.159 C 
ATOM     18  C   UNL     1      15.581  18.192  15.266  1.00  0.00     0.070 C 
ATOM     19  C   UNL     1      13.532  16.660  15.149  1.00  0.00     0.042 C 
ATOM     20  C   UNL     1      14.368  17.493  17.405  1.00  0.00     0.013 C 
ATOM     21  O   UNL     1      16.430  18.930  13.138  1.00  0.00    -0.295 OA
ATOM     22  C   UNL     1      16.477  16.930  15.158  1.00  0.00     0.047 C 
ATOM     23  C   UNL     1      14.429  15.418  14.952  1.00  0.00     0.143 C 
ATOM     24  C   UNL     1      15.814  15.782  14.377  1.00  0.00     0.143 C 
BRANCH   9  25
ATOM     25  O   UNL     1      10.882  20.216  14.623  1.00  0.00    -0.385 OA
ATOM     26  H   UNL     1      10.666  20.554  15.532  1.00  0.00     0.211 HD
ENDBRANCH   9  25
BRANCH  23  27
ATOM     27  O   UNL     1      14.561  14.713  16.159  1.00  0.00    -0.390 OA
ATOM     28  H   UNL     1      14.415  15.364  16.895  1.00  0.00     0.211 HD
ENDBRANCH  23  27
BRANCH  24  29
ATOM     29  O   UNL     1      15.699  16.128  13.020  1.00  0.00    -0.390 OA
ATOM     30  H   UNL     1      16.463  15.706  12.546  1.00  0.00     0.211 HD
ENDBRANCH  24  29
ENDBRANCH   3   5
BRANCH   3  31
ATOM     31  O   UNL     1      10.219  25.171  14.827  1.00  0.00    -0.387 OA
ATOM     32  H   UNL     1       9.971  25.857  15.497  1.00  0.00     0.211 HD
ENDBRANCH   3  31
ENDBRANCH   2   3
BRANCH   2  33
ATOM     33  O   UNL     1      12.347  26.405  14.067  1.00  0.00    -0.390 OA
ATOM     34  H   UNL     1      12.484  26.251  13.096  1.00  0.00     0.211 HD
ENDBRANCH   2  33
ENDBRANCH   1   2
BRANCH   1  35
ATOM     35  C   UNL     1      14.595  26.716  15.512  1.00  0.00     0.037 C 
BRANCH  35  36
ATOM     36  C   UNL     1      16.118  26.421  15.401  1.00  0.00     0.059 C 
ATOM     37  C   UNL     1      16.934  27.712  15.157  1.00  0.00     0.042 C 
ATOM     38  C   UNL     1      16.343  25.476  14.209  1.00  0.00     0.042 C 
BRANCH  36  39
ATOM     39  O   UNL     1      16.573  25.753  16.556  1.00  0.00    -0.390 OA
ATOM     40  H   UNL     1      16.517  26.374  17.328  1.00  0.00     0.211 HD
ENDBRANCH  36  39
ENDBRANCH  35  36
ENDBRANCH   1  35
TORSDOF 11
ENDMDL
MODEL 7
REMARK VINA RESULT:    -5.571      2.603      4.729
REMARK INTER + INTRA:          -8.452
REMARK INTER:                  -8.229
REMARK INTRA:                  -0.223
REMARK UNBOUND:                -0.275
REMARK SMILES CC(C)(O)CC[C@H](O)[C@@](C)(O)[C@H]1CC[C@@]2(O)C3=CC(=O)[C@@H]4C[C@H](O)[C@@H](O)C[C@]4(C)[C@H]3CC[C@]12C
REMARK SMILES IDX 6 1 7 2 9 3 10 4 12 5 34 6 33 7 32 8 15 9 31 10 17 11 14 12
REMARK SMILES IDX 13 13 30 14 18 15 28 16 19 17 21 18 27 19 29 20 20 21 22 22
REMARK SMILES IDX 25 23 23 24 16 25 26 27 24 29 11 31 8 33 5 35 2 36 1 37 3 38
REMARK SMILES IDX 4 39
REMARK H PARENT 16 26 26 28 24 30 11 32 8 34 4 40
REMARK Flexibility Score: inf
ROOT
ATOM      1  C   UNL     1      14.018  18.930  15.981  1.00  0.00     0.038 C 
ENDROOT
BRANCH   1   2
ATOM      2  C   UNL     1      12.853  19.630  16.734  1.00  0.00     0.146 C 
BRANCH   2   3
ATOM      3  C   UNL     1      11.603  19.947  15.820  1.00  0.00     0.091 C 
ATOM      4  C   UNL     1      11.140  18.616  15.167  1.00  0.00     0.045 C 
BRANCH   3   5
ATOM      5  C   UNL     1      11.987  21.063  14.752  1.00  0.00     0.032 C 
ATOM      6  C   UNL     1      11.771  23.091  16.329  1.00  0.00     0.015 C 
ATOM      7  C   UNL     1      12.613  22.429  15.194  1.00  0.00     0.006 C 
ATOM      8  C   UNL     1      14.104  22.390  15.649  1.00  0.00     0.011 C 
ATOM      9  C   UNL     1      12.538  23.215  13.854  1.00  0.00     0.092 C 
ATOM     10  C   UNL     1      14.729  23.814  15.770  1.00  0.00     0.009 C 
ATOM     11  C   UNL     1      13.025  24.633  14.116  1.00  0.00    -0.031 C 
ATOM     12  C   UNL     1      11.108  22.932  13.362  1.00  0.00     0.041 C 
ATOM     13  C   UNL     1      10.858  21.463  13.760  1.00  0.00     0.010 C 
ATOM     14  C   UNL     1      14.499  24.705  14.510  1.00  0.00     0.025 C 
ATOM     15  C   UNL     1      12.189  25.659  14.324  1.00  0.00     0.050 C 
ATOM     16  C   UNL     1      15.054  26.183  14.585  1.00  0.00    -0.013 C 
ATOM     17  C   UNL     1      12.632  26.897  14.975  1.00  0.00     0.159 C 
ATOM     18  C   UNL     1      14.077  27.102  15.388  1.00  0.00     0.070 C 
ATOM     19  C   UNL     1      15.201  26.717  13.119  1.00  0.00     0.042 C 
ATOM     20  C   UNL     1      16.453  26.165  15.267  1.00  0.00     0.013 C 
ATOM     21  O   UNL     1      11.762  27.754  15.285  1.00  0.00    -0.295 OA
ATOM     22  C   UNL     1      14.478  28.597  15.285  1.00  0.00     0.047 C 
ATOM     23  C   UNL     1      15.518  28.222  12.983  1.00  0.00     0.143 C 
ATOM     24  C   UNL     1      14.575  29.099  13.833  1.00  0.00     0.143 C 
BRANCH   9  25
ATOM     25  O   UNL     1      13.413  22.630  12.907  1.00  0.00    -0.385 OA
ATOM     26  H   UNL     1      13.076  21.718  12.704  1.00  0.00     0.211 HD
ENDBRANCH   9  25
BRANCH  23  27
ATOM     27  O   UNL     1      16.860  28.472  13.311  1.00  0.00    -0.390 OA
ATOM     28  H   UNL     1      16.916  28.510  14.302  1.00  0.00     0.211 HD
ENDBRANCH  23  27
BRANCH  24  29
ATOM     29  O   UNL     1      13.296  29.138  13.252  1.00  0.00    -0.390 OA
ATOM     30  H   UNL     1      12.639  29.012  13.987  1.00  0.00     0.211 HD
ENDBRANCH  24  29
ENDBRANCH   3   5
BRANCH   3  31
ATOM     31  O   UNL     1      10.537  20.403  16.620  1.00  0.00    -0.387 OA
ATOM     32  H   UNL     1      10.300  21.319  16.328  1.00  0.00     0.211 HD
ENDBRANCH   3  31
ENDBRANCH   2   3
BRANCH   2  33
ATOM     33  O   UNL     1      12.487  18.884  17.874  1.00  0.00    -0.390 OA
ATOM     34  H   UNL     1      12.840  17.962  17.772  1.00  0.00     0.211 HD
ENDBRANCH   2  33
ENDBRANCH   1   2
BRANCH   1  35
ATOM     35  C   UNL     1      14.365  17.563  16.609  1.00  0.00     0.037 C 
BRANCH  35  36
ATOM     36  C   UNL     1      14.844  16.487  15.593  1.00  0.00     0.059 C 
ATOM     37  C   UNL     1      14.713  15.059  16.170  1.00  0.00     0.042 C 
ATOM     38  C   UNL     1      16.327  16.745  15.277  1.00  0.00     0.042 C 
BRANCH  36  39
ATOM     39  O   UNL     1      14.131  16.606  14.382  1.00  0.00    -0.390 OA
ATOM     40  H   UNL     1      13.274  16.113  14.467  1.00  0.00     0.211 HD
ENDBRANCH  36  39
ENDBRANCH  35  36
ENDBRANCH   1  35
TORSDOF 11
ENDMDL
MODEL 8
REMARK VINA RESULT:    -5.533      2.062      3.448
REMARK INTER + INTRA:          -8.395
REMARK INTER:                  -7.765
REMARK INTRA:                  -0.630
REMARK UNBOUND:                -0.275
REMARK SMILES CC(C)(O)CC[C@H](O)[C@@](C)(O)[C@H]1CC[C@@]2(O)C3=CC(=O)[C@@H]4C[C@H](O)[C@@H](O)C[C@]4(C)[C@H]3CC[C@]12C
REMARK SMILES IDX 6 1 7 2 9 3 10 4 12 5 34 6 33 7 32 8 15 9 31 10 17 11 14 12
REMARK SMILES IDX 13 13 30 14 18 15 28 16 19 17 21 18 27 19 29 20 20 21 22 22
REMARK SMILES IDX 25 23 23 24 16 25 26 27 24 29 11 31 8 33 5 35 2 36 1 37 3 38
REMARK SMILES IDX 4 39
REMARK H PARENT 16 26 26 28 24 30 11 32 8 34 4 40
REMARK Flexibility Score: inf
ROOT
ATOM      1  C   UNL     1      11.944  17.971  13.827  1.00  0.00     0.038 C 
ENDROOT
BRANCH   1   2
ATOM      2  C   UNL     1      10.776  18.385  14.764  1.00  0.00     0.146 C 
BRANCH   2   3
ATOM      3  C   UNL     1      10.191  19.821  14.457  1.00  0.00     0.091 C 
ATOM      4  C   UNL     1      10.270  20.050  12.922  1.00  0.00     0.045 C 
BRANCH   3   5
ATOM      5  C   UNL     1      10.989  20.917  15.291  1.00  0.00     0.032 C 
ATOM      6  C   UNL     1      12.704  21.513  13.460  1.00  0.00     0.015 C 
ATOM      7  C   UNL     1      11.768  22.073  14.577  1.00  0.00     0.006 C 
ATOM      8  C   UNL     1      10.900  23.214  13.962  1.00  0.00     0.011 C 
ATOM      9  C   UNL     1      12.556  22.662  15.781  1.00  0.00     0.092 C 
ATOM     10  C   UNL     1      11.749  24.457  13.555  1.00  0.00     0.009 C 
ATOM     11  C   UNL     1      13.465  23.762  15.252  1.00  0.00    -0.031 C 
ATOM     12  C   UNL     1      13.123  21.411  16.474  1.00  0.00     0.041 C 
ATOM     13  C   UNL     1      12.000  20.363  16.335  1.00  0.00     0.010 C 
ATOM     14  C   UNL     1      12.704  24.957  14.683  1.00  0.00     0.025 C 
ATOM     15  C   UNL     1      14.765  23.564  14.989  1.00  0.00     0.050 C 
ATOM     16  C   UNL     1      13.639  26.179  14.320  1.00  0.00    -0.013 C 
ATOM     17  C   UNL     1      15.520  24.463  14.111  1.00  0.00     0.159 C 
ATOM     18  C   UNL     1      14.885  25.700  13.507  1.00  0.00     0.070 C 
ATOM     19  C   UNL     1      14.104  26.844  15.661  1.00  0.00     0.042 C 
ATOM     20  C   UNL     1      12.824  27.212  13.491  1.00  0.00     0.013 C 
ATOM     21  O   UNL     1      16.689  24.130  13.778  1.00  0.00    -0.295 OA
ATOM     22  C   UNL     1      15.929  26.834  13.335  1.00  0.00     0.047 C 
ATOM     23  C   UNL     1      15.204  27.919  15.530  1.00  0.00     0.143 C 
ATOM     24  C   UNL     1      16.393  27.438  14.672  1.00  0.00     0.143 C 
BRANCH   9  25
ATOM     25  O   UNL     1      11.655  23.256  16.698  1.00  0.00    -0.385 OA
ATOM     26  H   UNL     1      12.103  23.295  17.584  1.00  0.00     0.211 HD
ENDBRANCH   9  25
BRANCH  23  27
ATOM     27  O   UNL     1      14.668  29.109  15.014  1.00  0.00    -0.390 OA
ATOM     28  H   UNL     1      13.691  28.965  14.903  1.00  0.00     0.211 HD
ENDBRANCH  23  27
BRANCH  24  29
ATOM     29  O   UNL     1      17.155  26.496  15.385  1.00  0.00    -0.390 OA
ATOM     30  H   UNL     1      17.351  25.749  14.761  1.00  0.00     0.211 HD
ENDBRANCH  24  29
ENDBRANCH   3   5
BRANCH   3  31
ATOM     31  O   UNL     1       8.827  19.860  14.806  1.00  0.00    -0.387 OA
ATOM     32  H   UNL     1       8.378  19.082  14.389  1.00  0.00     0.211 HD
ENDBRANCH   3  31
ENDBRANCH   2   3
BRANCH   2  33
ATOM     33  O   UNL     1       9.766  17.400  14.755  1.00  0.00    -0.390 OA
ATOM     34  H   UNL     1       9.897  16.825  13.956  1.00  0.00     0.211 HD
ENDBRANCH   2  33
ENDBRANCH   1   2
BRANCH   1  35
ATOM     35  C   UNL     1      12.737  16.775  14.397  1.00  0.00     0.037 C 
BRANCH  35  36
ATOM     36  C   UNL     1      14.123  17.145  14.998  1.00  0.00     0.059 C 
ATOM     37  C   UNL     1      14.050  17.324  16.532  1.00  0.00     0.042 C 
ATOM     38  C   UNL     1      14.580  18.477  14.379  1.00  0.00     0.042 C 
BRANCH  36  39
ATOM     39  O   UNL     1      15.082  16.172  14.652  1.00  0.00    -0.390 OA
ATOM     40  H   UNL     1      15.493  16.422  13.784  1.00  0.00     0.211 HD
ENDBRANCH  36  39
ENDBRANCH  35  36
ENDBRANCH   1  35
TORSDOF 11
ENDMDL
MODEL 9
REMARK VINA RESULT:    -5.403      6.001     11.231
REMARK INTER + INTRA:          -8.205
REMARK INTER:                  -8.503
REMARK INTRA:                   0.298
REMARK UNBOUND:                -0.275
REMARK SMILES CC(C)(O)CC[C@H](O)[C@@](C)(O)[C@H]1CC[C@@]2(O)C3=CC(=O)[C@@H]4C[C@H](O)[C@@H](O)C[C@]4(C)[C@H]3CC[C@]12C
REMARK SMILES IDX 6 1 7 2 9 3 10 4 12 5 34 6 33 7 32 8 15 9 31 10 17 11 14 12
REMARK SMILES IDX 13 13 30 14 18 15 28 16 19 17 21 18 27 19 29 20 20 21 22 22
REMARK SMILES IDX 25 23 23 24 16 25 26 27 24 29 11 31 8 33 5 35 2 36 1 37 3 38
REMARK SMILES IDX 4 39
REMARK H PARENT 16 26 26 28 24 30 11 32 8 34 4 40
REMARK Flexibility Score: inf
ROOT
ATOM      1  C   UNL     1      12.157  29.356  13.848  1.00  0.00     0.038 C 
ENDROOT
BRANCH   1   2
ATOM      2  C   UNL     1      11.064  28.841  14.825  1.00  0.00     0.146 C 
BRANCH   2   3
ATOM      3  C   UNL     1       9.678  29.587  14.681  1.00  0.00     0.091 C 
ATOM      4  C   UNL     1       9.927  31.104  14.899  1.00  0.00     0.045 C 
BRANCH   3   5
ATOM      5  C   UNL     1       8.629  28.975  15.710  1.00  0.00     0.032 C 
ATOM      6  C   UNL     1       6.616  28.908  14.100  1.00  0.00     0.015 C 
ATOM      7  C   UNL     1       7.396  28.145  15.217  1.00  0.00     0.006 C 
ATOM      8  C   UNL     1       7.694  26.702  14.705  1.00  0.00     0.011 C 
ATOM      9  C   UNL     1       6.590  28.030  16.541  1.00  0.00     0.092 C 
ATOM     10  C   UNL     1       6.400  25.850  14.531  1.00  0.00     0.009 C 
ATOM     11  C   UNL     1       5.280  27.320  16.232  1.00  0.00    -0.031 C 
ATOM     12  C   UNL     1       6.618  29.465  17.094  1.00  0.00     0.041 C 
ATOM     13  C   UNL     1       8.028  29.978  16.736  1.00  0.00     0.010 C 
ATOM     14  C   UNL     1       5.465  25.873  15.780  1.00  0.00     0.025 C 
ATOM     15  C   UNL     1       4.129  27.978  16.034  1.00  0.00     0.050 C 
ATOM     16  C   UNL     1       4.105  25.079  15.653  1.00  0.00    -0.013 C 
ATOM     17  C   UNL     1       2.994  27.358  15.341  1.00  0.00     0.159 C 
ATOM     18  C   UNL     1       3.044  25.918  14.870  1.00  0.00     0.070 C 
ATOM     19  C   UNL     1       3.583  24.782  17.101  1.00  0.00     0.042 C 
ATOM     20  C   UNL     1       4.370  23.733  14.918  1.00  0.00     0.013 C 
ATOM     21  O   UNL     1       2.005  28.082  15.047  1.00  0.00    -0.295 OA
ATOM     22  C   UNL     1       1.638  25.265  14.927  1.00  0.00     0.047 C 
ATOM     23  C   UNL     1       2.153  24.209  17.194  1.00  0.00     0.143 C 
ATOM     24  C   UNL     1       1.140  25.025  16.363  1.00  0.00     0.143 C 
BRANCH   9  25
ATOM     25  O   UNL     1       7.302  27.229  17.466  1.00  0.00    -0.385 OA
ATOM     26  H   UNL     1       8.147  27.701  17.692  1.00  0.00     0.211 HD
ENDBRANCH   9  25
BRANCH  23  27
ATOM     27  O   UNL     1       2.140  22.859  16.810  1.00  0.00    -0.390 OA
ATOM     28  H   UNL     1       2.052  22.321  17.640  1.00  0.00     0.211 HD
ENDBRANCH  23  27
BRANCH  24  29
ATOM     29  O   UNL     1       0.875  26.254  16.991  1.00  0.00    -0.390 OA
ATOM     30  H   UNL     1       1.412  26.274  17.826  1.00  0.00     0.211 HD
ENDBRANCH  24  29
ENDBRANCH   3   5
BRANCH   3  31
ATOM     31  O   UNL     1       9.196  29.436  13.366  1.00  0.00    -0.387 OA
ATOM     32  H   UNL     1       8.738  28.560  13.302  1.00  0.00     0.211 HD
ENDBRANCH   3  31
ENDBRANCH   2   3
BRANCH   2  33
ATOM     33  O   UNL     1      10.917  27.443  14.705  1.00  0.00    -0.390 OA
ATOM     34  H   UNL     1       9.970  27.211  14.888  1.00  0.00     0.211 HD
ENDBRANCH   2  33
ENDBRANCH   1   2
BRANCH   1  35
ATOM     35  C   UNL     1      13.283  28.320  13.652  1.00  0.00     0.037 C 
BRANCH  35  36
ATOM     36  C   UNL     1      14.244  28.170  14.866  1.00  0.00     0.059 C 
ATOM     37  C   UNL     1      15.597  28.874  14.614  1.00  0.00     0.042 C 
ATOM     38  C   UNL     1      14.514  26.672  15.089  1.00  0.00     0.042 C 
BRANCH  36  39
ATOM     39  O   UNL     1      13.633  28.663  16.037  1.00  0.00    -0.390 OA
ATOM     40  H   UNL     1      13.381  29.611  15.891  1.00  0.00     0.211 HD
ENDBRANCH  36  39
ENDBRANCH  35  36
ENDBRANCH   1  35
TORSDOF 11
ENDMDL
