MODEL 1
REMARK VINA RESULT:    -3.356      0.000      0.000
REMARK INTER + INTRA:          -4.716
REMARK INTER:                  -4.337
REMARK INTRA:                  -0.379
REMARK UNBOUND:                -0.379
REMARK SMILES CCCCCCC(=O)[O-]
REMARK SMILES IDX 5 1 6 2 7 3 8 4 9 5 4 6 3 7 2 8 1 9
REMARK H PARENT
REMARK Flexibility Score: inf
ROOT
ATOM      1  C   UNL     1      -4.338  -8.480 -14.962  1.00  0.00     0.006 C 
ENDROOT
BRANCH   1   2
ATOM      2  C   UNL     1      -5.857  -8.352 -15.138  1.00  0.00     0.053 C 
BRANCH   2   3
ATOM      3  C   UNL     1      -6.491  -9.706 -15.210  1.00  0.00     0.041 C 
ATOM      4  O   UNL     1      -6.012 -10.590 -15.967  1.00  0.00    -0.550 OA
ATOM      5  O   UNL     1      -7.580 -10.006 -14.402  1.00  0.00    -0.550 OA
ENDBRANCH   2   3
ENDBRANCH   1   2
BRANCH   1   6
ATOM      6  C   UNL     1      -3.555  -7.995 -16.193  1.00  0.00     0.000 C 
BRANCH   6   7
ATOM      7  C   UNL     1      -4.341  -6.968 -17.026  1.00  0.00    -0.000 C 
BRANCH   7   8
ATOM      8  C   UNL     1      -4.428  -7.357 -18.510  1.00  0.00    -0.003 C 
ATOM      9  C   UNL     1      -4.588  -8.863 -18.721  1.00  0.00     0.004 C 
ENDBRANCH   7   8
ENDBRANCH   6   7
ENDBRANCH   1   6
TORSDOF 5
ENDMDL
MODEL 2
REMARK VINA RESULT:    -3.349      1.139      1.784
REMARK INTER + INTRA:          -4.706
REMARK INTER:                  -4.552
REMARK INTRA:                  -0.154
REMARK UNBOUND:                -0.379
REMARK SMILES CCCCCCC(=O)[O-]
REMARK SMILES IDX 5 1 6 2 7 3 8 4 9 5 4 6 3 7 2 8 1 9
REMARK H PARENT
REMARK Flexibility Score: inf
ROOT
ATOM      1  C   UNL     1      -4.729  -8.336 -15.476  1.00  0.00     0.006 C 
ENDROOT
BRANCH   1   2
ATOM      2  C   UNL     1      -5.862  -8.657 -14.493  1.00  0.00     0.053 C 
BRANCH   2   3
ATOM      3  C   UNL     1      -6.656  -9.831 -14.975  1.00  0.00     0.041 C 
ATOM      4  O   UNL     1      -7.749 -10.125 -14.426  1.00  0.00    -0.550 OA
ATOM      5  O   UNL     1      -6.212 -10.568 -16.066  1.00  0.00    -0.550 OA
ENDBRANCH   2   3
ENDBRANCH   1   2
BRANCH   1   6
ATOM      6  C   UNL     1      -5.108  -7.234 -16.479  1.00  0.00     0.000 C 
BRANCH   6   7
ATOM      7  C   UNL     1      -4.281  -7.305 -17.775  1.00  0.00    -0.000 C 
BRANCH   7   8
ATOM      8  C   UNL     1      -2.810  -6.920 -17.555  1.00  0.00    -0.003 C 
ATOM      9  C   UNL     1      -1.911  -7.318 -18.727  1.00  0.00     0.004 C 
ENDBRANCH   7   8
ENDBRANCH   6   7
ENDBRANCH   1   6
TORSDOF 5
ENDMDL
MODEL 3
REMARK VINA RESULT:    -3.321     15.663     16.357
REMARK INTER + INTRA:          -4.672
REMARK INTER:                  -4.564
REMARK INTRA:                  -0.108
REMARK UNBOUND:                -0.379
REMARK SMILES CCCCCCC(=O)[O-]
REMARK SMILES IDX 5 1 6 2 7 3 8 4 9 5 4 6 3 7 2 8 1 9
REMARK H PARENT
REMARK Flexibility Score: inf
ROOT
ATOM      1  C   UNL     1     -17.526  -1.223 -22.869  1.00  0.00     0.006 C 
ENDROOT
BRANCH   1   2
ATOM      2  C   UNL     1     -19.012  -1.540 -23.080  1.00  0.00     0.053 C 
BRANCH   2   3
ATOM      3  C   UNL     1     -19.507  -0.909 -24.344  1.00  0.00     0.041 C 
ATOM      4  O   UNL     1     -19.807  -1.625 -25.335  1.00  0.00    -0.550 OA
ATOM      5  O   UNL     1     -19.686   0.467 -24.409  1.00  0.00    -0.550 OA
ENDBRANCH   2   3
ENDBRANCH   1   2
BRANCH   1   6
ATOM      6  C   UNL     1     -17.216  -0.757 -21.437  1.00  0.00     0.000 C 
BRANCH   6   7
ATOM      7  C   UNL     1     -17.131  -1.927 -20.441  1.00  0.00    -0.000 C 
BRANCH   7   8
ATOM      8  C   UNL     1     -15.690  -2.214 -19.993  1.00  0.00    -0.003 C 
ATOM      9  C   UNL     1     -15.363  -1.615 -18.625  1.00  0.00     0.004 C 
ENDBRANCH   7   8
ENDBRANCH   6   7
ENDBRANCH   1   6
TORSDOF 5
ENDMDL
MODEL 4
REMARK VINA RESULT:    -3.317      2.174      3.532
REMARK INTER + INTRA:          -4.665
REMARK INTER:                  -4.288
REMARK INTRA:                  -0.377
REMARK UNBOUND:                -0.379
REMARK SMILES CCCCCCC(=O)[O-]
REMARK SMILES IDX 5 1 6 2 7 3 8 4 9 5 4 6 3 7 2 8 1 9
REMARK H PARENT
REMARK Flexibility Score: inf
ROOT
ATOM      1  C   UNL     1      -3.608  -7.267 -17.741  1.00  0.00     0.006 C 
ENDROOT
BRANCH   1   2
ATOM      2  C   UNL     1      -4.804  -7.139 -16.790  1.00  0.00     0.053 C 
BRANCH   2   3
ATOM      3  C   UNL     1      -4.805  -8.259 -15.797  1.00  0.00     0.041 C 
ATOM      4  O   UNL     1      -5.376  -8.119 -14.684  1.00  0.00    -0.550 OA
ATOM      5  O   UNL     1      -4.219  -9.475 -16.123  1.00  0.00    -0.550 OA
ENDBRANCH   2   3
ENDBRANCH   1   2
BRANCH   1   6
ATOM      6  C   UNL     1      -2.353  -6.551 -17.217  1.00  0.00     0.000 C 
BRANCH   6   7
ATOM      7  C   UNL     1      -1.284  -7.533 -16.704  1.00  0.00    -0.000 C 
BRANCH   7   8
ATOM      8  C   UNL     1      -0.771  -7.164 -15.303  1.00  0.00    -0.003 C 
ATOM      9  C   UNL     1      -1.436  -7.980 -14.194  1.00  0.00     0.004 C 
ENDBRANCH   7   8
ENDBRANCH   6   7
ENDBRANCH   1   6
TORSDOF 5
ENDMDL
MODEL 5
REMARK VINA RESULT:    -3.300      3.044      4.627
REMARK INTER + INTRA:          -4.644
REMARK INTER:                  -4.431
REMARK INTRA:                  -0.213
REMARK UNBOUND:                -0.379
REMARK SMILES CCCCCCC(=O)[O-]
REMARK SMILES IDX 5 1 6 2 7 3 8 4 9 5 4 6 3 7 2 8 1 9
REMARK H PARENT
REMARK Flexibility Score: inf
ROOT
ATOM      1  C   UNL     1      -3.400  -7.242 -17.785  1.00  0.00     0.006 C 
ENDROOT
BRANCH   1   2
ATOM      2  C   UNL     1      -2.205  -6.476 -17.206  1.00  0.00     0.053 C 
BRANCH   2   3
ATOM      3  C   UNL     1      -1.444  -7.341 -16.249  1.00  0.00     0.041 C 
ATOM      4  O   UNL     1      -1.492  -8.594 -16.353  1.00  0.00    -0.550 OA
ATOM      5  O   UNL     1      -0.641  -6.760 -15.276  1.00  0.00    -0.550 OA
ENDBRANCH   2   3
ENDBRANCH   1   2
BRANCH   1   6
ATOM      6  C   UNL     1      -4.672  -7.088 -16.936  1.00  0.00     0.000 C 
BRANCH   6   7
ATOM      7  C   UNL     1      -5.103  -8.407 -16.273  1.00  0.00    -0.000 C 
BRANCH   7   8
ATOM      8  C   UNL     1      -5.365  -8.250 -14.767  1.00  0.00    -0.003 C 
ATOM      9  C   UNL     1      -6.306  -9.321 -14.213  1.00  0.00     0.004 C 
ENDBRANCH   7   8
ENDBRANCH   6   7
ENDBRANCH   1   6
TORSDOF 5
ENDMDL
MODEL 6
REMARK VINA RESULT:    -3.291      2.876      4.597
REMARK INTER + INTRA:          -4.632
REMARK INTER:                  -4.536
REMARK INTRA:                  -0.096
REMARK UNBOUND:                -0.379
REMARK SMILES CCCCCCC(=O)[O-]
REMARK SMILES IDX 5 1 6 2 7 3 8 4 9 5 4 6 3 7 2 8 1 9
REMARK H PARENT
REMARK Flexibility Score: inf
ROOT
ATOM      1  C   UNL     1      -4.613  -8.072 -15.386  1.00  0.00     0.006 C 
ENDROOT
BRANCH   1   2
ATOM      2  C   UNL     1      -5.103  -7.241 -16.578  1.00  0.00     0.053 C 
BRANCH   2   3
ATOM      3  C   UNL     1      -3.972  -6.951 -17.513  1.00  0.00     0.041 C 
ATOM      4  O   UNL     1      -2.843  -6.625 -17.061  1.00  0.00    -0.550 OA
ATOM      5  O   UNL     1      -4.150  -7.091 -18.884  1.00  0.00    -0.550 OA
ENDBRANCH   2   3
ENDBRANCH   1   2
BRANCH   1   6
ATOM      6  C   UNL     1      -5.764  -8.586 -14.506  1.00  0.00     0.000 C 
BRANCH   6   7
ATOM      7  C   UNL     1      -6.559  -9.720 -15.176  1.00  0.00    -0.000 C 
BRANCH   7   8
ATOM      8  C   UNL     1      -7.622 -10.323 -14.244  1.00  0.00    -0.003 C 
ATOM      9  C   UNL     1      -7.612 -11.852 -14.243  1.00  0.00     0.004 C 
ENDBRANCH   7   8
ENDBRANCH   6   7
ENDBRANCH   1   6
TORSDOF 5
ENDMDL
MODEL 7
REMARK VINA RESULT:    -3.267      1.205      1.507
REMARK INTER + INTRA:          -4.601
REMARK INTER:                  -4.456
REMARK INTRA:                  -0.146
REMARK UNBOUND:                -0.379
REMARK SMILES CCCCCCC(=O)[O-]
REMARK SMILES IDX 5 1 6 2 7 3 8 4 9 5 4 6 3 7 2 8 1 9
REMARK H PARENT
REMARK Flexibility Score: inf
ROOT
ATOM      1  C   UNL     1      -5.086  -9.713 -14.802  1.00  0.00     0.006 C 
ENDROOT
BRANCH   1   2
ATOM      2  C   UNL     1      -6.499  -9.547 -14.230  1.00  0.00     0.053 C 
BRANCH   2   3
ATOM      3  C   UNL     1      -7.261 -10.832 -14.337  1.00  0.00     0.041 C 
ATOM      4  O   UNL     1      -6.973 -11.665 -15.235  1.00  0.00    -0.550 OA
ATOM      5  O   UNL     1      -8.253 -11.129 -13.412  1.00  0.00    -0.550 OA
ENDBRANCH   2   3
ENDBRANCH   1   2
BRANCH   1   6
ATOM      6  C   UNL     1      -4.413  -8.369 -15.121  1.00  0.00     0.000 C 
BRANCH   6   7
ATOM      7  C   UNL     1      -5.222  -7.525 -16.121  1.00  0.00    -0.000 C 
BRANCH   7   8
ATOM      8  C   UNL     1      -4.333  -6.848 -17.175  1.00  0.00    -0.003 C 
ATOM      9  C   UNL     1      -4.338  -7.581 -18.517  1.00  0.00     0.004 C 
ENDBRANCH   7   8
ENDBRANCH   6   7
ENDBRANCH   1   6
TORSDOF 5
ENDMDL
MODEL 8
REMARK VINA RESULT:    -3.255      2.207      3.842
REMARK INTER + INTRA:          -4.585
REMARK INTER:                  -4.296
REMARK INTRA:                  -0.289
REMARK UNBOUND:                -0.379
REMARK SMILES CCCCCCC(=O)[O-]
REMARK SMILES IDX 5 1 6 2 7 3 8 4 9 5 4 6 3 7 2 8 1 9
REMARK H PARENT
REMARK Flexibility Score: inf
ROOT
ATOM      1  C   UNL     1      -3.987  -6.911 -17.268  1.00  0.00     0.006 C 
ENDROOT
BRANCH   1   2
ATOM      2  C   UNL     1      -4.093  -7.470 -18.692  1.00  0.00     0.053 C 
BRANCH   2   3
ATOM      3  C   UNL     1      -4.142  -8.966 -18.664  1.00  0.00     0.041 C 
ATOM      4  O   UNL     1      -5.159  -9.575 -19.085  1.00  0.00    -0.550 OA
ATOM      5  O   UNL     1      -3.041  -9.688 -18.220  1.00  0.00    -0.550 OA
ENDBRANCH   2   3
ENDBRANCH   1   2
BRANCH   1   6
ATOM      6  C   UNL     1      -5.182  -7.305 -16.385  1.00  0.00     0.000 C 
BRANCH   6   7
ATOM      7  C   UNL     1      -4.761  -8.120 -15.150  1.00  0.00    -0.000 C 
BRANCH   7   8
ATOM      8  C   UNL     1      -5.918  -8.950 -14.571  1.00  0.00    -0.003 C 
ATOM      9  C   UNL     1      -6.302 -10.134 -15.460  1.00  0.00     0.004 C 
ENDBRANCH   7   8
ENDBRANCH   6   7
ENDBRANCH   1   6
TORSDOF 5
ENDMDL
MODEL 9
REMARK VINA RESULT:    -3.234      3.135      4.347
REMARK INTER + INTRA:          -4.558
REMARK INTER:                  -4.298
REMARK INTRA:                  -0.260
REMARK UNBOUND:                -0.379
REMARK SMILES CCCCCCC(=O)[O-]
REMARK SMILES IDX 5 1 6 2 7 3 8 4 9 5 4 6 3 7 2 8 1 9
REMARK H PARENT
REMARK Flexibility Score: inf
ROOT
ATOM      1  C   UNL     1      -4.824  -7.132 -16.727  1.00  0.00     0.006 C 
ENDROOT
BRANCH   1   2
ATOM      2  C   UNL     1      -4.038  -7.469 -18.000  1.00  0.00     0.053 C 
BRANCH   2   3
ATOM      3  C   UNL     1      -2.575  -7.232 -17.790  1.00  0.00     0.041 C 
ATOM      4  O   UNL     1      -1.727  -7.989 -18.329  1.00  0.00    -0.550 OA
ATOM      5  O   UNL     1      -2.149  -6.143 -17.039  1.00  0.00    -0.550 OA
ENDBRANCH   2   3
ENDBRANCH   1   2
BRANCH   1   6
ATOM      6  C   UNL     1      -4.692  -8.216 -15.644  1.00  0.00     0.000 C 
BRANCH   6   7
ATOM      7  C   UNL     1      -6.057  -8.711 -15.135  1.00  0.00    -0.000 C 
BRANCH   7   8
ATOM      8  C   UNL     1      -6.221 -10.232 -15.277  1.00  0.00    -0.003 C 
ATOM      9  C   UNL     1      -5.744 -10.756 -16.632  1.00  0.00     0.004 C 
ENDBRANCH   7   8
ENDBRANCH   6   7
ENDBRANCH   1   6
TORSDOF 5
ENDMDL
