MODEL 1
REMARK VINA RESULT:    -7.642      0.000      0.000
REMARK INTER + INTRA:         -11.811
REMARK INTER:                 -10.769
REMARK INTRA:                  -1.042
REMARK UNBOUND:                -1.042
REMARK SMILES OCC1=C[C@@H](O)[C@H]2C=CO[C@H](O[C@@H]3O[C@@H](CO)[C@@H](O)[C@@H](O)[C@H]3O)[C@@H]12
REMARK SMILES IDX 12 1 11 2 8 3 9 4 7 5 10 6 24 7 5 8 3 9 4 10 6 11 2 13 1 14
REMARK SMILES IDX 13 16 22 17 14 18 20 19 15 20 18 21 23 22 21 24 16 26 17 27
REMARK SMILES IDX 19 29
REMARK H PARENT 6 12 1 15 23 23 21 25 17 28 19 30
REMARK Flexibility Score: inf
ROOT
ATOM      1  O   UNL     1      -3.565   1.552  10.115  1.00  0.00    -0.310 OA
ENDROOT
BRANCH   1   2
ATOM      2  C   UNL     1      -4.350   1.004  11.158  1.00  0.00     0.316 C 
ATOM      3  C   UNL     1      -6.415   1.057  13.130  1.00  0.00     0.018 C 
ATOM      4  C   UNL     1      -5.292   1.752  13.310  1.00  0.00     0.186 C 
ATOM      5  C   UNL     1      -6.797   0.503  11.778  1.00  0.00     0.061 C 
ATOM      6  O   UNL     1      -4.370   1.896  12.273  1.00  0.00    -0.472 OA
ATOM      7  C   UNL     1      -5.787   0.789  10.640  1.00  0.00     0.096 C 
ATOM      8  C   UNL     1      -7.022  -1.024  11.758  1.00  0.00     0.145 C 
ATOM      9  C   UNL     1      -5.867  -0.451   9.801  1.00  0.00    -0.036 C 
ATOM     10  C   UNL     1      -6.526  -1.432  10.409  1.00  0.00     0.007 C 
BRANCH   8  11
ATOM     11  O   UNL     1      -6.322  -1.699  12.777  1.00  0.00    -0.388 OA
ATOM     12  H   UNL     1      -5.431  -1.956  12.423  1.00  0.00     0.211 HD
ENDBRANCH   8  11
BRANCH   9  13
ATOM     13  C   UNL     1      -5.255  -0.589   8.433  1.00  0.00     0.187 C 
BRANCH  13  14
ATOM     14  O   UNL     1      -5.232   0.654   7.785  1.00  0.00    -0.392 OA
ATOM     15  H   UNL     1      -5.637   1.311   8.412  1.00  0.00     0.211 HD
ENDBRANCH  13  14
ENDBRANCH   9  13
ENDBRANCH   1   2
BRANCH   1  16
ATOM     16  C   UNL     1      -2.185   1.272  10.302  1.00  0.00     0.286 C 
ATOM     17  C   UNL     1      -1.953  -0.256  10.221  1.00  0.00     0.202 C 
ATOM     18  O   UNL     1      -1.377   1.967   9.360  1.00  0.00    -0.341 OA
ATOM     19  C   UNL     1      -2.110  -0.770   8.772  1.00  0.00     0.179 C 
ATOM     20  C   UNL     1      -1.691   1.595   8.026  1.00  0.00     0.178 C 
ATOM     21  C   UNL     1      -1.342   0.113   7.772  1.00  0.00     0.177 C 
BRANCH  17  22
ATOM     22  O   UNL     1      -0.704  -0.621  10.761  1.00  0.00    -0.385 OA
ATOM     23  H   UNL     1      -0.576  -0.133  11.615  1.00  0.00     0.211 HD
ENDBRANCH  17  22
BRANCH  19  24
ATOM     24  O   UNL     1      -1.677  -2.103   8.669  1.00  0.00    -0.387 OA
ATOM     25  H   UNL     1      -0.915  -2.206   9.297  1.00  0.00     0.211 HD
ENDBRANCH  19  24
BRANCH  20  26
ATOM     26  C   UNL     1      -0.932   2.515   7.060  1.00  0.00     0.191 C 
BRANCH  26  27
ATOM     27  O   UNL     1       0.432   2.542   7.385  1.00  0.00    -0.394 OA
ATOM     28  H   UNL     1       0.665   3.492   7.559  1.00  0.00     0.210 HD
ENDBRANCH  26  27
ENDBRANCH  20  26
BRANCH  21  29
ATOM     29  O   UNL     1       0.046  -0.083   7.900  1.00  0.00    -0.387 OA
ATOM     30  H   UNL     1       0.181  -0.748   8.624  1.00  0.00     0.211 HD
ENDBRANCH  21  29
ENDBRANCH   1  16
TORSDOF 10
ENDMDL
MODEL 2
REMARK VINA RESULT:    -7.612      2.241      4.077
REMARK INTER + INTRA:         -11.769
REMARK INTER:                 -10.730
REMARK INTRA:                  -1.040
REMARK UNBOUND:                -1.042
REMARK SMILES OCC1=C[C@@H](O)[C@H]2C=CO[C@H](O[C@@H]3O[C@@H](CO)[C@@H](O)[C@@H](O)[C@H]3O)[C@@H]12
REMARK SMILES IDX 12 1 11 2 8 3 9 4 7 5 10 6 24 7 5 8 3 9 4 10 6 11 2 13 1 14
REMARK SMILES IDX 13 16 22 17 14 18 20 19 15 20 18 21 23 22 21 24 16 26 17 27
REMARK SMILES IDX 19 29
REMARK H PARENT 6 12 1 15 23 23 21 25 17 28 19 30
REMARK Flexibility Score: inf
ROOT
ATOM      1  O   UNL     1      -1.518   0.200  10.094  1.00  0.00    -0.310 OA
ENDROOT
BRANCH   1   2
ATOM      2  C   UNL     1      -1.781  -0.734  11.125  1.00  0.00     0.316 C 
ATOM      3  C   UNL     1      -1.099  -2.330  13.393  1.00  0.00     0.018 C 
ATOM      4  C   UNL     1      -0.639  -2.644  12.183  1.00  0.00     0.186 C 
ATOM      5  C   UNL     1      -1.696  -0.974  13.686  1.00  0.00     0.061 C 
ATOM      6  O   UNL     1      -0.796  -1.767  11.110  1.00  0.00    -0.472 OA
ATOM      7  C   UNL     1      -1.744  -0.001  12.482  1.00  0.00     0.096 C 
ATOM      8  C   UNL     1      -3.137  -1.021  14.238  1.00  0.00     0.145 C 
ATOM      9  C   UNL     1      -3.019   0.753  12.711  1.00  0.00    -0.036 C 
ATOM     10  C   UNL     1      -3.775   0.197  13.652  1.00  0.00     0.007 C 
BRANCH   8  11
ATOM     11  O   UNL     1      -3.835  -2.185  13.862  1.00  0.00    -0.388 OA
ATOM     12  H   UNL     1      -3.521  -2.933  14.434  1.00  0.00     0.211 HD
ENDBRANCH   8  11
BRANCH   9  13
ATOM     13  C   UNL     1      -3.420   1.989  11.951  1.00  0.00     0.187 C 
BRANCH  13  14
ATOM     14  O   UNL     1      -2.282   2.710  11.564  1.00  0.00    -0.392 OA
ATOM     15  H   UNL     1      -1.991   3.233  12.357  1.00  0.00     0.211 HD
ENDBRANCH  13  14
ENDBRANCH   9  13
ENDBRANCH   1   2
BRANCH   1  16
ATOM     16  C   UNL     1      -2.052  -0.234   8.852  1.00  0.00     0.286 C 
ATOM     17  C   UNL     1      -3.598  -0.163   8.902  1.00  0.00     0.202 C 
ATOM     18  O   UNL     1      -1.536   0.525   7.765  1.00  0.00    -0.341 OA
ATOM     19  C   UNL     1      -4.092   1.301   8.879  1.00  0.00     0.179 C 
ATOM     20  C   UNL     1      -1.859   1.903   7.889  1.00  0.00     0.178 C 
ATOM     21  C   UNL     1      -3.383   2.120   7.785  1.00  0.00     0.177 C 
BRANCH  17  22
ATOM     22  O   UNL     1      -4.186  -0.917   7.867  1.00  0.00    -0.385 OA
ATOM     23  H   UNL     1      -3.591  -1.683   7.659  1.00  0.00     0.211 HD
ENDBRANCH  17  22
BRANCH  19  24
ATOM     24  O   UNL     1      -5.483   1.353   8.694  1.00  0.00    -0.387 OA
ATOM     25  H   UNL     1      -5.897   1.085   9.556  1.00  0.00     0.211 HD
ENDBRANCH  19  24
BRANCH  20  26
ATOM     26  C   UNL     1      -1.113   2.689   6.802  1.00  0.00     0.191 C 
BRANCH  26  27
ATOM     27  O   UNL     1      -1.603   4.000   6.726  1.00  0.00    -0.394 OA
ATOM     28  H   UNL     1      -2.497   3.945   6.297  1.00  0.00     0.210 HD
ENDBRANCH  26  27
ENDBRANCH  20  26
BRANCH  21  29
ATOM     29  O   UNL     1      -3.838   1.742   6.508  1.00  0.00    -0.387 OA
ATOM     30  H   UNL     1      -3.051   1.405   6.007  1.00  0.00     0.211 HD
ENDBRANCH  21  29
ENDBRANCH   1  16
TORSDOF 10
ENDMDL
MODEL 3
REMARK VINA RESULT:    -7.564      2.868      4.225
REMARK INTER + INTRA:         -11.701
REMARK INTER:                 -10.957
REMARK INTRA:                  -0.745
REMARK UNBOUND:                -1.042
REMARK SMILES OCC1=C[C@@H](O)[C@H]2C=CO[C@H](O[C@@H]3O[C@@H](CO)[C@@H](O)[C@@H](O)[C@H]3O)[C@@H]12
REMARK SMILES IDX 12 1 11 2 8 3 9 4 7 5 10 6 24 7 5 8 3 9 4 10 6 11 2 13 1 14
REMARK SMILES IDX 13 16 22 17 14 18 20 19 15 20 18 21 23 22 21 24 16 26 17 27
REMARK SMILES IDX 19 29
REMARK H PARENT 6 12 1 15 23 23 21 25 17 28 19 30
REMARK Flexibility Score: inf
ROOT
ATOM      1  O   UNL     1      -3.905  -1.631  11.688  1.00  0.00    -0.310 OA
ENDROOT
BRANCH   1   2
ATOM      2  C   UNL     1      -4.865  -1.282  10.707  1.00  0.00     0.316 C 
ATOM      3  C   UNL     1      -5.929   0.320   8.596  1.00  0.00     0.018 C 
ATOM      4  C   UNL     1      -5.926   0.771   9.850  1.00  0.00     0.186 C 
ATOM      5  C   UNL     1      -5.091  -0.865   8.178  1.00  0.00     0.061 C 
ATOM      6  O   UNL     1      -5.233   0.089  10.851  1.00  0.00    -0.472 OA
ATOM      7  C   UNL     1      -4.256  -1.513   9.309  1.00  0.00     0.096 C 
ATOM      8  C   UNL     1      -5.897  -2.020   7.544  1.00  0.00     0.145 C 
ATOM      9  C   UNL     1      -4.283  -2.970   8.954  1.00  0.00    -0.036 C 
ATOM     10  C   UNL     1      -5.176  -3.243   8.008  1.00  0.00     0.007 C 
BRANCH   8  11
ATOM     11  O   UNL     1      -7.244  -2.043   7.954  1.00  0.00    -0.388 OA
ATOM     12  H   UNL     1      -7.770  -2.521   7.261  1.00  0.00     0.211 HD
ENDBRANCH   8  11
BRANCH   9  13
ATOM     13  C   UNL     1      -3.419  -4.016   9.604  1.00  0.00     0.187 C 
BRANCH  13  14
ATOM     14  O   UNL     1      -4.000  -4.446  10.805  1.00  0.00    -0.392 OA
ATOM     15  H   UNL     1      -4.298  -3.630  11.287  1.00  0.00     0.211 HD
ENDBRANCH  13  14
ENDBRANCH   9  13
ENDBRANCH   1   2
BRANCH   1  16
ATOM     16  C   UNL     1      -2.977  -0.578  11.904  1.00  0.00     0.286 C 
ATOM     17  C   UNL     1      -2.401  -0.683  13.337  1.00  0.00     0.202 C 
ATOM     18  O   UNL     1      -1.941  -0.584  10.929  1.00  0.00    -0.341 OA
ATOM     19  C   UNL     1      -1.437  -1.885  13.465  1.00  0.00     0.179 C 
ATOM     20  C   UNL     1      -1.199  -1.795  10.963  1.00  0.00     0.178 C 
ATOM     21  C   UNL     1      -0.436  -1.934  12.297  1.00  0.00     0.177 C 
BRANCH  17  22
ATOM     22  O   UNL     1      -1.779   0.517  13.736  1.00  0.00    -0.385 OA
ATOM     23  H   UNL     1      -1.137   0.311  14.463  1.00  0.00     0.211 HD
ENDBRANCH  17  22
BRANCH  19  24
ATOM     24  O   UNL     1      -0.748  -1.839  14.689  1.00  0.00    -0.387 OA
ATOM     25  H   UNL     1       0.115  -2.310  14.549  1.00  0.00     0.211 HD
ENDBRANCH  19  24
BRANCH  20  26
ATOM     26  C   UNL     1      -0.235  -1.821   9.769  1.00  0.00     0.191 C 
BRANCH  26  27
ATOM     27  O   UNL     1       0.983  -2.408  10.139  1.00  0.00    -0.394 OA
ATOM     28  H   UNL     1       1.672  -1.694  10.086  1.00  0.00     0.210 HD
ENDBRANCH  26  27
ENDBRANCH  20  26
BRANCH  21  29
ATOM     29  O   UNL     1       0.517  -0.906  12.416  1.00  0.00    -0.387 OA
ATOM     30  H   UNL     1       0.264  -0.197  11.770  1.00  0.00     0.211 HD
ENDBRANCH  21  29
ENDBRANCH   1  16
TORSDOF 10
ENDMDL
MODEL 4
REMARK VINA RESULT:    -7.539      2.225      4.199
REMARK INTER + INTRA:         -11.666
REMARK INTER:                 -10.571
REMARK INTRA:                  -1.095
REMARK UNBOUND:                -1.042
REMARK SMILES OCC1=C[C@@H](O)[C@H]2C=CO[C@H](O[C@@H]3O[C@@H](CO)[C@@H](O)[C@@H](O)[C@H]3O)[C@@H]12
REMARK SMILES IDX 12 1 11 2 8 3 9 4 7 5 10 6 24 7 5 8 3 9 4 10 6 11 2 13 1 14
REMARK SMILES IDX 13 16 22 17 14 18 20 19 15 20 18 21 23 22 21 24 16 26 17 27
REMARK SMILES IDX 19 29
REMARK H PARENT 6 12 1 15 23 23 21 25 17 28 19 30
REMARK Flexibility Score: inf
ROOT
ATOM      1  O   UNL     1      -3.596  -0.206   8.665  1.00  0.00    -0.310 OA
ENDROOT
BRANCH   1   2
ATOM      2  C   UNL     1      -4.209  -1.316   9.296  1.00  0.00     0.316 C 
ATOM      3  C   UNL     1      -5.493  -3.867   9.349  1.00  0.00     0.018 C 
ATOM      4  C   UNL     1      -6.142  -2.793   8.902  1.00  0.00     0.186 C 
ATOM      5  C   UNL     1      -3.992  -3.871   9.520  1.00  0.00     0.061 C 
ATOM      6  O   UNL     1      -5.468  -1.591   8.683  1.00  0.00    -0.472 OA
ATOM      7  C   UNL     1      -3.284  -2.543   9.156  1.00  0.00     0.096 C 
ATOM      8  C   UNL     1      -3.517  -4.215  10.948  1.00  0.00     0.145 C 
ATOM      9  C   UNL     1      -2.163  -2.477  10.150  1.00  0.00    -0.036 C 
ATOM     10  C   UNL     1      -2.295  -3.374  11.122  1.00  0.00     0.007 C 
BRANCH   8  11
ATOM     11  O   UNL     1      -4.477  -3.919  11.935  1.00  0.00    -0.388 OA
ATOM     12  H   UNL     1      -4.350  -2.976  12.218  1.00  0.00     0.211 HD
ENDBRANCH   8  11
BRANCH   9  13
ATOM     13  C   UNL     1      -1.025  -1.495  10.078  1.00  0.00     0.187 C 
BRANCH  13  14
ATOM     14  O   UNL     1      -0.713  -1.211   8.741  1.00  0.00    -0.392 OA
ATOM     15  H   UNL     1      -0.814  -2.062   8.237  1.00  0.00     0.211 HD
ENDBRANCH  13  14
ENDBRANCH   9  13
ENDBRANCH   1   2
BRANCH   1  16
ATOM     16  C   UNL     1      -4.101   1.021   9.169  1.00  0.00     0.286 C 
ATOM     17  C   UNL     1      -4.092   0.987  10.716  1.00  0.00     0.202 C 
ATOM     18  O   UNL     1      -3.366   2.134   8.673  1.00  0.00    -0.341 OA
ATOM     19  C   UNL     1      -2.651   1.073  11.269  1.00  0.00     0.179 C 
ATOM     20  C   UNL     1      -1.998   2.068   9.054  1.00  0.00     0.178 C 
ATOM     21  C   UNL     1      -1.848   2.194  10.584  1.00  0.00     0.177 C 
BRANCH  17  22
ATOM     22  O   UNL     1      -4.910   1.995  11.263  1.00  0.00    -0.385 OA
ATOM     23  H   UNL     1      -5.767   2.010  10.763  1.00  0.00     0.211 HD
ENDBRANCH  17  22
BRANCH  19  24
ATOM     24  O   UNL     1      -2.664   1.272  12.660  1.00  0.00    -0.387 OA
ATOM     25  H   UNL     1      -3.140   0.496  13.056  1.00  0.00     0.211 HD
ENDBRANCH  19  24
BRANCH  20  26
ATOM     26  C   UNL     1      -1.227   3.180   8.329  1.00  0.00     0.191 C 
BRANCH  26  27
ATOM     27  O   UNL     1      -2.028   4.322   8.195  1.00  0.00    -0.394 OA
ATOM     28  H   UNL     1      -1.428   5.060   7.912  1.00  0.00     0.210 HD
ENDBRANCH  26  27
ENDBRANCH  20  26
BRANCH  21  29
ATOM     29  O   UNL     1      -2.296   3.458  11.010  1.00  0.00    -0.387 OA
ATOM     30  H   UNL     1      -3.232   3.556  10.697  1.00  0.00     0.211 HD
ENDBRANCH  21  29
ENDBRANCH   1  16
TORSDOF 10
ENDMDL
MODEL 5
REMARK VINA RESULT:    -7.496      2.783      6.074
REMARK INTER + INTRA:         -11.606
REMARK INTER:                 -10.929
REMARK INTRA:                  -0.677
REMARK UNBOUND:                -1.042
REMARK SMILES OCC1=C[C@@H](O)[C@H]2C=CO[C@H](O[C@@H]3O[C@@H](CO)[C@@H](O)[C@@H](O)[C@H]3O)[C@@H]12
REMARK SMILES IDX 12 1 11 2 8 3 9 4 7 5 10 6 24 7 5 8 3 9 4 10 6 11 2 13 1 14
REMARK SMILES IDX 13 16 22 17 14 18 20 19 15 20 18 21 23 22 21 24 16 26 17 27
REMARK SMILES IDX 19 29
REMARK H PARENT 6 12 1 15 23 23 21 25 17 28 19 30
REMARK Flexibility Score: inf
ROOT
ATOM      1  O   UNL     1      -4.212  -1.279  11.941  1.00  0.00    -0.310 OA
ENDROOT
BRANCH   1   2
ATOM      2  C   UNL     1      -3.113  -1.920  11.320  1.00  0.00     0.316 C 
ATOM      3  C   UNL     1      -1.154  -2.271   9.271  1.00  0.00     0.018 C 
ATOM      4  C   UNL     1      -2.434  -2.562   9.039  1.00  0.00     0.186 C 
ATOM      5  C   UNL     1      -0.733  -1.445  10.462  1.00  0.00     0.061 C 
ATOM      6  O   UNL     1      -3.423  -2.208   9.957  1.00  0.00    -0.472 OA
ATOM      7  C   UNL     1      -1.887  -0.986  11.387  1.00  0.00     0.096 C 
ATOM      8  C   UNL     1       0.287  -2.141  11.389  1.00  0.00     0.145 C 
ATOM      9  C   UNL     1      -1.263  -1.029  12.750  1.00  0.00    -0.036 C 
ATOM     10  C   UNL     1      -0.094  -1.661  12.751  1.00  0.00     0.007 C 
BRANCH   8  11
ATOM     11  O   UNL     1       0.230  -3.547  11.316  1.00  0.00    -0.388 OA
ATOM     12  H   UNL     1       0.577  -3.825  10.429  1.00  0.00     0.211 HD
ENDBRANCH   8  11
BRANCH   9  13
ATOM     13  C   UNL     1      -1.890  -0.447  13.987  1.00  0.00     0.187 C 
BRANCH  13  14
ATOM     14  O   UNL     1      -2.859  -1.322  14.497  1.00  0.00    -0.392 OA
ATOM     15  H   UNL     1      -3.591  -0.757  14.863  1.00  0.00     0.211 HD
ENDBRANCH  13  14
ENDBRANCH   9  13
ENDBRANCH   1   2
BRANCH   1  16
ATOM     16  C   UNL     1      -4.833  -0.349  11.066  1.00  0.00     0.286 C 
ATOM     17  C   UNL     1      -6.314  -0.165  11.477  1.00  0.00     0.202 C 
ATOM     18  O   UNL     1      -4.144   0.895  11.048  1.00  0.00    -0.341 OA
ATOM     19  C   UNL     1      -6.434   0.629  12.798  1.00  0.00     0.179 C 
ATOM     20  C   UNL     1      -4.120   1.498  12.335  1.00  0.00     0.178 C 
ATOM     21  C   UNL     1      -5.544   1.885  12.786  1.00  0.00     0.177 C 
BRANCH  17  22
ATOM     22  O   UNL     1      -7.067   0.437  10.449  1.00  0.00    -0.385 OA
ATOM     23  H   UNL     1      -6.841  -0.009   9.592  1.00  0.00     0.211 HD
ENDBRANCH  17  22
BRANCH  19  24
ATOM     24  O   UNL     1      -7.770   0.988  13.041  1.00  0.00    -0.387 OA
ATOM     25  H   UNL     1      -8.282   0.142  13.135  1.00  0.00     0.211 HD
ENDBRANCH  19  24
BRANCH  20  26
ATOM     26  C   UNL     1      -3.201   2.726  12.291  1.00  0.00     0.191 C 
BRANCH  26  27
ATOM     27  O   UNL     1      -3.731   3.760  13.076  1.00  0.00    -0.394 OA
ATOM     28  H   UNL     1      -3.712   3.442  14.016  1.00  0.00     0.210 HD
ENDBRANCH  26  27
ENDBRANCH  20  26
BRANCH  21  29
ATOM     29  O   UNL     1      -6.074   2.861  11.923  1.00  0.00    -0.387 OA
ATOM     30  H   UNL     1      -5.337   3.489  11.705  1.00  0.00     0.211 HD
ENDBRANCH  21  29
ENDBRANCH   1  16
TORSDOF 10
ENDMDL
MODEL 6
REMARK VINA RESULT:    -7.284      1.671      3.783
REMARK INTER + INTRA:         -11.306
REMARK INTER:                 -10.532
REMARK INTRA:                  -0.775
REMARK UNBOUND:                -1.042
REMARK SMILES OCC1=C[C@@H](O)[C@H]2C=CO[C@H](O[C@@H]3O[C@@H](CO)[C@@H](O)[C@@H](O)[C@H]3O)[C@@H]12
REMARK SMILES IDX 12 1 11 2 8 3 9 4 7 5 10 6 24 7 5 8 3 9 4 10 6 11 2 13 1 14
REMARK SMILES IDX 13 16 22 17 14 18 20 19 15 20 18 21 23 22 21 24 16 26 17 27
REMARK SMILES IDX 19 29
REMARK H PARENT 6 12 1 15 23 23 21 25 17 28 19 30
REMARK Flexibility Score: inf
ROOT
ATOM      1  O   UNL     1      -4.610   1.101   8.795  1.00  0.00    -0.310 OA
ENDROOT
BRANCH   1   2
ATOM      2  C   UNL     1      -5.434  -0.032   8.999  1.00  0.00     0.316 C 
ATOM      3  C   UNL     1      -6.005  -2.830   9.043  1.00  0.00     0.018 C 
ATOM      4  C   UNL     1      -5.871  -2.187   7.884  1.00  0.00     0.186 C 
ATOM      5  C   UNL     1      -5.540  -2.223  10.345  1.00  0.00     0.061 C 
ATOM      6  O   UNL     1      -5.396  -0.875   7.848  1.00  0.00    -0.472 OA
ATOM      7  C   UNL     1      -4.919  -0.809  10.228  1.00  0.00     0.096 C 
ATOM      8  C   UNL     1      -6.641  -2.104  11.420  1.00  0.00     0.145 C 
ATOM      9  C   UNL     1      -5.360  -0.143  11.497  1.00  0.00    -0.036 C 
ATOM     10  C   UNL     1      -6.296  -0.838  12.135  1.00  0.00     0.007 C 
BRANCH   8  11
ATOM     11  O   UNL     1      -7.939  -2.037  10.876  1.00  0.00    -0.388 OA
ATOM     12  H   UNL     1      -7.969  -1.276  10.239  1.00  0.00     0.211 HD
ENDBRANCH   8  11
BRANCH   9  13
ATOM     13  C   UNL     1      -4.827   1.174  11.992  1.00  0.00     0.187 C 
BRANCH  13  14
ATOM     14  O   UNL     1      -5.638   2.225  11.541  1.00  0.00    -0.392 OA
ATOM     15  H   UNL     1      -5.396   2.386  10.591  1.00  0.00     0.211 HD
ENDBRANCH  13  14
ENDBRANCH   9  13
ENDBRANCH   1   2
BRANCH   1  16
ATOM     16  C   UNL     1      -3.354   0.737   8.241  1.00  0.00     0.286 C 
ATOM     17  C   UNL     1      -2.913   1.807   7.213  1.00  0.00     0.202 C 
ATOM     18  O   UNL     1      -2.368   0.555   9.251  1.00  0.00    -0.341 OA
ATOM     19  C   UNL     1      -2.497   3.119   7.915  1.00  0.00     0.179 C 
ATOM     20  C   UNL     1      -2.156   1.746   9.994  1.00  0.00     0.178 C 
ATOM     21  C   UNL     1      -1.553   2.851   9.101  1.00  0.00     0.177 C 
BRANCH  17  22
ATOM     22  O   UNL     1      -1.889   1.328   6.372  1.00  0.00    -0.385 OA
ATOM     23  H   UNL     1      -1.982   0.344   6.292  1.00  0.00     0.211 HD
ENDBRANCH  17  22
BRANCH  19  24
ATOM     24  O   UNL     1      -1.887   3.997   7.004  1.00  0.00    -0.387 OA
ATOM     25  H   UNL     1      -1.747   4.856   7.482  1.00  0.00     0.211 HD
ENDBRANCH  19  24
BRANCH  20  26
ATOM     26  C   UNL     1      -1.236   1.433  11.183  1.00  0.00     0.191 C 
BRANCH  26  27
ATOM     27  O   UNL     1      -1.071   0.048  11.319  1.00  0.00    -0.394 OA
ATOM     28  H   UNL     1      -1.407  -0.193  12.222  1.00  0.00     0.210 HD
ENDBRANCH  26  27
ENDBRANCH  20  26
BRANCH  21  29
ATOM     29  O   UNL     1      -0.280   2.461   8.646  1.00  0.00    -0.387 OA
ATOM     30  H   UNL     1      -0.409   1.664   8.069  1.00  0.00     0.211 HD
ENDBRANCH  21  29
ENDBRANCH   1  16
TORSDOF 10
ENDMDL
MODEL 7
REMARK VINA RESULT:    -7.277      1.984      3.555
REMARK INTER + INTRA:         -11.298
REMARK INTER:                 -10.703
REMARK INTRA:                  -0.595
REMARK UNBOUND:                -1.042
REMARK SMILES OCC1=C[C@@H](O)[C@H]2C=CO[C@H](O[C@@H]3O[C@@H](CO)[C@@H](O)[C@@H](O)[C@H]3O)[C@@H]12
REMARK SMILES IDX 12 1 11 2 8 3 9 4 7 5 10 6 24 7 5 8 3 9 4 10 6 11 2 13 1 14
REMARK SMILES IDX 13 16 22 17 14 18 20 19 15 20 18 21 23 22 21 24 16 26 17 27
REMARK SMILES IDX 19 29
REMARK H PARENT 6 12 1 15 23 23 21 25 17 28 19 30
REMARK Flexibility Score: inf
ROOT
ATOM      1  O   UNL     1      -2.270  -0.435  10.811  1.00  0.00    -0.310 OA
ENDROOT
BRANCH   1   2
ATOM      2  C   UNL     1      -3.395  -0.698  11.630  1.00  0.00     0.316 C 
ATOM      3  C   UNL     1      -4.731  -1.809  13.897  1.00  0.00     0.018 C 
ATOM      4  C   UNL     1      -4.312  -2.596  12.907  1.00  0.00     0.186 C 
ATOM      5  C   UNL     1      -4.239  -0.389  14.042  1.00  0.00     0.061 C 
ATOM      6  O   UNL     1      -3.487  -2.097  11.899  1.00  0.00    -0.472 OA
ATOM      7  C   UNL     1      -3.238   0.077  12.956  1.00  0.00     0.096 C 
ATOM      8  C   UNL     1      -5.360   0.673  14.054  1.00  0.00     0.145 C 
ATOM      9  C   UNL     1      -3.593   1.521  12.769  1.00  0.00    -0.036 C 
ATOM     10  C   UNL     1      -4.743   1.840  13.354  1.00  0.00     0.007 C 
BRANCH   8  11
ATOM     11  O   UNL     1      -6.529   0.250  13.391  1.00  0.00    -0.388 OA
ATOM     12  H   UNL     1      -6.680   0.851  12.616  1.00  0.00     0.211 HD
ENDBRANCH   8  11
BRANCH   9  13
ATOM     13  C   UNL     1      -2.761   2.504  11.990  1.00  0.00     0.187 C 
BRANCH  13  14
ATOM     14  O   UNL     1      -3.051   3.814  12.396  1.00  0.00    -0.392 OA
ATOM     15  H   UNL     1      -3.106   4.363  11.569  1.00  0.00     0.211 HD
ENDBRANCH  13  14
ENDBRANCH   9  13
ENDBRANCH   1   2
BRANCH   1  16
ATOM     16  C   UNL     1      -2.535  -0.746   9.451  1.00  0.00     0.286 C 
ATOM     17  C   UNL     1      -4.036  -0.515   9.151  1.00  0.00     0.202 C 
ATOM     18  O   UNL     1      -1.711   0.010   8.571  1.00  0.00    -0.341 OA
ATOM     19  C   UNL     1      -4.376   0.993   9.126  1.00  0.00     0.179 C 
ATOM     20  C   UNL     1      -1.929   1.405   8.721  1.00  0.00     0.178 C 
ATOM     21  C   UNL     1      -3.360   1.788   8.287  1.00  0.00     0.177 C 
BRANCH  17  22
ATOM     22  O   UNL     1      -4.431  -1.148   7.956  1.00  0.00    -0.385 OA
ATOM     23  H   UNL     1      -5.338  -1.528   8.087  1.00  0.00     0.211 HD
ENDBRANCH  17  22
BRANCH  19  24
ATOM     24  O   UNL     1      -5.675   1.200   8.632  1.00  0.00    -0.387 OA
ATOM     25  H   UNL     1      -5.579   1.655   7.755  1.00  0.00     0.211 HD
ENDBRANCH  19  24
BRANCH  20  26
ATOM     26  C   UNL     1      -0.880   2.163   7.895  1.00  0.00     0.191 C 
BRANCH  26  27
ATOM     27  O   UNL     1      -0.487   1.400   6.788  1.00  0.00    -0.394 OA
ATOM     28  H   UNL     1      -0.878   0.495   6.911  1.00  0.00     0.210 HD
ENDBRANCH  26  27
ENDBRANCH  20  26
BRANCH  21  29
ATOM     29  O   UNL     1      -3.534   1.526   6.916  1.00  0.00    -0.387 OA
ATOM     30  H   UNL     1      -4.162   2.209   6.566  1.00  0.00     0.211 HD
ENDBRANCH  21  29
ENDBRANCH   1  16
TORSDOF 10
ENDMDL
MODEL 8
REMARK VINA RESULT:    -7.257      2.511      4.413
REMARK INTER + INTRA:         -11.269
REMARK INTER:                 -10.635
REMARK INTRA:                  -0.634
REMARK UNBOUND:                -1.042
REMARK SMILES OCC1=C[C@@H](O)[C@H]2C=CO[C@H](O[C@@H]3O[C@@H](CO)[C@@H](O)[C@@H](O)[C@H]3O)[C@@H]12
REMARK SMILES IDX 12 1 11 2 8 3 9 4 7 5 10 6 24 7 5 8 3 9 4 10 6 11 2 13 1 14
REMARK SMILES IDX 13 16 22 17 14 18 20 19 15 20 18 21 23 22 21 24 16 26 17 27
REMARK SMILES IDX 19 29
REMARK H PARENT 6 12 1 15 23 23 21 25 17 28 19 30
REMARK Flexibility Score: inf
ROOT
ATOM      1  O   UNL     1      -3.478  -0.941   9.530  1.00  0.00    -0.310 OA
ENDROOT
BRANCH   1   2
ATOM      2  C   UNL     1      -3.350  -1.588  10.783  1.00  0.00     0.316 C 
ATOM      3  C   UNL     1      -3.749  -3.727  12.633  1.00  0.00     0.018 C 
ATOM      4  C   UNL     1      -4.763  -2.935  12.288  1.00  0.00     0.186 C 
ATOM      5  C   UNL     1      -2.465  -3.761  11.840  1.00  0.00     0.061 C 
ATOM      6  O   UNL     1      -4.630  -2.021  11.241  1.00  0.00    -0.472 OA
ATOM      7  C   UNL     1      -2.416  -2.806  10.622  1.00  0.00     0.096 C 
ATOM      8  C   UNL     1      -1.199  -3.444  12.665  1.00  0.00     0.145 C 
ATOM      9  C   UNL     1      -0.981  -2.372  10.592  1.00  0.00    -0.036 C 
ATOM     10  C   UNL     1      -0.328  -2.709  11.700  1.00  0.00     0.007 C 
BRANCH   8  11
ATOM     11  O   UNL     1      -1.465  -2.657  13.803  1.00  0.00    -0.388 OA
ATOM     12  H   UNL     1      -1.554  -1.712  13.512  1.00  0.00     0.211 HD
ENDBRANCH   8  11
BRANCH   9  13
ATOM     13  C   UNL     1      -0.347  -1.620   9.454  1.00  0.00     0.187 C 
BRANCH  13  14
ATOM     14  O   UNL     1       1.000  -1.983   9.324  1.00  0.00    -0.392 OA
ATOM     15  H   UNL     1       1.533  -1.262   9.753  1.00  0.00     0.211 HD
ENDBRANCH  13  14
ENDBRANCH   9  13
ENDBRANCH   1   2
BRANCH   1  16
ATOM     16  C   UNL     1      -3.954   0.388   9.678  1.00  0.00     0.286 C 
ATOM     17  C   UNL     1      -3.435   0.977  11.012  1.00  0.00     0.202 C 
ATOM     18  O   UNL     1      -3.582   1.205   8.574  1.00  0.00    -0.341 OA
ATOM     19  C   UNL     1      -1.919   1.269  10.942  1.00  0.00     0.179 C 
ATOM     20  C   UNL     1      -2.171   1.290   8.440  1.00  0.00     0.178 C 
ATOM     21  C   UNL     1      -1.547   2.018   9.649  1.00  0.00     0.177 C 
BRANCH  17  22
ATOM     22  O   UNL     1      -4.161   2.124  11.391  1.00  0.00    -0.385 OA
ATOM     23  H   UNL     1      -5.070   2.064  10.999  1.00  0.00     0.211 HD
ENDBRANCH  17  22
BRANCH  19  24
ATOM     24  O   UNL     1      -1.504   2.009  12.062  1.00  0.00    -0.387 OA
ATOM     25  H   UNL     1      -2.287   2.541  12.361  1.00  0.00     0.211 HD
ENDBRANCH  19  24
BRANCH  20  26
ATOM     26  C   UNL     1      -1.839   2.014   7.127  1.00  0.00     0.191 C 
BRANCH  26  27
ATOM     27  O   UNL     1      -2.870   2.901   6.786  1.00  0.00    -0.394 OA
ATOM     28  H   UNL     1      -3.619   2.721   7.413  1.00  0.00     0.210 HD
ENDBRANCH  26  27
ENDBRANCH  20  26
BRANCH  21  29
ATOM     29  O   UNL     1      -2.000   3.348   9.697  1.00  0.00    -0.387 OA
ATOM     30  H   UNL     1      -2.051   3.605  10.654  1.00  0.00     0.211 HD
ENDBRANCH  21  29
ENDBRANCH   1  16
TORSDOF 10
ENDMDL
MODEL 9
REMARK VINA RESULT:    -7.050      2.366      5.401
REMARK INTER + INTRA:         -10.977
REMARK INTER:                 -10.513
REMARK INTRA:                  -0.464
REMARK UNBOUND:                -1.042
REMARK SMILES OCC1=C[C@@H](O)[C@H]2C=CO[C@H](O[C@@H]3O[C@@H](CO)[C@@H](O)[C@@H](O)[C@H]3O)[C@@H]12
REMARK SMILES IDX 12 1 11 2 8 3 9 4 7 5 10 6 24 7 5 8 3 9 4 10 6 11 2 13 1 14
REMARK SMILES IDX 13 16 22 17 14 18 20 19 15 20 18 21 23 22 21 24 16 26 17 27
REMARK SMILES IDX 19 29
REMARK H PARENT 6 12 1 15 23 23 21 25 17 28 19 30
REMARK Flexibility Score: inf
ROOT
ATOM      1  O   UNL     1      -5.925  -0.564  10.967  1.00  0.00    -0.310 OA
ENDROOT
BRANCH   1   2
ATOM      2  C   UNL     1      -5.235  -1.661  10.395  1.00  0.00     0.316 C 
ATOM      3  C   UNL     1      -4.828  -3.728   8.467  1.00  0.00     0.018 C 
ATOM      4  C   UNL     1      -5.800  -3.831   9.372  1.00  0.00     0.186 C 
ATOM      5  C   UNL     1      -4.136  -2.414   8.193  1.00  0.00     0.061 C 
ATOM      6  O   UNL     1      -6.137  -2.747  10.183  1.00  0.00    -0.472 OA
ATOM      7  C   UNL     1      -4.628  -1.220   9.047  1.00  0.00     0.096 C 
ATOM      8  C   UNL     1      -2.604  -2.452   8.380  1.00  0.00     0.145 C 
ATOM      9  C   UNL     1      -3.376  -0.424   9.266  1.00  0.00    -0.036 C 
ATOM     10  C   UNL     1      -2.283  -1.094   8.914  1.00  0.00     0.007 C 
BRANCH   8  11
ATOM     11  O   UNL     1      -2.181  -3.457   9.272  1.00  0.00    -0.388 OA
ATOM     12  H   UNL     1      -1.795  -4.201   8.740  1.00  0.00     0.211 HD
ENDBRANCH   8  11
BRANCH   9  13
ATOM     13  C   UNL     1      -3.345   0.966   9.839  1.00  0.00     0.187 C 
BRANCH  13  14
ATOM     14  O   UNL     1      -4.507   1.664   9.480  1.00  0.00    -0.392 OA
ATOM     15  H   UNL     1      -4.488   1.760   8.491  1.00  0.00     0.211 HD
ENDBRANCH  13  14
ENDBRANCH   9  13
ENDBRANCH   1   2
BRANCH   1  16
ATOM     16  C   UNL     1      -6.148  -0.758  12.356  1.00  0.00     0.286 C 
ATOM     17  C   UNL     1      -5.112  -1.766  12.909  1.00  0.00     0.202 C 
ATOM     18  O   UNL     1      -6.104   0.471  13.070  1.00  0.00    -0.341 OA
ATOM     19  C   UNL     1      -3.701  -1.139  12.975  1.00  0.00     0.179 C 
ATOM     20  C   UNL     1      -4.838   1.104  12.945  1.00  0.00     0.178 C 
ATOM     21  C   UNL     1      -3.733   0.260  13.616  1.00  0.00     0.177 C 
BRANCH  17  22
ATOM     22  O   UNL     1      -5.503  -2.279  14.162  1.00  0.00    -0.385 OA
ATOM     23  H   UNL     1      -6.434  -2.613  14.087  1.00  0.00     0.211 HD
ENDBRANCH  17  22
BRANCH  19  24
ATOM     24  O   UNL     1      -2.820  -1.972  13.685  1.00  0.00    -0.387 OA
ATOM     25  H   UNL     1      -3.348  -2.756  13.988  1.00  0.00     0.211 HD
ENDBRANCH  19  24
BRANCH  20  26
ATOM     26  C   UNL     1      -4.919   2.505  13.566  1.00  0.00     0.191 C 
BRANCH  26  27
ATOM     27  O   UNL     1      -4.174   3.418  12.807  1.00  0.00    -0.394 OA
ATOM     28  H   UNL     1      -4.685   4.270  12.804  1.00  0.00     0.210 HD
ENDBRANCH  26  27
ENDBRANCH  20  26
BRANCH  21  29
ATOM     29  O   UNL     1      -3.971   0.168  14.999  1.00  0.00    -0.387 OA
ATOM     30  H   UNL     1      -3.254   0.682  15.453  1.00  0.00     0.211 HD
ENDBRANCH  21  29
ENDBRANCH   1  16
TORSDOF 10
ENDMDL
