MODEL 1
REMARK VINA RESULT:    -3.513      0.000      0.000
REMARK INTER + INTRA:          -4.695
REMARK INTER:                  -4.539
REMARK INTRA:                  -0.156
REMARK UNBOUND:                -0.156
REMARK SMILES C=CC(=O)CCCCC
REMARK SMILES IDX 6 1 7 2 8 3 9 4 5 5 3 6 4 7 2 8 1 9
REMARK H PARENT
REMARK Flexibility Score: inf
ROOT
ATOM      1  C   UNL     1       8.357  -6.806 -22.250  1.00  0.00     0.008 C 
ENDROOT
BRANCH   1   2
ATOM      2  C   UNL     1       8.586  -8.047 -21.378  1.00  0.00     0.000 C 
BRANCH   2   3
ATOM      3  C   UNL     1       7.255  -8.610 -20.864  1.00  0.00    -0.003 C 
ATOM      4  C   UNL     1       7.485  -9.751 -19.877  1.00  0.00     0.004 C 
ENDBRANCH   2   3
ENDBRANCH   1   2
BRANCH   1   5
ATOM      5  C   UNL     1       6.905  -6.742 -22.748  1.00  0.00     0.080 C 
BRANCH   5   6
ATOM      6  C   UNL     1       6.667  -5.625 -23.737  1.00  0.00     0.155 C 
ATOM      7  O   UNL     1       7.620  -4.875 -24.086  1.00  0.00    -0.295 OA
BRANCH   6   8
ATOM      8  C   UNL     1       5.334  -5.372 -24.324  1.00  0.00     0.039 C 
ATOM      9  C   UNL     1       4.577  -6.325 -24.868  1.00  0.00     0.012 C 
ENDBRANCH   6   8
ENDBRANCH   5   6
ENDBRANCH   1   5
TORSDOF 5
ENDMDL
MODEL 2
REMARK VINA RESULT:    -3.462     19.008     20.347
REMARK INTER + INTRA:          -4.630
REMARK INTER:                  -4.535
REMARK INTRA:                  -0.095
REMARK UNBOUND:                -0.156
REMARK SMILES C=CC(=O)CCCCC
REMARK SMILES IDX 6 1 7 2 8 3 9 4 5 5 3 6 4 7 2 8 1 9
REMARK H PARENT
REMARK Flexibility Score: inf
ROOT
ATOM      1  C   UNL     1      -2.834  -8.258  -5.806  1.00  0.00     0.008 C 
ENDROOT
BRANCH   1   2
ATOM      2  C   UNL     1      -1.927  -7.444  -4.875  1.00  0.00     0.000 C 
BRANCH   2   3
ATOM      3  C   UNL     1      -0.647  -7.009  -5.598  1.00  0.00    -0.003 C 
ATOM      4  C   UNL     1       0.591  -7.604  -4.932  1.00  0.00     0.004 C 
ENDBRANCH   2   3
ENDBRANCH   1   2
BRANCH   1   5
ATOM      5  C   UNL     1      -3.593  -9.342  -5.026  1.00  0.00     0.080 C 
BRANCH   5   6
ATOM      6  C   UNL     1      -4.359 -10.288  -5.921  1.00  0.00     0.155 C 
ATOM      7  O   UNL     1      -4.536 -10.005  -7.137  1.00  0.00    -0.295 OA
BRANCH   6   8
ATOM      8  C   UNL     1      -4.920 -11.558  -5.415  1.00  0.00     0.039 C 
ATOM      9  C   UNL     1      -6.179 -11.942  -5.625  1.00  0.00     0.012 C 
ENDBRANCH   6   8
ENDBRANCH   5   6
ENDBRANCH   1   5
TORSDOF 5
ENDMDL
MODEL 3
REMARK VINA RESULT:    -2.929     19.959     21.308
REMARK INTER + INTRA:          -3.941
REMARK INTER:                  -3.738
REMARK INTRA:                  -0.202
REMARK UNBOUND:                -0.156
REMARK SMILES C=CC(=O)CCCCC
REMARK SMILES IDX 6 1 7 2 8 3 9 4 5 5 3 6 4 7 2 8 1 9
REMARK H PARENT
REMARK Flexibility Score: inf
ROOT
ATOM      1  C   UNL     1      -4.007  -9.498  -5.947  1.00  0.00     0.008 C 
ENDROOT
BRANCH   1   2
ATOM      2  C   UNL     1      -2.997  -9.061  -4.878  1.00  0.00     0.000 C 
BRANCH   2   3
ATOM      3  C   UNL     1      -2.794  -7.541  -4.903  1.00  0.00    -0.003 C 
ATOM      4  C   UNL     1      -1.318  -7.185  -5.054  1.00  0.00     0.004 C 
ENDBRANCH   2   3
ENDBRANCH   1   2
BRANCH   1   5
ATOM      5  C   UNL     1      -4.006 -11.025  -6.115  1.00  0.00     0.080 C 
BRANCH   5   6
ATOM      6  C   UNL     1      -5.335 -11.657  -5.771  1.00  0.00     0.155 C 
ATOM      7  O   UNL     1      -5.615 -12.812  -6.196  1.00  0.00    -0.295 OA
BRANCH   6   8
ATOM      8  C   UNL     1      -6.339 -10.961  -4.941  1.00  0.00     0.039 C 
ATOM      9  C   UNL     1      -7.620 -11.324  -4.875  1.00  0.00     0.012 C 
ENDBRANCH   6   8
ENDBRANCH   5   6
ENDBRANCH   1   5
TORSDOF 5
ENDMDL
MODEL 4
REMARK VINA RESULT:    -2.644     18.847     20.430
REMARK INTER + INTRA:          -3.572
REMARK INTER:                  -3.382
REMARK INTRA:                  -0.191
REMARK UNBOUND:                -0.156
REMARK SMILES C=CC(=O)CCCCC
REMARK SMILES IDX 6 1 7 2 8 3 9 4 5 5 3 6 4 7 2 8 1 9
REMARK H PARENT
REMARK Flexibility Score: inf
ROOT
ATOM      1  C   UNL     1      -3.605  -9.199  -6.354  1.00  0.00     0.008 C 
ENDROOT
BRANCH   1   2
ATOM      2  C   UNL     1      -4.752 -10.214  -6.281  1.00  0.00     0.000 C 
BRANCH   2   3
ATOM      3  C   UNL     1      -4.865 -10.816  -4.875  1.00  0.00    -0.003 C 
ATOM      4  C   UNL     1      -4.941 -12.339  -4.932  1.00  0.00     0.004 C 
ENDBRANCH   2   3
ENDBRANCH   1   2
BRANCH   1   5
ATOM      5  C   UNL     1      -3.052  -8.890  -4.955  1.00  0.00     0.080 C 
BRANCH   5   6
ATOM      6  C   UNL     1      -2.267  -7.601  -4.901  1.00  0.00     0.155 C 
ATOM      7  O   UNL     1      -2.869  -6.493  -4.876  1.00  0.00    -0.295 OA
BRANCH   6   8
ATOM      8  C   UNL     1      -0.789  -7.588  -4.875  1.00  0.00     0.039 C 
ATOM      9  C   UNL     1      -0.047  -6.781  -5.632  1.00  0.00     0.012 C 
ENDBRANCH   6   8
ENDBRANCH   5   6
ENDBRANCH   1   5
TORSDOF 5
ENDMDL
MODEL 5
REMARK VINA RESULT:    -2.035     19.543     21.251
REMARK INTER + INTRA:          -2.786
REMARK INTER:                  -2.678
REMARK INTRA:                  -0.108
REMARK UNBOUND:                -0.156
REMARK SMILES C=CC(=O)CCCCC
REMARK SMILES IDX 6 1 7 2 8 3 9 4 5 5 3 6 4 7 2 8 1 9
REMARK H PARENT
REMARK Flexibility Score: inf
ROOT
ATOM      1  C   UNL     1      -5.202 -10.620  -5.072  1.00  0.00     0.008 C 
ENDROOT
BRANCH   1   2
ATOM      2  C   UNL     1      -5.579 -12.104  -5.152  1.00  0.00     0.000 C 
BRANCH   2   3
ATOM      3  C   UNL     1      -6.990 -12.283  -5.725  1.00  0.00    -0.003 C 
ATOM      4  C   UNL     1      -8.026 -11.551  -4.876  1.00  0.00     0.004 C 
ENDBRANCH   2   3
ENDBRANCH   1   2
BRANCH   1   5
ATOM      5  C   UNL     1      -3.677 -10.436  -5.106  1.00  0.00     0.080 C 
BRANCH   5   6
ATOM      6  C   UNL     1      -3.254  -9.115  -5.704  1.00  0.00     0.155 C 
ATOM      7  O   UNL     1      -3.403  -8.902  -6.939  1.00  0.00    -0.295 OA
BRANCH   6   8
ATOM      8  C   UNL     1      -2.660  -8.040  -4.881  1.00  0.00     0.039 C 
ATOM      9  C   UNL     1      -1.684  -7.239  -5.309  1.00  0.00     0.012 C 
ENDBRANCH   6   8
ENDBRANCH   5   6
ENDBRANCH   1   5
TORSDOF 5
ENDMDL
MODEL 6
REMARK VINA RESULT:    -2.017      1.922      2.315
REMARK INTER + INTRA:          -2.762
REMARK INTER:                  -2.640
REMARK INTRA:                  -0.123
REMARK UNBOUND:                -0.156
REMARK SMILES C=CC(=O)CCCCC
REMARK SMILES IDX 6 1 7 2 8 3 9 4 5 5 3 6 4 7 2 8 1 9
REMARK H PARENT
REMARK Flexibility Score: inf
ROOT
ATOM      1  C   UNL     1       7.977  -7.453 -21.746  1.00  0.00     0.008 C 
ENDROOT
BRANCH   1   2
ATOM      2  C   UNL     1       9.125  -8.398 -21.370  1.00  0.00     0.000 C 
BRANCH   2   3
ATOM      3  C   UNL     1       8.588  -9.720 -20.810  1.00  0.00    -0.003 C 
ATOM      4  C   UNL     1       7.138  -9.576 -20.353  1.00  0.00     0.004 C 
ENDBRANCH   2   3
ENDBRANCH   1   2
BRANCH   1   5
ATOM      5  C   UNL     1       8.513  -6.152 -22.364  1.00  0.00     0.080 C 
BRANCH   5   6
ATOM      6  C   UNL     1       8.382  -6.115 -23.868  1.00  0.00     0.155 C 
ATOM      7  O   UNL     1       8.447  -5.015 -24.482  1.00  0.00    -0.295 OA
BRANCH   6   8
ATOM      8  C   UNL     1       8.175  -7.343 -24.664  1.00  0.00     0.039 C 
ATOM      9  C   UNL     1       9.125  -8.256 -24.870  1.00  0.00     0.012 C 
ENDBRANCH   6   8
ENDBRANCH   5   6
ENDBRANCH   1   5
TORSDOF 5
ENDMDL
MODEL 7
REMARK VINA RESULT:    -1.982      1.651      4.731
REMARK INTER + INTRA:          -2.717
REMARK INTER:                  -2.569
REMARK INTRA:                  -0.148
REMARK UNBOUND:                -0.156
REMARK SMILES C=CC(=O)CCCCC
REMARK SMILES IDX 6 1 7 2 8 3 9 4 5 5 3 6 4 7 2 8 1 9
REMARK H PARENT
REMARK Flexibility Score: inf
ROOT
ATOM      1  C   UNL     1       6.668  -5.151 -23.756  1.00  0.00     0.008 C 
ENDROOT
BRANCH   1   2
ATOM      2  C   UNL     1       6.027  -4.892 -25.124  1.00  0.00     0.000 C 
BRANCH   2   3
ATOM      3  C   UNL     1       4.497  -4.928 -25.030  1.00  0.00    -0.003 C 
ATOM      4  C   UNL     1       3.973  -6.360 -25.107  1.00  0.00     0.004 C 
ENDBRANCH   2   3
ENDBRANCH   1   2
BRANCH   1   5
ATOM      5  C   UNL     1       8.189  -5.324 -23.883  1.00  0.00     0.080 C 
BRANCH   5   6
ATOM      6  C   UNL     1       8.681  -6.647 -23.344  1.00  0.00     0.155 C 
ATOM      7  O   UNL     1       8.952  -7.592 -24.135  1.00  0.00    -0.295 OA
BRANCH   6   8
ATOM      8  C   UNL     1       8.861  -6.881 -21.896  1.00  0.00     0.039 C 
ATOM      9  C   UNL     1       8.790  -8.086 -21.331  1.00  0.00     0.012 C 
ENDBRANCH   6   8
ENDBRANCH   5   6
ENDBRANCH   1   5
TORSDOF 5
ENDMDL
