MODEL 1
REMARK VINA RESULT:    -4.639      0.000      0.000
REMARK INTER + INTRA:          -4.639
REMARK INTER:                  -4.639
REMARK INTRA:                   0.000
REMARK UNBOUND:                 0.000
REMARK SMILES CC(C)=C1CC[C@@H](C)CC1=O
REMARK SMILES IDX 8 1 7 2 6 3 5 4 4 5 2 6 1 7 3 8 10 9 11 10 9 11
REMARK H PARENT
REMARK Flexibility Score: inf
ROOT
ATOM      1  C   UNL     1      -5.699  -5.374  10.034  1.00  0.00     0.008 C 
ATOM      2  C   UNL     1      -4.405  -4.554  10.092  1.00  0.00    -0.006 C 
ATOM      3  C   UNL     1      -4.056  -4.199  11.546  1.00  0.00     0.008 C 
ATOM      4  C   UNL     1      -2.711  -3.465  11.632  1.00  0.00     0.039 C 
ATOM      5  C   UNL     1      -2.642  -2.261  10.702  1.00  0.00    -0.006 C 
ATOM      6  C   UNL     1      -1.910  -1.155  11.027  1.00  0.00    -0.070 C 
ATOM      7  C   UNL     1      -1.879   0.067  10.140  1.00  0.00     0.039 C 
ATOM      8  C   UNL     1      -1.123  -1.086  12.317  1.00  0.00     0.039 C 
ATOM      9  C   UNL     1      -3.318  -2.414   9.380  1.00  0.00     0.159 C 
ATOM     10  O   UNL     1      -2.878  -1.838   8.349  1.00  0.00    -0.295 OA
ATOM     11  C   UNL     1      -4.543  -3.272   9.257  1.00  0.00     0.084 C 
ENDROOT
TORSDOF 0
ENDMDL
MODEL 2
REMARK VINA RESULT:    -4.521      7.474      8.938
REMARK INTER + INTRA:          -4.521
REMARK INTER:                  -4.521
REMARK INTRA:                   0.000
REMARK UNBOUND:                 0.000
REMARK SMILES CC(C)=C1CC[C@@H](C)CC1=O
REMARK SMILES IDX 8 1 7 2 6 3 5 4 4 5 2 6 1 7 3 8 10 9 11 10 9 11
REMARK H PARENT
REMARK Flexibility Score: inf
ROOT
ATOM      1  C   UNL     1      -2.259   1.366  14.774  1.00  0.00     0.008 C 
ATOM      2  C   UNL     1      -3.293   2.497  14.809  1.00  0.00    -0.006 C 
ATOM      3  C   UNL     1      -3.045   3.418  16.015  1.00  0.00     0.008 C 
ATOM      4  C   UNL     1      -4.007   4.614  16.010  1.00  0.00     0.039 C 
ATOM      5  C   UNL     1      -5.464   4.190  15.887  1.00  0.00    -0.006 C 
ATOM      6  C   UNL     1      -6.465   4.913  16.470  1.00  0.00    -0.070 C 
ATOM      7  C   UNL     1      -7.908   4.472  16.404  1.00  0.00     0.039 C 
ATOM      8  C   UNL     1      -6.168   6.175  17.250  1.00  0.00     0.039 C 
ATOM      9  C   UNL     1      -5.734   3.019  15.001  1.00  0.00     0.159 C 
ATOM     10  O   UNL     1      -6.807   2.927  14.346  1.00  0.00    -0.295 OA
ATOM     11  C   UNL     1      -4.717   1.923  14.871  1.00  0.00     0.084 C 
ENDROOT
TORSDOF 0
ENDMDL
MODEL 3
REMARK VINA RESULT:    -4.427      1.850      4.079
REMARK INTER + INTRA:          -4.427
REMARK INTER:                  -4.427
REMARK INTRA:                   0.000
REMARK UNBOUND:                 0.000
REMARK SMILES CC(C)=C1CC[C@@H](C)CC1=O
REMARK SMILES IDX 8 1 7 2 6 3 5 4 4 5 2 6 1 7 3 8 10 9 11 10 9 11
REMARK H PARENT
REMARK Flexibility Score: inf
ROOT
ATOM      1  C   UNL     1      -3.754   2.694  10.168  1.00  0.00     0.008 C 
ATOM      2  C   UNL     1      -3.842   1.211  10.546  1.00  0.00    -0.006 C 
ATOM      3  C   UNL     1      -2.646   0.806  11.423  1.00  0.00     0.008 C 
ATOM      4  C   UNL     1      -2.770  -0.649  11.896  1.00  0.00     0.039 C 
ATOM      5  C   UNL     1      -3.008  -1.618  10.746  1.00  0.00    -0.006 C 
ATOM      6  C   UNL     1      -2.535  -2.898  10.789  1.00  0.00    -0.070 C 
ATOM      7  C   UNL     1      -2.716  -3.852   9.631  1.00  0.00     0.039 C 
ATOM      8  C   UNL     1      -1.770  -3.412  11.987  1.00  0.00     0.039 C 
ATOM      9  C   UNL     1      -3.880  -1.123   9.640  1.00  0.00     0.159 C 
ATOM     10  O   UNL     1      -4.624  -1.906   8.992  1.00  0.00    -0.295 OA
ATOM     11  C   UNL     1      -3.888   0.336   9.285  1.00  0.00     0.084 C 
ENDROOT
TORSDOF 0
ENDMDL
MODEL 4
REMARK VINA RESULT:    -4.423      8.421      9.614
REMARK INTER + INTRA:          -4.423
REMARK INTER:                  -4.423
REMARK INTRA:                   0.000
REMARK UNBOUND:                 0.000
REMARK SMILES CC(C)=C1CC[C@@H](C)CC1=O
REMARK SMILES IDX 8 1 7 2 6 3 5 4 4 5 2 6 1 7 3 8 10 9 11 10 9 11
REMARK H PARENT
REMARK Flexibility Score: inf
ROOT
ATOM      1  C   UNL     1      -4.750   1.397  13.836  1.00  0.00     0.008 C 
ATOM      2  C   UNL     1      -5.549   2.667  14.149  1.00  0.00    -0.006 C 
ATOM      3  C   UNL     1      -4.777   3.916  13.695  1.00  0.00     0.008 C 
ATOM      4  C   UNL     1      -5.605   5.191  13.907  1.00  0.00     0.039 C 
ATOM      5  C   UNL     1      -6.133   5.314  15.330  1.00  0.00    -0.006 C 
ATOM      6  C   UNL     1      -6.307   6.534  15.918  1.00  0.00    -0.070 C 
ATOM      7  C   UNL     1      -6.776   6.667  17.349  1.00  0.00     0.039 C 
ATOM      8  C   UNL     1      -6.000   7.814  15.175  1.00  0.00     0.039 C 
ATOM      9  C   UNL     1      -6.553   4.040  15.986  1.00  0.00     0.159 C 
ATOM     10  O   UNL     1      -7.496   4.014  16.821  1.00  0.00    -0.295 OA
ATOM     11  C   UNL     1      -5.852   2.756  15.652  1.00  0.00     0.084 C 
ENDROOT
TORSDOF 0
ENDMDL
MODEL 5
REMARK VINA RESULT:    -4.367      7.513      9.279
REMARK INTER + INTRA:          -4.367
REMARK INTER:                  -4.367
REMARK INTRA:                   0.000
REMARK UNBOUND:                 0.000
REMARK SMILES CC(C)=C1CC[C@@H](C)CC1=O
REMARK SMILES IDX 8 1 7 2 6 3 5 4 4 5 2 6 1 7 3 8 10 9 11 10 9 11
REMARK H PARENT
REMARK Flexibility Score: inf
ROOT
ATOM      1  C   UNL     1      -3.111   5.458  11.955  1.00  0.00     0.008 C 
ATOM      2  C   UNL     1      -4.407   5.034  12.657  1.00  0.00    -0.006 C 
ATOM      3  C   UNL     1      -4.827   6.087  13.695  1.00  0.00     0.008 C 
ATOM      4  C   UNL     1      -6.176   5.730  14.335  1.00  0.00     0.039 C 
ATOM      5  C   UNL     1      -6.199   4.314  14.895  1.00  0.00    -0.006 C 
ATOM      6  C   UNL     1      -6.946   3.997  15.993  1.00  0.00    -0.070 C 
ATOM      7  C   UNL     1      -6.934   2.610  16.591  1.00  0.00     0.039 C 
ATOM      8  C   UNL     1      -7.796   5.037  16.689  1.00  0.00     0.039 C 
ATOM      9  C   UNL     1      -5.458   3.284  14.106  1.00  0.00     0.159 C 
ATOM     10  O   UNL     1      -5.846   2.086  14.065  1.00  0.00    -0.295 OA
ATOM     11  C   UNL     1      -4.228   3.669  13.337  1.00  0.00     0.084 C 
ENDROOT
TORSDOF 0
ENDMDL
MODEL 6
REMARK VINA RESULT:    -4.329      7.147      8.626
REMARK INTER + INTRA:          -4.329
REMARK INTER:                  -4.329
REMARK INTRA:                   0.000
REMARK UNBOUND:                 0.000
REMARK SMILES CC(C)=C1CC[C@@H](C)CC1=O
REMARK SMILES IDX 8 1 7 2 6 3 5 4 4 5 2 6 1 7 3 8 10 9 11 10 9 11
REMARK H PARENT
REMARK Flexibility Score: inf
ROOT
ATOM      1  C   UNL     1      -2.212   1.366  14.916  1.00  0.00     0.008 C 
ATOM      2  C   UNL     1      -3.341   2.353  15.236  1.00  0.00    -0.006 C 
ATOM      3  C   UNL     1      -4.708   1.741  14.887  1.00  0.00     0.008 C 
ATOM      4  C   UNL     1      -5.856   2.674  15.295  1.00  0.00     0.039 C 
ATOM      5  C   UNL     1      -5.687   4.084  14.745  1.00  0.00    -0.006 C 
ATOM      6  C   UNL     1      -6.767   4.852  14.419  1.00  0.00    -0.070 C 
ATOM      7  C   UNL     1      -6.612   6.230  13.819  1.00  0.00     0.039 C 
ATOM      8  C   UNL     1      -8.178   4.341  14.606  1.00  0.00     0.039 C 
ATOM      9  C   UNL     1      -4.289   4.607  14.699  1.00  0.00     0.159 C 
ATOM     10  O   UNL     1      -4.043   5.833  14.857  1.00  0.00    -0.295 OA
ATOM     11  C   UNL     1      -3.142   3.667  14.467  1.00  0.00     0.084 C 
ENDROOT
TORSDOF 0
ENDMDL
MODEL 7
REMARK VINA RESULT:    -4.325      1.769      4.587
REMARK INTER + INTRA:          -4.325
REMARK INTER:                  -4.325
REMARK INTRA:                   0.000
REMARK UNBOUND:                 0.000
REMARK SMILES CC(C)=C1CC[C@@H](C)CC1=O
REMARK SMILES IDX 8 1 7 2 6 3 5 4 4 5 2 6 1 7 3 8 10 9 11 10 9 11
REMARK H PARENT
REMARK Flexibility Score: inf
ROOT
ATOM      1  C   UNL     1      -3.051   2.144   9.960  1.00  0.00     0.008 C 
ATOM      2  C   UNL     1      -2.862   0.625   9.886  1.00  0.00    -0.006 C 
ATOM      3  C   UNL     1      -4.036  -0.029   9.138  1.00  0.00     0.008 C 
ATOM      4  C   UNL     1      -3.814  -1.538   8.965  1.00  0.00     0.039 C 
ATOM      5  C   UNL     1      -3.497  -2.236  10.281  1.00  0.00    -0.006 C 
ATOM      6  C   UNL     1      -3.879  -3.527  10.509  1.00  0.00    -0.070 C 
ATOM      7  C   UNL     1      -3.620  -4.212  11.830  1.00  0.00     0.039 C 
ATOM      8  C   UNL     1      -4.618  -4.323   9.457  1.00  0.00     0.039 C 
ATOM      9  C   UNL     1      -2.651  -1.469  11.243  1.00  0.00     0.159 C 
ATOM     10  O   UNL     1      -1.847  -2.053  12.018  1.00  0.00    -0.295 OA
ATOM     11  C   UNL     1      -2.741   0.028  11.296  1.00  0.00     0.084 C 
ENDROOT
TORSDOF 0
ENDMDL
MODEL 8
REMARK VINA RESULT:    -4.302      5.019      6.839
REMARK INTER + INTRA:          -4.302
REMARK INTER:                  -4.302
REMARK INTRA:                   0.000
REMARK UNBOUND:                 0.000
REMARK SMILES CC(C)=C1CC[C@@H](C)CC1=O
REMARK SMILES IDX 8 1 7 2 6 3 5 4 4 5 2 6 1 7 3 8 10 9 11 10 9 11
REMARK H PARENT
REMARK Flexibility Score: inf
ROOT
ATOM      1  C   UNL     1      -5.830   2.871  16.136  1.00  0.00     0.008 C 
ATOM      2  C   UNL     1      -4.889   2.876  14.926  1.00  0.00    -0.006 C 
ATOM      3  C   UNL     1      -5.215   4.054  13.994  1.00  0.00     0.008 C 
ATOM      4  C   UNL     1      -4.219   4.134  12.829  1.00  0.00     0.039 C 
ATOM      5  C   UNL     1      -4.087   2.815  12.081  1.00  0.00    -0.006 C 
ATOM      6  C   UNL     1      -3.818   2.782  10.743  1.00  0.00    -0.070 C 
ATOM      7  C   UNL     1      -3.742   1.481   9.978  1.00  0.00     0.039 C 
ATOM      8  C   UNL     1      -3.622   4.055   9.951  1.00  0.00     0.039 C 
ATOM      9  C   UNL     1      -4.152   1.578  12.915  1.00  0.00     0.159 C 
ATOM     10  O   UNL     1      -3.503   0.544  12.605  1.00  0.00    -0.295 OA
ATOM     11  C   UNL     1      -4.997   1.551  14.155  1.00  0.00     0.084 C 
ENDROOT
TORSDOF 0
ENDMDL
MODEL 9
REMARK VINA RESULT:    -4.270      9.134     10.818
REMARK INTER + INTRA:          -4.270
REMARK INTER:                  -4.270
REMARK INTRA:                   0.000
REMARK UNBOUND:                 0.000
REMARK SMILES CC(C)=C1CC[C@@H](C)CC1=O
REMARK SMILES IDX 8 1 7 2 6 3 5 4 4 5 2 6 1 7 3 8 10 9 11 10 9 11
REMARK H PARENT
REMARK Flexibility Score: inf
ROOT
ATOM      1  C   UNL     1      -5.833   8.990  16.391  1.00  0.00     0.008 C 
ATOM      2  C   UNL     1      -6.254   7.577  15.971  1.00  0.00    -0.006 C 
ATOM      3  C   UNL     1      -6.660   6.747  17.200  1.00  0.00     0.008 C 
ATOM      4  C   UNL     1      -7.182   5.363  16.789  1.00  0.00     0.039 C 
ATOM      5  C   UNL     1      -6.215   4.623  15.875  1.00  0.00    -0.006 C 
ATOM      6  C   UNL     1      -6.119   3.261  15.899  1.00  0.00    -0.070 C 
ATOM      7  C   UNL     1      -5.124   2.518  15.038  1.00  0.00     0.039 C 
ATOM      8  C   UNL     1      -6.980   2.430  16.823  1.00  0.00     0.039 C 
ATOM      9  C   UNL     1      -5.479   5.460  14.882  1.00  0.00     0.159 C 
ATOM     10  O   UNL     1      -5.156   5.005  13.752  1.00  0.00    -0.295 OA
ATOM     11  C   UNL     1      -5.114   6.877  15.217  1.00  0.00     0.084 C 
ENDROOT
TORSDOF 0
ENDMDL
