MODEL 1
REMARK VINA RESULT:    -4.197      0.000      0.000
REMARK INTER + INTRA:          -6.548
REMARK INTER:                  -6.159
REMARK INTRA:                  -0.388
REMARK UNBOUND:                -0.388
REMARK SMILES O=C([O-])CCCCCCCC(=O)[O-]
REMARK SMILES IDX 7 1 6 2 5 3 4 4 2 5 1 6 3 7 8 8 9 9 10 10 11 11 12 12 13 13
REMARK H PARENT
REMARK Flexibility Score: inf
ROOT
ATOM      1  C   UNL     1      25.358  -5.702  52.591  1.00  0.00     0.000 C 
ENDROOT
BRANCH   1   2
ATOM      2  C   UNL     1      26.161  -5.784  53.901  1.00  0.00     0.000 C 
BRANCH   2   3
ATOM      3  C   UNL     1      27.626  -6.188  53.671  1.00  0.00     0.006 C 
BRANCH   3   4
ATOM      4  C   UNL     1      27.996  -6.252  52.183  1.00  0.00     0.053 C 
BRANCH   4   5
ATOM      5  C   UNL     1      29.243  -7.056  51.990  1.00  0.00     0.041 C 
ATOM      6  O   UNL     1      29.407  -7.728  50.938  1.00  0.00    -0.550 OA
ATOM      7  O   UNL     1      30.203  -7.102  52.993  1.00  0.00    -0.550 OA
ENDBRANCH   4   5
ENDBRANCH   3   4
ENDBRANCH   2   3
ENDBRANCH   1   2
BRANCH   1   8
ATOM      8  C   UNL     1      23.840  -5.687  52.829  1.00  0.00     0.000 C 
BRANCH   8   9
ATOM      9  C   UNL     1      23.278  -4.264  52.991  1.00  0.00     0.006 C 
BRANCH   9  10
ATOM     10  C   UNL     1      22.751  -4.008  54.410  1.00  0.00     0.053 C 
BRANCH  10  11
ATOM     11  C   UNL     1      23.553  -2.960  55.120  1.00  0.00     0.041 C 
ATOM     12  O   UNL     1      23.267  -1.742  54.979  1.00  0.00    -0.550 OA
ATOM     13  O   UNL     1      24.591  -3.331  55.966  1.00  0.00    -0.550 OA
ENDBRANCH  10  11
ENDBRANCH   9  10
ENDBRANCH   8   9
ENDBRANCH   1   8
TORSDOF 8
ENDMDL
MODEL 2
REMARK VINA RESULT:    -4.073      0.410      6.518
REMARK INTER + INTRA:          -6.366
REMARK INTER:                  -6.007
REMARK INTRA:                  -0.359
REMARK UNBOUND:                -0.388
REMARK SMILES O=C([O-])CCCCCCCC(=O)[O-]
REMARK SMILES IDX 7 1 6 2 5 3 4 4 2 5 1 6 3 7 8 8 9 9 10 10 11 11 12 12 13 13
REMARK H PARENT
REMARK Flexibility Score: inf
ROOT
ATOM      1  C   UNL     1      25.281  -5.672  52.473  1.00  0.00     0.000 C 
ENDROOT
BRANCH   1   2
ATOM      2  C   UNL     1      23.783  -5.347  52.608  1.00  0.00     0.000 C 
BRANCH   2   3
ATOM      3  C   UNL     1      23.507  -3.835  52.628  1.00  0.00     0.006 C 
BRANCH   3   4
ATOM      4  C   UNL     1      22.542  -3.424  53.748  1.00  0.00     0.053 C 
BRANCH   4   5
ATOM      5  C   UNL     1      23.284  -2.737  54.851  1.00  0.00     0.041 C 
ATOM      6  O   UNL     1      23.092  -1.514  55.079  1.00  0.00    -0.550 OA
ATOM      7  O   UNL     1      24.224  -3.438  55.597  1.00  0.00    -0.550 OA
ENDBRANCH   4   5
ENDBRANCH   3   4
ENDBRANCH   2   3
ENDBRANCH   1   2
BRANCH   1   8
ATOM      8  C   UNL     1      25.978  -5.814  53.836  1.00  0.00     0.000 C 
BRANCH   8   9
ATOM      9  C   UNL     1      27.412  -6.357  53.715  1.00  0.00     0.006 C 
BRANCH   9  10
ATOM     10  C   UNL     1      28.026  -6.070  52.338  1.00  0.00     0.053 C 
BRANCH  10  11
ATOM     11  C   UNL     1      29.227  -6.925  52.075  1.00  0.00     0.041 C 
ATOM     12  O   UNL     1      30.155  -6.989  52.923  1.00  0.00    -0.550 OA
ATOM     13  O   UNL     1      29.304  -7.679  50.910  1.00  0.00    -0.550 OA
ENDBRANCH  10  11
ENDBRANCH   9  10
ENDBRANCH   8   9
ENDBRANCH   1   8
TORSDOF 8
ENDMDL
MODEL 3
REMARK VINA RESULT:    -3.951     15.774     16.482
REMARK INTER + INTRA:          -6.188
REMARK INTER:                  -5.822
REMARK INTRA:                  -0.365
REMARK UNBOUND:                -0.388
REMARK SMILES O=C([O-])CCCCCCCC(=O)[O-]
REMARK SMILES IDX 7 1 6 2 5 3 4 4 2 5 1 6 3 7 8 8 9 9 10 10 11 11 12 12 13 13
REMARK H PARENT
REMARK Flexibility Score: inf
ROOT
ATOM      1  C   UNL     1      26.102   4.133  41.317  1.00  0.00     0.000 C 
ENDROOT
BRANCH   1   2
ATOM      2  C   UNL     1      27.344   5.032  41.195  1.00  0.00     0.000 C 
BRANCH   2   3
ATOM      3  C   UNL     1      28.621   4.235  40.885  1.00  0.00     0.006 C 
BRANCH   3   4
ATOM      4  C   UNL     1      28.934   4.177  39.384  1.00  0.00     0.053 C 
BRANCH   4   5
ATOM      5  C   UNL     1      30.109   5.046  39.061  1.00  0.00     0.041 C 
ATOM      6  O   UNL     1      29.944   6.131  38.445  1.00  0.00    -0.550 OA
ATOM      7  O   UNL     1      31.392   4.633  39.399  1.00  0.00    -0.550 OA
ENDBRANCH   4   5
ENDBRANCH   3   4
ENDBRANCH   2   3
ENDBRANCH   1   2
BRANCH   1   8
ATOM      8  C   UNL     1      25.185   4.224  40.086  1.00  0.00     0.000 C 
BRANCH   8   9
ATOM      9  C   UNL     1      25.018   2.872  39.370  1.00  0.00     0.006 C 
BRANCH   9  10
ATOM     10  C   UNL     1      23.575   2.353  39.444  1.00  0.00     0.053 C 
BRANCH  10  11
ATOM     11  C   UNL     1      23.507   0.984  40.047  1.00  0.00     0.041 C 
ATOM     12  O   UNL     1      23.070   0.830  41.217  1.00  0.00    -0.550 OA
ATOM     13  O   UNL     1      23.893  -0.125  39.304  1.00  0.00    -0.550 OA
ENDBRANCH  10  11
ENDBRANCH   9  10
ENDBRANCH   8   9
ENDBRANCH   1   8
TORSDOF 8
ENDMDL
MODEL 4
REMARK VINA RESULT:    -3.878     16.053     17.282
REMARK INTER + INTRA:          -6.079
REMARK INTER:                  -5.716
REMARK INTRA:                  -0.363
REMARK UNBOUND:                -0.388
REMARK SMILES O=C([O-])CCCCCCCC(=O)[O-]
REMARK SMILES IDX 7 1 6 2 5 3 4 4 2 5 1 6 3 7 8 8 9 9 10 10 11 11 12 12 13 13
REMARK H PARENT
REMARK Flexibility Score: inf
ROOT
ATOM      1  C   UNL     1      26.019   5.120  41.538  1.00  0.00     0.000 C 
ENDROOT
BRANCH   1   2
ATOM      2  C   UNL     1      24.790   4.827  40.659  1.00  0.00     0.000 C 
BRANCH   2   3
ATOM      3  C   UNL     1      24.932   3.520  39.863  1.00  0.00     0.006 C 
BRANCH   3   4
ATOM      4  C   UNL     1      24.074   2.383  40.434  1.00  0.00     0.053 C 
BRANCH   4   5
ATOM      5  C   UNL     1      23.491   1.563  39.327  1.00  0.00     0.041 C 
ATOM      6  O   UNL     1      23.719   0.326  39.266  1.00  0.00    -0.550 OA
ATOM      7  O   UNL     1      22.735   2.174  38.334  1.00  0.00    -0.550 OA
ENDBRANCH   4   5
ENDBRANCH   3   4
ENDBRANCH   2   3
ENDBRANCH   1   2
BRANCH   1   8
ATOM      8  C   UNL     1      27.193   4.172  41.244  1.00  0.00     0.000 C 
BRANCH   8   9
ATOM      9  C   UNL     1      28.452   4.917  40.767  1.00  0.00     0.006 C 
BRANCH   9  10
ATOM     10  C   UNL     1      29.045   4.294  39.496  1.00  0.00     0.053 C 
BRANCH  10  11
ATOM     11  C   UNL     1      30.244   5.051  39.014  1.00  0.00     0.041 C 
ATOM     12  O   UNL     1      30.101   6.053  38.266  1.00  0.00    -0.550 OA
ATOM     13  O   UNL     1      31.518   4.673  39.422  1.00  0.00    -0.550 OA
ENDBRANCH  10  11
ENDBRANCH   9  10
ENDBRANCH   8   9
ENDBRANCH   1   8
TORSDOF 8
ENDMDL
MODEL 5
REMARK VINA RESULT:    -3.768      3.536      4.838
REMARK INTER + INTRA:          -5.918
REMARK INTER:                  -5.409
REMARK INTRA:                  -0.509
REMARK UNBOUND:                -0.388
REMARK SMILES O=C([O-])CCCCCCCC(=O)[O-]
REMARK SMILES IDX 7 1 6 2 5 3 4 4 2 5 1 6 3 7 8 8 9 9 10 10 11 11 12 12 13 13
REMARK H PARENT
REMARK Flexibility Score: inf
ROOT
ATOM      1  C   UNL     1      23.481  -2.103  55.367  1.00  0.00     0.000 C 
ENDROOT
BRANCH   1   2
ATOM      2  C   UNL     1      23.184  -2.770  54.013  1.00  0.00     0.000 C 
BRANCH   2   3
ATOM      3  C   UNL     1      23.419  -4.289  54.040  1.00  0.00     0.006 C 
BRANCH   3   4
ATOM      4  C   UNL     1      22.905  -4.991  52.775  1.00  0.00     0.053 C 
BRANCH   4   5
ATOM      5  C   UNL     1      24.046  -5.347  51.876  1.00  0.00     0.041 C 
ATOM      6  O   UNL     1      25.187  -5.574  52.358  1.00  0.00    -0.550 OA
ATOM      7  O   UNL     1      23.861  -5.382  50.499  1.00  0.00    -0.550 OA
ENDBRANCH   4   5
ENDBRANCH   3   4
ENDBRANCH   2   3
ENDBRANCH   1   2
BRANCH   1   8
ATOM      8  C   UNL     1      24.196  -3.049  56.346  1.00  0.00     0.000 C 
BRANCH   8   9
ATOM      9  C   UNL     1      23.453  -3.190  57.685  1.00  0.00     0.006 C 
BRANCH   9  10
ATOM     10  C   UNL     1      22.138  -3.969  57.538  1.00  0.00     0.053 C 
BRANCH  10  11
ATOM     11  C   UNL     1      20.945  -3.097  57.784  1.00  0.00     0.041 C 
ATOM     12  O   UNL     1      19.787  -3.591  57.768  1.00  0.00    -0.550 OA
ATOM     13  O   UNL     1      21.115  -1.748  58.069  1.00  0.00    -0.550 OA
ENDBRANCH  10  11
ENDBRANCH   9  10
ENDBRANCH   8   9
ENDBRANCH   1   8
TORSDOF 8
ENDMDL
MODEL 6
REMARK VINA RESULT:    -3.748      3.471      6.841
REMARK INTER + INTRA:          -5.889
REMARK INTER:                  -5.342
REMARK INTRA:                  -0.547
REMARK UNBOUND:                -0.388
REMARK SMILES O=C([O-])CCCCCCCC(=O)[O-]
REMARK SMILES IDX 7 1 6 2 5 3 4 4 2 5 1 6 3 7 8 8 9 9 10 10 11 11 12 12 13 13
REMARK H PARENT
REMARK Flexibility Score: inf
ROOT
ATOM      1  C   UNL     1      23.618  -2.116  55.363  1.00  0.00     0.000 C 
ENDROOT
BRANCH   1   2
ATOM      2  C   UNL     1      24.322  -3.069  56.344  1.00  0.00     0.000 C 
BRANCH   2   3
ATOM      3  C   UNL     1      23.574  -3.197  57.681  1.00  0.00     0.006 C 
BRANCH   3   4
ATOM      4  C   UNL     1      22.226  -2.463  57.678  1.00  0.00     0.053 C 
BRANCH   4   5
ATOM      5  C   UNL     1      21.098  -3.444  57.663  1.00  0.00     0.041 C 
ATOM      6  O   UNL     1      19.928  -3.069  57.938  1.00  0.00    -0.550 OA
ATOM      7  O   UNL     1      21.346  -4.784  57.392  1.00  0.00    -0.550 OA
ENDBRANCH   4   5
ENDBRANCH   3   4
ENDBRANCH   2   3
ENDBRANCH   1   2
BRANCH   1   8
ATOM      8  C   UNL     1      23.085  -2.841  54.117  1.00  0.00     0.000 C 
BRANCH   8   9
ATOM      9  C   UNL     1      22.961  -4.361  54.322  1.00  0.00     0.006 C 
BRANCH   9  10
ATOM     10  C   UNL     1      22.782  -5.111  52.995  1.00  0.00     0.053 C 
BRANCH  10  11
ATOM     11  C   UNL     1      24.098  -5.509  52.400  1.00  0.00     0.041 C 
ATOM     12  O   UNL     1      24.261  -5.484  51.152  1.00  0.00    -0.550 OA
ATOM     13  O   UNL     1      25.155  -5.871  53.226  1.00  0.00    -0.550 OA
ENDBRANCH  10  11
ENDBRANCH   9  10
ENDBRANCH   8   9
ENDBRANCH   1   8
TORSDOF 8
ENDMDL
MODEL 7
REMARK VINA RESULT:    -3.708      3.943      6.633
REMARK INTER + INTRA:          -5.830
REMARK INTER:                  -5.297
REMARK INTRA:                  -0.533
REMARK UNBOUND:                -0.388
REMARK SMILES O=C([O-])CCCCCCCC(=O)[O-]
REMARK SMILES IDX 7 1 6 2 5 3 4 4 2 5 1 6 3 7 8 8 9 9 10 10 11 11 12 12 13 13
REMARK H PARENT
REMARK Flexibility Score: inf
ROOT
ATOM      1  C   UNL     1      23.161  -2.823  54.049  1.00  0.00     0.000 C 
ENDROOT
BRANCH   1   2
ATOM      2  C   UNL     1      23.505  -2.153  55.391  1.00  0.00     0.000 C 
BRANCH   2   3
ATOM      3  C   UNL     1      24.186  -3.117  56.374  1.00  0.00     0.006 C 
BRANCH   3   4
ATOM      4  C   UNL     1      23.537  -3.102  57.765  1.00  0.00     0.053 C 
BRANCH   4   5
ATOM      5  C   UNL     1      22.092  -3.477  57.671  1.00  0.00     0.041 C 
ATOM      6  O   UNL     1      21.760  -4.665  57.420  1.00  0.00    -0.550 OA
ATOM      7  O   UNL     1      21.111  -2.503  57.812  1.00  0.00    -0.550 OA
ENDBRANCH   4   5
ENDBRANCH   3   4
ENDBRANCH   2   3
ENDBRANCH   1   2
BRANCH   1   8
ATOM      8  C   UNL     1      23.104  -4.356  54.154  1.00  0.00     0.000 C 
BRANCH   8   9
ATOM      9  C   UNL     1      24.034  -5.054  53.146  1.00  0.00     0.006 C 
BRANCH   9  10
ATOM     10  C   UNL     1      23.260  -5.949  52.168  1.00  0.00     0.053 C 
BRANCH  10  11
ATOM     11  C   UNL     1      22.436  -6.974  52.886  1.00  0.00     0.041 C 
ATOM     12  O   UNL     1      22.995  -7.849  53.598  1.00  0.00    -0.550 OA
ATOM     13  O   UNL     1      21.050  -6.939  52.799  1.00  0.00    -0.550 OA
ENDBRANCH  10  11
ENDBRANCH   9  10
ENDBRANCH   8   9
ENDBRANCH   1   8
TORSDOF 8
ENDMDL
MODEL 8
REMARK VINA RESULT:    -3.676     15.116     16.178
REMARK INTER + INTRA:          -5.784
REMARK INTER:                  -5.374
REMARK INTRA:                  -0.410
REMARK UNBOUND:                -0.388
REMARK SMILES O=C([O-])CCCCCCCC(=O)[O-]
REMARK SMILES IDX 7 1 6 2 5 3 4 4 2 5 1 6 3 7 8 8 9 9 10 10 11 11 12 12 13 13
REMARK H PARENT
REMARK Flexibility Score: inf
ROOT
ATOM      1  C   UNL     1      26.560   4.277  40.988  1.00  0.00     0.000 C 
ENDROOT
BRANCH   1   2
ATOM      2  C   UNL     1      25.114   4.065  40.507  1.00  0.00     0.000 C 
BRANCH   2   3
ATOM      3  C   UNL     1      25.026   3.106  39.309  1.00  0.00     0.006 C 
BRANCH   3   4
ATOM      4  C   UNL     1      23.641   2.460  39.167  1.00  0.00     0.053 C 
BRANCH   4   5
ATOM      5  C   UNL     1      23.606   1.141  39.872  1.00  0.00     0.041 C 
ATOM      6  O   UNL     1      23.914   0.086  39.258  1.00  0.00    -0.550 OA
ATOM      7  O   UNL     1      23.187   1.071  41.195  1.00  0.00    -0.550 OA
ENDBRANCH   4   5
ENDBRANCH   3   4
ENDBRANCH   2   3
ENDBRANCH   1   2
BRANCH   1   8
ATOM      8  C   UNL     1      27.599   3.876  39.929  1.00  0.00     0.000 C 
BRANCH   8   9
ATOM      9  C   UNL     1      28.951   4.584  40.126  1.00  0.00     0.006 C 
BRANCH   9  10
ATOM     10  C   UNL     1      29.024   5.330  41.465  1.00  0.00     0.053 C 
BRANCH  10  11
ATOM     11  C   UNL     1      29.874   4.602  42.460  1.00  0.00     0.041 C 
ATOM     12  O   UNL     1      29.366   3.724  43.205  1.00  0.00    -0.550 OA
ATOM     13  O   UNL     1      31.236   4.868  42.540  1.00  0.00    -0.550 OA
ENDBRANCH  10  11
ENDBRANCH   9  10
ENDBRANCH   8   9
ENDBRANCH   1   8
TORSDOF 8
ENDMDL
MODEL 9
REMARK VINA RESULT:    -3.613      4.244      6.667
REMARK INTER + INTRA:          -5.691
REMARK INTER:                  -4.735
REMARK INTRA:                  -0.956
REMARK UNBOUND:                -0.388
REMARK SMILES O=C([O-])CCCCCCCC(=O)[O-]
REMARK SMILES IDX 7 1 6 2 5 3 4 4 2 5 1 6 3 7 8 8 9 9 10 10 11 11 12 12 13 13
REMARK H PARENT
REMARK Flexibility Score: inf
ROOT
ATOM      1  C   UNL     1      24.294  -2.987  56.283  1.00  0.00     0.000 C 
ENDROOT
BRANCH   1   2
ATOM      2  C   UNL     1      23.607  -3.206  57.642  1.00  0.00     0.000 C 
BRANCH   2   3
ATOM      3  C   UNL     1      22.074  -3.228  57.531  1.00  0.00     0.006 C 
BRANCH   3   4
ATOM      4  C   UNL     1      21.511  -4.648  57.382  1.00  0.00     0.053 C 
BRANCH   4   5
ATOM      5  C   UNL     1      20.665  -4.748  56.152  1.00  0.00     0.041 C 
ATOM      6  O   UNL     1      20.459  -5.868  55.614  1.00  0.00    -0.550 OA
ATOM      7  O   UNL     1      20.144  -3.599  55.572  1.00  0.00    -0.550 OA
ENDBRANCH   4   5
ENDBRANCH   3   4
ENDBRANCH   2   3
ENDBRANCH   1   2
BRANCH   1   8
ATOM      8  C   UNL     1      23.434  -2.162  55.313  1.00  0.00     0.000 C 
BRANCH   8   9
ATOM      9  C   UNL     1      23.195  -2.879  53.974  1.00  0.00     0.006 C 
BRANCH   9  10
ATOM     10  C   UNL     1      23.638  -4.348  54.017  1.00  0.00     0.053 C 
BRANCH  10  11
ATOM     11  C   UNL     1      22.832  -5.200  53.085  1.00  0.00     0.041 C 
ATOM     12  O   UNL     1      23.220  -6.362  52.794  1.00  0.00    -0.550 OA
ATOM     13  O   UNL     1      21.634  -4.723  52.566  1.00  0.00    -0.550 OA
ENDBRANCH  10  11
ENDBRANCH   9  10
ENDBRANCH   8   9
ENDBRANCH   1   8
TORSDOF 8
ENDMDL
