MODEL 1
REMARK VINA RESULT:    -4.757      0.000      0.000
REMARK INTER + INTRA:          -5.823
REMARK INTER:                  -5.591
REMARK INTRA:                  -0.231
REMARK UNBOUND:                -0.231
REMARK SMILES O=c1c(O)c(-c2ccc(O)cc2)oc2cc(O)cc(O)c12
REMARK SMILES IDX 5 1 3 2 2 3 1 4 21 5 19 6 18 7 16 8 15 9 14 10 13 11 6 12
REMARK SMILES IDX 7 13 8 14 9 15 12 16 11 17 10 18 4 20 20 22 17 24
REMARK H PARENT 10 19 4 21 20 23 17 25
REMARK Flexibility Score: inf
ROOT
ATOM      1  C   UNL     1     177.491 174.180 154.272  1.00  0.00     0.180 A 
ATOM      2  C   UNL     1     177.819 175.309 155.045  1.00  0.00     0.208 A 
ATOM      3  C   UNL     1     179.167 175.555 155.352  1.00  0.00     0.238 A 
ATOM      4  O   UNL     1     179.459 176.606 155.980  1.00  0.00    -0.285 OA
ATOM      5  C   UNL     1     180.164 174.642 154.934  1.00  0.00     0.111 A 
ATOM      6  C   UNL     1     181.556 174.769 155.227  1.00  0.00     0.134 A 
ATOM      7  C   UNL     1     182.465 173.860 154.670  1.00  0.00     0.093 A 
ATOM      8  C   UNL     1     182.029 172.796 153.882  1.00  0.00     0.123 A 
ATOM      9  C   UNL     1     180.666 172.631 153.634  1.00  0.00     0.094 A 
ATOM     10  C   UNL     1     179.738 173.542 154.145  1.00  0.00     0.146 A 
ATOM     11  O   UNL     1     178.453 173.360 153.865  1.00  0.00    -0.452 OA
ENDROOT
BRANCH   1  12
ATOM     12  C   UNL     1     176.096 173.861 153.894  1.00  0.00     0.021 A 
ATOM     13  C   UNL     1     175.464 174.614 152.891  1.00  0.00     0.016 A 
ATOM     14  C   UNL     1     174.138 174.346 152.534  1.00  0.00     0.047 A 
ATOM     15  C   UNL     1     173.425 173.335 153.183  1.00  0.00     0.115 A 
ATOM     16  C   UNL     1     175.366 172.858 154.558  1.00  0.00     0.016 A 
ATOM     17  C   UNL     1     174.042 172.593 154.200  1.00  0.00     0.047 A 
BRANCH  15  18
ATOM     18  O   UNL     1     172.106 173.077 152.817  1.00  0.00    -0.508 OA
ATOM     19  H   UNL     1     171.710 172.148 152.884  1.00  0.00     0.293 HD
ENDBRANCH  15  18
ENDBRANCH   1  12
BRANCH   2  20
ATOM     20  O   UNL     1     176.811 176.156 155.514  1.00  0.00    -0.502 OA
ATOM     21  H   UNL     1     176.306 176.788 154.906  1.00  0.00     0.293 HD
ENDBRANCH   2  20
BRANCH   6  22
ATOM     22  O   UNL     1     182.093 175.743 156.075  1.00  0.00    -0.507 OA
ATOM     23  H   UNL     1     182.337 175.596 157.042  1.00  0.00     0.293 HD
ENDBRANCH   6  22
BRANCH   8  24
ATOM     24  O   UNL     1     182.960 171.902 153.358  1.00  0.00    -0.508 OA
ATOM     25  H   UNL     1     182.954 170.922 153.612  1.00  0.00     0.293 HD
ENDBRANCH   8  24
TORSDOF 5
ENDMDL
MODEL 2
REMARK VINA RESULT:    -4.747      5.083      7.518
REMARK INTER + INTRA:          -5.810
REMARK INTER:                  -5.573
REMARK INTRA:                  -0.237
REMARK UNBOUND:                -0.231
REMARK SMILES O=c1c(O)c(-c2ccc(O)cc2)oc2cc(O)cc(O)c12
REMARK SMILES IDX 5 1 3 2 2 3 1 4 21 5 19 6 18 7 16 8 15 9 14 10 13 11 6 12
REMARK SMILES IDX 7 13 8 14 9 15 12 16 11 17 10 18 4 20 20 22 17 24
REMARK H PARENT 10 19 4 21 20 23 17 25
REMARK Flexibility Score: inf
ROOT
ATOM      1  C   UNL     1     174.007 177.508 154.275  1.00  0.00     0.180 A 
ATOM      2  C   UNL     1     172.881 177.844 155.046  1.00  0.00     0.208 A 
ATOM      3  C   UNL     1     172.644 179.194 155.353  1.00  0.00     0.238 A 
ATOM      4  O   UNL     1     171.595 179.494 155.980  1.00  0.00    -0.285 OA
ATOM      5  C   UNL     1     173.565 180.184 154.935  1.00  0.00     0.111 A 
ATOM      6  C   UNL     1     173.448 181.577 155.227  1.00  0.00     0.134 A 
ATOM      7  C   UNL     1     174.363 182.479 154.670  1.00  0.00     0.093 A 
ATOM      8  C   UNL     1     175.425 182.035 153.883  1.00  0.00     0.123 A 
ATOM      9  C   UNL     1     175.580 180.670 153.635  1.00  0.00     0.094 A 
ATOM     10  C   UNL     1     174.662 179.750 154.146  1.00  0.00     0.146 A 
ATOM     11  O   UNL     1     174.835 178.463 153.868  1.00  0.00    -0.452 OA
ENDROOT
BRANCH   1  12
ATOM     12  C   UNL     1     174.316 176.110 153.898  1.00  0.00     0.021 A 
ATOM     13  C   UNL     1     173.576 175.491 152.877  1.00  0.00     0.016 A 
ATOM     14  C   UNL     1     173.834 174.163 152.520  1.00  0.00     0.047 A 
ATOM     15  C   UNL     1     174.824 173.435 153.187  1.00  0.00     0.115 A 
ATOM     16  C   UNL     1     175.297 175.365 154.579  1.00  0.00     0.016 A 
ATOM     17  C   UNL     1     175.552 174.039 154.220  1.00  0.00     0.047 A 
BRANCH  15  18
ATOM     18  O   UNL     1     175.072 172.115 152.820  1.00  0.00    -0.508 OA
ATOM     19  H   UNL     1     175.161 171.381 153.512  1.00  0.00     0.293 HD
ENDBRANCH  15  18
ENDBRANCH   1  12
BRANCH   2  20
ATOM     20  O   UNL     1     172.026 176.843 155.516  1.00  0.00    -0.502 OA
ATOM     21  H   UNL     1     172.342 176.103 156.131  1.00  0.00     0.293 HD
ENDBRANCH   2  20
BRANCH   6  22
ATOM     22  O   UNL     1     172.477 182.122 156.074  1.00  0.00    -0.507 OA
ATOM     23  H   UNL     1     172.668 182.588 156.948  1.00  0.00     0.293 HD
ENDBRANCH   6  22
BRANCH   8  24
ATOM     24  O   UNL     1     176.326 182.959 153.359  1.00  0.00    -0.508 OA
ATOM     25  H   UNL     1     176.853 183.583 153.958  1.00  0.00     0.293 HD
ENDBRANCH   8  24
TORSDOF 5
ENDMDL
MODEL 3
REMARK VINA RESULT:    -4.742      5.128      7.572
REMARK INTER + INTRA:          -5.806
REMARK INTER:                  -5.548
REMARK INTRA:                  -0.257
REMARK UNBOUND:                -0.231
REMARK SMILES O=c1c(O)c(-c2ccc(O)cc2)oc2cc(O)cc(O)c12
REMARK SMILES IDX 5 1 3 2 2 3 1 4 21 5 19 6 18 7 16 8 15 9 14 10 13 11 6 12
REMARK SMILES IDX 7 13 8 14 9 15 12 16 11 17 10 18 4 20 20 22 17 24
REMARK H PARENT 10 19 4 21 20 23 17 25
REMARK Flexibility Score: inf
ROOT
ATOM      1  C   UNL     1     174.148 170.674 154.294  1.00  0.00     0.180 A 
ATOM      2  C   UNL     1     175.274 170.336 155.066  1.00  0.00     0.208 A 
ATOM      3  C   UNL     1     175.506 168.987 155.378  1.00  0.00     0.238 A 
ATOM      4  O   UNL     1     176.554 168.686 156.006  1.00  0.00    -0.285 OA
ATOM      5  C   UNL     1     174.583 167.998 154.963  1.00  0.00     0.111 A 
ATOM      6  C   UNL     1     174.695 166.606 155.260  1.00  0.00     0.134 A 
ATOM      7  C   UNL     1     173.777 165.704 154.705  1.00  0.00     0.093 A 
ATOM      8  C   UNL     1     172.716 166.150 153.918  1.00  0.00     0.123 A 
ATOM      9  C   UNL     1     172.565 167.514 153.665  1.00  0.00     0.094 A 
ATOM     10  C   UNL     1     173.487 168.433 154.173  1.00  0.00     0.146 A 
ATOM     11  O   UNL     1     173.318 169.719 153.890  1.00  0.00    -0.452 OA
ENDROOT
BRANCH   1  12
ATOM     12  C   UNL     1     173.844 172.071 153.912  1.00  0.00     0.021 A 
ATOM     13  C   UNL     1     174.540 172.662 152.845  1.00  0.00     0.016 A 
ATOM     14  C   UNL     1     174.286 173.989 152.481  1.00  0.00     0.047 A 
ATOM     15  C   UNL     1     173.346 174.744 153.188  1.00  0.00     0.115 A 
ATOM     16  C   UNL     1     172.914 172.843 154.632  1.00  0.00     0.016 A 
ATOM     17  C   UNL     1     172.662 174.168 154.267  1.00  0.00     0.047 A 
BRANCH  15  18
ATOM     18  O   UNL     1     173.101 176.063 152.814  1.00  0.00    -0.508 OA
ATOM     19  H   UNL     1     173.405 176.424 151.918  1.00  0.00     0.293 HD
ENDBRANCH  15  18
ENDBRANCH   1  12
BRANCH   2  20
ATOM     20  O   UNL     1     176.132 171.336 155.532  1.00  0.00    -0.502 OA
ATOM     21  H   UNL     1     176.671 171.236 156.383  1.00  0.00     0.293 HD
ENDBRANCH   2  20
BRANCH   6  22
ATOM     22  O   UNL     1     175.664 166.061 156.108  1.00  0.00    -0.507 OA
ATOM     23  H   UNL     1     175.595 165.163 156.562  1.00  0.00     0.293 HD
ENDBRANCH   6  22
BRANCH   8  24
ATOM     24  O   UNL     1     171.812 165.226 153.397  1.00  0.00    -0.508 OA
ATOM     25  H   UNL     1     170.980 165.522 152.901  1.00  0.00     0.293 HD
ENDBRANCH   8  24
TORSDOF 5
ENDMDL
MODEL 4
REMARK VINA RESULT:    -4.726      4.842     10.632
REMARK INTER + INTRA:          -5.786
REMARK INTER:                  -5.531
REMARK INTRA:                  -0.255
REMARK UNBOUND:                -0.231
REMARK SMILES O=c1c(O)c(-c2ccc(O)cc2)oc2cc(O)cc(O)c12
REMARK SMILES IDX 5 1 3 2 2 3 1 4 21 5 19 6 18 7 16 8 15 9 14 10 13 11 6 12
REMARK SMILES IDX 7 13 8 14 9 15 12 16 11 17 10 18 4 20 20 22 17 24
REMARK H PARENT 10 19 4 21 20 23 17 25
REMARK Flexibility Score: inf
ROOT
ATOM      1  C   UNL     1     170.700 173.942 154.335  1.00  0.00     0.180 A 
ATOM      2  C   UNL     1     170.397 172.816 155.121  1.00  0.00     0.208 A 
ATOM      3  C   UNL     1     169.056 172.556 155.448  1.00  0.00     0.238 A 
ATOM      4  O   UNL     1     168.785 171.507 156.089  1.00  0.00    -0.285 OA
ATOM      5  C   UNL     1     168.042 173.452 155.033  1.00  0.00     0.111 A 
ATOM      6  C   UNL     1     166.655 173.311 155.345  1.00  0.00     0.134 A 
ATOM      7  C   UNL     1     165.728 174.203 154.790  1.00  0.00     0.093 A 
ATOM      8  C   UNL     1     166.141 175.265 153.988  1.00  0.00     0.123 A 
ATOM      9  C   UNL     1     167.499 175.446 153.722  1.00  0.00     0.094 A 
ATOM     10  C   UNL     1     168.444 174.551 154.229  1.00  0.00     0.146 A 
ATOM     11  O   UNL     1     169.723 174.747 153.933  1.00  0.00    -0.452 OA
ENDROOT
BRANCH   1  12
ATOM     12  C   UNL     1     172.087 174.275 153.938  1.00  0.00     0.021 A 
ATOM     13  C   UNL     1     172.686 173.579 152.874  1.00  0.00     0.016 A 
ATOM     14  C   UNL     1     174.003 173.861 152.496  1.00  0.00     0.047 A 
ATOM     15  C   UNL     1     174.741 174.828 153.184  1.00  0.00     0.115 A 
ATOM     16  C   UNL     1     172.842 175.233 154.639  1.00  0.00     0.016 A 
ATOM     17  C   UNL     1     174.158 175.512 154.260  1.00  0.00     0.047 A 
BRANCH  15  18
ATOM     18  O   UNL     1     176.051 175.100 152.796  1.00  0.00    -0.508 OA
ATOM     19  H   UNL     1     176.421 176.042 152.806  1.00  0.00     0.293 HD
ENDBRANCH  15  18
ENDBRANCH   1  12
BRANCH   2  20
ATOM     20  O   UNL     1     171.421 171.987 155.586  1.00  0.00    -0.502 OA
ATOM     21  H   UNL     1     171.827 172.090 156.508  1.00  0.00     0.293 HD
ENDBRANCH   2  20
BRANCH   6  22
ATOM     22  O   UNL     1     166.141 172.337 156.207  1.00  0.00    -0.507 OA
ATOM     23  H   UNL     1     165.299 171.807 156.042  1.00  0.00     0.293 HD
ENDBRANCH   6  22
BRANCH   8  24
ATOM     24  O   UNL     1     165.192 176.143 153.468  1.00  0.00    -0.508 OA
ATOM     25  H   UNL     1     164.414 176.472 154.025  1.00  0.00     0.293 HD
ENDBRANCH   8  24
TORSDOF 5
ENDMDL
MODEL 5
REMARK VINA RESULT:    -4.503      1.875      6.837
REMARK INTER + INTRA:          -5.525
REMARK INTER:                  -5.241
REMARK INTRA:                  -0.283
REMARK UNBOUND:                -0.231
REMARK SMILES O=c1c(O)c(-c2ccc(O)cc2)oc2cc(O)cc(O)c12
REMARK SMILES IDX 5 1 3 2 2 3 1 4 21 5 19 6 18 7 16 8 15 9 14 10 13 11 6 12
REMARK SMILES IDX 7 13 8 14 9 15 12 16 11 17 10 18 4 20 20 22 17 24
REMARK H PARENT 10 19 4 21 20 23 17 25
REMARK Flexibility Score: inf
ROOT
ATOM      1  C   UNL     1     178.284 173.272 154.730  1.00  0.00     0.180 A 
ATOM      2  C   UNL     1     177.717 172.438 155.710  1.00  0.00     0.208 A 
ATOM      3  C   UNL     1     176.324 172.446 155.888  1.00  0.00     0.238 A 
ATOM      4  O   UNL     1     175.818 171.643 156.714  1.00  0.00    -0.285 OA
ATOM      5  C   UNL     1     175.520 173.326 155.125  1.00  0.00     0.111 A 
ATOM      6  C   UNL     1     174.103 173.450 155.253  1.00  0.00     0.134 A 
ATOM      7  C   UNL     1     173.399 174.279 154.370  1.00  0.00     0.093 A 
ATOM      8  C   UNL     1     174.065 175.035 153.407  1.00  0.00     0.123 A 
ATOM      9  C   UNL     1     175.455 174.964 153.308  1.00  0.00     0.094 A 
ATOM     10  C   UNL     1     176.181 174.117 154.150  1.00  0.00     0.146 A 
ATOM     11  O   UNL     1     177.500 174.064 154.007  1.00  0.00    -0.452 OA
ENDROOT
BRANCH   1  12
ATOM     12  C   UNL     1     179.741 173.309 154.474  1.00  0.00     0.021 A 
ATOM     13  C   UNL     1     180.509 174.359 155.005  1.00  0.00     0.016 A 
ATOM     14  C   UNL     1     181.883 174.427 154.756  1.00  0.00     0.047 A 
ATOM     15  C   UNL     1     182.504 173.458 153.963  1.00  0.00     0.115 A 
ATOM     16  C   UNL     1     180.368 172.348 153.660  1.00  0.00     0.016 A 
ATOM     17  C   UNL     1     181.741 172.419 153.412  1.00  0.00     0.047 A 
BRANCH  15  18
ATOM     18  O   UNL     1     183.874 173.537 153.724  1.00  0.00    -0.508 OA
ATOM     19  H   UNL     1     184.507 173.937 154.405  1.00  0.00     0.293 HD
ENDBRANCH  15  18
ENDBRANCH   1  12
BRANCH   2  20
ATOM     20  O   UNL     1     178.535 171.632 156.507  1.00  0.00    -0.502 OA
ATOM     21  H   UNL     1     178.184 170.821 157.001  1.00  0.00     0.293 HD
ENDBRANCH   2  20
BRANCH   6  22
ATOM     22  O   UNL     1     173.346 172.808 156.239  1.00  0.00    -0.507 OA
ATOM     23  H   UNL     1     172.422 172.429 156.100  1.00  0.00     0.293 HD
ENDBRANCH   6  22
BRANCH   8  24
ATOM     24  O   UNL     1     173.334 175.862 152.556  1.00  0.00    -0.508 OA
ATOM     25  H   UNL     1     173.207 176.847 152.755  1.00  0.00     0.293 HD
ENDBRANCH   8  24
TORSDOF 5
ENDMDL
MODEL 6
REMARK VINA RESULT:    -4.502      4.864      7.803
REMARK INTER + INTRA:          -5.524
REMARK INTER:                  -5.250
REMARK INTRA:                  -0.273
REMARK UNBOUND:                -0.231
REMARK SMILES O=c1c(O)c(-c2ccc(O)cc2)oc2cc(O)cc(O)c12
REMARK SMILES IDX 5 1 3 2 2 3 1 4 21 5 19 6 18 7 16 8 15 9 14 10 13 11 6 12
REMARK SMILES IDX 7 13 8 14 9 15 12 16 11 17 10 18 4 20 20 22 17 24
REMARK H PARENT 10 19 4 21 20 23 17 25
REMARK Flexibility Score: inf
ROOT
ATOM      1  C   UNL     1     169.777 174.859 154.698  1.00  0.00     0.180 A 
ATOM      2  C   UNL     1     170.327 175.690 155.690  1.00  0.00     0.208 A 
ATOM      3  C   UNL     1     171.720 175.706 155.869  1.00  0.00     0.238 A 
ATOM      4  O   UNL     1     172.210 176.506 156.707  1.00  0.00    -0.285 OA
ATOM      5  C   UNL     1     172.540 174.850 155.096  1.00  0.00     0.111 A 
ATOM      6  C   UNL     1     173.959 174.751 155.224  1.00  0.00     0.134 A 
ATOM      7  C   UNL     1     174.679 173.948 154.330  1.00  0.00     0.093 A 
ATOM      8  C   UNL     1     174.029 173.193 153.355  1.00  0.00     0.123 A 
ATOM      9  C   UNL     1     172.638 173.240 153.256  1.00  0.00     0.094 A 
ATOM     10  C   UNL     1     171.895 174.061 154.108  1.00  0.00     0.146 A 
ATOM     11  O   UNL     1     170.576 174.092 153.965  1.00  0.00    -0.452 OA
ENDROOT
BRANCH   1  12
ATOM     12  C   UNL     1     168.321 174.798 154.440  1.00  0.00     0.021 A 
ATOM     13  C   UNL     1     167.722 175.779 153.632  1.00  0.00     0.016 A 
ATOM     14  C   UNL     1     166.344 175.755 153.393  1.00  0.00     0.047 A 
ATOM     15  C   UNL     1     165.547 174.761 153.968  1.00  0.00     0.115 A 
ATOM     16  C   UNL     1     167.510 173.812 155.032  1.00  0.00     0.016 A 
ATOM     17  C   UNL     1     166.134 173.791 154.792  1.00  0.00     0.047 A 
BRANCH  15  18
ATOM     18  O   UNL     1     164.176 174.748 153.720  1.00  0.00    -0.508 OA
ATOM     19  H   UNL     1     163.639 173.890 153.761  1.00  0.00     0.293 HD
ENDBRANCH  15  18
ENDBRANCH   1  12
BRANCH   2  20
ATOM     20  O   UNL     1     169.493 176.469 156.497  1.00  0.00    -0.502 OA
ATOM     21  H   UNL     1     169.654 177.457 156.651  1.00  0.00     0.293 HD
ENDBRANCH   2  20
BRANCH   6  22
ATOM     22  O   UNL     1     174.703 175.394 156.218  1.00  0.00    -0.507 OA
ATOM     23  H   UNL     1     175.123 174.935 157.012  1.00  0.00     0.293 HD
ENDBRANCH   6  22
BRANCH   8  24
ATOM     24  O   UNL     1     174.776 172.392 152.494  1.00  0.00    -0.508 OA
ATOM     25  H   UNL     1     175.042 172.711 151.571  1.00  0.00     0.293 HD
ENDBRANCH   8  24
TORSDOF 5
ENDMDL
MODEL 7
REMARK VINA RESULT:    -4.499      4.968      7.936
REMARK INTER + INTRA:          -5.520
REMARK INTER:                  -5.241
REMARK INTRA:                  -0.279
REMARK UNBOUND:                -0.231
REMARK SMILES O=c1c(O)c(-c2ccc(O)cc2)oc2cc(O)cc(O)c12
REMARK SMILES IDX 5 1 3 2 2 3 1 4 21 5 19 6 18 7 16 8 15 9 14 10 13 11 6 12
REMARK SMILES IDX 7 13 8 14 9 15 12 16 11 17 10 18 4 20 20 22 17 24
REMARK H PARENT 10 19 4 21 20 23 17 25
REMARK Flexibility Score: inf
ROOT
ATOM      1  C   UNL     1     182.650 171.356 153.158  1.00  0.00     0.180 A 
ATOM      2  C   UNL     1     183.361 171.281 151.947  1.00  0.00     0.208 A 
ATOM      3  C   UNL     1     183.308 170.094 151.199  1.00  0.00     0.238 A 
ATOM      4  O   UNL     1     183.886 170.060 150.082  1.00  0.00    -0.285 OA
ATOM      5  C   UNL     1     182.594 168.978 151.697  1.00  0.00     0.111 A 
ATOM      6  C   UNL     1     182.509 167.711 151.044  1.00  0.00     0.134 A 
ATOM      7  C   UNL     1     181.684 166.712 151.578  1.00  0.00     0.093 A 
ATOM      8  C   UNL     1     180.991 166.912 152.771  1.00  0.00     0.123 A 
ATOM      9  C   UNL     1     181.109 168.127 153.446  1.00  0.00     0.094 A 
ATOM     10  C   UNL     1     181.894 169.156 152.919  1.00  0.00     0.146 A 
ATOM     11  O   UNL     1     181.961 170.303 153.582  1.00  0.00    -0.452 OA
ENDROOT
BRANCH   1  12
ATOM     12  C   UNL     1     182.645 172.577 153.995  1.00  0.00     0.021 A 
ATOM     13  C   UNL     1     183.691 172.794 154.906  1.00  0.00     0.016 A 
ATOM     14  C   UNL     1     183.695 173.929 155.724  1.00  0.00     0.047 A 
ATOM     15  C   UNL     1     182.648 174.852 155.651  1.00  0.00     0.115 A 
ATOM     16  C   UNL     1     181.584 173.500 153.941  1.00  0.00     0.016 A 
ATOM     17  C   UNL     1     181.590 174.633 154.759  1.00  0.00     0.047 A 
BRANCH  15  18
ATOM     18  O   UNL     1     182.665 175.979 156.469  1.00  0.00    -0.508 OA
ATOM     19  H   UNL     1     183.443 176.171 157.089  1.00  0.00     0.293 HD
ENDBRANCH  15  18
ENDBRANCH   1  12
BRANCH   2  20
ATOM     20  O   UNL     1     184.125 172.368 151.512  1.00  0.00    -0.502 OA
ATOM     21  H   UNL     1     183.734 173.294 151.394  1.00  0.00     0.293 HD
ENDBRANCH   2  20
BRANCH   6  22
ATOM     22  O   UNL     1     183.228 167.372 149.893  1.00  0.00    -0.507 OA
ATOM     23  H   UNL     1     183.020 166.589 149.292  1.00  0.00     0.293 HD
ENDBRANCH   6  22
BRANCH   8  24
ATOM     24  O   UNL     1     180.193 165.890 153.281  1.00  0.00    -0.508 OA
ATOM     25  H   UNL     1     180.342 164.922 153.022  1.00  0.00     0.293 HD
ENDBRANCH   8  24
TORSDOF 5
ENDMDL
MODEL 8
REMARK VINA RESULT:    -4.474      4.615      7.241
REMARK INTER + INTRA:          -5.490
REMARK INTER:                  -5.259
REMARK INTRA:                  -0.231
REMARK UNBOUND:                -0.231
REMARK SMILES O=c1c(O)c(-c2ccc(O)cc2)oc2cc(O)cc(O)c12
REMARK SMILES IDX 5 1 3 2 2 3 1 4 21 5 19 6 18 7 16 8 15 9 14 10 13 11 6 12
REMARK SMILES IDX 7 13 8 14 9 15 12 16 11 17 10 18 4 20 20 22 17 24
REMARK H PARENT 10 19 4 21 20 23 17 25
REMARK Flexibility Score: inf
ROOT
ATOM      1  C   UNL     1     173.410 170.117 154.700  1.00  0.00     0.180 A 
ATOM      2  C   UNL     1     172.505 170.698 155.606  1.00  0.00     0.208 A 
ATOM      3  C   UNL     1     172.467 172.097 155.727  1.00  0.00     0.238 A 
ATOM      4  O   UNL     1     171.604 172.612 156.485  1.00  0.00    -0.285 OA
ATOM      5  C   UNL     1     173.370 172.894 154.985  1.00  0.00     0.111 A 
ATOM      6  C   UNL     1     173.450 174.318 155.062  1.00  0.00     0.134 A 
ATOM      7  C   UNL     1     174.311 175.010 154.200  1.00  0.00     0.093 A 
ATOM      8  C   UNL     1     175.139 174.329 153.310  1.00  0.00     0.123 A 
ATOM      9  C   UNL     1     175.109 172.934 153.264  1.00  0.00     0.094 A 
ATOM     10  C   UNL     1     174.234 172.218 154.084  1.00  0.00     0.146 A 
ATOM     11  O   UNL     1     174.222 170.894 153.992  1.00  0.00    -0.452 OA
ENDROOT
BRANCH   1  12
ATOM     12  C   UNL     1     173.499 168.653 154.505  1.00  0.00     0.021 A 
ATOM     13  C   UNL     1     172.495 167.991 153.778  1.00  0.00     0.016 A 
ATOM     14  C   UNL     1     172.547 166.604 153.601  1.00  0.00     0.047 A 
ATOM     15  C   UNL     1     173.592 165.862 154.160  1.00  0.00     0.115 A 
ATOM     16  C   UNL     1     174.537 167.898 155.081  1.00  0.00     0.016 A 
ATOM     17  C   UNL     1     174.586 166.512 154.903  1.00  0.00     0.047 A 
BRANCH  15  18
ATOM     18  O   UNL     1     173.632 164.482 153.974  1.00  0.00    -0.508 OA
ATOM     19  H   UNL     1     174.135 164.066 153.200  1.00  0.00     0.293 HD
ENDBRANCH  15  18
ENDBRANCH   1  12
BRANCH   2  20
ATOM     20  O   UNL     1     171.675 169.889 156.387  1.00  0.00    -0.502 OA
ATOM     21  H   UNL     1     171.533 168.907 156.190  1.00  0.00     0.293 HD
ENDBRANCH   2  20
BRANCH   6  22
ATOM     22  O   UNL     1     172.731 175.095 155.977  1.00  0.00    -0.507 OA
ATOM     23  H   UNL     1     173.120 175.515 156.808  1.00  0.00     0.293 HD
ENDBRANCH   6  22
BRANCH   8  24
ATOM     24  O   UNL     1     175.995 175.049 152.480  1.00  0.00    -0.508 OA
ATOM     25  H   UNL     1     176.385 175.939 152.766  1.00  0.00     0.293 HD
ENDBRANCH   8  24
TORSDOF 5
ENDMDL
MODEL 9
REMARK VINA RESULT:    -4.471      7.903      9.007
REMARK INTER + INTRA:          -5.486
REMARK INTER:                  -5.216
REMARK INTRA:                  -0.270
REMARK UNBOUND:                -0.231
REMARK SMILES O=c1c(O)c(-c2ccc(O)cc2)oc2cc(O)cc(O)c12
REMARK SMILES IDX 5 1 3 2 2 3 1 4 21 5 19 6 18 7 16 8 15 9 14 10 13 11 6 12
REMARK SMILES IDX 7 13 8 14 9 15 12 16 11 17 10 18 4 20 20 22 17 24
REMARK H PARENT 10 19 4 21 20 23 17 25
REMARK Flexibility Score: inf
ROOT
ATOM      1  C   UNL     1     176.882 182.661 153.141  1.00  0.00     0.180 A 
ATOM      2  C   UNL     1     176.940 183.382 151.935  1.00  0.00     0.208 A 
ATOM      3  C   UNL     1     178.128 183.360 151.185  1.00  0.00     0.238 A 
ATOM      4  O   UNL     1     178.148 183.947 150.072  1.00  0.00    -0.285 OA
ATOM      5  C   UNL     1     179.259 182.666 151.676  1.00  0.00     0.111 A 
ATOM      6  C   UNL     1     180.527 182.614 151.022  1.00  0.00     0.134 A 
ATOM      7  C   UNL     1     181.544 181.807 151.548  1.00  0.00     0.093 A 
ATOM      8  C   UNL     1     181.361 181.101 152.736  1.00  0.00     0.123 A 
ATOM      9  C   UNL     1     180.144 181.188 153.414  1.00  0.00     0.094 A 
ATOM     10  C   UNL     1     179.098 181.954 152.894  1.00  0.00     0.146 A 
ATOM     11  O   UNL     1     177.950 181.991 153.559  1.00  0.00    -0.452 OA
ENDROOT
BRANCH   1  12
ATOM     12  C   UNL     1     175.663 182.622 153.978  1.00  0.00     0.021 A 
ATOM     13  C   UNL     1     174.763 181.553 153.839  1.00  0.00     0.016 A 
ATOM     14  C   UNL     1     173.592 181.508 154.604  1.00  0.00     0.047 A 
ATOM     15  C   UNL     1     173.300 182.536 155.504  1.00  0.00     0.115 A 
ATOM     16  C   UNL     1     175.352 183.664 154.872  1.00  0.00     0.016 A 
ATOM     17  C   UNL     1     174.182 183.617 155.634  1.00  0.00     0.047 A 
BRANCH  15  18
ATOM     18  O   UNL     1     172.131 182.478 156.260  1.00  0.00    -0.508 OA
ATOM     19  H   UNL     1     171.622 181.611 156.381  1.00  0.00     0.293 HD
ENDBRANCH  15  18
ENDBRANCH   1  12
BRANCH   2  20
ATOM     20  O   UNL     1     175.837 184.125 151.506  1.00  0.00    -0.502 OA
ATOM     21  H   UNL     1     175.302 184.715 152.133  1.00  0.00     0.293 HD
ENDBRANCH   2  20
BRANCH   6  22
ATOM     22  O   UNL     1     180.849 183.349 149.876  1.00  0.00    -0.507 OA
ATOM     23  H   UNL     1     181.229 182.958 149.027  1.00  0.00     0.293 HD
ENDBRANCH   6  22
BRANCH   8  24
ATOM     24  O   UNL     1     182.401 180.322 153.240  1.00  0.00    -0.508 OA
ATOM     25  H   UNL     1     182.290 179.772 154.083  1.00  0.00     0.293 HD
ENDBRANCH   8  24
TORSDOF 5
ENDMDL
