MODEL 1
REMARK VINA RESULT:    -5.008      0.000      0.000
REMARK INTER + INTRA:          -5.793
REMARK INTER:                  -5.740
REMARK INTRA:                  -0.053
REMARK UNBOUND:                -0.053
REMARK SMILES O=C([O-])c1cc(O)c(O)c(O)c1
REMARK SMILES IDX 4 1 5 2 12 3 6 4 10 5 8 6 2 7 1 8 3 9 7 10 11 12 9 14
REMARK H PARENT 7 11 11 13 9 15
REMARK Flexibility Score: inf
ROOT
ATOM      1  C   UNL     1      20.312  -0.458 -19.621  1.00  0.00     0.005 A 
ATOM      2  C   UNL     1      20.462  -1.156 -20.830  1.00  0.00     0.060 A 
ATOM      3  C   UNL     1      20.800   0.857 -19.526  1.00  0.00     0.060 A 
ATOM      4  C   UNL     1      21.089  -0.553 -21.929  1.00  0.00     0.162 A 
ATOM      5  C   UNL     1      21.426   1.467 -20.619  1.00  0.00     0.162 A 
ATOM      6  C   UNL     1      21.572   0.762 -21.826  1.00  0.00     0.200 A 
ENDROOT
BRANCH   1   7
ATOM      7  C   UNL     1      19.650  -1.101 -18.463  1.00  0.00     0.072 C 
ATOM      8  O   UNL     1      19.142  -2.248 -18.572  1.00  0.00    -0.545 OA
ATOM      9  O   UNL     1      19.581  -0.447 -17.239  1.00  0.00    -0.545 OA
ENDBRANCH   1   7
BRANCH   4  10
ATOM     10  O   UNL     1      21.231  -1.257 -23.125  1.00  0.00    -0.504 OA
ATOM     11  H   UNL     1      20.465  -1.789 -23.522  1.00  0.00     0.293 HD
ENDBRANCH   4  10
BRANCH   5  12
ATOM     12  O   UNL     1      21.896   2.773 -20.486  1.00  0.00    -0.504 OA
ATOM     13  H   UNL     1      22.082   3.189 -19.581  1.00  0.00     0.293 HD
ENDBRANCH   5  12
BRANCH   6  14
ATOM     14  O   UNL     1      22.198   1.377 -22.912  1.00  0.00    -0.502 OA
ATOM     15  H   UNL     1      22.783   0.864 -23.560  1.00  0.00     0.293 HD
ENDBRANCH   6  14
TORSDOF 4
ENDMDL
MODEL 2
REMARK VINA RESULT:    -4.986      0.066      2.430
REMARK INTER + INTRA:          -5.768
REMARK INTER:                  -5.716
REMARK INTRA:                  -0.052
REMARK UNBOUND:                -0.053
REMARK SMILES O=C([O-])c1cc(O)c(O)c(O)c1
REMARK SMILES IDX 4 1 5 2 12 3 6 4 10 5 8 6 2 7 1 8 3 9 7 10 11 12 9 14
REMARK H PARENT 7 11 11 13 9 15
REMARK Flexibility Score: inf
ROOT
ATOM      1  C   UNL     1      20.292  -0.441 -19.645  1.00  0.00     0.005 A 
ATOM      2  C   UNL     1      20.775   0.874 -19.539  1.00  0.00     0.060 A 
ATOM      3  C   UNL     1      20.463  -1.136 -20.855  1.00  0.00     0.060 A 
ATOM      4  C   UNL     1      21.418   1.488 -20.623  1.00  0.00     0.162 A 
ATOM      5  C   UNL     1      21.105  -0.530 -21.941  1.00  0.00     0.162 A 
ATOM      6  C   UNL     1      21.585   0.785 -21.829  1.00  0.00     0.200 A 
ENDROOT
BRANCH   1   7
ATOM      7  C   UNL     1      19.613  -1.083 -18.497  1.00  0.00     0.072 C 
ATOM      8  O   UNL     1      18.991  -2.168 -18.645  1.00  0.00    -0.545 OA
ATOM      9  O   UNL     1      19.654  -0.496 -17.237  1.00  0.00    -0.545 OA
ENDBRANCH   1   7
BRANCH   4  10
ATOM     10  O   UNL     1      21.893   2.794 -20.505  1.00  0.00    -0.504 OA
ATOM     11  H   UNL     1      21.565   3.535 -21.113  1.00  0.00     0.293 HD
ENDBRANCH   4  10
BRANCH   5  12
ATOM     12  O   UNL     1      21.254  -1.253 -23.125  1.00  0.00    -0.504 OA
ATOM     13  H   UNL     1      21.714  -2.155 -23.152  1.00  0.00     0.293 HD
ENDBRANCH   5  12
BRANCH   6  14
ATOM     14  O   UNL     1      22.224   1.382 -22.917  1.00  0.00    -0.502 OA
ATOM     15  H   UNL     1      21.820   1.384 -23.846  1.00  0.00     0.293 HD
ENDBRANCH   6  14
TORSDOF 4
ENDMDL
MODEL 3
REMARK VINA RESULT:    -4.827      1.348      4.216
REMARK INTER + INTRA:          -5.586
REMARK INTER:                  -5.541
REMARK INTRA:                  -0.045
REMARK UNBOUND:                -0.053
REMARK SMILES O=C([O-])c1cc(O)c(O)c(O)c1
REMARK SMILES IDX 4 1 5 2 12 3 6 4 10 5 8 6 2 7 1 8 3 9 7 10 11 12 9 14
REMARK H PARENT 7 11 11 13 9 15
REMARK Flexibility Score: inf
ROOT
ATOM      1  C   UNL     1      21.240   0.462 -21.044  1.00  0.00     0.005 A 
ATOM      2  C   UNL     1      19.947  -0.082 -20.982  1.00  0.00     0.060 A 
ATOM      3  C   UNL     1      21.966   0.637 -19.853  1.00  0.00     0.060 A 
ATOM      4  C   UNL     1      19.385  -0.447 -19.750  1.00  0.00     0.162 A 
ATOM      5  C   UNL     1      21.412   0.275 -18.620  1.00  0.00     0.162 A 
ATOM      6  C   UNL     1      20.118  -0.268 -18.565  1.00  0.00     0.200 A 
ENDROOT
BRANCH   1   7
ATOM      7  C   UNL     1      21.828   0.845 -22.348  1.00  0.00     0.072 C 
ATOM      8  O   UNL     1      22.297  -0.031 -23.122  1.00  0.00    -0.545 OA
ATOM      9  O   UNL     1      21.869   2.179 -22.737  1.00  0.00    -0.545 OA
ENDBRANCH   1   7
BRANCH   4  10
ATOM     10  O   UNL     1      18.100  -0.986 -19.702  1.00  0.00    -0.504 OA
ATOM     11  H   UNL     1      17.924  -1.960 -19.922  1.00  0.00     0.293 HD
ENDBRANCH   4  10
BRANCH   5  12
ATOM     12  O   UNL     1      22.164   0.465 -17.461  1.00  0.00    -0.504 OA
ATOM     13  H   UNL     1      22.423  -0.303 -16.854  1.00  0.00     0.293 HD
ENDBRANCH   5  12
BRANCH   6  14
ATOM     14  O   UNL     1      19.572  -0.627 -17.331  1.00  0.00    -0.502 OA
ATOM     15  H   UNL     1      18.926  -0.028 -16.831  1.00  0.00     0.293 HD
ENDBRANCH   6  14
TORSDOF 4
ENDMDL
MODEL 4
REMARK VINA RESULT:    -4.817      1.337      4.714
REMARK INTER + INTRA:          -5.574
REMARK INTER:                  -5.529
REMARK INTRA:                  -0.045
REMARK UNBOUND:                -0.053
REMARK SMILES O=C([O-])c1cc(O)c(O)c(O)c1
REMARK SMILES IDX 4 1 5 2 12 3 6 4 10 5 8 6 2 7 1 8 3 9 7 10 11 12 9 14
REMARK H PARENT 7 11 11 13 9 15
REMARK Flexibility Score: inf
ROOT
ATOM      1  C   UNL     1      21.235   0.499 -20.962  1.00  0.00     0.005 A 
ATOM      2  C   UNL     1      21.954   0.682 -19.770  1.00  0.00     0.060 A 
ATOM      3  C   UNL     1      19.953  -0.077 -20.905  1.00  0.00     0.060 A 
ATOM      4  C   UNL     1      21.404   0.298 -18.538  1.00  0.00     0.162 A 
ATOM      5  C   UNL     1      19.397  -0.462 -19.680  1.00  0.00     0.162 A 
ATOM      6  C   UNL     1      20.122  -0.276 -18.491  1.00  0.00     0.200 A 
ENDROOT
BRANCH   1   7
ATOM      7  C   UNL     1      21.821   0.906 -22.259  1.00  0.00     0.072 C 
ATOM      8  O   UNL     1      21.854   2.120 -22.594  1.00  0.00    -0.545 OA
ATOM      9  O   UNL     1      22.345  -0.047 -23.125  1.00  0.00    -0.545 OA
ENDBRANCH   1   7
BRANCH   4  10
ATOM     10  O   UNL     1      22.128   0.485 -17.361  1.00  0.00    -0.504 OA
ATOM     11  H   UNL     1      22.386  -0.293 -16.766  1.00  0.00     0.293 HD
ENDBRANCH   4  10
BRANCH   5  12
ATOM     12  O   UNL     1      18.124  -1.030 -19.666  1.00  0.00    -0.504 OA
ATOM     13  H   UNL     1      17.841  -1.702 -18.963  1.00  0.00     0.293 HD
ENDBRANCH   5  12
BRANCH   6  14
ATOM     14  O   UNL     1      19.561  -0.664 -17.273  1.00  0.00    -0.502 OA
ATOM     15  H   UNL     1      19.195   0.007 -16.609  1.00  0.00     0.293 HD
ENDBRANCH   6  14
TORSDOF 4
ENDMDL
MODEL 5
REMARK VINA RESULT:    -4.800     16.804     18.350
REMARK INTER + INTRA:          -5.555
REMARK INTER:                  -5.509
REMARK INTRA:                  -0.046
REMARK UNBOUND:                -0.053
REMARK SMILES O=C([O-])c1cc(O)c(O)c(O)c1
REMARK SMILES IDX 4 1 5 2 12 3 6 4 10 5 8 6 2 7 1 8 3 9 7 10 11 12 9 14
REMARK H PARENT 7 11 11 13 9 15
REMARK Flexibility Score: inf
ROOT
ATOM      1  C   UNL     1       8.422  -7.188  -9.459  1.00  0.00     0.005 A 
ATOM      2  C   UNL     1       7.680  -6.657  -8.393  1.00  0.00     0.060 A 
ATOM      3  C   UNL     1       9.816  -7.008  -9.478  1.00  0.00     0.060 A 
ATOM      4  C   UNL     1       8.317  -5.955  -7.360  1.00  0.00     0.162 A 
ATOM      5  C   UNL     1      10.459  -6.309  -8.451  1.00  0.00     0.162 A 
ATOM      6  C   UNL     1       9.710  -5.779  -7.387  1.00  0.00     0.200 A 
ENDROOT
BRANCH   1   7
ATOM      7  C   UNL     1       7.743  -7.928 -10.547  1.00  0.00     0.072 C 
ATOM      8  O   UNL     1       7.122  -8.997 -10.305  1.00  0.00    -0.545 OA
ATOM      9  O   UNL     1       7.781  -7.452 -11.853  1.00  0.00    -0.545 OA
ENDBRANCH   1   7
BRANCH   4  10
ATOM     10  O   UNL     1       7.568  -5.432  -6.306  1.00  0.00    -0.504 OA
ATOM     11  H   UNL     1       7.904  -4.654  -5.750  1.00  0.00     0.293 HD
ENDBRANCH   4  10
BRANCH   5  12
ATOM     12  O   UNL     1      11.844  -6.151  -8.506  1.00  0.00    -0.504 OA
ATOM     13  H   UNL     1      12.467  -6.922  -8.712  1.00  0.00     0.293 HD
ENDBRANCH   5  12
BRANCH   6  14
ATOM     14  O   UNL     1      10.360  -5.083  -6.366  1.00  0.00    -0.502 OA
ATOM     15  H   UNL     1       9.952  -4.968  -5.446  1.00  0.00     0.293 HD
ENDBRANCH   6  14
TORSDOF 4
ENDMDL
MODEL 6
REMARK VINA RESULT:    -4.797     16.828     18.334
REMARK INTER + INTRA:          -5.551
REMARK INTER:                  -5.505
REMARK INTRA:                  -0.046
REMARK UNBOUND:                -0.053
REMARK SMILES O=C([O-])c1cc(O)c(O)c(O)c1
REMARK SMILES IDX 4 1 5 2 12 3 6 4 10 5 8 6 2 7 1 8 3 9 7 10 11 12 9 14
REMARK H PARENT 7 11 11 13 9 15
REMARK Flexibility Score: inf
ROOT
ATOM      1  C   UNL     1       8.436  -7.188  -9.379  1.00  0.00     0.005 A 
ATOM      2  C   UNL     1       9.829  -7.017  -9.415  1.00  0.00     0.060 A 
ATOM      3  C   UNL     1       7.707  -6.636  -8.312  1.00  0.00     0.060 A 
ATOM      4  C   UNL     1      10.487  -6.304  -8.403  1.00  0.00     0.162 A 
ATOM      5  C   UNL     1       8.356  -5.923  -7.298  1.00  0.00     0.162 A 
ATOM      6  C   UNL     1       9.750  -5.755  -7.340  1.00  0.00     0.200 A 
ENDROOT
BRANCH   1   7
ATOM      7  C   UNL     1       7.748  -7.942 -10.451  1.00  0.00     0.072 C 
ATOM      8  O   UNL     1       7.148  -9.020 -10.194  1.00  0.00    -0.545 OA
ATOM      9  O   UNL     1       7.753  -7.470 -11.759  1.00  0.00    -0.545 OA
ENDBRANCH   1   7
BRANCH   4  10
ATOM     10  O   UNL     1      11.871  -6.140  -8.450  1.00  0.00    -0.504 OA
ATOM     11  H   UNL     1      12.497  -6.759  -7.949  1.00  0.00     0.293 HD
ENDBRANCH   4  10
BRANCH   5  12
ATOM     12  O   UNL     1       7.598  -5.391  -6.255  1.00  0.00    -0.504 OA
ATOM     13  H   UNL     1       6.855  -4.721  -6.416  1.00  0.00     0.293 HD
ENDBRANCH   5  12
BRANCH   6  14
ATOM     14  O   UNL     1      10.390  -5.043  -6.324  1.00  0.00    -0.502 OA
ATOM     15  H   UNL     1      10.216  -5.226  -5.343  1.00  0.00     0.293 HD
ENDBRANCH   6  14
TORSDOF 4
ENDMDL
MODEL 7
REMARK VINA RESULT:    -4.632     16.458     19.051
REMARK INTER + INTRA:          -5.362
REMARK INTER:                  -5.317
REMARK INTRA:                  -0.045
REMARK UNBOUND:                -0.053
REMARK SMILES O=C([O-])c1cc(O)c(O)c(O)c1
REMARK SMILES IDX 4 1 5 2 12 3 6 4 10 5 8 6 2 7 1 8 3 9 7 10 11 12 9 14
REMARK H PARENT 7 11 11 13 9 15
REMARK Flexibility Score: inf
ROOT
ATOM      1  C   UNL     1       9.679  -7.106  -8.577  1.00  0.00     0.005 A 
ATOM      2  C   UNL     1      10.240  -6.103  -7.770  1.00  0.00     0.060 A 
ATOM      3  C   UNL     1       8.503  -7.748  -8.151  1.00  0.00     0.060 A 
ATOM      4  C   UNL     1       9.637  -5.745  -6.556  1.00  0.00     0.162 A 
ATOM      5  C   UNL     1       7.896  -7.396  -6.941  1.00  0.00     0.162 A 
ATOM      6  C   UNL     1       8.462  -6.392  -6.138  1.00  0.00     0.200 A 
ENDROOT
BRANCH   1   7
ATOM      7  C   UNL     1      10.320  -7.480  -9.858  1.00  0.00     0.072 C 
ATOM      8  O   UNL     1      11.076  -8.485  -9.927  1.00  0.00    -0.545 OA
ATOM      9  O   UNL     1      10.096  -6.726 -11.004  1.00  0.00    -0.545 OA
ENDBRANCH   1   7
BRANCH   4  10
ATOM     10  O   UNL     1      10.204  -4.747  -5.763  1.00  0.00    -0.504 OA
ATOM     11  H   UNL     1      10.077  -4.731  -4.758  1.00  0.00     0.293 HD
ENDBRANCH   4  10
BRANCH   5  12
ATOM     12  O   UNL     1       6.730  -8.057  -6.553  1.00  0.00    -0.504 OA
ATOM     13  H   UNL     1       6.750  -8.960  -6.096  1.00  0.00     0.293 HD
ENDBRANCH   5  12
BRANCH   6  14
ATOM     14  O   UNL     1       7.850  -6.046  -4.932  1.00  0.00    -0.502 OA
ATOM     15  H   UNL     1       8.131  -5.234  -4.397  1.00  0.00     0.293 HD
ENDBRANCH   6  14
TORSDOF 4
ENDMDL
MODEL 8
REMARK VINA RESULT:    -4.632     16.474     18.937
REMARK INTER + INTRA:          -5.362
REMARK INTER:                  -5.317
REMARK INTRA:                  -0.045
REMARK UNBOUND:                -0.053
REMARK SMILES O=C([O-])c1cc(O)c(O)c(O)c1
REMARK SMILES IDX 4 1 5 2 12 3 6 4 10 5 8 6 2 7 1 8 3 9 7 10 11 12 9 14
REMARK H PARENT 7 11 11 13 9 15
REMARK Flexibility Score: inf
ROOT
ATOM      1  C   UNL     1       9.668  -7.063  -8.575  1.00  0.00     0.005 A 
ATOM      2  C   UNL     1       8.508  -7.729  -8.148  1.00  0.00     0.060 A 
ATOM      3  C   UNL     1      10.221  -6.061  -7.759  1.00  0.00     0.060 A 
ATOM      4  C   UNL     1       7.907  -7.401  -6.924  1.00  0.00     0.162 A 
ATOM      5  C   UNL     1       9.627  -5.728  -6.536  1.00  0.00     0.162 A 
ATOM      6  C   UNL     1       8.467  -6.398  -6.114  1.00  0.00     0.200 A 
ENDROOT
BRANCH   1   7
ATOM      7  C   UNL     1      10.297  -7.413  -9.869  1.00  0.00     0.072 C 
ATOM      8  O   UNL     1      11.139  -8.347  -9.940  1.00  0.00    -0.545 OA
ATOM      9  O   UNL     1       9.965  -6.716 -11.025  1.00  0.00    -0.545 OA
ENDBRANCH   1   7
BRANCH   4  10
ATOM     10  O   UNL     1       6.756  -8.070  -6.510  1.00  0.00    -0.504 OA
ATOM     11  H   UNL     1       6.613  -8.333  -5.541  1.00  0.00     0.293 HD
ENDBRANCH   4  10
BRANCH   5  12
ATOM     12  O   UNL     1      10.206  -4.728  -5.756  1.00  0.00    -0.504 OA
ATOM     13  H   UNL     1      11.080  -4.283  -6.010  1.00  0.00     0.293 HD
ENDBRANCH   5  12
BRANCH   6  14
ATOM     14  O   UNL     1       7.881  -6.060  -4.893  1.00  0.00    -0.502 OA
ATOM     15  H   UNL     1       7.857  -6.702  -4.110  1.00  0.00     0.293 HD
ENDBRANCH   6  14
TORSDOF 4
ENDMDL
MODEL 9
REMARK VINA RESULT:    -4.612     16.015     17.443
REMARK INTER + INTRA:          -5.338
REMARK INTER:                  -5.293
REMARK INTRA:                  -0.045
REMARK UNBOUND:                -0.053
REMARK SMILES O=C([O-])c1cc(O)c(O)c(O)c1
REMARK SMILES IDX 4 1 5 2 12 3 6 4 10 5 8 6 2 7 1 8 3 9 7 10 11 12 9 14
REMARK H PARENT 7 11 11 13 9 15
REMARK Flexibility Score: inf
ROOT
ATOM      1  C   UNL     1       8.687  -5.681 -10.418  1.00  0.00     0.005 A 
ATOM      2  C   UNL     1      10.067  -5.888 -10.268  1.00  0.00     0.060 A 
ATOM      3  C   UNL     1       7.897  -5.482  -9.272  1.00  0.00     0.060 A 
ATOM      4  C   UNL     1      10.653  -5.897  -8.995  1.00  0.00     0.162 A 
ATOM      5  C   UNL     1       8.475  -5.490  -7.997  1.00  0.00     0.162 A 
ATOM      6  C   UNL     1       9.857  -5.698  -7.854  1.00  0.00     0.200 A 
ENDROOT
BRANCH   1   7
ATOM      7  C   UNL     1       8.074  -5.672 -11.766  1.00  0.00     0.072 C 
ATOM      8  O   UNL     1       7.628  -4.603 -12.260  1.00  0.00    -0.545 OA
ATOM      9  O   UNL     1       7.983  -6.845 -12.505  1.00  0.00    -0.545 OA
ENDBRANCH   1   7
BRANCH   4  10
ATOM     10  O   UNL     1      12.026  -6.104  -8.859  1.00  0.00    -0.504 OA
ATOM     11  H   UNL     1      12.695  -5.363  -9.038  1.00  0.00     0.293 HD
ENDBRANCH   4  10
BRANCH   5  12
ATOM     12  O   UNL     1       7.658  -5.291  -6.885  1.00  0.00    -0.504 OA
ATOM     13  H   UNL     1       8.034  -5.051  -5.975  1.00  0.00     0.293 HD
ENDBRANCH   5  12
BRANCH   6  14
ATOM     14  O   UNL     1      10.425  -5.705  -6.579  1.00  0.00    -0.502 OA
ATOM     15  H   UNL     1      10.371  -6.510  -5.968  1.00  0.00     0.293 HD
ENDBRANCH   6  14
TORSDOF 4
ENDMDL
