MODEL 1
REMARK VINA RESULT:     1.553      0.000      0.000
REMARK INTER + INTRA:           1.573
REMARK INTER:                   1.871
REMARK INTRA:                  -0.298
REMARK UNBOUND:                -0.298
REMARK SMILES O=c1c(O)c(-c2ccc(O)c(O)c2)oc2cc(O)cc(O)c12
REMARK SMILES IDX 5 1 3 2 2 3 1 4 22 5 20 6 19 7 17 8 16 9 15 10 14 11 6 12
REMARK SMILES IDX 7 13 8 14 9 15 13 16 11 17 10 18 12 20 4 22 21 24 18 26
REMARK H PARENT 10 19 12 21 4 23 21 25 18 27
REMARK Flexibility Score: inf
ROOT
ATOM      1  C   UNL     1      75.501  40.672  24.022  1.00  0.00     0.180 A 
ATOM      2  C   UNL     1      76.234  41.701  23.407  1.00  0.00     0.208 A 
ATOM      3  C   UNL     1      75.869  42.121  22.117  1.00  0.00     0.238 A 
ATOM      4  O   UNL     1      76.494  43.080  21.594  1.00  0.00    -0.285 OA
ATOM      5  C   UNL     1      74.786  41.496  21.454  1.00  0.00     0.111 A 
ATOM      6  C   UNL     1      74.355  41.813  20.131  1.00  0.00     0.134 A 
ATOM      7  C   UNL     1      73.191  41.221  19.623  1.00  0.00     0.093 A 
ATOM      8  C   UNL     1      72.481  40.277  20.363  1.00  0.00     0.123 A 
ATOM      9  C   UNL     1      72.927  39.916  21.635  1.00  0.00     0.094 A 
ATOM     10  C   UNL     1      74.064  40.516  22.183  1.00  0.00     0.146 A 
ATOM     11  O   UNL     1      74.449  40.151  23.400  1.00  0.00    -0.452 OA
ENDROOT
BRANCH   1  12
ATOM     12  C   UNL     1      75.840  40.159  25.369  1.00  0.00     0.025 A 
ATOM     13  C   UNL     1      76.559  38.962  25.536  1.00  0.00     0.016 A 
ATOM     14  C   UNL     1      76.848  38.485  26.817  1.00  0.00     0.051 A 
ATOM     15  C   UNL     1      76.412  39.187  27.948  1.00  0.00     0.157 A 
ATOM     16  C   UNL     1      75.388  40.849  26.507  1.00  0.00     0.062 A 
ATOM     17  C   UNL     1      75.679  40.369  27.792  1.00  0.00     0.158 A 
BRANCH  15  18
ATOM     18  O   UNL     1      76.699  38.714  29.227  1.00  0.00    -0.504 OA
ATOM     19  H   UNL     1      76.242  39.094  30.048  1.00  0.00     0.293 HD
ENDBRANCH  15  18
BRANCH  17  20
ATOM     20  O   UNL     1      75.240  41.064  28.919  1.00  0.00    -0.504 OA
ATOM     21  H   UNL     1      75.550  40.814  29.850  1.00  0.00     0.293 HD
ENDBRANCH  17  20
ENDBRANCH   1  12
BRANCH   2  22
ATOM     22  O   UNL     1      77.285  42.320  24.089  1.00  0.00    -0.502 OA
ATOM     23  H   UNL     1      78.256  42.092  23.915  1.00  0.00     0.293 HD
ENDBRANCH   2  22
BRANCH   6  24
ATOM     24  O   UNL     1      75.043  42.674  19.271  1.00  0.00    -0.507 OA
ATOM     25  H   UNL     1      75.414  43.574  19.534  1.00  0.00     0.293 HD
ENDBRANCH   6  24
BRANCH   8  26
ATOM     26  O   UNL     1      71.336  39.698  19.822  1.00  0.00    -0.508 OA
ATOM     27  H   UNL     1      70.776  39.037  20.348  1.00  0.00     0.293 HD
ENDBRANCH   8  26
TORSDOF 6
ENDMDL
MODEL 2
REMARK VINA RESULT:     2.408      2.540      4.496
REMARK INTER + INTRA:           2.602
REMARK INTER:                   2.851
REMARK INTRA:                  -0.249
REMARK UNBOUND:                -0.298
REMARK SMILES O=c1c(O)c(-c2ccc(O)c(O)c2)oc2cc(O)cc(O)c12
REMARK SMILES IDX 5 1 3 2 2 3 1 4 22 5 20 6 19 7 17 8 16 9 15 10 14 11 6 12
REMARK SMILES IDX 7 13 8 14 9 15 13 16 11 17 10 18 12 20 4 22 21 24 18 26
REMARK H PARENT 10 19 12 21 4 23 21 25 18 27
REMARK Flexibility Score: inf
ROOT
ATOM      1  C   UNL     1      73.797  40.734  21.643  1.00  0.00     0.180 A 
ATOM      2  C   UNL     1      72.595  41.437  21.455  1.00  0.00     0.208 A 
ATOM      3  C   UNL     1      71.557  40.831  20.727  1.00  0.00     0.238 A 
ATOM      4  O   UNL     1      70.465  41.444  20.608  1.00  0.00    -0.285 OA
ATOM      5  C   UNL     1      71.741  39.537  20.184  1.00  0.00     0.111 A 
ATOM      6  C   UNL     1      70.773  38.845  19.396  1.00  0.00     0.134 A 
ATOM      7  C   UNL     1      71.012  37.516  19.020  1.00  0.00     0.093 A 
ATOM      8  C   UNL     1      72.208  36.879  19.346  1.00  0.00     0.123 A 
ATOM      9  C   UNL     1      73.186  37.566  20.066  1.00  0.00     0.094 A 
ATOM     10  C   UNL     1      72.962  38.880  20.486  1.00  0.00     0.146 A 
ATOM     11  O   UNL     1      73.914  39.496  21.177  1.00  0.00    -0.452 OA
ENDROOT
BRANCH   1  12
ATOM     12  C   UNL     1      74.944  41.315  22.377  1.00  0.00     0.025 A 
ATOM     13  C   UNL     1      75.709  42.360  21.829  1.00  0.00     0.016 A 
ATOM     14  C   UNL     1      76.802  42.878  22.530  1.00  0.00     0.051 A 
ATOM     15  C   UNL     1      77.155  42.351  23.779  1.00  0.00     0.157 A 
ATOM     16  C   UNL     1      75.315  40.777  23.621  1.00  0.00     0.062 A 
ATOM     17  C   UNL     1      76.412  41.297  24.324  1.00  0.00     0.158 A 
BRANCH  15  18
ATOM     18  O   UNL     1      78.243  42.865  24.480  1.00  0.00    -0.504 OA
ATOM     19  H   UNL     1      78.799  43.628  24.112  1.00  0.00     0.293 HD
ENDBRANCH  15  18
BRANCH  17  20
ATOM     20  O   UNL     1      76.768  40.769  25.564  1.00  0.00    -0.504 OA
ATOM     21  H   UNL     1      76.328  41.083  26.420  1.00  0.00     0.293 HD
ENDBRANCH  17  20
ENDBRANCH   1  12
BRANCH   2  22
ATOM     22  O   UNL     1      72.426  42.704  22.019  1.00  0.00    -0.502 OA
ATOM     23  H   UNL     1      72.602  43.558  21.503  1.00  0.00     0.293 HD
ENDBRANCH   2  22
BRANCH   6  24
ATOM     24  O   UNL     1      69.585  39.419  18.937  1.00  0.00    -0.507 OA
ATOM     25  H   UNL     1      69.195  39.276  18.017  1.00  0.00     0.293 HD
ENDBRANCH   6  24
BRANCH   8  26
ATOM     26  O   UNL     1      72.417  35.562  18.943  1.00  0.00    -0.508 OA
ATOM     27  H   UNL     1      73.211  35.303  18.368  1.00  0.00     0.293 HD
ENDBRANCH   8  26
TORSDOF 6
ENDMDL
MODEL 3
REMARK VINA RESULT:     3.350      1.540      3.004
REMARK INTER + INTRA:           3.737
REMARK INTER:                   4.022
REMARK INTRA:                  -0.286
REMARK UNBOUND:                -0.298
REMARK SMILES O=c1c(O)c(-c2ccc(O)c(O)c2)oc2cc(O)cc(O)c12
REMARK SMILES IDX 5 1 3 2 2 3 1 4 22 5 20 6 19 7 17 8 16 9 15 10 14 11 6 12
REMARK SMILES IDX 7 13 8 14 9 15 13 16 11 17 10 18 12 20 4 22 21 24 18 26
REMARK H PARENT 10 19 12 21 4 23 21 25 18 27
REMARK Flexibility Score: inf
ROOT
ATOM      1  C   UNL     1      75.445  40.980  23.585  1.00  0.00     0.180 A 
ATOM      2  C   UNL     1      74.134  41.044  23.084  1.00  0.00     0.208 A 
ATOM      3  C   UNL     1      73.919  41.580  21.803  1.00  0.00     0.238 A 
ATOM      4  O   UNL     1      72.749  41.585  21.339  1.00  0.00    -0.285 OA
ATOM      5  C   UNL     1      75.016  42.059  21.048  1.00  0.00     0.111 A 
ATOM      6  C   UNL     1      74.910  42.659  19.757  1.00  0.00     0.134 A 
ATOM      7  C   UNL     1      76.074  42.979  19.047  1.00  0.00     0.093 A 
ATOM      8  C   UNL     1      77.336  42.782  19.605  1.00  0.00     0.123 A 
ATOM      9  C   UNL     1      77.449  42.251  20.891  1.00  0.00     0.094 A 
ATOM     10  C   UNL     1      76.307  41.888  21.610  1.00  0.00     0.146 A 
ATOM     11  O   UNL     1      76.459  41.377  22.826  1.00  0.00    -0.452 OA
ENDROOT
BRANCH   1  12
ATOM     12  C   UNL     1      75.748  40.451  24.934  1.00  0.00     0.025 A 
ATOM     13  C   UNL     1      76.213  39.137  25.118  1.00  0.00     0.016 A 
ATOM     14  C   UNL     1      76.470  38.652  26.403  1.00  0.00     0.051 A 
ATOM     15  C   UNL     1      76.253  39.465  27.522  1.00  0.00     0.157 A 
ATOM     16  C   UNL     1      75.512  41.256  26.062  1.00  0.00     0.062 A 
ATOM     17  C   UNL     1      75.770  40.768  27.352  1.00  0.00     0.158 A 
BRANCH  15  18
ATOM     18  O   UNL     1      76.509  38.985  28.805  1.00  0.00    -0.504 OA
ATOM     19  H   UNL     1      76.288  39.530  29.630  1.00  0.00     0.293 HD
ENDBRANCH  15  18
BRANCH  17  20
ATOM     20  O   UNL     1      75.548  41.574  28.467  1.00  0.00    -0.504 OA
ATOM     21  H   UNL     1      75.595  42.584  28.410  1.00  0.00     0.293 HD
ENDBRANCH  17  20
ENDBRANCH   1  12
BRANCH   2  22
ATOM     22  O   UNL     1      73.068  40.545  23.837  1.00  0.00    -0.502 OA
ATOM     23  H   UNL     1      72.861  39.555  23.899  1.00  0.00     0.293 HD
ENDBRANCH   2  22
BRANCH   6  24
ATOM     24  O   UNL     1      73.696  42.985  19.145  1.00  0.00    -0.507 OA
ATOM     25  H   UNL     1      73.215  42.404  18.476  1.00  0.00     0.293 HD
ENDBRANCH   6  24
BRANCH   8  26
ATOM     26  O   UNL     1      78.472  43.125  18.876  1.00  0.00    -0.508 OA
ATOM     27  H   UNL     1      78.862  44.059  18.911  1.00  0.00     0.293 HD
ENDBRANCH   8  26
TORSDOF 6
ENDMDL
MODEL 4
REMARK VINA RESULT:     3.594      3.321      6.629
REMARK INTER + INTRA:           4.030
REMARK INTER:                   4.354
REMARK INTRA:                  -0.323
REMARK UNBOUND:                -0.298
REMARK SMILES O=c1c(O)c(-c2ccc(O)c(O)c2)oc2cc(O)cc(O)c12
REMARK SMILES IDX 5 1 3 2 2 3 1 4 22 5 20 6 19 7 17 8 16 9 15 10 14 11 6 12
REMARK SMILES IDX 7 13 8 14 9 15 13 16 11 17 10 18 12 20 4 22 21 24 18 26
REMARK H PARENT 10 19 12 21 4 23 21 25 18 27
REMARK Flexibility Score: inf
ROOT
ATOM      1  C   UNL     1      74.126  40.319  20.871  1.00  0.00     0.180 A 
ATOM      2  C   UNL     1      74.118  40.759  22.206  1.00  0.00     0.208 A 
ATOM      3  C   UNL     1      75.165  41.579  22.660  1.00  0.00     0.238 A 
ATOM      4  O   UNL     1      75.124  42.014  23.840  1.00  0.00    -0.285 OA
ATOM      5  C   UNL     1      76.213  41.934  21.778  1.00  0.00     0.111 A 
ATOM      6  C   UNL     1      77.344  42.726  22.141  1.00  0.00     0.134 A 
ATOM      7  C   UNL     1      78.254  43.125  21.154  1.00  0.00     0.093 A 
ATOM      8  C   UNL     1      78.111  42.707  19.832  1.00  0.00     0.123 A 
ATOM      9  C   UNL     1      77.041  41.884  19.477  1.00  0.00     0.094 A 
ATOM     10  C   UNL     1      76.097  41.499  20.432  1.00  0.00     0.146 A 
ATOM     11  O   UNL     1      75.089  40.724  20.051  1.00  0.00    -0.452 OA
ENDROOT
BRANCH   1  12
ATOM     12  C   UNL     1      73.072  39.433  20.327  1.00  0.00     0.025 A 
ATOM     13  C   UNL     1      71.908  39.958  19.737  1.00  0.00     0.016 A 
ATOM     14  C   UNL     1      70.915  39.103  19.251  1.00  0.00     0.051 A 
ATOM     15  C   UNL     1      71.063  37.714  19.360  1.00  0.00     0.157 A 
ATOM     16  C   UNL     1      73.205  38.040  20.452  1.00  0.00     0.062 A 
ATOM     17  C   UNL     1      72.209  37.182  19.964  1.00  0.00     0.158 A 
BRANCH  15  18
ATOM     18  O   UNL     1      70.076  36.859  18.876  1.00  0.00    -0.504 OA
ATOM     19  H   UNL     1      69.749  36.066  19.416  1.00  0.00     0.293 HD
ENDBRANCH  15  18
BRANCH  17  20
ATOM     20  O   UNL     1      72.351  35.800  20.078  1.00  0.00    -0.504 OA
ATOM     21  H   UNL     1      72.552  35.220  19.272  1.00  0.00     0.293 HD
ENDBRANCH  17  20
ENDBRANCH   1  12
BRANCH   2  22
ATOM     22  O   UNL     1      73.062  40.415  23.053  1.00  0.00    -0.502 OA
ATOM     23  H   UNL     1      72.426  41.102  23.439  1.00  0.00     0.293 HD
ENDBRANCH   2  22
BRANCH   6  24
ATOM     24  O   UNL     1      77.632  43.121  23.451  1.00  0.00    -0.507 OA
ATOM     25  H   UNL     1      78.465  43.614  23.733  1.00  0.00     0.293 HD
ENDBRANCH   6  24
BRANCH   8  26
ATOM     26  O   UNL     1      79.043  43.110  18.879  1.00  0.00    -0.508 OA
ATOM     27  H   UNL     1      79.838  43.689  19.125  1.00  0.00     0.293 HD
ENDBRANCH   8  26
TORSDOF 6
ENDMDL
MODEL 5
REMARK VINA RESULT:     4.176      4.193      6.014
REMARK INTER + INTRA:           4.731
REMARK INTER:                   4.630
REMARK INTRA:                   0.101
REMARK UNBOUND:                -0.298
REMARK SMILES O=c1c(O)c(-c2ccc(O)c(O)c2)oc2cc(O)cc(O)c12
REMARK SMILES IDX 5 1 3 2 2 3 1 4 22 5 20 6 19 7 17 8 16 9 15 10 14 11 6 12
REMARK SMILES IDX 7 13 8 14 9 15 13 16 11 17 10 18 12 20 4 22 21 24 18 26
REMARK H PARENT 10 19 12 21 4 23 21 25 18 27
REMARK Flexibility Score: inf
ROOT
ATOM      1  C   UNL     1      74.251  40.882  20.768  1.00  0.00     0.180 A 
ATOM      2  C   UNL     1      73.856  39.632  20.260  1.00  0.00     0.208 A 
ATOM      3  C   UNL     1      72.601  39.115  20.621  1.00  0.00     0.238 A 
ATOM      4  O   UNL     1      72.231  38.021  20.120  1.00  0.00    -0.285 OA
ATOM      5  C   UNL     1      71.764  39.847  21.497  1.00  0.00     0.111 A 
ATOM      6  C   UNL     1      70.490  39.401  21.961  1.00  0.00     0.134 A 
ATOM      7  C   UNL     1      69.691  40.264  22.722  1.00  0.00     0.093 A 
ATOM      8  C   UNL     1      70.145  41.529  23.090  1.00  0.00     0.123 A 
ATOM      9  C   UNL     1      71.414  41.953  22.691  1.00  0.00     0.094 A 
ATOM     10  C   UNL     1      72.219  41.128  21.901  1.00  0.00     0.146 A 
ATOM     11  O   UNL     1      73.415  41.573  21.535  1.00  0.00    -0.452 OA
ENDROOT
BRANCH   1  12
ATOM     12  C   UNL     1      75.567  41.480  20.453  1.00  0.00     0.025 A 
ATOM     13  C   UNL     1      76.084  41.466  19.145  1.00  0.00     0.016 A 
ATOM     14  C   UNL     1      77.340  42.016  18.876  1.00  0.00     0.051 A 
ATOM     15  C   UNL     1      78.104  42.574  19.909  1.00  0.00     0.157 A 
ATOM     16  C   UNL     1      76.347  42.023  21.489  1.00  0.00     0.062 A 
ATOM     17  C   UNL     1      77.607  42.575  21.218  1.00  0.00     0.158 A 
BRANCH  15  18
ATOM     18  O   UNL     1      79.355  43.124  19.643  1.00  0.00    -0.504 OA
ATOM     19  H   UNL     1      80.208  42.591  19.772  1.00  0.00     0.293 HD
ENDBRANCH  15  18
BRANCH  17  20
ATOM     20  O   UNL     1      78.372  43.124  22.246  1.00  0.00    -0.504 OA
ATOM     21  H   UNL     1      79.272  42.738  22.502  1.00  0.00     0.293 HD
ENDBRANCH  17  20
ENDBRANCH   1  12
BRANCH   2  22
ATOM     22  O   UNL     1      74.688  38.936  19.379  1.00  0.00    -0.502 OA
ATOM     23  H   UNL     1      75.526  38.457  19.685  1.00  0.00     0.293 HD
ENDBRANCH   2  22
BRANCH   6  24
ATOM     24  O   UNL     1      69.979  38.120  21.729  1.00  0.00    -0.507 OA
ATOM     25  H   UNL     1      70.412  37.264  22.039  1.00  0.00     0.293 HD
ENDBRANCH   6  24
BRANCH   8  26
ATOM     26  O   UNL     1      69.330  42.356  23.859  1.00  0.00    -0.508 OA
ATOM     27  H   UNL     1      68.522  41.994  24.352  1.00  0.00     0.293 HD
ENDBRANCH   8  26
TORSDOF 6
ENDMDL
MODEL 6
REMARK VINA RESULT:     4.503      2.954      4.117
REMARK INTER + INTRA:           5.126
REMARK INTER:                   5.025
REMARK INTRA:                   0.101
REMARK UNBOUND:                -0.298
REMARK SMILES O=c1c(O)c(-c2ccc(O)c(O)c2)oc2cc(O)cc(O)c12
REMARK SMILES IDX 5 1 3 2 2 3 1 4 22 5 20 6 19 7 17 8 16 9 15 10 14 11 6 12
REMARK SMILES IDX 7 13 8 14 9 15 13 16 11 17 10 18 12 20 4 22 21 24 18 26
REMARK H PARENT 10 19 12 21 4 23 21 25 18 27
REMARK Flexibility Score: inf
ROOT
ATOM      1  C   UNL     1      73.573  42.266  22.417  1.00  0.00     0.180 A 
ATOM      2  C   UNL     1      73.694  42.524  21.041  1.00  0.00     0.208 A 
ATOM      3  C   UNL     1      72.536  42.799  20.294  1.00  0.00     0.238 A 
ATOM      4  O   UNL     1      72.657  43.083  19.074  1.00  0.00    -0.285 OA
ATOM      5  C   UNL     1      71.272  42.796  20.931  1.00  0.00     0.111 A 
ATOM      6  C   UNL     1      70.029  43.022  20.264  1.00  0.00     0.134 A 
ATOM      7  C   UNL     1      68.851  43.125  21.016  1.00  0.00     0.093 A 
ATOM      8  C   UNL     1      68.861  42.946  22.398  1.00  0.00     0.123 A 
ATOM      9  C   UNL     1      70.061  42.666  23.053  1.00  0.00     0.094 A 
ATOM     10  C   UNL     1      71.258  42.593  22.335  1.00  0.00     0.146 A 
ATOM     11  O   UNL     1      72.380  42.335  22.997  1.00  0.00    -0.452 OA
ENDROOT
BRANCH   1  12
ATOM     12  C   UNL     1      74.743  41.944  23.264  1.00  0.00     0.025 A 
ATOM     13  C   UNL     1      75.944  42.668  23.160  1.00  0.00     0.016 A 
ATOM     14  C   UNL     1      77.044  42.331  23.953  1.00  0.00     0.051 A 
ATOM     15  C   UNL     1      76.965  41.259  24.851  1.00  0.00     0.157 A 
ATOM     16  C   UNL     1      74.677  40.857  24.153  1.00  0.00     0.062 A 
ATOM     17  C   UNL     1      75.781  40.519  24.949  1.00  0.00     0.158 A 
BRANCH  15  18
ATOM     18  O   UNL     1      78.059  40.921  25.645  1.00  0.00    -0.504 OA
ATOM     19  H   UNL     1      78.085  41.140  26.634  1.00  0.00     0.293 HD
ENDBRANCH  15  18
BRANCH  17  20
ATOM     20  O   UNL     1      75.707  39.448  25.839  1.00  0.00    -0.504 OA
ATOM     21  H   UNL     1      75.380  39.570  26.789  1.00  0.00     0.293 HD
ENDBRANCH  17  20
ENDBRANCH   1  12
BRANCH   2  22
ATOM     22  O   UNL     1      74.954  42.544  20.438  1.00  0.00    -0.502 OA
ATOM     23  H   UNL     1      75.129  42.133  19.529  1.00  0.00     0.293 HD
ENDBRANCH   2  22
BRANCH   6  24
ATOM     24  O   UNL     1      69.895  43.123  18.877  1.00  0.00    -0.507 OA
ATOM     25  H   UNL     1      69.330  43.811  18.402  1.00  0.00     0.293 HD
ENDBRANCH   6  24
BRANCH   8  26
ATOM     26  O   UNL     1      67.669  43.040  23.112  1.00  0.00    -0.508 OA
ATOM     27  H   UNL     1      67.256  42.232  23.564  1.00  0.00     0.293 HD
ENDBRANCH   8  26
TORSDOF 6
ENDMDL
