MODEL 1
REMARK VINA RESULT:    -4.485      0.000      0.000
REMARK INTER + INTRA:          -9.224
REMARK INTER:                  -7.893
REMARK INTRA:                  -1.331
REMARK UNBOUND:                -1.331
REMARK SMILES CCCCCCCCCCCCCCC(=O)[O-]
REMARK SMILES IDX 9 1 10 2 11 3 12 4 13 5 14 6 15 7 16 8 17 9 8 10 7 11 6 12
REMARK SMILES IDX 5 13 4 14 3 15 2 16 1 17
REMARK H PARENT
REMARK Flexibility Score: inf
ROOT
ATOM      1  C   UNL     1      -4.839  35.735  21.286  1.00  0.00     0.000 C 
ENDROOT
BRANCH   1   2
ATOM      2  C   UNL     1      -5.209  36.229  19.883  1.00  0.00     0.000 C 
BRANCH   2   3
ATOM      3  C   UNL     1      -4.058  36.000  18.896  1.00  0.00     0.000 C 
BRANCH   3   4
ATOM      4  C   UNL     1      -3.201  37.258  18.672  1.00  0.00     0.000 C 
BRANCH   4   5
ATOM      5  C   UNL     1      -2.139  37.094  17.565  1.00  0.00     0.006 C 
BRANCH   5   6
ATOM      6  C   UNL     1      -2.556  36.063  16.509  1.00  0.00     0.053 C 
BRANCH   6   7
ATOM      7  C   UNL     1      -3.123  36.747  15.305  1.00  0.00     0.041 C 
ATOM      8  O   UNL     1      -3.159  36.153  14.196  1.00  0.00    -0.550 OA
ATOM      9  O   UNL     1      -3.567  38.061  15.397  1.00  0.00    -0.550 OA
ENDBRANCH   6   7
ENDBRANCH   5   6
ENDBRANCH   4   5
ENDBRANCH   3   4
ENDBRANCH   2   3
ENDBRANCH   1   2
BRANCH   1  10
ATOM     10  C   UNL     1      -6.088  35.288  22.060  1.00  0.00     0.000 C 
BRANCH  10  11
ATOM     11  C   UNL     1      -5.781  34.888  23.513  1.00  0.00    -0.000 C 
BRANCH  11  12
ATOM     12  C   UNL     1      -6.084  35.974  24.566  1.00  0.00    -0.000 C 
BRANCH  12  13
ATOM     13  C   UNL     1      -4.843  36.586  25.247  1.00  0.00    -0.000 C 
BRANCH  13  14
ATOM     14  C   UNL     1      -4.532  38.041  24.841  1.00  0.00    -0.000 C 
BRANCH  14  15
ATOM     15  C   UNL     1      -5.434  38.615  23.730  1.00  0.00    -0.000 C 
BRANCH  15  16
ATOM     16  C   UNL     1      -4.687  39.099  22.475  1.00  0.00    -0.003 C 
ATOM     17  C   UNL     1      -5.627  39.559  21.362  1.00  0.00     0.004 C 
ENDBRANCH  15  16
ENDBRANCH  14  15
ENDBRANCH  13  14
ENDBRANCH  12  13
ENDBRANCH  11  12
ENDBRANCH  10  11
ENDBRANCH   1  10
TORSDOF 13
ENDMDL
MODEL 2
REMARK VINA RESULT:    -4.334      1.055      2.648
REMARK INTER + INTRA:          -8.958
REMARK INTER:                  -7.587
REMARK INTRA:                  -1.371
REMARK UNBOUND:                -1.331
REMARK SMILES CCCCCCCCCCCCCCC(=O)[O-]
REMARK SMILES IDX 9 1 10 2 11 3 12 4 13 5 14 6 15 7 16 8 17 9 8 10 7 11 6 12
REMARK SMILES IDX 5 13 4 14 3 15 2 16 1 17
REMARK H PARENT
REMARK Flexibility Score: inf
ROOT
ATOM      1  C   UNL     1      -4.071  36.838  20.701  1.00  0.00     0.000 C 
ENDROOT
BRANCH   1   2
ATOM      2  C   UNL     1      -4.186  35.418  20.134  1.00  0.00     0.000 C 
BRANCH   2   3
ATOM      3  C   UNL     1      -5.013  35.406  18.842  1.00  0.00     0.000 C 
BRANCH   3   4
ATOM      4  C   UNL     1      -4.142  35.372  17.574  1.00  0.00     0.000 C 
BRANCH   4   5
ATOM      5  C   UNL     1      -2.974  36.380  17.599  1.00  0.00     0.006 C 
BRANCH   5   6
ATOM      6  C   UNL     1      -3.126  37.470  16.530  1.00  0.00     0.053 C 
BRANCH   6   7
ATOM      7  C   UNL     1      -2.952  36.889  15.163  1.00  0.00     0.041 C 
ATOM      8  O   UNL     1      -1.959  36.159  14.905  1.00  0.00    -0.550 OA
ATOM      9  O   UNL     1      -3.862  37.193  14.157  1.00  0.00    -0.550 OA
ENDBRANCH   6   7
ENDBRANCH   5   6
ENDBRANCH   4   5
ENDBRANCH   3   4
ENDBRANCH   2   3
ENDBRANCH   1   2
BRANCH   1  10
ATOM     10  C   UNL     1      -5.350  37.643  20.432  1.00  0.00     0.000 C 
BRANCH  10  11
ATOM     11  C   UNL     1      -5.508  38.851  21.373  1.00  0.00    -0.000 C 
BRANCH  11  12
ATOM     12  C   UNL     1      -4.467  38.931  22.509  1.00  0.00    -0.000 C 
BRANCH  12  13
ATOM     13  C   UNL     1      -5.050  38.856  23.934  1.00  0.00    -0.000 C 
BRANCH  13  14
ATOM     14  C   UNL     1      -4.536  37.677  24.784  1.00  0.00    -0.000 C 
BRANCH  14  15
ATOM     15  C   UNL     1      -5.555  36.541  25.008  1.00  0.00    -0.000 C 
BRANCH  15  16
ATOM     16  C   UNL     1      -6.125  35.918  23.722  1.00  0.00    -0.003 C 
ATOM     17  C   UNL     1      -5.491  34.569  23.383  1.00  0.00     0.004 C 
ENDBRANCH  15  16
ENDBRANCH  14  15
ENDBRANCH  13  14
ENDBRANCH  12  13
ENDBRANCH  11  12
ENDBRANCH  10  11
ENDBRANCH   1  10
TORSDOF 13
ENDMDL
MODEL 3
REMARK VINA RESULT:    -4.264      3.557      7.733
REMARK INTER + INTRA:          -8.836
REMARK INTER:                  -8.148
REMARK INTRA:                  -0.688
REMARK UNBOUND:                -1.331
REMARK SMILES CCCCCCCCCCCCCCC(=O)[O-]
REMARK SMILES IDX 9 1 10 2 11 3 12 4 13 5 14 6 15 7 16 8 17 9 8 10 7 11 6 12
REMARK SMILES IDX 5 13 4 14 3 15 2 16 1 17
REMARK H PARENT
REMARK Flexibility Score: inf
ROOT
ATOM      1  C   UNL     1      -5.378  37.288  20.326  1.00  0.00     0.000 C 
ENDROOT
BRANCH   1   2
ATOM      2  C   UNL     1      -5.476  35.765  20.472  1.00  0.00     0.000 C 
BRANCH   2   3
ATOM      3  C   UNL     1      -4.612  35.267  21.638  1.00  0.00     0.000 C 
BRANCH   3   4
ATOM      4  C   UNL     1      -5.440  34.881  22.875  1.00  0.00     0.000 C 
BRANCH   4   5
ATOM      5  C   UNL     1      -6.125  36.082  23.560  1.00  0.00     0.006 C 
BRANCH   5   6
ATOM      6  C   UNL     1      -5.658  36.268  25.009  1.00  0.00     0.053 C 
BRANCH   6   7
ATOM      7  C   UNL     1      -4.783  37.476  25.127  1.00  0.00     0.041 C 
ATOM      8  O   UNL     1      -4.788  38.353  24.224  1.00  0.00    -0.550 OA
ATOM      9  O   UNL     1      -3.925  37.610  26.212  1.00  0.00    -0.550 OA
ENDBRANCH   6   7
ENDBRANCH   5   6
ENDBRANCH   4   5
ENDBRANCH   3   4
ENDBRANCH   2   3
ENDBRANCH   1   2
BRANCH   1  10
ATOM     10  C   UNL     1      -4.575  37.670  19.073  1.00  0.00     0.000 C 
BRANCH  10  11
ATOM     11  C   UNL     1      -3.111  37.199  19.133  1.00  0.00    -0.000 C 
BRANCH  11  12
ATOM     12  C   UNL     1      -2.370  37.202  17.780  1.00  0.00    -0.000 C 
BRANCH  12  13
ATOM     13  C   UNL     1      -2.901  36.194  16.743  1.00  0.00    -0.000 C 
BRANCH  13  14
ATOM     14  C   UNL     1      -1.966  35.944  15.543  1.00  0.00    -0.000 C 
BRANCH  14  15
ATOM     15  C   UNL     1      -2.376  36.652  14.236  1.00  0.00    -0.000 C 
BRANCH  15  16
ATOM     16  C   UNL     1      -3.880  36.947  14.103  1.00  0.00    -0.003 C 
ATOM     17  C   UNL     1      -4.214  38.428  14.273  1.00  0.00     0.004 C 
ENDBRANCH  15  16
ENDBRANCH  14  15
ENDBRANCH  13  14
ENDBRANCH  12  13
ENDBRANCH  11  12
ENDBRANCH  10  11
ENDBRANCH   1  10
TORSDOF 13
ENDMDL
MODEL 4
REMARK VINA RESULT:    -4.136      3.751      7.206
REMARK INTER + INTRA:          -8.611
REMARK INTER:                  -7.458
REMARK INTRA:                  -1.153
REMARK UNBOUND:                -1.331
REMARK SMILES CCCCCCCCCCCCCCC(=O)[O-]
REMARK SMILES IDX 9 1 10 2 11 3 12 4 13 5 14 6 15 7 16 8 17 9 8 10 7 11 6 12
REMARK SMILES IDX 5 13 4 14 3 15 2 16 1 17
REMARK H PARENT
REMARK Flexibility Score: inf
ROOT
ATOM      1  C   UNL     1      -4.614  35.735  21.347  1.00  0.00     0.000 C 
ENDROOT
BRANCH   1   2
ATOM      2  C   UNL     1      -5.761  36.610  20.829  1.00  0.00     0.000 C 
BRANCH   2   3
ATOM      3  C   UNL     1      -5.384  38.097  20.874  1.00  0.00     0.000 C 
BRANCH   3   4
ATOM      4  C   UNL     1      -4.254  38.398  21.873  1.00  0.00     0.000 C 
BRANCH   4   5
ATOM      5  C   UNL     1      -4.755  38.935  23.230  1.00  0.00     0.006 C 
BRANCH   5   6
ATOM      6  C   UNL     1      -5.783  38.000  23.880  1.00  0.00     0.053 C 
BRANCH   6   7
ATOM      7  C   UNL     1      -5.112  37.075  24.847  1.00  0.00     0.041 C 
ATOM      8  O   UNL     1      -5.362  35.842  24.822  1.00  0.00    -0.550 OA
ATOM      9  O   UNL     1      -4.247  37.583  25.809  1.00  0.00    -0.550 OA
ENDBRANCH   6   7
ENDBRANCH   5   6
ENDBRANCH   4   5
ENDBRANCH   3   4
ENDBRANCH   2   3
ENDBRANCH   1   2
BRANCH   1  10
ATOM     10  C   UNL     1      -3.847  35.088  20.185  1.00  0.00     0.000 C 
BRANCH  10  11
ATOM     11  C   UNL     1      -4.702  34.934  18.914  1.00  0.00    -0.000 C 
BRANCH  11  12
ATOM     12  C   UNL     1      -4.111  35.588  17.648  1.00  0.00    -0.000 C 
BRANCH  12  13
ATOM     13  C   UNL     1      -3.282  36.863  17.899  1.00  0.00    -0.000 C 
BRANCH  13  14
ATOM     14  C   UNL     1      -2.666  37.495  16.634  1.00  0.00    -0.000 C 
BRANCH  14  15
ATOM     15  C   UNL     1      -2.258  36.492  15.536  1.00  0.00    -0.000 C 
BRANCH  15  16
ATOM     16  C   UNL     1      -3.184  36.464  14.307  1.00  0.00    -0.003 C 
ATOM     17  C   UNL     1      -4.025  37.732  14.167  1.00  0.00     0.004 C 
ENDBRANCH  15  16
ENDBRANCH  14  15
ENDBRANCH  13  14
ENDBRANCH  12  13
ENDBRANCH  11  12
ENDBRANCH  10  11
ENDBRANCH   1  10
TORSDOF 13
ENDMDL
MODEL 5
REMARK VINA RESULT:    -4.070      0.992      1.720
REMARK INTER + INTRA:          -8.495
REMARK INTER:                  -7.468
REMARK INTRA:                  -1.027
REMARK UNBOUND:                -1.331
REMARK SMILES CCCCCCCCCCCCCCC(=O)[O-]
REMARK SMILES IDX 9 1 10 2 11 3 12 4 13 5 14 6 15 7 16 8 17 9 8 10 7 11 6 12
REMARK SMILES IDX 5 13 4 14 3 15 2 16 1 17
REMARK H PARENT
REMARK Flexibility Score: inf
ROOT
ATOM      1  C   UNL     1      -4.053  36.138  20.315  1.00  0.00     0.000 C 
ENDROOT
BRANCH   1   2
ATOM      2  C   UNL     1      -3.586  37.250  19.369  1.00  0.00     0.000 C 
BRANCH   2   3
ATOM      3  C   UNL     1      -2.074  37.165  19.123  1.00  0.00     0.000 C 
BRANCH   3   4
ATOM      4  C   UNL     1      -1.683  37.508  17.675  1.00  0.00     0.000 C 
BRANCH   4   5
ATOM      5  C   UNL     1      -2.134  36.451  16.646  1.00  0.00     0.006 C 
BRANCH   5   6
ATOM      6  C   UNL     1      -3.500  36.785  16.032  1.00  0.00     0.053 C 
BRANCH   6   7
ATOM      7  C   UNL     1      -3.366  37.041  14.564  1.00  0.00     0.041 C 
ATOM      8  O   UNL     1      -2.442  36.494  13.907  1.00  0.00    -0.550 OA
ATOM      9  O   UNL     1      -4.234  37.922  13.929  1.00  0.00    -0.550 OA
ENDBRANCH   6   7
ENDBRANCH   5   6
ENDBRANCH   4   5
ENDBRANCH   3   4
ENDBRANCH   2   3
ENDBRANCH   1   2
BRANCH   1  10
ATOM     10  C   UNL     1      -5.581  35.992  20.280  1.00  0.00     0.000 C 
BRANCH  10  11
ATOM     11  C   UNL     1      -6.125  35.099  21.409  1.00  0.00    -0.000 C 
BRANCH  11  12
ATOM     12  C   UNL     1      -5.148  34.863  22.580  1.00  0.00    -0.000 C 
BRANCH  12  13
ATOM     13  C   UNL     1      -5.755  35.053  23.984  1.00  0.00    -0.000 C 
BRANCH  13  14
ATOM     14  C   UNL     1      -5.439  36.407  24.650  1.00  0.00    -0.000 C 
BRANCH  14  15
ATOM     15  C   UNL     1      -5.855  37.649  23.835  1.00  0.00    -0.000 C 
BRANCH  15  16
ATOM     16  C   UNL     1      -4.829  38.795  23.832  1.00  0.00    -0.003 C 
ATOM     17  C   UNL     1      -4.309  39.125  22.433  1.00  0.00     0.004 C 
ENDBRANCH  15  16
ENDBRANCH  14  15
ENDBRANCH  13  14
ENDBRANCH  12  13
ENDBRANCH  11  12
ENDBRANCH  10  11
ENDBRANCH   1  10
TORSDOF 13
ENDMDL
MODEL 6
REMARK VINA RESULT:    -3.870      0.878      2.757
REMARK INTER + INTRA:          -8.142
REMARK INTER:                  -6.765
REMARK INTRA:                  -1.377
REMARK UNBOUND:                -1.331
REMARK SMILES CCCCCCCCCCCCCCC(=O)[O-]
REMARK SMILES IDX 9 1 10 2 11 3 12 4 13 5 14 6 15 7 16 8 17 9 8 10 7 11 6 12
REMARK SMILES IDX 5 13 4 14 3 15 2 16 1 17
REMARK H PARENT
REMARK Flexibility Score: inf
ROOT
ATOM      1  C   UNL     1      -4.400  38.360  21.212  1.00  0.00     0.000 C 
ENDROOT
BRANCH   1   2
ATOM      2  C   UNL     1      -5.175  37.453  20.249  1.00  0.00     0.000 C 
BRANCH   2   3
ATOM      3  C   UNL     1      -4.432  37.303  18.915  1.00  0.00     0.000 C 
BRANCH   3   4
ATOM      4  C   UNL     1      -2.936  36.996  19.094  1.00  0.00     0.000 C 
BRANCH   4   5
ATOM      5  C   UNL     1      -2.113  37.155  17.798  1.00  0.00     0.006 C 
BRANCH   5   6
ATOM      6  C   UNL     1      -2.550  36.168  16.708  1.00  0.00     0.053 C 
BRANCH   6   7
ATOM      7  C   UNL     1      -2.835  36.892  15.431  1.00  0.00     0.041 C 
ATOM      8  O   UNL     1      -3.541  37.933  15.435  1.00  0.00    -0.550 OA
ATOM      9  O   UNL     1      -2.360  36.388  14.225  1.00  0.00    -0.550 OA
ENDBRANCH   6   7
ENDBRANCH   5   6
ENDBRANCH   4   5
ENDBRANCH   3   4
ENDBRANCH   2   3
ENDBRANCH   1   2
BRANCH   1  10
ATOM     10  C   UNL     1      -5.355  39.092  22.166  1.00  0.00     0.000 C 
BRANCH  10  11
ATOM     11  C   UNL     1      -4.836  39.138  23.614  1.00  0.00    -0.000 C 
BRANCH  11  12
ATOM     12  C   UNL     1      -4.467  37.768  24.218  1.00  0.00    -0.000 C 
BRANCH  12  13
ATOM     13  C   UNL     1      -5.518  37.170  25.174  1.00  0.00    -0.000 C 
BRANCH  13  14
ATOM     14  C   UNL     1      -6.125  35.830  24.715  1.00  0.00    -0.000 C 
BRANCH  14  15
ATOM     15  C   UNL     1      -5.967  35.522  23.212  1.00  0.00    -0.000 C 
BRANCH  15  16
ATOM     16  C   UNL     1      -5.022  34.351  22.886  1.00  0.00    -0.003 C 
ATOM     17  C   UNL     1      -3.966  34.712  21.843  1.00  0.00     0.004 C 
ENDBRANCH  15  16
ENDBRANCH  14  15
ENDBRANCH  13  14
ENDBRANCH  12  13
ENDBRANCH  11  12
ENDBRANCH  10  11
ENDBRANCH   1  10
TORSDOF 13
ENDMDL
MODEL 7
REMARK VINA RESULT:    -3.650      1.831      2.428
REMARK INTER + INTRA:          -7.755
REMARK INTER:                  -6.928
REMARK INTRA:                  -0.827
REMARK UNBOUND:                -1.331
REMARK SMILES CCCCCCCCCCCCCCC(=O)[O-]
REMARK SMILES IDX 9 1 10 2 11 3 12 4 13 5 14 6 15 7 16 8 17 9 8 10 7 11 6 12
REMARK SMILES IDX 5 13 4 14 3 15 2 16 1 17
REMARK H PARENT
REMARK Flexibility Score: inf
ROOT
ATOM      1  C   UNL     1      -4.292  35.569  19.929  1.00  0.00     0.000 C 
ENDROOT
BRANCH   1   2
ATOM      2  C   UNL     1      -5.123  34.963  18.792  1.00  0.00     0.000 C 
BRANCH   2   3
ATOM      3  C   UNL     1      -4.247  34.658  17.571  1.00  0.00     0.000 C 
BRANCH   3   4
ATOM      4  C   UNL     1      -3.806  35.925  16.818  1.00  0.00     0.000 C 
BRANCH   4   5
ATOM      5  C   UNL     1      -2.291  35.979  16.534  1.00  0.00     0.006 C 
BRANCH   5   6
ATOM      6  C   UNL     1      -1.695  37.362  16.828  1.00  0.00     0.053 C 
BRANCH   6   7
ATOM      7  C   UNL     1      -1.516  37.552  18.301  1.00  0.00     0.041 C 
ATOM      8  O   UNL     1      -2.468  37.979  19.006  1.00  0.00    -0.550 OA
ATOM      9  O   UNL     1      -0.281  37.305  18.889  1.00  0.00    -0.550 OA
ENDBRANCH   6   7
ENDBRANCH   5   6
ENDBRANCH   4   5
ENDBRANCH   3   4
ENDBRANCH   2   3
ENDBRANCH   1   2
BRANCH   1  10
ATOM     10  C   UNL     1      -5.156  36.472  20.821  1.00  0.00     0.000 C 
BRANCH  10  11
ATOM     11  C   UNL     1      -6.125  35.680  21.717  1.00  0.00    -0.000 C 
BRANCH  11  12
ATOM     12  C   UNL     1      -5.464  34.940  22.898  1.00  0.00    -0.000 C 
BRANCH  12  13
ATOM     13  C   UNL     1      -5.160  35.817  24.129  1.00  0.00    -0.000 C 
BRANCH  13  14
ATOM     14  C   UNL     1      -5.839  37.201  24.123  1.00  0.00    -0.000 C 
BRANCH  14  15
ATOM     15  C   UNL     1      -4.878  38.401  24.248  1.00  0.00    -0.000 C 
BRANCH  15  16
ATOM     16  C   UNL     1      -4.451  39.030  22.910  1.00  0.00    -0.003 C 
ATOM     17  C   UNL     1      -5.602  39.723  22.183  1.00  0.00     0.004 C 
ENDBRANCH  15  16
ENDBRANCH  14  15
ENDBRANCH  13  14
ENDBRANCH  12  13
ENDBRANCH  11  12
ENDBRANCH  10  11
ENDBRANCH   1  10
TORSDOF 13
ENDMDL
MODEL 8
REMARK VINA RESULT:    -3.550      1.872      3.254
REMARK INTER + INTRA:          -7.580
REMARK INTER:                  -6.402
REMARK INTRA:                  -1.178
REMARK UNBOUND:                -1.331
REMARK SMILES CCCCCCCCCCCCCCC(=O)[O-]
REMARK SMILES IDX 9 1 10 2 11 3 12 4 13 5 14 6 15 7 16 8 17 9 8 10 7 11 6 12
REMARK SMILES IDX 5 13 4 14 3 15 2 16 1 17
REMARK H PARENT
REMARK Flexibility Score: inf
ROOT
ATOM      1  C   UNL     1      -4.278  35.374  19.769  1.00  0.00     0.000 C 
ENDROOT
BRANCH   1   2
ATOM      2  C   UNL     1      -4.646  35.813  18.347  1.00  0.00     0.000 C 
BRANCH   2   3
ATOM      3  C   UNL     1      -3.949  34.933  17.301  1.00  0.00     0.000 C 
BRANCH   3   4
ATOM      4  C   UNL     1      -3.381  35.741  16.121  1.00  0.00     0.000 C 
BRANCH   4   5
ATOM      5  C   UNL     1      -2.869  37.141  16.520  1.00  0.00     0.006 C 
BRANCH   5   6
ATOM      6  C   UNL     1      -1.402  37.116  16.966  1.00  0.00     0.053 C 
BRANCH   6   7
ATOM      7  C   UNL     1      -1.281  37.557  18.391  1.00  0.00     0.041 C 
ATOM      8  O   UNL     1      -2.239  38.146  18.956  1.00  0.00    -0.550 OA
ATOM      9  O   UNL     1      -0.090  37.361  19.081  1.00  0.00    -0.550 OA
ENDBRANCH   6   7
ENDBRANCH   5   6
ENDBRANCH   4   5
ENDBRANCH   3   4
ENDBRANCH   2   3
ENDBRANCH   1   2
BRANCH   1  10
ATOM     10  C   UNL     1      -5.357  35.804  20.774  1.00  0.00     0.000 C 
BRANCH  10  11
ATOM     11  C   UNL     1      -5.446  37.332  20.939  1.00  0.00    -0.000 C 
BRANCH  11  12
ATOM     12  C   UNL     1      -4.215  37.990  21.595  1.00  0.00    -0.000 C 
BRANCH  12  13
ATOM     13  C   UNL     1      -4.533  39.132  22.581  1.00  0.00    -0.000 C 
BRANCH  13  14
ATOM     14  C   UNL     1      -5.322  38.705  23.834  1.00  0.00    -0.000 C 
BRANCH  14  15
ATOM     15  C   UNL     1      -4.750  37.484  24.583  1.00  0.00    -0.000 C 
BRANCH  15  16
ATOM     16  C   UNL     1      -5.804  36.506  25.129  1.00  0.00    -0.003 C 
ATOM     17  C   UNL     1      -6.125  35.372  24.155  1.00  0.00     0.004 C 
ENDBRANCH  15  16
ENDBRANCH  14  15
ENDBRANCH  13  14
ENDBRANCH  12  13
ENDBRANCH  11  12
ENDBRANCH  10  11
ENDBRANCH   1  10
TORSDOF 13
ENDMDL
