MODEL 1
REMARK VINA RESULT:    -3.729      0.000      0.000
REMARK INTER + INTRA:          -6.260
REMARK INTER:                  -5.473
REMARK INTRA:                  -0.787
REMARK UNBOUND:                -0.787
REMARK SMILES O=C([O-])CCCCCCCC(=O)[O-]
REMARK SMILES IDX 7 1 6 2 5 3 4 4 2 5 1 6 3 7 8 8 9 9 10 10 11 11 12 12 13 13
REMARK H PARENT
REMARK Flexibility Score: inf
ROOT
ATOM      1  C   UNL     1      29.901   7.544  29.959  1.00  0.00     0.000 C 
ENDROOT
BRANCH   1   2
ATOM      2  C   UNL     1      30.917   6.915  30.923  1.00  0.00     0.000 C 
BRANCH   2   3
ATOM      3  C   UNL     1      31.684   7.964  31.744  1.00  0.00     0.006 C 
BRANCH   3   4
ATOM      4  C   UNL     1      33.170   8.039  31.368  1.00  0.00     0.053 C 
BRANCH   4   5
ATOM      5  C   UNL     1      33.393   9.091  30.328  1.00  0.00     0.041 C 
ATOM      6  O   UNL     1      33.975   8.802  29.249  1.00  0.00    -0.550 OA
ATOM      7  O   UNL     1      32.914  10.380  30.528  1.00  0.00    -0.550 OA
ENDBRANCH   4   5
ENDBRANCH   3   4
ENDBRANCH   2   3
ENDBRANCH   1   2
BRANCH   1   8
ATOM      8  C   UNL     1      30.499   7.702  28.556  1.00  0.00     0.000 C 
BRANCH   8   9
ATOM      9  C   UNL     1      30.459   9.168  28.101  1.00  0.00     0.006 C 
BRANCH   9  10
ATOM     10  C   UNL     1      29.642  10.051  29.054  1.00  0.00     0.053 C 
BRANCH  10  11
ATOM     11  C   UNL     1      28.868  11.099  28.315  1.00  0.00     0.041 C 
ATOM     12  O   UNL     1      28.308  12.034  28.945  1.00  0.00    -0.550 OA
ATOM     13  O   UNL     1      28.740  11.027  26.933  1.00  0.00    -0.550 OA
ENDBRANCH  10  11
ENDBRANCH   9  10
ENDBRANCH   8   9
ENDBRANCH   1   8
TORSDOF 8
ENDMDL
MODEL 2
REMARK VINA RESULT:    -3.711      2.566      5.160
REMARK INTER + INTRA:          -6.233
REMARK INTER:                  -5.705
REMARK INTRA:                  -0.529
REMARK UNBOUND:                -0.787
REMARK SMILES O=C([O-])CCCCCCCC(=O)[O-]
REMARK SMILES IDX 7 1 6 2 5 3 4 4 2 5 1 6 3 7 8 8 9 9 10 10 11 11 12 12 13 13
REMARK H PARENT
REMARK Flexibility Score: inf
ROOT
ATOM      1  C   UNL     1      30.858  10.236  28.526  1.00  0.00     0.000 C 
ENDROOT
BRANCH   1   2
ATOM      2  C   UNL     1      29.661  10.537  27.611  1.00  0.00     0.000 C 
BRANCH   2   3
ATOM      3  C   UNL     1      28.386  10.878  28.396  1.00  0.00     0.006 C 
BRANCH   3   4
ATOM      4  C   UNL     1      28.537  12.145  29.249  1.00  0.00     0.053 C 
BRANCH   4   5
ATOM      5  C   UNL     1      28.262  11.843  30.687  1.00  0.00     0.041 C 
ATOM      6  O   UNL     1      28.999  11.039  31.318  1.00  0.00    -0.550 OA
ATOM      7  O   UNL     1      27.222  12.486  31.347  1.00  0.00    -0.550 OA
ENDBRANCH   4   5
ENDBRANCH   3   4
ENDBRANCH   2   3
ENDBRANCH   1   2
BRANCH   1   8
ATOM      8  C   UNL     1      31.479   8.875  28.188  1.00  0.00     0.000 C 
BRANCH   8   9
ATOM      9  C   UNL     1      30.489   7.733  28.466  1.00  0.00     0.006 C 
BRANCH   9  10
ATOM     10  C   UNL     1      29.996   7.731  29.919  1.00  0.00     0.053 C 
BRANCH  10  11
ATOM     11  C   UNL     1      30.520   6.553  30.681  1.00  0.00     0.041 C 
ATOM     12  O   UNL     1      31.357   6.719  31.607  1.00  0.00    -0.550 OA
ATOM     13  O   UNL     1      30.109   5.268  30.349  1.00  0.00    -0.550 OA
ENDBRANCH  10  11
ENDBRANCH   9  10
ENDBRANCH   8   9
ENDBRANCH   1   8
TORSDOF 8
ENDMDL
MODEL 3
REMARK VINA RESULT:    -3.688     10.593     11.964
REMARK INTER + INTRA:          -6.200
REMARK INTER:                  -5.509
REMARK INTRA:                  -0.691
REMARK UNBOUND:                -0.787
REMARK SMILES O=C([O-])CCCCCCCC(=O)[O-]
REMARK SMILES IDX 7 1 6 2 5 3 4 4 2 5 1 6 3 7 8 8 9 9 10 10 11 11 12 12 13 13
REMARK H PARENT
REMARK Flexibility Score: inf
ROOT
ATOM      1  C   UNL     1      30.614  16.261  20.904  1.00  0.00     0.000 C 
ENDROOT
BRANCH   1   2
ATOM      2  C   UNL     1      30.276  15.765  22.318  1.00  0.00     0.000 C 
BRANCH   2   3
ATOM      3  C   UNL     1      30.987  16.572  23.415  1.00  0.00     0.006 C 
BRANCH   3   4
ATOM      4  C   UNL     1      30.065  17.601  24.084  1.00  0.00     0.053 C 
BRANCH   4   5
ATOM      5  C   UNL     1      30.261  18.952  23.474  1.00  0.00     0.041 C 
ATOM      6  O   UNL     1      29.421  19.403  22.651  1.00  0.00    -0.550 OA
ATOM      7  O   UNL     1      31.345  19.735  23.850  1.00  0.00    -0.550 OA
ENDBRANCH   4   5
ENDBRANCH   3   4
ENDBRANCH   2   3
ENDBRANCH   1   2
BRANCH   1   8
ATOM      8  C   UNL     1      29.372  16.834  20.212  1.00  0.00     0.000 C 
BRANCH   8   9
ATOM      9  C   UNL     1      28.110  16.595  21.056  1.00  0.00     0.006 C 
BRANCH   9  10
ATOM     10  C   UNL     1      26.822  16.790  20.245  1.00  0.00     0.053 C 
BRANCH  10  11
ATOM     11  C   UNL     1      26.776  18.137  19.590  1.00  0.00     0.041 C 
ATOM     12  O   UNL     1      26.781  19.182  20.292  1.00  0.00    -0.550 OA
ATOM     13  O   UNL     1      26.696  18.238  18.207  1.00  0.00    -0.550 OA
ENDBRANCH  10  11
ENDBRANCH   9  10
ENDBRANCH   8   9
ENDBRANCH   1   8
TORSDOF 8
ENDMDL
MODEL 4
REMARK VINA RESULT:    -3.681      0.138      4.671
REMARK INTER + INTRA:          -6.189
REMARK INTER:                  -5.423
REMARK INTRA:                  -0.766
REMARK UNBOUND:                -0.787
REMARK SMILES O=C([O-])CCCCCCCC(=O)[O-]
REMARK SMILES IDX 7 1 6 2 5 3 4 4 2 5 1 6 3 7 8 8 9 9 10 10 11 11 12 12 13 13
REMARK H PARENT
REMARK Flexibility Score: inf
ROOT
ATOM      1  C   UNL     1      29.890   7.394  29.961  1.00  0.00     0.000 C 
ENDROOT
BRANCH   1   2
ATOM      2  C   UNL     1      30.417   7.711  28.553  1.00  0.00     0.000 C 
BRANCH   2   3
ATOM      3  C   UNL     1      30.427   9.216  28.248  1.00  0.00     0.006 C 
BRANCH   3   4
ATOM      4  C   UNL     1      29.466  10.008  29.144  1.00  0.00     0.053 C 
BRANCH   4   5
ATOM      5  C   UNL     1      28.813  11.107  28.367  1.00  0.00     0.041 C 
ATOM      6  O   UNL     1      28.397  12.139  28.956  1.00  0.00    -0.550 OA
ATOM      7  O   UNL     1      28.709  11.015  26.985  1.00  0.00    -0.550 OA
ENDBRANCH   4   5
ENDBRANCH   3   4
ENDBRANCH   2   3
ENDBRANCH   1   2
BRANCH   1   8
ATOM      8  C   UNL     1      31.007   6.839  30.853  1.00  0.00     0.000 C 
BRANCH   8   9
ATOM      9  C   UNL     1      31.600   7.942  31.743  1.00  0.00     0.006 C 
BRANCH   9  10
ATOM     10  C   UNL     1      33.101   8.143  31.495  1.00  0.00     0.053 C 
BRANCH  10  11
ATOM     11  C   UNL     1      33.356   9.123  30.391  1.00  0.00     0.041 C 
ATOM     12  O   UNL     1      33.077  10.340  30.550  1.00  0.00    -0.550 OA
ATOM     13  O   UNL     1      33.871   8.687  29.177  1.00  0.00    -0.550 OA
ENDBRANCH  10  11
ENDBRANCH   9  10
ENDBRANCH   8   9
ENDBRANCH   1   8
TORSDOF 8
ENDMDL
MODEL 5
REMARK VINA RESULT:    -3.660      1.943      5.083
REMARK INTER + INTRA:          -6.159
REMARK INTER:                  -5.478
REMARK INTRA:                  -0.682
REMARK UNBOUND:                -0.787
REMARK SMILES O=C([O-])CCCCCCCC(=O)[O-]
REMARK SMILES IDX 7 1 6 2 5 3 4 4 2 5 1 6 3 7 8 8 9 9 10 10 11 11 12 12 13 13
REMARK H PARENT
REMARK Flexibility Score: inf
ROOT
ATOM      1  C   UNL     1      32.689   8.303  28.451  1.00  0.00     0.000 C 
ENDROOT
BRANCH   1   2
ATOM      2  C   UNL     1      31.702   9.211  27.703  1.00  0.00     0.000 C 
BRANCH   2   3
ATOM      3  C   UNL     1      30.243   8.972  28.120  1.00  0.00     0.006 C 
BRANCH   3   4
ATOM      4  C   UNL     1      29.711  10.058  29.065  1.00  0.00     0.053 C 
BRANCH   4   5
ATOM      5  C   UNL     1      28.914  11.068  28.303  1.00  0.00     0.041 C 
ATOM      6  O   UNL     1      28.395  12.047  28.901  1.00  0.00    -0.550 OA
ATOM      7  O   UNL     1      28.786  10.957  26.924  1.00  0.00    -0.550 OA
ENDBRANCH   4   5
ENDBRANCH   3   4
ENDBRANCH   2   3
ENDBRANCH   1   2
BRANCH   1   8
ATOM      8  C   UNL     1      33.413   9.074  29.561  1.00  0.00     0.000 C 
BRANCH   8   9
ATOM      9  C   UNL     1      33.369   8.301  30.888  1.00  0.00     0.006 C 
BRANCH   9  10
ATOM     10  C   UNL     1      32.034   8.483  31.623  1.00  0.00     0.053 C 
BRANCH  10  11
ATOM     11  C   UNL     1      31.347   7.173  31.859  1.00  0.00     0.041 C 
ATOM     12  O   UNL     1      31.324   6.670  33.012  1.00  0.00    -0.550 OA
ATOM     13  O   UNL     1      30.759   6.493  30.799  1.00  0.00    -0.550 OA
ENDBRANCH  10  11
ENDBRANCH   9  10
ENDBRANCH   8   9
ENDBRANCH   1   8
TORSDOF 8
ENDMDL
MODEL 6
REMARK VINA RESULT:    -3.575      1.657      2.061
REMARK INTER + INTRA:          -6.034
REMARK INTER:                  -5.294
REMARK INTRA:                  -0.740
REMARK UNBOUND:                -0.787
REMARK SMILES O=C([O-])CCCCCCCC(=O)[O-]
REMARK SMILES IDX 7 1 6 2 5 3 4 4 2 5 1 6 3 7 8 8 9 9 10 10 11 11 12 12 13 13
REMARK H PARENT
REMARK Flexibility Score: inf
ROOT
ATOM      1  C   UNL     1      31.256   7.783  28.617  1.00  0.00     0.000 C 
ENDROOT
BRANCH   1   2
ATOM      2  C   UNL     1      30.308   7.744  29.824  1.00  0.00     0.000 C 
BRANCH   2   3
ATOM      3  C   UNL     1      30.822   6.838  30.953  1.00  0.00     0.006 C 
BRANCH   3   4
ATOM      4  C   UNL     1      31.329   7.632  32.165  1.00  0.00     0.053 C 
BRANCH   4   5
ATOM      5  C   UNL     1      32.822   7.581  32.234  1.00  0.00     0.041 C 
ATOM      6  O   UNL     1      33.517   8.079  31.309  1.00  0.00    -0.550 OA
ATOM      7  O   UNL     1      33.449   7.028  33.343  1.00  0.00    -0.550 OA
ENDBRANCH   4   5
ENDBRANCH   3   4
ENDBRANCH   2   3
ENDBRANCH   1   2
BRANCH   1   8
ATOM      8  C   UNL     1      31.542   9.227  28.188  1.00  0.00     0.000 C 
BRANCH   8   9
ATOM      9  C   UNL     1      31.318  10.202  29.354  1.00  0.00     0.006 C 
BRANCH   9  10
ATOM     10  C   UNL     1      30.533  11.450  28.926  1.00  0.00     0.053 C 
BRANCH  10  11
ATOM     11  C   UNL     1      29.128  11.114  28.532  1.00  0.00     0.041 C 
ATOM     12  O   UNL     1      28.298  10.744  29.404  1.00  0.00    -0.550 OA
ATOM     13  O   UNL     1      28.742  11.179  27.199  1.00  0.00    -0.550 OA
ENDBRANCH  10  11
ENDBRANCH   9  10
ENDBRANCH   8   9
ENDBRANCH   1   8
TORSDOF 8
ENDMDL
MODEL 7
REMARK VINA RESULT:    -3.573      2.500      3.359
REMARK INTER + INTRA:          -6.031
REMARK INTER:                  -5.494
REMARK INTRA:                  -0.538
REMARK UNBOUND:                -0.787
REMARK SMILES O=C([O-])CCCCCCCC(=O)[O-]
REMARK SMILES IDX 7 1 6 2 5 3 4 4 2 5 1 6 3 7 8 8 9 9 10 10 11 11 12 12 13 13
REMARK H PARENT
REMARK Flexibility Score: inf
ROOT
ATOM      1  C   UNL     1      30.012   9.222  27.810  1.00  0.00     0.000 C 
ENDROOT
BRANCH   1   2
ATOM      2  C   UNL     1      31.539   9.287  27.968  1.00  0.00     0.000 C 
BRANCH   2   3
ATOM      3  C   UNL     1      32.084   8.205  28.912  1.00  0.00     0.006 C 
BRANCH   3   4
ATOM      4  C   UNL     1      31.619   8.396  30.362  1.00  0.00     0.053 C 
BRANCH   4   5
ATOM      5  C   UNL     1      31.017   7.132  30.888  1.00  0.00     0.041 C 
ATOM      6  O   UNL     1      31.105   6.849  32.112  1.00  0.00    -0.550 OA
ATOM      7  O   UNL     1      30.313   6.290  30.036  1.00  0.00    -0.550 OA
ENDBRANCH   4   5
ENDBRANCH   3   4
ENDBRANCH   2   3
ENDBRANCH   1   2
BRANCH   1   8
ATOM      8  C   UNL     1      29.443  10.586  27.403  1.00  0.00     0.000 C 
BRANCH   8   9
ATOM      9  C   UNL     1      29.329  11.520  28.617  1.00  0.00     0.006 C 
BRANCH   9  10
ATOM     10  C   UNL     1      28.428  10.940  29.715  1.00  0.00     0.053 C 
BRANCH  10  11
ATOM     11  C   UNL     1      28.408  11.809  30.935  1.00  0.00     0.041 C 
ATOM     12  O   UNL     1      27.395  12.507  31.198  1.00  0.00    -0.550 OA
ATOM     13  O   UNL     1      29.521  11.870  31.764  1.00  0.00    -0.550 OA
ENDBRANCH  10  11
ENDBRANCH   9  10
ENDBRANCH   8   9
ENDBRANCH   1   8
TORSDOF 8
ENDMDL
MODEL 8
REMARK VINA RESULT:    -3.537      1.917      4.788
REMARK INTER + INTRA:          -5.977
REMARK INTER:                  -5.341
REMARK INTRA:                  -0.636
REMARK UNBOUND:                -0.787
REMARK SMILES O=C([O-])CCCCCCCC(=O)[O-]
REMARK SMILES IDX 7 1 6 2 5 3 4 4 2 5 1 6 3 7 8 8 9 9 10 10 11 11 12 12 13 13
REMARK H PARENT
REMARK Flexibility Score: inf
ROOT
ATOM      1  C   UNL     1      30.737   8.492  28.406  1.00  0.00     0.000 C 
ENDROOT
BRANCH   1   2
ATOM      2  C   UNL     1      29.943   9.608  27.711  1.00  0.00     0.000 C 
BRANCH   2   3
ATOM      3  C   UNL     1      29.787  10.860  28.588  1.00  0.00     0.006 C 
BRANCH   3   4
ATOM      4  C   UNL     1      28.768  10.667  29.719  1.00  0.00     0.053 C 
BRANCH   4   5
ATOM      5  C   UNL     1      28.439  11.980  30.354  1.00  0.00     0.041 C 
ATOM      6  O   UNL     1      29.242  12.946  30.266  1.00  0.00    -0.550 OA
ATOM      7  O   UNL     1      27.223  12.155  31.003  1.00  0.00    -0.550 OA
ENDBRANCH   4   5
ENDBRANCH   3   4
ENDBRANCH   2   3
ENDBRANCH   1   2
BRANCH   1   8
ATOM      8  C   UNL     1      32.152   8.383  27.828  1.00  0.00     0.000 C 
BRANCH   8   9
ATOM      9  C   UNL     1      33.211   8.636  28.912  1.00  0.00     0.006 C 
BRANCH   9  10
ATOM     10  C   UNL     1      32.584   8.989  30.267  1.00  0.00     0.053 C 
BRANCH  10  11
ATOM     11  C   UNL     1      33.044  10.325  30.762  1.00  0.00     0.041 C 
ATOM     12  O   UNL     1      32.203  11.193  31.115  1.00  0.00    -0.550 OA
ATOM     13  O   UNL     1      34.400  10.625  30.803  1.00  0.00    -0.550 OA
ENDBRANCH  10  11
ENDBRANCH   9  10
ENDBRANCH   8   9
ENDBRANCH   1   8
TORSDOF 8
ENDMDL
MODEL 9
REMARK VINA RESULT:    -3.536     10.078     12.014
REMARK INTER + INTRA:          -5.977
REMARK INTER:                  -5.474
REMARK INTRA:                  -0.502
REMARK UNBOUND:                -0.787
REMARK SMILES O=C([O-])CCCCCCCC(=O)[O-]
REMARK SMILES IDX 7 1 6 2 5 3 4 4 2 5 1 6 3 7 8 8 9 9 10 10 11 11 12 12 13 13
REMARK H PARENT
REMARK Flexibility Score: inf
ROOT
ATOM      1  C   UNL     1      23.114   0.596  24.752  1.00  0.00     0.000 C 
ENDROOT
BRANCH   1   2
ATOM      2  C   UNL     1      21.798   0.550  23.960  1.00  0.00     0.000 C 
BRANCH   2   3
ATOM      3  C   UNL     1      21.665   1.713  22.965  1.00  0.00     0.006 C 
BRANCH   3   4
ATOM      4  C   UNL     1      20.884   2.901  23.544  1.00  0.00     0.053 C 
BRANCH   4   5
ATOM      5  C   UNL     1      21.820   3.892  24.159  1.00  0.00     0.041 C 
ATOM      6  O   UNL     1      22.706   4.447  23.457  1.00  0.00    -0.550 OA
ATOM      7  O   UNL     1      21.683   4.241  25.496  1.00  0.00    -0.550 OA
ENDBRANCH   4   5
ENDBRANCH   3   4
ENDBRANCH   2   3
ENDBRANCH   1   2
BRANCH   1   8
ATOM      8  C   UNL     1      22.848   0.820  26.245  1.00  0.00     0.000 C 
BRANCH   8   9
ATOM      9  C   UNL     1      23.866   1.803  26.844  1.00  0.00     0.006 C 
BRANCH   9  10
ATOM     10  C   UNL     1      23.821   1.824  28.378  1.00  0.00     0.053 C 
BRANCH  10  11
ATOM     11  C   UNL     1      24.250   3.149  28.929  1.00  0.00     0.041 C 
ATOM     12  O   UNL     1      25.197   3.213  29.755  1.00  0.00    -0.550 OA
ATOM     13  O   UNL     1      23.583   4.309  28.554  1.00  0.00    -0.550 OA
ENDBRANCH  10  11
ENDBRANCH   9  10
ENDBRANCH   8   9
ENDBRANCH   1   8
TORSDOF 8
ENDMDL
