MODEL 1
REMARK VINA RESULT:    -4.492      0.000      0.000
REMARK INTER + INTRA:         -14.058
REMARK INTER:                 -10.268
REMARK INTRA:                  -3.790
REMARK UNBOUND:                -3.790
REMARK SMILES CCCCCCCCCCCCCCCCCCCCCCCC(=O)[O-]
REMARK SMILES IDX 13 1 14 2 15 3 16 4 17 5 18 6 19 7 20 8 21 9 22 10 23 11
REMARK SMILES IDX 24 12 25 13 26 14 12 15 11 16 10 17 9 18 8 19 7 20 6 21 5 22
REMARK SMILES IDX 4 23 3 24 2 25 1 26
REMARK H PARENT
REMARK Flexibility Score: inf
ROOT
ATOM      1  C   UNL     1      12.430   1.742  15.835  1.00  0.00     0.000 C 
ENDROOT
BRANCH   1   2
ATOM      2  C   UNL     1      13.718   1.966  15.020  1.00  0.00     0.000 C 
BRANCH   2   3
ATOM      3  C   UNL     1      13.501   2.674  13.670  1.00  0.00     0.000 C 
BRANCH   3   4
ATOM      4  C   UNL     1      13.124   1.690  12.549  1.00  0.00     0.000 C 
BRANCH   4   5
ATOM      5  C   UNL     1      12.832   2.408  11.221  1.00  0.00     0.000 C 
BRANCH   5   6
ATOM      6  C   UNL     1      13.042   3.927  11.342  1.00  0.00     0.000 C 
BRANCH   6   7
ATOM      7  C   UNL     1      12.223   4.728  10.318  1.00  0.00     0.000 C 
BRANCH   7   8
ATOM      8  C   UNL     1      12.394   6.248  10.483  1.00  0.00     0.000 C 
BRANCH   8   9
ATOM      9  C   UNL     1      11.245   6.886  11.281  1.00  0.00     0.000 C 
BRANCH   9  10
ATOM     10  C   UNL     1      11.412   8.406  11.442  1.00  0.00     0.006 C 
BRANCH  10  11
ATOM     11  C   UNL     1      12.145   9.037  10.250  1.00  0.00     0.053 C 
BRANCH  11  12
ATOM     12  C   UNL     1      12.340  10.512  10.436  1.00  0.00     0.041 C 
ATOM     13  O   UNL     1      12.374  11.009  11.594  1.00  0.00    -0.550 OA
ATOM     14  O   UNL     1      12.461  11.339   9.328  1.00  0.00    -0.550 OA
ENDBRANCH  11  12
ENDBRANCH  10  11
ENDBRANCH   9  10
ENDBRANCH   8   9
ENDBRANCH   7   8
ENDBRANCH   6   7
ENDBRANCH   5   6
ENDBRANCH   4   5
ENDBRANCH   3   4
ENDBRANCH   2   3
ENDBRANCH   1   2
BRANCH   1  15
ATOM     15  C   UNL     1      11.923   0.286  15.886  1.00  0.00     0.000 C 
BRANCH  15  16
ATOM     16  C   UNL     1      10.413   0.136  15.604  1.00  0.00     0.000 C 
BRANCH  16  17
ATOM     17  C   UNL     1      10.043   0.492  14.154  1.00  0.00     0.000 C 
BRANCH  17  18
ATOM     18  C   UNL     1       9.233   1.795  14.101  1.00  0.00    -0.000 C 
BRANCH  18  19
ATOM     19  C   UNL     1       9.419   2.508  12.754  1.00  0.00    -0.000 C 
BRANCH  19  20
ATOM     20  C   UNL     1       9.681   4.016  12.911  1.00  0.00    -0.000 C 
BRANCH  20  21
ATOM     21  C   UNL     1      10.439   4.407  14.198  1.00  0.00    -0.000 C 
BRANCH  21  22
ATOM     22  C   UNL     1      10.418   5.911  14.530  1.00  0.00    -0.000 C 
BRANCH  22  23
ATOM     23  C   UNL     1       9.698   6.285  15.842  1.00  0.00    -0.000 C 
BRANCH  23  24
ATOM     24  C   UNL     1       8.490   5.381  16.170  1.00  0.00    -0.000 C 
BRANCH  24  25
ATOM     25  C   UNL     1       8.603   4.720  17.553  1.00  0.00    -0.003 C 
ATOM     26  C   UNL     1       9.641   3.603  17.545  1.00  0.00     0.004 C 
ENDBRANCH  24  25
ENDBRANCH  23  24
ENDBRANCH  22  23
ENDBRANCH  21  22
ENDBRANCH  20  21
ENDBRANCH  19  20
ENDBRANCH  18  19
ENDBRANCH  17  18
ENDBRANCH  16  17
ENDBRANCH  15  16
ENDBRANCH   1  15
TORSDOF 22
ENDMDL
MODEL 2
REMARK VINA RESULT:    -4.474      2.369      5.167
REMARK INTER + INTRA:         -14.018
REMARK INTER:                 -11.584
REMARK INTRA:                  -2.433
REMARK UNBOUND:                -3.790
REMARK SMILES CCCCCCCCCCCCCCCCCCCCCCCC(=O)[O-]
REMARK SMILES IDX 13 1 14 2 15 3 16 4 17 5 18 6 19 7 20 8 21 9 22 10 23 11
REMARK SMILES IDX 24 12 25 13 26 14 12 15 11 16 10 17 9 18 8 19 7 20 6 21 5 22
REMARK SMILES IDX 4 23 3 24 2 25 1 26
REMARK H PARENT
REMARK Flexibility Score: inf
ROOT
ATOM      1  C   UNL     1      10.419   4.848  12.998  1.00  0.00     0.000 C 
ENDROOT
BRANCH   1   2
ATOM      2  C   UNL     1      10.144   6.348  13.214  1.00  0.00     0.000 C 
BRANCH   2   3
ATOM      3  C   UNL     1      11.147   7.285  12.516  1.00  0.00     0.000 C 
BRANCH   3   4
ATOM      4  C   UNL     1      11.717   6.672  11.225  1.00  0.00     0.000 C 
BRANCH   4   5
ATOM      5  C   UNL     1      12.163   7.746  10.220  1.00  0.00     0.000 C 
BRANCH   5   6
ATOM      6  C   UNL     1      11.783   9.158  10.697  1.00  0.00     0.000 C 
BRANCH   6   7
ATOM      7  C   UNL     1      12.541  10.266   9.949  1.00  0.00     0.000 C 
BRANCH   7   8
ATOM      8  C   UNL     1      12.325  11.655  10.575  1.00  0.00     0.000 C 
BRANCH   8   9
ATOM      9  C   UNL     1      12.019  11.581  12.079  1.00  0.00     0.000 C 
BRANCH   9  10
ATOM     10  C   UNL     1      10.602  12.074  12.418  1.00  0.00     0.006 C 
BRANCH  10  11
ATOM     11  C   UNL     1       9.790  11.018  13.180  1.00  0.00     0.053 C 
BRANCH  11  12
ATOM     12  C   UNL     1       9.644  11.370  14.630  1.00  0.00     0.041 C 
ATOM     13  O   UNL     1      10.231  12.380  15.102  1.00  0.00    -0.550 OA
ATOM     14  O   UNL     1       8.877  10.567  15.464  1.00  0.00    -0.550 OA
ENDBRANCH  11  12
ENDBRANCH  10  11
ENDBRANCH   9  10
ENDBRANCH   8   9
ENDBRANCH   7   8
ENDBRANCH   6   7
ENDBRANCH   5   6
ENDBRANCH   4   5
ENDBRANCH   3   4
ENDBRANCH   2   3
ENDBRANCH   1   2
BRANCH   1  15
ATOM     15  C   UNL     1       9.169   3.946  12.943  1.00  0.00     0.000 C 
BRANCH  15  16
ATOM     16  C   UNL     1       8.957   3.248  11.582  1.00  0.00     0.000 C 
BRANCH  16  17
ATOM     17  C   UNL     1       9.328   4.147  10.391  1.00  0.00     0.000 C 
BRANCH  17  18
ATOM     18  C   UNL     1      10.055   3.341   9.305  1.00  0.00    -0.000 C 
BRANCH  18  19
ATOM     19  C   UNL     1      11.578   3.450   9.460  1.00  0.00    -0.000 C 
BRANCH  19  20
ATOM     20  C   UNL     1      12.167   2.334  10.343  1.00  0.00    -0.000 C 
BRANCH  20  21
ATOM     21  C   UNL     1      13.341   2.778  11.242  1.00  0.00    -0.000 C 
BRANCH  21  22
ATOM     22  C   UNL     1      13.006   2.873  12.743  1.00  0.00    -0.000 C 
BRANCH  22  23
ATOM     23  C   UNL     1      13.426   1.654  13.590  1.00  0.00    -0.000 C 
BRANCH  23  24
ATOM     24  C   UNL     1      13.644   1.978  15.083  1.00  0.00    -0.000 C 
BRANCH  24  25
ATOM     25  C   UNL     1      12.409   1.666  15.944  1.00  0.00    -0.003 C 
ATOM     26  C   UNL     1      12.049   0.185  15.872  1.00  0.00     0.004 C 
ENDBRANCH  24  25
ENDBRANCH  23  24
ENDBRANCH  22  23
ENDBRANCH  21  22
ENDBRANCH  20  21
ENDBRANCH  19  20
ENDBRANCH  18  19
ENDBRANCH  17  18
ENDBRANCH  16  17
ENDBRANCH  15  16
ENDBRANCH   1  15
TORSDOF 22
ENDMDL
MODEL 3
REMARK VINA RESULT:    -4.454      3.710      6.314
REMARK INTER + INTRA:         -13.972
REMARK INTER:                  -8.838
REMARK INTRA:                  -5.134
REMARK UNBOUND:                -3.790
REMARK SMILES CCCCCCCCCCCCCCCCCCCCCCCC(=O)[O-]
REMARK SMILES IDX 13 1 14 2 15 3 16 4 17 5 18 6 19 7 20 8 21 9 22 10 23 11
REMARK SMILES IDX 24 12 25 13 26 14 12 15 11 16 10 17 9 18 8 19 7 20 6 21 5 22
REMARK SMILES IDX 4 23 3 24 2 25 1 26
REMARK H PARENT
REMARK Flexibility Score: inf
ROOT
ATOM      1  C   UNL     1      13.087   2.537  13.982  1.00  0.00     0.000 C 
ENDROOT
BRANCH   1   2
ATOM      2  C   UNL     1      13.277   1.775  15.306  1.00  0.00     0.000 C 
BRANCH   2   3
ATOM      3  C   UNL     1      12.012   1.693  16.180  1.00  0.00     0.000 C 
BRANCH   3   4
ATOM      4  C   UNL     1      10.930   0.793  15.557  1.00  0.00     0.000 C 
BRANCH   4   5
ATOM      5  C   UNL     1      11.410  -0.657  15.388  1.00  0.00     0.000 C 
BRANCH   5   6
ATOM      6  C   UNL     1      11.169  -1.168  13.956  1.00  0.00     0.000 C 
BRANCH   6   7
ATOM      7  C   UNL     1      10.073  -0.384  13.218  1.00  0.00     0.000 C 
BRANCH   7   8
ATOM      8  C   UNL     1       9.936  -0.806  11.745  1.00  0.00     0.000 C 
BRANCH   8   9
ATOM      9  C   UNL     1      11.275  -0.760  10.993  1.00  0.00     0.000 C 
BRANCH   9  10
ATOM     10  C   UNL     1      11.100  -0.859   9.468  1.00  0.00     0.006 C 
BRANCH  10  11
ATOM     11  C   UNL     1      10.894   0.517   8.820  1.00  0.00     0.053 C 
BRANCH  11  12
ATOM     12  C   UNL     1       9.500   0.678   8.293  1.00  0.00     0.041 C 
ATOM     13  O   UNL     1       9.060   1.821   7.993  1.00  0.00    -0.550 OA
ATOM     14  O   UNL     1       8.678  -0.433   8.156  1.00  0.00    -0.550 OA
ENDBRANCH  11  12
ENDBRANCH  10  11
ENDBRANCH   9  10
ENDBRANCH   8   9
ENDBRANCH   7   8
ENDBRANCH   6   7
ENDBRANCH   5   6
ENDBRANCH   4   5
ENDBRANCH   3   4
ENDBRANCH   2   3
ENDBRANCH   1   2
BRANCH   1  15
ATOM     15  C   UNL     1      13.229   1.688  12.702  1.00  0.00     0.000 C 
BRANCH  15  16
ATOM     16  C   UNL     1      13.080   2.494  11.393  1.00  0.00     0.000 C 
BRANCH  16  17
ATOM     17  C   UNL     1      13.433   3.980  11.570  1.00  0.00     0.000 C 
BRANCH  17  18
ATOM     18  C   UNL     1      12.645   4.849  10.580  1.00  0.00    -0.000 C 
BRANCH  18  19
ATOM     19  C   UNL     1      11.646   4.006   9.775  1.00  0.00    -0.000 C 
BRANCH  19  20
ATOM     20  C   UNL     1      10.291   4.711   9.583  1.00  0.00    -0.000 C 
BRANCH  20  21
ATOM     21  C   UNL     1       9.180   4.240  10.545  1.00  0.00    -0.000 C 
BRANCH  21  22
ATOM     22  C   UNL     1       9.497   2.943  11.315  1.00  0.00    -0.000 C 
BRANCH  22  23
ATOM     23  C   UNL     1       9.654   3.106  12.841  1.00  0.00    -0.000 C 
BRANCH  23  24
ATOM     24  C   UNL     1       9.320   4.523  13.354  1.00  0.00    -0.000 C 
BRANCH  24  25
ATOM     25  C   UNL     1      10.576   5.343  13.693  1.00  0.00    -0.003 C 
ATOM     26  C   UNL     1      10.523   6.722  13.045  1.00  0.00     0.004 C 
ENDBRANCH  24  25
ENDBRANCH  23  24
ENDBRANCH  22  23
ENDBRANCH  21  22
ENDBRANCH  20  21
ENDBRANCH  19  20
ENDBRANCH  18  19
ENDBRANCH  17  18
ENDBRANCH  16  17
ENDBRANCH  15  16
ENDBRANCH   1  15
TORSDOF 22
ENDMDL
MODEL 4
REMARK VINA RESULT:    -4.404      4.257      7.828
REMARK INTER + INTRA:         -13.857
REMARK INTER:                 -10.048
REMARK INTRA:                  -3.810
REMARK UNBOUND:                -3.790
REMARK SMILES CCCCCCCCCCCCCCCCCCCCCCCC(=O)[O-]
REMARK SMILES IDX 13 1 14 2 15 3 16 4 17 5 18 6 19 7 20 8 21 9 22 10 23 11
REMARK SMILES IDX 24 12 25 13 26 14 12 15 11 16 10 17 9 18 8 19 7 20 6 21 5 22
REMARK SMILES IDX 4 23 3 24 2 25 1 26
REMARK H PARENT
REMARK Flexibility Score: inf
ROOT
ATOM      1  C   UNL     1      13.123   3.426  11.342  1.00  0.00     0.000 C 
ENDROOT
BRANCH   1   2
ATOM      2  C   UNL     1      12.847   1.914  11.443  1.00  0.00     0.000 C 
BRANCH   2   3
ATOM      3  C   UNL     1      13.022   1.328  12.856  1.00  0.00     0.000 C 
BRANCH   3   4
ATOM      4  C   UNL     1      13.564   2.367  13.855  1.00  0.00     0.000 C 
BRANCH   4   5
ATOM      5  C   UNL     1      13.569   1.836  15.298  1.00  0.00     0.000 C 
BRANCH   5   6
ATOM      6  C   UNL     1      12.758   0.535  15.424  1.00  0.00     0.000 C 
BRANCH   6   7
ATOM      7  C   UNL     1      11.466   0.712  16.238  1.00  0.00     0.000 C 
BRANCH   7   8
ATOM      8  C   UNL     1      11.409   2.065  16.968  1.00  0.00     0.000 C 
BRANCH   8   9
ATOM      9  C   UNL     1      10.021   2.355  17.561  1.00  0.00     0.000 C 
BRANCH   9  10
ATOM     10  C   UNL     1       9.613   1.333  18.636  1.00  0.00     0.006 C 
BRANCH  10  11
ATOM     11  C   UNL     1       9.636   1.938  20.046  1.00  0.00     0.053 C 
BRANCH  11  12
ATOM     12  C   UNL     1      10.795   1.429  20.849  1.00  0.00     0.041 C 
ATOM     13  O   UNL     1      10.831   0.226  21.223  1.00  0.00    -0.550 OA
ATOM     14  O   UNL     1      11.823   2.292  21.204  1.00  0.00    -0.550 OA
ENDBRANCH  11  12
ENDBRANCH  10  11
ENDBRANCH   9  10
ENDBRANCH   8   9
ENDBRANCH   7   8
ENDBRANCH   6   7
ENDBRANCH   5   6
ENDBRANCH   4   5
ENDBRANCH   3   4
ENDBRANCH   2   3
ENDBRANCH   1   2
BRANCH   1  15
ATOM     15  C   UNL     1      12.292   4.183  10.286  1.00  0.00     0.000 C 
BRANCH  15  16
ATOM     16  C   UNL     1      12.432   5.719  10.360  1.00  0.00     0.000 C 
BRANCH  16  17
ATOM     17  C   UNL     1      11.920   6.298  11.689  1.00  0.00     0.000 C 
BRANCH  17  18
ATOM     18  C   UNL     1      10.430   5.985  11.883  1.00  0.00    -0.000 C 
BRANCH  18  19
ATOM     19  C   UNL     1      10.108   5.710  13.359  1.00  0.00    -0.000 C 
BRANCH  19  20
ATOM     20  C   UNL     1      10.600   4.330  13.828  1.00  0.00    -0.000 C 
BRANCH  20  21
ATOM     21  C   UNL     1       9.504   3.244  13.891  1.00  0.00    -0.000 C 
BRANCH  21  22
ATOM     22  C   UNL     1       9.407   2.350  12.639  1.00  0.00    -0.000 C 
BRANCH  22  23
ATOM     23  C   UNL     1       8.442   2.853  11.545  1.00  0.00    -0.000 C 
BRANCH  23  24
ATOM     24  C   UNL     1       9.076   2.922  10.140  1.00  0.00    -0.000 C 
BRANCH  24  25
ATOM     25  C   UNL     1       8.643   4.172   9.355  1.00  0.00    -0.003 C 
ATOM     26  C   UNL     1       8.302   3.823   7.910  1.00  0.00     0.004 C 
ENDBRANCH  24  25
ENDBRANCH  23  24
ENDBRANCH  22  23
ENDBRANCH  21  22
ENDBRANCH  20  21
ENDBRANCH  19  20
ENDBRANCH  18  19
ENDBRANCH  17  18
ENDBRANCH  16  17
ENDBRANCH  15  16
ENDBRANCH   1  15
TORSDOF 22
ENDMDL
MODEL 5
REMARK VINA RESULT:    -4.386      4.214      6.487
REMARK INTER + INTRA:         -13.817
REMARK INTER:                  -9.324
REMARK INTRA:                  -4.494
REMARK UNBOUND:                -3.790
REMARK SMILES CCCCCCCCCCCCCCCCCCCCCCCC(=O)[O-]
REMARK SMILES IDX 13 1 14 2 15 3 16 4 17 5 18 6 19 7 20 8 21 9 22 10 23 11
REMARK SMILES IDX 24 12 25 13 26 14 12 15 11 16 10 17 9 18 8 19 7 20 6 21 5 22
REMARK SMILES IDX 4 23 3 24 2 25 1 26
REMARK H PARENT
REMARK Flexibility Score: inf
ROOT
ATOM      1  C   UNL     1      10.472   6.049  14.435  1.00  0.00     0.000 C 
ENDROOT
BRANCH   1   2
ATOM      2  C   UNL     1      10.114   6.377  12.973  1.00  0.00     0.000 C 
BRANCH   2   3
ATOM      3  C   UNL     1      11.315   6.791  12.102  1.00  0.00     0.000 C 
BRANCH   3   4
ATOM      4  C   UNL     1      11.450   5.917  10.843  1.00  0.00     0.000 C 
BRANCH   4   5
ATOM      5  C   UNL     1      10.152   5.160  10.519  1.00  0.00     0.000 C 
BRANCH   5   6
ATOM      6  C   UNL     1      10.400   4.017   9.520  1.00  0.00     0.000 C 
BRANCH   6   7
ATOM      7  C   UNL     1      11.878   3.604   9.437  1.00  0.00     0.000 C 
BRANCH   7   8
ATOM      8  C   UNL     1      12.069   2.079   9.488  1.00  0.00     0.000 C 
BRANCH   8   9
ATOM      9  C   UNL     1      10.784   1.313   9.135  1.00  0.00     0.000 C 
BRANCH   9  10
ATOM     10  C   UNL     1      10.436   0.233  10.174  1.00  0.00     0.006 C 
BRANCH  10  11
ATOM     11  C   UNL     1      11.682  -0.517  10.666  1.00  0.00     0.053 C 
BRANCH  11  12
ATOM     12  C   UNL     1      11.365  -1.936  11.032  1.00  0.00     0.041 C 
ATOM     13  O   UNL     1      10.708  -2.193  12.077  1.00  0.00    -0.550 OA
ATOM     14  O   UNL     1      11.819  -2.975  10.231  1.00  0.00    -0.550 OA
ENDBRANCH  11  12
ENDBRANCH  10  11
ENDBRANCH   9  10
ENDBRANCH   8   9
ENDBRANCH   7   8
ENDBRANCH   6   7
ENDBRANCH   5   6
ENDBRANCH   4   5
ENDBRANCH   3   4
ENDBRANCH   2   3
ENDBRANCH   1   2
BRANCH   1  15
ATOM     15  C   UNL     1      10.541   4.546  14.779  1.00  0.00     0.000 C 
BRANCH  15  16
ATOM     16  C   UNL     1       9.708   3.648  13.840  1.00  0.00     0.000 C 
BRANCH  16  17
ATOM     17  C   UNL     1      10.553   2.558  13.159  1.00  0.00     0.000 C 
BRANCH  17  18
ATOM     18  C   UNL     1      12.013   3.011  13.015  1.00  0.00    -0.000 C 
BRANCH  18  19
ATOM     19  C   UNL     1      12.983   1.856  13.307  1.00  0.00    -0.000 C 
BRANCH  19  20
ATOM     20  C   UNL     1      13.884   2.131  14.524  1.00  0.00    -0.000 C 
BRANCH  20  21
ATOM     21  C   UNL     1      13.271   1.729  15.882  1.00  0.00    -0.000 C 
BRANCH  21  22
ATOM     22  C   UNL     1      12.273   0.556  15.820  1.00  0.00    -0.000 C 
BRANCH  22  23
ATOM     23  C   UNL     1      10.921   0.805  16.520  1.00  0.00    -0.000 C 
BRANCH  23  24
ATOM     24  C   UNL     1      10.885   2.096  17.365  1.00  0.00    -0.000 C 
BRANCH  24  25
ATOM     25  C   UNL     1       9.521   2.327  18.037  1.00  0.00    -0.003 C 
ATOM     26  C   UNL     1       8.385   2.231  17.023  1.00  0.00     0.004 C 
ENDBRANCH  24  25
ENDBRANCH  23  24
ENDBRANCH  22  23
ENDBRANCH  21  22
ENDBRANCH  20  21
ENDBRANCH  19  20
ENDBRANCH  18  19
ENDBRANCH  17  18
ENDBRANCH  16  17
ENDBRANCH  15  16
ENDBRANCH   1  15
TORSDOF 22
ENDMDL
MODEL 6
REMARK VINA RESULT:    -4.385      2.358      3.899
REMARK INTER + INTRA:         -13.814
REMARK INTER:                  -9.589
REMARK INTRA:                  -4.225
REMARK UNBOUND:                -3.790
REMARK SMILES CCCCCCCCCCCCCCCCCCCCCCCC(=O)[O-]
REMARK SMILES IDX 13 1 14 2 15 3 16 4 17 5 18 6 19 7 20 8 21 9 22 10 23 11
REMARK SMILES IDX 24 12 25 13 26 14 12 15 11 16 10 17 9 18 8 19 7 20 6 21 5 22
REMARK SMILES IDX 4 23 3 24 2 25 1 26
REMARK H PARENT
REMARK Flexibility Score: inf
ROOT
ATOM      1  C   UNL     1      13.141   2.556  13.154  1.00  0.00     0.000 C 
ENDROOT
BRANCH   1   2
ATOM      2  C   UNL     1      13.003   1.395  12.152  1.00  0.00     0.000 C 
BRANCH   2   3
ATOM      3  C   UNL     1      12.215   1.748  10.876  1.00  0.00     0.000 C 
BRANCH   3   4
ATOM      4  C   UNL     1      12.008   0.527   9.962  1.00  0.00     0.000 C 
BRANCH   4   5
ATOM      5  C   UNL     1      10.801   0.702   9.026  1.00  0.00     0.000 C 
BRANCH   5   6
ATOM      6  C   UNL     1       9.472   0.514   9.778  1.00  0.00     0.000 C 
BRANCH   6   7
ATOM      7  C   UNL     1       8.524   1.715   9.626  1.00  0.00     0.000 C 
BRANCH   7   8
ATOM      8  C   UNL     1       8.848   2.570   8.389  1.00  0.00     0.000 C 
BRANCH   8   9
ATOM      9  C   UNL     1       9.026   4.057   8.733  1.00  0.00     0.000 C 
BRANCH   9  10
ATOM     10  C   UNL     1      10.488   4.422   9.040  1.00  0.00     0.006 C 
BRANCH  10  11
ATOM     11  C   UNL     1      10.631   5.167  10.374  1.00  0.00     0.053 C 
BRANCH  11  12
ATOM     12  C   UNL     1      11.943   5.886  10.471  1.00  0.00     0.041 C 
ATOM     13  O   UNL     1      13.011   5.241  10.645  1.00  0.00    -0.550 OA
ATOM     14  O   UNL     1      11.980   7.271  10.393  1.00  0.00    -0.550 OA
ENDBRANCH  11  12
ENDBRANCH  10  11
ENDBRANCH   9  10
ENDBRANCH   8   9
ENDBRANCH   7   8
ENDBRANCH   6   7
ENDBRANCH   5   6
ENDBRANCH   4   5
ENDBRANCH   3   4
ENDBRANCH   2   3
ENDBRANCH   1   2
BRANCH   1  15
ATOM     15  C   UNL     1      13.499   2.146  14.598  1.00  0.00     0.000 C 
BRANCH  15  16
ATOM     16  C   UNL     1      13.529   0.620  14.829  1.00  0.00     0.000 C 
BRANCH  16  17
ATOM     17  C   UNL     1      12.303   0.114  15.605  1.00  0.00     0.000 C 
BRANCH  17  18
ATOM     18  C   UNL     1      11.465   1.289  16.129  1.00  0.00    -0.000 C 
BRANCH  18  19
ATOM     19  C   UNL     1       9.993   1.147  15.716  1.00  0.00    -0.000 C 
BRANCH  19  20
ATOM     20  C   UNL     1       9.826   0.635  14.274  1.00  0.00    -0.000 C 
BRANCH  20  21
ATOM     21  C   UNL     1       9.440   1.721  13.247  1.00  0.00    -0.000 C 
BRANCH  21  22
ATOM     22  C   UNL     1       8.780   2.976  13.849  1.00  0.00    -0.000 C 
BRANCH  22  23
ATOM     23  C   UNL     1       9.565   4.290  13.653  1.00  0.00    -0.000 C 
BRANCH  23  24
ATOM     24  C   UNL     1      10.365   4.730  14.897  1.00  0.00    -0.000 C 
BRANCH  24  25
ATOM     25  C   UNL     1      10.404   6.258  15.067  1.00  0.00    -0.003 C 
ATOM     26  C   UNL     1      10.395   6.962  13.715  1.00  0.00     0.004 C 
ENDBRANCH  24  25
ENDBRANCH  23  24
ENDBRANCH  22  23
ENDBRANCH  21  22
ENDBRANCH  20  21
ENDBRANCH  19  20
ENDBRANCH  18  19
ENDBRANCH  17  18
ENDBRANCH  16  17
ENDBRANCH  15  16
ENDBRANCH   1  15
TORSDOF 22
ENDMDL
MODEL 7
REMARK VINA RESULT:    -4.362      3.202      7.474
REMARK INTER + INTRA:         -13.762
REMARK INTER:                 -11.393
REMARK INTRA:                  -2.369
REMARK UNBOUND:                -3.790
REMARK SMILES CCCCCCCCCCCCCCCCCCCCCCCC(=O)[O-]
REMARK SMILES IDX 13 1 14 2 15 3 16 4 17 5 18 6 19 7 20 8 21 9 22 10 23 11
REMARK SMILES IDX 24 12 25 13 26 14 12 15 11 16 10 17 9 18 8 19 7 20 6 21 5 22
REMARK SMILES IDX 4 23 3 24 2 25 1 26
REMARK H PARENT
REMARK Flexibility Score: inf
ROOT
ATOM      1  C   UNL     1      11.999   9.392  10.251  1.00  0.00     0.000 C 
ENDROOT
BRANCH   1   2
ATOM      2  C   UNL     1      12.650  10.734  10.631  1.00  0.00     0.000 C 
BRANCH   2   3
ATOM      3  C   UNL     1      12.377  11.877   9.636  1.00  0.00     0.000 C 
BRANCH   3   4
ATOM      4  C   UNL     1      12.005  13.192  10.344  1.00  0.00     0.000 C 
BRANCH   4   5
ATOM      5  C   UNL     1      12.535  13.244  11.786  1.00  0.00     0.000 C 
BRANCH   5   6
ATOM      6  C   UNL     1      11.390  13.376  12.804  1.00  0.00     0.000 C 
BRANCH   6   7
ATOM      7  C   UNL     1      10.001  13.375  12.145  1.00  0.00     0.000 C 
BRANCH   7   8
ATOM      8  C   UNL     1       9.165  12.144  12.534  1.00  0.00     0.000 C 
BRANCH   8   9
ATOM      9  C   UNL     1      10.004  11.056  13.223  1.00  0.00     0.000 C 
BRANCH   9  10
ATOM     10  C   UNL     1       9.410  10.617  14.571  1.00  0.00     0.006 C 
BRANCH  10  11
ATOM     11  C   UNL     1       9.221  11.799  15.532  1.00  0.00     0.053 C 
BRANCH  11  12
ATOM     12  C   UNL     1      10.180  11.737  16.683  1.00  0.00     0.041 C 
ATOM     13  O   UNL     1      10.560  10.624  17.137  1.00  0.00    -0.550 OA
ATOM     14  O   UNL     1      10.635  12.910  17.269  1.00  0.00    -0.550 OA
ENDBRANCH  11  12
ENDBRANCH  10  11
ENDBRANCH   9  10
ENDBRANCH   8   9
ENDBRANCH   7   8
ENDBRANCH   6   7
ENDBRANCH   5   6
ENDBRANCH   4   5
ENDBRANCH   3   4
ENDBRANCH   2   3
ENDBRANCH   1   2
BRANCH   1  15
ATOM     15  C   UNL     1      11.639   8.470  11.434  1.00  0.00     0.000 C 
BRANCH  15  16
ATOM     16  C   UNL     1      11.494   6.981  11.050  1.00  0.00     0.000 C 
BRANCH  16  17
ATOM     17  C   UNL     1      11.040   6.107  12.230  1.00  0.00     0.000 C 
BRANCH  17  18
ATOM     18  C   UNL     1      10.147   4.956  11.745  1.00  0.00    -0.000 C 
BRANCH  18  19
ATOM     19  C   UNL     1      10.247   4.781  10.223  1.00  0.00    -0.000 C 
BRANCH  19  20
ATOM     20  C   UNL     1      10.405   3.309   9.802  1.00  0.00    -0.000 C 
BRANCH  20  21
ATOM     21  C   UNL     1      11.852   2.889   9.465  1.00  0.00    -0.000 C 
BRANCH  21  22
ATOM     22  C   UNL     1      12.804   2.821  10.674  1.00  0.00    -0.000 C 
BRANCH  22  23
ATOM     23  C   UNL     1      12.822   1.471  11.422  1.00  0.00    -0.000 C 
BRANCH  23  24
ATOM     24  C   UNL     1      12.381   1.571  12.898  1.00  0.00    -0.000 C 
BRANCH  24  25
ATOM     25  C   UNL     1      13.339   2.423  13.746  1.00  0.00    -0.003 C 
ATOM     26  C   UNL     1      13.473   1.859  15.157  1.00  0.00     0.004 C 
ENDBRANCH  24  25
ENDBRANCH  23  24
ENDBRANCH  22  23
ENDBRANCH  21  22
ENDBRANCH  20  21
ENDBRANCH  19  20
ENDBRANCH  18  19
ENDBRANCH  17  18
ENDBRANCH  16  17
ENDBRANCH  15  16
ENDBRANCH   1  15
TORSDOF 22
ENDMDL
MODEL 8
REMARK VINA RESULT:    -4.358      1.949      4.480
REMARK INTER + INTRA:         -13.754
REMARK INTER:                 -10.667
REMARK INTRA:                  -3.087
REMARK UNBOUND:                -3.790
REMARK SMILES CCCCCCCCCCCCCCCCCCCCCCCC(=O)[O-]
REMARK SMILES IDX 13 1 14 2 15 3 16 4 17 5 18 6 19 7 20 8 21 9 22 10 23 11
REMARK SMILES IDX 24 12 25 13 26 14 12 15 11 16 10 17 9 18 8 19 7 20 6 21 5 22
REMARK SMILES IDX 4 23 3 24 2 25 1 26
REMARK H PARENT
REMARK Flexibility Score: inf
ROOT
ATOM      1  C   UNL     1      12.946   4.161  11.090  1.00  0.00     0.000 C 
ENDROOT
BRANCH   1   2
ATOM      2  C   UNL     1      11.447   4.031  10.762  1.00  0.00     0.000 C 
BRANCH   2   3
ATOM      3  C   UNL     1      10.734   5.372  10.506  1.00  0.00     0.000 C 
BRANCH   3   4
ATOM      4  C   UNL     1      11.690   6.572  10.619  1.00  0.00     0.000 C 
BRANCH   4   5
ATOM      5  C   UNL     1      11.421   7.412  11.878  1.00  0.00     0.000 C 
BRANCH   5   6
ATOM      6  C   UNL     1      11.356   8.914  11.551  1.00  0.00     0.000 C 
BRANCH   6   7
ATOM      7  C   UNL     1      12.106   9.279  10.261  1.00  0.00     0.000 C 
BRANCH   7   8
ATOM      8  C   UNL     1      12.518  10.761  10.216  1.00  0.00     0.000 C 
BRANCH   8   9
ATOM      9  C   UNL     1      12.119  11.520  11.492  1.00  0.00     0.000 C 
BRANCH   9  10
ATOM     10  C   UNL     1      12.445  13.021  11.411  1.00  0.00     0.006 C 
BRANCH  10  11
ATOM     11  C   UNL     1      11.812  13.685  10.181  1.00  0.00     0.053 C 
BRANCH  11  12
ATOM     12  C   UNL     1      10.665  14.574  10.558  1.00  0.00     0.041 C 
ATOM     13  O   UNL     1      10.682  15.798  10.257  1.00  0.00    -0.550 OA
ATOM     14  O   UNL     1       9.590  14.054  11.265  1.00  0.00    -0.550 OA
ENDBRANCH  11  12
ENDBRANCH  10  11
ENDBRANCH   9  10
ENDBRANCH   8   9
ENDBRANCH   7   8
ENDBRANCH   6   7
ENDBRANCH   5   6
ENDBRANCH   4   5
ENDBRANCH   3   4
ENDBRANCH   2   3
ENDBRANCH   1   2
BRANCH   1  15
ATOM     15  C   UNL     1      13.485   3.163  12.135  1.00  0.00     0.000 C 
BRANCH  15  16
ATOM     16  C   UNL     1      12.761   1.800  12.135  1.00  0.00     0.000 C 
BRANCH  16  17
ATOM     17  C   UNL     1      12.794   1.111  13.509  1.00  0.00     0.000 C 
BRANCH  17  18
ATOM     18  C   UNL     1      13.790   1.809  14.446  1.00  0.00    -0.000 C 
BRANCH  18  19
ATOM     19  C   UNL     1      13.160   2.085  15.819  1.00  0.00    -0.000 C 
BRANCH  19  20
ATOM     20  C   UNL     1      11.795   1.396  15.996  1.00  0.00    -0.000 C 
BRANCH  20  21
ATOM     21  C   UNL     1      10.628   2.355  16.314  1.00  0.00    -0.000 C 
BRANCH  21  22
ATOM     22  C   UNL     1       9.513   2.391  15.251  1.00  0.00    -0.000 C 
BRANCH  22  23
ATOM     23  C   UNL     1       9.810   3.266  14.015  1.00  0.00    -0.000 C 
BRANCH  23  24
ATOM     24  C   UNL     1      10.616   4.543  14.335  1.00  0.00    -0.000 C 
BRANCH  24  25
ATOM     25  C   UNL     1       9.719   5.777  14.528  1.00  0.00    -0.003 C 
ATOM     26  C   UNL     1       9.439   6.027  16.006  1.00  0.00     0.004 C 
ENDBRANCH  24  25
ENDBRANCH  23  24
ENDBRANCH  22  23
ENDBRANCH  21  22
ENDBRANCH  20  21
ENDBRANCH  19  20
ENDBRANCH  18  19
ENDBRANCH  17  18
ENDBRANCH  16  17
ENDBRANCH  15  16
ENDBRANCH   1  15
TORSDOF 22
ENDMDL
MODEL 9
REMARK VINA RESULT:    -4.290      3.056      5.376
REMARK INTER + INTRA:         -13.598
REMARK INTER:                  -9.393
REMARK INTRA:                  -4.204
REMARK UNBOUND:                -3.790
REMARK SMILES CCCCCCCCCCCCCCCCCCCCCCCC(=O)[O-]
REMARK SMILES IDX 13 1 14 2 15 3 16 4 17 5 18 6 19 7 20 8 21 9 22 10 23 11
REMARK SMILES IDX 24 12 25 13 26 14 12 15 11 16 10 17 9 18 8 19 7 20 6 21 5 22
REMARK SMILES IDX 4 23 3 24 2 25 1 26
REMARK H PARENT
REMARK Flexibility Score: inf
ROOT
ATOM      1  C   UNL     1      13.582   2.135  14.764  1.00  0.00     0.000 C 
ENDROOT
BRANCH   1   2
ATOM      2  C   UNL     1      13.323   1.889  13.266  1.00  0.00     0.000 C 
BRANCH   2   3
ATOM      3  C   UNL     1      12.544   3.016  12.563  1.00  0.00     0.000 C 
BRANCH   3   4
ATOM      4  C   UNL     1      13.298   3.574  11.344  1.00  0.00     0.000 C 
BRANCH   4   5
ATOM      5  C   UNL     1      12.380   4.382  10.413  1.00  0.00     0.000 C 
BRANCH   5   6
ATOM      6  C   UNL     1      12.233   5.838  10.889  1.00  0.00     0.000 C 
BRANCH   6   7
ATOM      7  C   UNL     1      10.824   6.156  11.415  1.00  0.00     0.000 C 
BRANCH   7   8
ATOM      8  C   UNL     1      10.827   7.277  12.468  1.00  0.00     0.000 C 
BRANCH   8   9
ATOM      9  C   UNL     1      10.496   6.761  13.877  1.00  0.00     0.000 C 
BRANCH   9  10
ATOM     10  C   UNL     1       9.900   5.343  13.861  1.00  0.00     0.006 C 
BRANCH  10  11
ATOM     11  C   UNL     1      10.310   4.530  15.097  1.00  0.00     0.053 C 
BRANCH  11  12
ATOM     12  C   UNL     1       9.352   4.724  16.233  1.00  0.00     0.041 C 
ATOM     13  O   UNL     1       8.287   5.377  16.063  1.00  0.00    -0.550 OA
ATOM     14  O   UNL     1       9.648   4.204  17.485  1.00  0.00    -0.550 OA
ENDBRANCH  11  12
ENDBRANCH  10  11
ENDBRANCH   9  10
ENDBRANCH   8   9
ENDBRANCH   7   8
ENDBRANCH   6   7
ENDBRANCH   5   6
ENDBRANCH   4   5
ENDBRANCH   3   4
ENDBRANCH   2   3
ENDBRANCH   1   2
BRANCH   1  15
ATOM     15  C   UNL     1      12.803   1.219  15.731  1.00  0.00     0.000 C 
BRANCH  15  16
ATOM     16  C   UNL     1      11.360   0.909  15.278  1.00  0.00     0.000 C 
BRANCH  16  17
ATOM     17  C   UNL     1      11.133  -0.588  15.010  1.00  0.00     0.000 C 
BRANCH  17  18
ATOM     18  C   UNL     1      10.375  -0.798  13.692  1.00  0.00    -0.000 C 
BRANCH  18  19
ATOM     19  C   UNL     1      11.346  -1.011  12.521  1.00  0.00    -0.000 C 
BRANCH  19  20
ATOM     20  C   UNL     1      10.822  -0.422  11.200  1.00  0.00    -0.000 C 
BRANCH  20  21
ATOM     21  C   UNL     1      11.917   0.149  10.272  1.00  0.00    -0.000 C 
BRANCH  21  22
ATOM     22  C   UNL     1      11.393   1.010   9.107  1.00  0.00    -0.000 C 
BRANCH  22  23
ATOM     23  C   UNL     1       9.882   1.324   9.148  1.00  0.00    -0.000 C 
BRANCH  23  24
ATOM     24  C   UNL     1       9.544   2.798   8.842  1.00  0.00    -0.000 C 
BRANCH  24  25
ATOM     25  C   UNL     1       8.723   3.462   9.959  1.00  0.00    -0.003 C 
ATOM     26  C   UNL     1       9.046   2.849  11.317  1.00  0.00     0.004 C 
ENDBRANCH  24  25
ENDBRANCH  23  24
ENDBRANCH  22  23
ENDBRANCH  21  22
ENDBRANCH  20  21
ENDBRANCH  19  20
ENDBRANCH  18  19
ENDBRANCH  17  18
ENDBRANCH  16  17
ENDBRANCH  15  16
ENDBRANCH   1  15
TORSDOF 22
ENDMDL
