MODEL 1
REMARK VINA RESULT:    -4.352      0.000      0.000
REMARK INTER + INTRA:          -8.037
REMARK INTER:                  -7.405
REMARK INTRA:                  -0.632
REMARK UNBOUND:                -0.632
REMARK SMILES CCCCCCCCCCCCCC(=O)[O-]
REMARK SMILES IDX 8 1 9 2 10 3 11 4 12 5 13 6 14 7 15 8 16 9 7 10 6 11 5 12
REMARK SMILES IDX 4 13 3 14 2 15 1 16
REMARK H PARENT
REMARK Flexibility Score: inf
ROOT
ATOM      1  C   UNL     1       4.556  27.810  56.087  1.00  0.00     0.000 C 
ENDROOT
BRANCH   1   2
ATOM      2  C   UNL     1       4.253  27.627  57.587  1.00  0.00     0.000 C 
BRANCH   2   3
ATOM      3  C   UNL     1       2.763  27.707  57.963  1.00  0.00     0.000 C 
BRANCH   3   4
ATOM      4  C   UNL     1       1.978  28.694  57.087  1.00  0.00     0.000 C 
BRANCH   4   5
ATOM      5  C   UNL     1       0.476  28.390  57.127  1.00  0.00     0.006 C 
BRANCH   5   6
ATOM      6  C   UNL     1      -0.341  29.585  56.627  1.00  0.00     0.053 C 
BRANCH   6   7
ATOM      7  C   UNL     1      -0.259  29.690  55.137  1.00  0.00     0.041 C 
ATOM      8  O   UNL     1       0.526  30.517  54.601  1.00  0.00    -0.550 OA
ATOM      9  O   UNL     1      -1.087  28.910  54.339  1.00  0.00    -0.550 OA
ENDBRANCH   6   7
ENDBRANCH   5   6
ENDBRANCH   4   5
ENDBRANCH   3   4
ENDBRANCH   2   3
ENDBRANCH   1   2
BRANCH   1  10
ATOM     10  C   UNL     1       5.347  29.085  55.731  1.00  0.00     0.000 C 
BRANCH  10  11
ATOM     11  C   UNL     1       5.080  29.647  54.321  1.00  0.00    -0.000 C 
BRANCH  11  12
ATOM     12  C   UNL     1       4.303  28.706  53.382  1.00  0.00    -0.000 C 
BRANCH  12  13
ATOM     13  C   UNL     1       4.641  28.928  51.901  1.00  0.00    -0.000 C 
BRANCH  13  14
ATOM     14  C   UNL     1       4.843  27.588  51.178  1.00  0.00    -0.000 C 
BRANCH  14  15
ATOM     15  C   UNL     1       4.969  27.752  49.655  1.00  0.00    -0.003 C 
ATOM     16  C   UNL     1       4.210  26.678  48.879  1.00  0.00     0.004 C 
ENDBRANCH  14  15
ENDBRANCH  13  14
ENDBRANCH  12  13
ENDBRANCH  11  12
ENDBRANCH  10  11
ENDBRANCH   1  10
TORSDOF 12
ENDMDL
MODEL 2
REMARK VINA RESULT:    -4.220      1.241      2.542
REMARK INTER + INTRA:          -7.812
REMARK INTER:                  -6.825
REMARK INTRA:                  -0.987
REMARK UNBOUND:                -0.632
REMARK SMILES CCCCCCCCCCCCCC(=O)[O-]
REMARK SMILES IDX 8 1 9 2 10 3 11 4 12 5 13 6 14 7 15 8 16 9 7 10 6 11 5 12
REMARK SMILES IDX 4 13 3 14 2 15 1 16
REMARK H PARENT
REMARK Flexibility Score: inf
ROOT
ATOM      1  C   UNL     1       4.045  28.499  53.442  1.00  0.00     0.000 C 
ENDROOT
BRANCH   1   2
ATOM      2  C   UNL     1       4.634  28.864  54.819  1.00  0.00     0.000 C 
BRANCH   2   3
ATOM      3  C   UNL     1       4.271  27.894  55.958  1.00  0.00     0.000 C 
BRANCH   3   4
ATOM      4  C   UNL     1       3.704  28.609  57.192  1.00  0.00     0.000 C 
BRANCH   4   5
ATOM      5  C   UNL     1       2.284  28.123  57.504  1.00  0.00     0.006 C 
BRANCH   5   6
ATOM      6  C   UNL     1       1.242  29.168  57.093  1.00  0.00     0.053 C 
BRANCH   6   7
ATOM      7  C   UNL     1       0.832  28.966  55.668  1.00  0.00     0.041 C 
ATOM      8  O   UNL     1       0.814  27.809  55.171  1.00  0.00    -0.550 OA
ATOM      9  O   UNL     1       0.517  30.061  54.874  1.00  0.00    -0.550 OA
ENDBRANCH   6   7
ENDBRANCH   5   6
ENDBRANCH   4   5
ENDBRANCH   3   4
ENDBRANCH   2   3
ENDBRANCH   1   2
BRANCH   1  10
ATOM     10  C   UNL     1       4.037  29.645  52.411  1.00  0.00     0.000 C 
BRANCH  10  11
ATOM     11  C   UNL     1       4.567  29.270  51.013  1.00  0.00    -0.000 C 
BRANCH  11  12
ATOM     12  C   UNL     1       5.449  28.009  50.968  1.00  0.00    -0.000 C 
BRANCH  12  13
ATOM     13  C   UNL     1       5.080  27.062  49.817  1.00  0.00    -0.000 C 
BRANCH  13  14
ATOM     14  C   UNL     1       3.767  27.496  49.149  1.00  0.00    -0.000 C 
BRANCH  14  15
ATOM     15  C   UNL     1       3.906  27.666  47.628  1.00  0.00    -0.003 C 
ATOM     16  C   UNL     1       5.301  28.128  47.209  1.00  0.00     0.004 C 
ENDBRANCH  14  15
ENDBRANCH  13  14
ENDBRANCH  12  13
ENDBRANCH  11  12
ENDBRANCH  10  11
ENDBRANCH   1  10
TORSDOF 12
ENDMDL
MODEL 3
REMARK VINA RESULT:    -4.171      3.244      6.606
REMARK INTER + INTRA:          -7.729
REMARK INTER:                  -6.762
REMARK INTRA:                  -0.967
REMARK UNBOUND:                -0.632
REMARK SMILES CCCCCCCCCCCCCC(=O)[O-]
REMARK SMILES IDX 8 1 9 2 10 3 11 4 12 5 13 6 14 7 15 8 16 9 7 10 6 11 5 12
REMARK SMILES IDX 4 13 3 14 2 15 1 16
REMARK H PARENT
REMARK Flexibility Score: inf
ROOT
ATOM      1  C   UNL     1       4.938  29.641  54.337  1.00  0.00     0.000 C 
ENDROOT
BRANCH   1   2
ATOM      2  C   UNL     1       4.207  28.512  53.585  1.00  0.00     0.000 C 
BRANCH   2   3
ATOM      3  C   UNL     1       4.632  28.329  52.117  1.00  0.00     0.000 C 
BRANCH   3   4
ATOM      4  C   UNL     1       4.317  29.554  51.247  1.00  0.00     0.000 C 
BRANCH   4   5
ATOM      5  C   UNL     1       4.653  29.285  49.776  1.00  0.00     0.006 C 
BRANCH   5   6
ATOM      6  C   UNL     1       3.747  28.196  49.195  1.00  0.00     0.053 C 
BRANCH   6   7
ATOM      7  C   UNL     1       4.536  27.264  48.330  1.00  0.00     0.041 C 
ATOM      8  O   UNL     1       5.230  27.715  47.380  1.00  0.00    -0.550 OA
ATOM      9  O   UNL     1       4.466  25.893  48.541  1.00  0.00    -0.550 OA
ENDBRANCH   6   7
ENDBRANCH   5   6
ENDBRANCH   4   5
ENDBRANCH   3   4
ENDBRANCH   2   3
ENDBRANCH   1   2
BRANCH   1  10
ATOM     10  C   UNL     1       5.658  29.206  55.629  1.00  0.00     0.000 C 
BRANCH  10  11
ATOM     11  C   UNL     1       4.756  29.090  56.873  1.00  0.00    -0.000 C 
BRANCH  11  12
ATOM     12  C   UNL     1       3.943  27.786  56.968  1.00  0.00    -0.000 C 
BRANCH  12  13
ATOM     13  C   UNL     1       2.731  27.904  57.903  1.00  0.00    -0.000 C 
BRANCH  13  14
ATOM     14  C   UNL     1       1.656  28.817  57.296  1.00  0.00    -0.000 C 
BRANCH  14  15
ATOM     15  C   UNL     1       1.231  28.374  55.888  1.00  0.00    -0.003 C 
ATOM     16  C   UNL     1       0.982  29.551  54.946  1.00  0.00     0.004 C 
ENDBRANCH  14  15
ENDBRANCH  13  14
ENDBRANCH  12  13
ENDBRANCH  11  12
ENDBRANCH  10  11
ENDBRANCH   1  10
TORSDOF 12
ENDMDL
MODEL 4
REMARK VINA RESULT:    -4.135      2.546      6.198
REMARK INTER + INTRA:          -7.667
REMARK INTER:                  -6.378
REMARK INTRA:                  -1.289
REMARK UNBOUND:                -0.632
REMARK SMILES CCCCCCCCCCCCCC(=O)[O-]
REMARK SMILES IDX 8 1 9 2 10 3 11 4 12 5 13 6 14 7 15 8 16 9 7 10 6 11 5 12
REMARK SMILES IDX 4 13 3 14 2 15 1 16
REMARK H PARENT
REMARK Flexibility Score: inf
ROOT
ATOM      1  C   UNL     1       3.849  28.245  54.778  1.00  0.00     0.000 C 
ENDROOT
BRANCH   1   2
ATOM      2  C   UNL     1       4.554  29.437  54.100  1.00  0.00     0.000 C 
BRANCH   2   3
ATOM      3  C   UNL     1       3.656  30.286  53.182  1.00  0.00     0.000 C 
BRANCH   3   4
ATOM      4  C   UNL     1       4.428  30.929  52.022  1.00  0.00     0.000 C 
BRANCH   4   5
ATOM      5  C   UNL     1       5.644  30.080  51.632  1.00  0.00     0.006 C 
BRANCH   5   6
ATOM      6  C   UNL     1       5.483  29.501  50.224  1.00  0.00     0.053 C 
BRANCH   6   7
ATOM      7  C   UNL     1       4.597  28.296  50.250  1.00  0.00     0.041 C 
ATOM      8  O   UNL     1       3.601  28.224  49.481  1.00  0.00    -0.550 OA
ATOM      9  O   UNL     1       4.840  27.273  51.159  1.00  0.00    -0.550 OA
ENDBRANCH   6   7
ENDBRANCH   5   6
ENDBRANCH   4   5
ENDBRANCH   3   4
ENDBRANCH   2   3
ENDBRANCH   1   2
BRANCH   1  10
ATOM     10  C   UNL     1       4.450  27.814  56.130  1.00  0.00     0.000 C 
BRANCH  10  11
ATOM     11  C   UNL     1       3.471  27.845  57.320  1.00  0.00    -0.000 C 
BRANCH  11  12
ATOM     12  C   UNL     1       2.346  28.891  57.210  1.00  0.00    -0.000 C 
BRANCH  12  13
ATOM     13  C   UNL     1       0.963  28.321  57.558  1.00  0.00    -0.000 C 
BRANCH  13  14
ATOM     14  C   UNL     1      -0.137  29.012  56.738  1.00  0.00    -0.000 C 
BRANCH  14  15
ATOM     15  C   UNL     1       0.111  28.921  55.224  1.00  0.00    -0.003 C 
ATOM     16  C   UNL     1       0.224  30.292  54.559  1.00  0.00     0.004 C 
ENDBRANCH  14  15
ENDBRANCH  13  14
ENDBRANCH  12  13
ENDBRANCH  11  12
ENDBRANCH  10  11
ENDBRANCH   1  10
TORSDOF 12
ENDMDL
MODEL 5
REMARK VINA RESULT:    -4.091      2.628      5.707
REMARK INTER + INTRA:          -7.593
REMARK INTER:                  -6.296
REMARK INTRA:                  -1.298
REMARK UNBOUND:                -0.632
REMARK SMILES CCCCCCCCCCCCCC(=O)[O-]
REMARK SMILES IDX 8 1 9 2 10 3 11 4 12 5 13 6 14 7 15 8 16 9 7 10 6 11 5 12
REMARK SMILES IDX 4 13 3 14 2 15 1 16
REMARK H PARENT
REMARK Flexibility Score: inf
ROOT
ATOM      1  C   UNL     1       4.929  29.073  56.033  1.00  0.00     0.000 C 
ENDROOT
BRANCH   1   2
ATOM      2  C   UNL     1       5.159  29.425  54.550  1.00  0.00     0.000 C 
BRANCH   2   3
ATOM      3  C   UNL     1       3.983  29.094  53.614  1.00  0.00     0.000 C 
BRANCH   3   4
ATOM      4  C   UNL     1       4.437  28.676  52.209  1.00  0.00     0.000 C 
BRANCH   4   5
ATOM      5  C   UNL     1       4.887  29.892  51.392  1.00  0.00     0.006 C 
BRANCH   5   6
ATOM      6  C   UNL     1       3.793  30.963  51.351  1.00  0.00     0.053 C 
BRANCH   6   7
ATOM      7  C   UNL     1       4.327  32.277  51.825  1.00  0.00     0.041 C 
ATOM      8  O   UNL     1       5.359  32.319  52.547  1.00  0.00    -0.550 OA
ATOM      9  O   UNL     1       3.657  33.454  51.513  1.00  0.00    -0.550 OA
ENDBRANCH   6   7
ENDBRANCH   5   6
ENDBRANCH   4   5
ENDBRANCH   3   4
ENDBRANCH   2   3
ENDBRANCH   1   2
BRANCH   1  10
ATOM     10  C   UNL     1       4.031  27.845  56.281  1.00  0.00     0.000 C 
BRANCH  10  11
ATOM     11  C   UNL     1       3.124  27.940  57.524  1.00  0.00    -0.000 C 
BRANCH  11  12
ATOM     12  C   UNL     1       1.935  28.908  57.389  1.00  0.00    -0.000 C 
BRANCH  12  13
ATOM     13  C   UNL     1       0.701  28.255  56.748  1.00  0.00    -0.000 C 
BRANCH  13  14
ATOM     14  C   UNL     1       0.654  28.537  55.239  1.00  0.00    -0.000 C 
BRANCH  14  15
ATOM     15  C   UNL     1      -0.127  29.816  54.902  1.00  0.00    -0.003 C 
ATOM     16  C   UNL     1       0.716  30.844  54.150  1.00  0.00     0.004 C 
ENDBRANCH  14  15
ENDBRANCH  13  14
ENDBRANCH  12  13
ENDBRANCH  11  12
ENDBRANCH  10  11
ENDBRANCH   1  10
TORSDOF 12
ENDMDL
MODEL 6
REMARK VINA RESULT:    -3.998     10.419     12.144
REMARK INTER + INTRA:          -7.435
REMARK INTER:                  -6.637
REMARK INTRA:                  -0.797
REMARK UNBOUND:                -0.632
REMARK SMILES CCCCCCCCCCCCCC(=O)[O-]
REMARK SMILES IDX 8 1 9 2 10 3 11 4 12 5 13 6 14 7 15 8 16 9 7 10 6 11 5 12
REMARK SMILES IDX 4 13 3 14 2 15 1 16
REMARK H PARENT
REMARK Flexibility Score: inf
ROOT
ATOM      1  C   UNL     1      -5.216  30.818  59.363  1.00  0.00     0.000 C 
ENDROOT
BRANCH   1   2
ATOM      2  C   UNL     1      -6.592  31.514  59.367  1.00  0.00     0.000 C 
BRANCH   2   3
ATOM      3  C   UNL     1      -6.941  32.271  58.074  1.00  0.00     0.000 C 
BRANCH   3   4
ATOM      4  C   UNL     1      -8.361  31.973  57.572  1.00  0.00     0.000 C 
BRANCH   4   5
ATOM      5  C   UNL     1      -9.398  32.230  58.671  1.00  0.00     0.006 C 
BRANCH   5   6
ATOM      6  C   UNL     1     -10.820  31.996  58.153  1.00  0.00     0.053 C 
BRANCH   6   7
ATOM      7  C   UNL     1     -11.826  32.536  59.120  1.00  0.00     0.041 C 
ATOM      8  O   UNL     1     -12.599  31.753  59.733  1.00  0.00    -0.550 OA
ATOM      9  O   UNL     1     -11.944  33.907  59.306  1.00  0.00    -0.550 OA
ENDBRANCH   6   7
ENDBRANCH   5   6
ENDBRANCH   4   5
ENDBRANCH   3   4
ENDBRANCH   2   3
ENDBRANCH   1   2
BRANCH   1  10
ATOM     10  C   UNL     1      -5.035  29.737  58.280  1.00  0.00     0.000 C 
BRANCH  10  11
ATOM     11  C   UNL     1      -6.123  28.645  58.259  1.00  0.00    -0.000 C 
BRANCH  11  12
ATOM     12  C   UNL     1      -6.910  28.537  56.940  1.00  0.00    -0.000 C 
BRANCH  12  13
ATOM     13  C   UNL     1      -7.493  27.135  56.706  1.00  0.00    -0.000 C 
BRANCH  13  14
ATOM     14  C   UNL     1      -7.119  26.612  55.311  1.00  0.00    -0.000 C 
BRANCH  14  15
ATOM     15  C   UNL     1      -7.931  25.371  54.909  1.00  0.00    -0.003 C 
ATOM     16  C   UNL     1      -7.459  24.101  55.617  1.00  0.00     0.004 C 
ENDBRANCH  14  15
ENDBRANCH  13  14
ENDBRANCH  12  13
ENDBRANCH  11  12
ENDBRANCH  10  11
ENDBRANCH   1  10
TORSDOF 12
ENDMDL
MODEL 7
REMARK VINA RESULT:    -3.997      3.331      7.497
REMARK INTER + INTRA:          -7.433
REMARK INTER:                  -6.867
REMARK INTRA:                  -0.567
REMARK UNBOUND:                -0.632
REMARK SMILES CCCCCCCCCCCCCC(=O)[O-]
REMARK SMILES IDX 8 1 9 2 10 3 11 4 12 5 13 6 14 7 15 8 16 9 7 10 6 11 5 12
REMARK SMILES IDX 4 13 3 14 2 15 1 16
REMARK H PARENT
REMARK Flexibility Score: inf
ROOT
ATOM      1  C   UNL     1       4.137  29.541  52.281  1.00  0.00     0.000 C 
ENDROOT
BRANCH   1   2
ATOM      2  C   UNL     1       4.354  28.994  50.856  1.00  0.00     0.000 C 
BRANCH   2   3
ATOM      3  C   UNL     1       5.056  27.626  50.786  1.00  0.00     0.000 C 
BRANCH   3   4
ATOM      4  C   UNL     1       4.626  26.796  49.568  1.00  0.00     0.000 C 
BRANCH   4   5
ATOM      5  C   UNL     1       3.526  27.512  48.776  1.00  0.00     0.006 C 
BRANCH   5   6
ATOM      6  C   UNL     1       3.920  27.667  47.304  1.00  0.00     0.053 C 
BRANCH   6   7
ATOM      7  C   UNL     1       3.100  28.736  46.652  1.00  0.00     0.041 C 
ATOM      8  O   UNL     1       1.869  28.832  46.901  1.00  0.00    -0.550 OA
ATOM      9  O   UNL     1       3.685  29.595  45.731  1.00  0.00    -0.550 OA
ENDBRANCH   6   7
ENDBRANCH   5   6
ENDBRANCH   4   5
ENDBRANCH   3   4
ENDBRANCH   2   3
ENDBRANCH   1   2
BRANCH   1  10
ATOM     10  C   UNL     1       4.245  28.493  53.406  1.00  0.00     0.000 C 
BRANCH  10  11
ATOM     11  C   UNL     1       3.323  28.737  54.617  1.00  0.00    -0.000 C 
BRANCH  11  12
ATOM     12  C   UNL     1       3.832  28.159  55.950  1.00  0.00    -0.000 C 
BRANCH  12  13
ATOM     13  C   UNL     1       2.816  28.307  57.092  1.00  0.00    -0.000 C 
BRANCH  13  14
ATOM     14  C   UNL     1       1.415  28.617  56.544  1.00  0.00    -0.000 C 
BRANCH  14  15
ATOM     15  C   UNL     1       0.513  29.301  57.584  1.00  0.00    -0.003 C 
ATOM     16  C   UNL     1      -0.860  29.670  57.025  1.00  0.00     0.004 C 
ENDBRANCH  14  15
ENDBRANCH  13  14
ENDBRANCH  12  13
ENDBRANCH  11  12
ENDBRANCH  10  11
ENDBRANCH   1  10
TORSDOF 12
ENDMDL
MODEL 8
REMARK VINA RESULT:    -3.844     15.096     17.036
REMARK INTER + INTRA:          -7.173
REMARK INTER:                  -5.841
REMARK INTRA:                  -1.332
REMARK UNBOUND:                -0.632
REMARK SMILES CCCCCCCCCCCCCC(=O)[O-]
REMARK SMILES IDX 8 1 9 2 10 3 11 4 12 5 13 6 14 7 15 8 16 9 7 10 6 11 5 12
REMARK SMILES IDX 4 13 3 14 2 15 1 16
REMARK H PARENT
REMARK Flexibility Score: inf
ROOT
ATOM      1  C   UNL     1      -4.030  35.605  40.875  1.00  0.00     0.000 C 
ENDROOT
BRANCH   1   2
ATOM      2  C   UNL     1      -4.075  34.215  41.540  1.00  0.00     0.000 C 
BRANCH   2   3
ATOM      3  C   UNL     1      -3.964  34.225  43.075  1.00  0.00     0.000 C 
BRANCH   3   4
ATOM      4  C   UNL     1      -5.318  34.041  43.773  1.00  0.00     0.000 C 
BRANCH   4   5
ATOM      5  C   UNL     1      -6.350  33.428  42.819  1.00  0.00     0.006 C 
BRANCH   5   6
ATOM      6  C   UNL     1      -7.776  33.775  43.254  1.00  0.00     0.053 C 
BRANCH   6   7
ATOM      7  C   UNL     1      -8.772  32.975  42.474  1.00  0.00     0.041 C 
ATOM      8  O   UNL     1      -9.647  32.295  43.073  1.00  0.00    -0.550 OA
ATOM      9  O   UNL     1      -8.702  32.939  41.087  1.00  0.00    -0.550 OA
ENDBRANCH   6   7
ENDBRANCH   5   6
ENDBRANCH   4   5
ENDBRANCH   3   4
ENDBRANCH   2   3
ENDBRANCH   1   2
BRANCH   1  10
ATOM     10  C   UNL     1      -3.431  36.726  41.747  1.00  0.00     0.000 C 
BRANCH  10  11
ATOM     11  C   UNL     1      -4.378  37.909  42.031  1.00  0.00    -0.000 C 
BRANCH  11  12
ATOM     12  C   UNL     1      -4.929  37.972  43.467  1.00  0.00    -0.000 C 
BRANCH  12  13
ATOM     13  C   UNL     1      -6.447  38.204  43.514  1.00  0.00    -0.000 C 
BRANCH  13  14
ATOM     14  C   UNL     1      -7.126  37.202  44.460  1.00  0.00    -0.000 C 
BRANCH  14  15
ATOM     15  C   UNL     1      -8.427  37.751  45.066  1.00  0.00    -0.003 C 
ATOM     16  C   UNL     1      -8.178  38.797  46.152  1.00  0.00     0.004 C 
ENDBRANCH  14  15
ENDBRANCH  13  14
ENDBRANCH  12  13
ENDBRANCH  11  12
ENDBRANCH  10  11
ENDBRANCH   1  10
TORSDOF 12
ENDMDL
MODEL 9
REMARK VINA RESULT:    -3.796      2.896      5.436
REMARK INTER + INTRA:          -7.091
REMARK INTER:                  -6.103
REMARK INTRA:                  -0.987
REMARK UNBOUND:                -0.632
REMARK SMILES CCCCCCCCCCCCCC(=O)[O-]
REMARK SMILES IDX 8 1 9 2 10 3 11 4 12 5 13 6 14 7 15 8 16 9 7 10 6 11 5 12
REMARK SMILES IDX 4 13 3 14 2 15 1 16
REMARK H PARENT
REMARK Flexibility Score: inf
ROOT
ATOM      1  C   UNL     1       0.947  29.282  57.481  1.00  0.00     0.000 C 
ENDROOT
BRANCH   1   2
ATOM      2  C   UNL     1       1.920  28.152  57.088  1.00  0.00     0.000 C 
BRANCH   2   3
ATOM      3  C   UNL     1       3.411  28.529  57.149  1.00  0.00     0.000 C 
BRANCH   3   4
ATOM      4  C   UNL     1       4.247  27.833  56.066  1.00  0.00     0.000 C 
BRANCH   4   5
ATOM      5  C   UNL     1       4.625  28.813  54.949  1.00  0.00     0.006 C 
BRANCH   5   6
ATOM      6  C   UNL     1       3.574  28.810  53.835  1.00  0.00     0.053 C 
BRANCH   6   7
ATOM      7  C   UNL     1       4.208  29.122  52.516  1.00  0.00     0.041 C 
ATOM      8  O   UNL     1       4.014  30.240  51.969  1.00  0.00    -0.550 OA
ATOM      9  O   UNL     1       4.970  28.160  51.866  1.00  0.00    -0.550 OA
ENDBRANCH   6   7
ENDBRANCH   5   6
ENDBRANCH   4   5
ENDBRANCH   3   4
ENDBRANCH   2   3
ENDBRANCH   1   2
BRANCH   1  10
ATOM     10  C   UNL     1      -0.126  29.616  56.425  1.00  0.00     0.000 C 
BRANCH  10  11
ATOM     11  C   UNL     1       0.354  29.546  54.962  1.00  0.00    -0.000 C 
BRANCH  11  12
ATOM     12  C   UNL     1      -0.145  30.689  54.059  1.00  0.00    -0.000 C 
BRANCH  12  13
ATOM     13  C   UNL     1       0.943  31.730  53.757  1.00  0.00    -0.000 C 
BRANCH  13  14
ATOM     14  C   UNL     1       0.750  32.336  52.359  1.00  0.00    -0.000 C 
BRANCH  14  15
ATOM     15  C   UNL     1       0.665  33.870  52.388  1.00  0.00    -0.003 C 
ATOM     16  C   UNL     1       0.380  34.421  53.784  1.00  0.00     0.004 C 
ENDBRANCH  14  15
ENDBRANCH  13  14
ENDBRANCH  12  13
ENDBRANCH  11  12
ENDBRANCH  10  11
ENDBRANCH   1  10
TORSDOF 12
ENDMDL
