MODEL 1
REMARK VINA RESULT:    -3.615      0.000      0.000
REMARK INTER + INTRA:          -5.556
REMARK INTER:                  -5.518
REMARK INTRA:                  -0.038
REMARK UNBOUND:                -0.038
REMARK SMILES CC1=CCC[C@H](C)C(=O)C[C@H](C(C)C)C(=O)C1
REMARK SMILES IDX 8 1 9 2 6 3 7 4 5 5 4 6 3 7 2 8 1 9 10 11 11 12 15 13 16 14
REMARK SMILES IDX 17 15 12 17 13 18 14 19
REMARK H PARENT
REMARK Flexibility Score: 70.00
ROOT
ATOM      1  C   UNL     1      14.671  24.785  33.531  1.00  0.00     0.136 C 
ATOM      2  O   UNL     1      14.701  25.478  34.536  1.00  0.00    -0.299 OA
ENDROOT
BRANCH   1   3
ATOM      3  C   UNL     1      13.641  25.063  32.447  1.00  0.00     0.053 C 
ATOM      4  C   UNL     1      12.271  24.490  32.839  1.00  0.00     0.016 C 
BRANCH   3   5
ATOM      5  C   UNL     1      13.542  26.582  32.161  1.00  0.00     0.015 C 
BRANCH   5   6
ATOM      6  C   UNL     1      14.280  26.988  30.869  1.00  0.00     0.028 C 
BRANCH   6   7
ATOM      7  C   UNL     1      15.446  27.896  31.162  1.00  0.00    -0.028 C 
ATOM      8  C   UNL     1      16.740  27.499  31.207  1.00  0.00    -0.070 CG0
ATOM      9  C   UNL     1      17.784  28.526  31.567  1.00  0.00     0.039 C 
ATOM     10  G   UNL     1      17.180  26.072  30.912  1.00  0.00     0.000 G0
ENDBRANCH   6   7
ENDBRANCH   5   6
ENDBRANCH   3   5
ENDBRANCH   1   3
BRANCH   1  11
ATOM     11  C   UNL     1      15.679  23.668  33.375  1.00  0.00     0.087 C 
BRANCH  11  12
ATOM     12  C   UNL     1      16.599  23.811  32.129  1.00  0.00     0.066 C 
BRANCH  12  13
ATOM     13  C   UNL     1      17.269  25.178  32.115  1.00  0.00     0.140 C 
ATOM     14  O   UNL     1      17.917  25.547  33.086  1.00  0.00    -0.299 OA
BRANCH  13  15
ATOM     15  C   UNL     1      17.198  26.060  30.893  1.00  0.00     0.106 CG0
ATOM     16  G   UNL     1      16.741  27.473  31.228  1.00  0.00     0.000 G0
ENDBRANCH  13  15
ENDBRANCH  12  13
BRANCH  12  17
ATOM     17  C   UNL     1      17.646  22.660  31.955  1.00  0.00    -0.006 C 
ATOM     18  C   UNL     1      18.025  21.992  33.289  1.00  0.00     0.008 C 
ATOM     19  C   UNL     1      17.115  21.578  30.995  1.00  0.00     0.008 C 
ENDBRANCH  12  17
ENDBRANCH  11  12
ENDBRANCH   1  11
TORSDOF 1
ENDMDL
MODEL 2
REMARK VINA RESULT:    -3.466      2.252      4.509
REMARK INTER + INTRA:          -5.328
REMARK INTER:                  -4.939
REMARK INTRA:                  -0.389
REMARK UNBOUND:                -0.038
REMARK SMILES CC1=CCC[C@H](C)C(=O)C[C@H](C(C)C)C(=O)C1
REMARK SMILES IDX 8 1 9 2 6 3 7 4 5 5 4 6 3 7 2 8 1 9 10 11 11 12 15 13 16 14
REMARK SMILES IDX 17 15 12 17 13 18 14 19
REMARK H PARENT
REMARK Flexibility Score: 70.00
ROOT
ATOM      1  C   UNL     1      16.536  23.792  31.923  1.00  0.00     0.136 C 
ATOM      2  O   UNL     1      17.495  24.125  31.243  1.00  0.00    -0.299 OA
ENDROOT
BRANCH   1   3
ATOM      3  C   UNL     1      16.660  22.624  32.890  1.00  0.00     0.053 C 
ATOM      4  C   UNL     1      16.680  21.289  32.131  1.00  0.00     0.016 C 
BRANCH   3   5
ATOM      5  C   UNL     1      17.923  22.776  33.772  1.00  0.00     0.015 C 
BRANCH   5   6
ATOM      6  C   UNL     1      17.726  23.793  34.915  1.00  0.00     0.028 C 
BRANCH   6   7
ATOM      7  C   UNL     1      18.514  25.054  34.671  1.00  0.00    -0.028 C 
ATOM      8  C   UNL     1      17.971  26.289  34.542  1.00  0.00    -0.070 CG0
ATOM      9  C   UNL     1      18.897  27.442  34.249  1.00  0.00     0.039 C 
ATOM     10  G   UNL     1      16.478  26.557  34.682  1.00  0.00     0.000 G0
ENDBRANCH   6   7
ENDBRANCH   5   6
ENDBRANCH   3   5
ENDBRANCH   1   3
BRANCH   1  11
ATOM     11  C   UNL     1      15.242  24.565  31.802  1.00  0.00     0.087 C 
BRANCH  11  12
ATOM     12  C   UNL     1      14.804  25.279  33.112  1.00  0.00     0.066 C 
BRANCH  12  13
ATOM     13  C   UNL     1      15.697  26.480  33.389  1.00  0.00     0.140 C 
ATOM     14  O   UNL     1      15.750  27.397  32.580  1.00  0.00    -0.299 OA
BRANCH  13  15
ATOM     15  C   UNL     1      16.470  26.585  34.680  1.00  0.00     0.106 CG0
ATOM     16  G   UNL     1      17.949  26.274  34.493  1.00  0.00     0.000 G0
ENDBRANCH  13  15
ENDBRANCH  12  13
BRANCH  12  17
ATOM     17  C   UNL     1      13.288  25.670  33.167  1.00  0.00    -0.006 C 
ATOM     18  C   UNL     1      12.439  24.909  32.133  1.00  0.00     0.008 C 
ATOM     19  C   UNL     1      12.707  25.411  34.570  1.00  0.00     0.008 C 
ENDBRANCH  12  17
ENDBRANCH  11  12
ENDBRANCH   1  11
TORSDOF 1
ENDMDL
MODEL 3
REMARK VINA RESULT:    -3.019      5.858      8.257
REMARK INTER + INTRA:          -4.645
REMARK INTER:                  -4.690
REMARK INTRA:                   0.045
REMARK UNBOUND:                -0.038
REMARK SMILES CC1=CCC[C@H](C)C(=O)C[C@H](C(C)C)C(=O)C1
REMARK SMILES IDX 8 1 9 2 6 3 7 4 5 5 4 6 3 7 2 8 1 9 10 11 11 12 15 13 16 14
REMARK SMILES IDX 17 15 12 17 13 18 14 19
REMARK H PARENT
REMARK Flexibility Score: 70.00
ROOT
ATOM      1  C   UNL     1      14.357  26.394  25.065  1.00  0.00     0.136 C 
ATOM      2  O   UNL     1      13.485  25.688  24.581  1.00  0.00    -0.299 OA
ENDROOT
BRANCH   1   3
ATOM      3  C   UNL     1      15.673  25.775  25.513  1.00  0.00     0.053 C 
ATOM      4  C   UNL     1      16.817  26.794  25.406  1.00  0.00     0.016 C 
BRANCH   3   5
ATOM      5  C   UNL     1      15.558  25.225  26.955  1.00  0.00     0.015 C 
BRANCH   5   6
ATOM      6  C   UNL     1      15.396  26.346  28.003  1.00  0.00     0.028 C 
BRANCH   6   7
ATOM      7  C   UNL     1      14.057  26.268  28.690  1.00  0.00    -0.028 C 
ATOM      8  C   UNL     1      13.111  27.237  28.646  1.00  0.00    -0.070 CG0
ATOM      9  C   UNL     1      11.843  27.024  29.434  1.00  0.00     0.039 C 
ATOM     10  G   UNL     1      13.274  28.519  27.842  1.00  0.00     0.000 G0
ENDBRANCH   6   7
ENDBRANCH   5   6
ENDBRANCH   3   5
ENDBRANCH   1   3
BRANCH   1  11
ATOM     11  C   UNL     1      14.116  27.881  25.192  1.00  0.00     0.087 C 
BRANCH  11  12
ATOM     12  C   UNL     1      12.615  28.277  25.284  1.00  0.00     0.066 C 
BRANCH  12  13
ATOM     13  C   UNL     1      12.246  28.642  26.715  1.00  0.00     0.140 C 
ATOM     14  O   UNL     1      11.102  28.985  26.979  1.00  0.00    -0.299 OA
BRANCH  13  15
ATOM     15  C   UNL     1      13.260  28.525  27.826  1.00  0.00     0.106 CG0
ATOM     16  G   UNL     1      13.075  27.253  28.643  1.00  0.00     0.000 G0
ENDBRANCH  13  15
ENDBRANCH  12  13
BRANCH  12  17
ATOM     17  C   UNL     1      12.171  29.391  24.277  1.00  0.00    -0.006 C 
ATOM     18  C   UNL     1      12.977  30.693  24.436  1.00  0.00     0.008 C 
ATOM     19  C   UNL     1      12.307  28.900  22.823  1.00  0.00     0.008 C 
ENDBRANCH  12  17
ENDBRANCH  11  12
ENDBRANCH   1  11
TORSDOF 1
ENDMDL
MODEL 4
REMARK VINA RESULT:    -3.014      6.019      8.460
REMARK INTER + INTRA:          -4.638
REMARK INTER:                  -4.427
REMARK INTRA:                  -0.211
REMARK UNBOUND:                -0.038
REMARK SMILES CC1=CCC[C@H](C)C(=O)C[C@H](C(C)C)C(=O)C1
REMARK SMILES IDX 8 1 9 2 6 3 7 4 5 5 4 6 3 7 2 8 1 9 10 11 11 12 15 13 16 14
REMARK SMILES IDX 17 15 12 17 13 18 14 19
REMARK H PARENT
REMARK Flexibility Score: 70.00
ROOT
ATOM      1  C   UNL     1      11.708  26.973  29.293  1.00  0.00     0.136 C 
ATOM      2  O   UNL     1      11.696  25.910  29.895  1.00  0.00    -0.299 OA
ENDROOT
BRANCH   1   3
ATOM      3  C   UNL     1      13.029  27.568  28.829  1.00  0.00     0.053 C 
ATOM      4  C   UNL     1      14.197  27.012  29.657  1.00  0.00     0.016 C 
BRANCH   3   5
ATOM      5  C   UNL     1      13.249  27.306  27.320  1.00  0.00     0.015 C 
BRANCH   5   6
ATOM      6  C   UNL     1      13.307  28.609  26.496  1.00  0.00     0.028 C 
BRANCH   6   7
ATOM      7  C   UNL     1      12.424  28.530  25.278  1.00  0.00    -0.028 C 
ATOM      8  C   UNL     1      11.243  29.179  25.138  1.00  0.00    -0.070 CG0
ATOM      9  C   UNL     1      10.455  28.951  23.873  1.00  0.00     0.039 C 
ATOM     10  G   UNL     1      10.685  30.121  26.196  1.00  0.00     0.000 G0
ENDBRANCH   6   7
ENDBRANCH   5   6
ENDBRANCH   3   5
ENDBRANCH   1   3
BRANCH   1  11
ATOM     11  C   UNL     1      10.399  27.671  29.003  1.00  0.00     0.087 C 
BRANCH  11  12
ATOM     12  C   UNL     1      10.548  29.170  28.618  1.00  0.00     0.066 C 
BRANCH  12  13
ATOM     13  C   UNL     1       9.904  29.441  27.266  1.00  0.00     0.140 C 
ATOM     14  O   UNL     1       8.735  29.131  27.077  1.00  0.00    -0.299 OA
BRANCH  13  15
ATOM     15  C   UNL     1      10.669  30.145  26.173  1.00  0.00     0.106 CG0
ATOM     16  G   UNL     1      11.232  29.172  25.145  1.00  0.00     0.000 G0
ENDBRANCH  13  15
ENDBRANCH  12  13
BRANCH  12  17
ATOM     17  C   UNL     1      10.040  30.178  29.705  1.00  0.00    -0.006 C 
ATOM     18  C   UNL     1       9.364  29.477  30.897  1.00  0.00     0.008 C 
ATOM     19  C   UNL     1      11.200  31.043  30.233  1.00  0.00     0.008 C 
ENDBRANCH  12  17
ENDBRANCH  11  12
ENDBRANCH   1  11
TORSDOF 1
ENDMDL
MODEL 5
REMARK VINA RESULT:    -2.985      4.916      7.091
REMARK INTER + INTRA:          -4.593
REMARK INTER:                  -4.367
REMARK INTRA:                  -0.226
REMARK UNBOUND:                -0.038
REMARK SMILES CC1=CCC[C@H](C)C(=O)C[C@H](C(C)C)C(=O)C1
REMARK SMILES IDX 8 1 9 2 6 3 7 4 5 5 4 6 3 7 2 8 1 9 10 11 11 12 15 13 16 14
REMARK SMILES IDX 17 15 12 17 13 18 14 19
REMARK H PARENT
REMARK Flexibility Score: 70.00
ROOT
ATOM      1  C   UNL     1      12.846  28.391  25.749  1.00  0.00     0.136 C 
ATOM      2  O   UNL     1      12.073  29.204  25.264  1.00  0.00    -0.299 OA
ENDROOT
BRANCH   1   3
ATOM      3  C   UNL     1      13.217  27.138  24.969  1.00  0.00     0.053 C 
ATOM      4  C   UNL     1      12.589  27.164  23.568  1.00  0.00     0.016 C 
BRANCH   3   5
ATOM      5  C   UNL     1      14.755  26.983  24.882  1.00  0.00     0.015 C 
BRANCH   5   6
ATOM      6  C   UNL     1      15.274  25.785  25.703  1.00  0.00     0.028 C 
BRANCH   6   7
ATOM      7  C   UNL     1      16.303  26.217  26.716  1.00  0.00    -0.028 C 
ATOM      8  C   UNL     1      16.072  26.342  28.045  1.00  0.00    -0.070 CG0
ATOM      9  C   UNL     1      17.199  26.836  28.916  1.00  0.00     0.039 C 
ATOM     10  G   UNL     1      14.733  26.006  28.688  1.00  0.00     0.000 G0
ENDBRANCH   6   7
ENDBRANCH   5   6
ENDBRANCH   3   5
ENDBRANCH   1   3
BRANCH   1  11
ATOM     11  C   UNL     1      13.437  28.658  27.114  1.00  0.00     0.087 C 
BRANCH  11  12
ATOM     12  C   UNL     1      12.846  27.773  28.248  1.00  0.00     0.066 C 
BRANCH  12  13
ATOM     13  C   UNL     1      13.958  27.212  29.122  1.00  0.00     0.140 C 
ATOM     14  O   UNL     1      14.194  27.723  30.209  1.00  0.00    -0.299 OA
BRANCH  13  15
ATOM     15  C   UNL     1      14.735  25.991  28.694  1.00  0.00     0.106 CG0
ATOM     16  G   UNL     1      16.072  26.352  28.061  1.00  0.00     0.000 G0
ENDBRANCH  13  15
ENDBRANCH  12  13
BRANCH  12  17
ATOM     17  C   UNL     1      11.738  28.469  29.110  1.00  0.00    -0.006 C 
ATOM     18  C   UNL     1      11.688  29.993  28.897  1.00  0.00     0.008 C 
ATOM     19  C   UNL     1      10.350  27.881  28.794  1.00  0.00     0.008 C 
ENDBRANCH  12  17
ENDBRANCH  11  12
ENDBRANCH   1  11
TORSDOF 1
ENDMDL
MODEL 6
REMARK VINA RESULT:    -2.983      2.087      3.777
REMARK INTER + INTRA:          -4.590
REMARK INTER:                  -4.177
REMARK INTRA:                  -0.413
REMARK UNBOUND:                -0.038
REMARK SMILES CC1=CCC[C@H](C)C(=O)C[C@H](C(C)C)C(=O)C1
REMARK SMILES IDX 8 1 9 2 6 3 7 4 5 5 4 6 3 7 2 8 1 9 10 11 11 12 15 13 16 14
REMARK SMILES IDX 17 15 12 17 13 18 14 19
REMARK H PARENT
REMARK Flexibility Score: 70.00
ROOT
ATOM      1  C   UNL     1      16.253  25.813  30.124  1.00  0.00     0.136 C 
ATOM      2  O   UNL     1      15.903  25.878  28.956  1.00  0.00    -0.299 OA
ENDROOT
BRANCH   1   3
ATOM      3  C   UNL     1      17.392  26.688  30.626  1.00  0.00     0.053 C 
ATOM      4  C   UNL     1      18.526  26.749  29.592  1.00  0.00     0.016 C 
BRANCH   3   5
ATOM      5  C   UNL     1      16.882  28.108  30.969  1.00  0.00     0.015 C 
BRANCH   5   6
ATOM      6  C   UNL     1      17.015  28.436  32.471  1.00  0.00     0.028 C 
BRANCH   6   7
ATOM      7  C   UNL     1      15.666  28.551  33.132  1.00  0.00    -0.028 C 
ATOM      8  C   UNL     1      15.130  27.620  33.958  1.00  0.00    -0.070 CG0
ATOM      9  C   UNL     1      13.743  27.866  34.496  1.00  0.00     0.039 C 
ATOM     10  G   UNL     1      15.865  26.350  34.362  1.00  0.00     0.000 G0
ENDBRANCH   6   7
ENDBRANCH   5   6
ENDBRANCH   3   5
ENDBRANCH   1   3
BRANCH   1  11
ATOM     11  C   UNL     1      15.530  24.870  31.059  1.00  0.00     0.087 C 
BRANCH  11  12
ATOM     12  C   UNL     1      16.263  24.626  32.409  1.00  0.00     0.066 C 
BRANCH  12  13
ATOM     13  C   UNL     1      15.420  25.127  33.573  1.00  0.00     0.140 C 
ATOM     14  O   UNL     1      14.402  24.526  33.889  1.00  0.00    -0.299 OA
BRANCH  13  15
ATOM     15  C   UNL     1      15.857  26.322  34.383  1.00  0.00     0.106 CG0
ATOM     16  G   UNL     1      15.146  27.599  33.957  1.00  0.00     0.000 G0
ENDBRANCH  13  15
ENDBRANCH  12  13
BRANCH  12  17
ATOM     17  C   UNL     1      16.732  23.149  32.638  1.00  0.00    -0.006 C 
ATOM     18  C   UNL     1      17.395  22.534  31.393  1.00  0.00     0.008 C 
ATOM     19  C   UNL     1      17.723  23.067  33.816  1.00  0.00     0.008 C 
ENDBRANCH  12  17
ENDBRANCH  11  12
ENDBRANCH   1  11
TORSDOF 1
ENDMDL
MODEL 7
REMARK VINA RESULT:    -2.979      1.742      4.220
REMARK INTER + INTRA:          -4.584
REMARK INTER:                  -4.548
REMARK INTRA:                  -0.037
REMARK UNBOUND:                -0.038
REMARK SMILES CC1=CCC[C@H](C)C(=O)C[C@H](C(C)C)C(=O)C1
REMARK SMILES IDX 8 1 9 2 6 3 7 4 5 5 4 6 3 7 2 8 1 9 10 11 11 12 15 13 16 14
REMARK SMILES IDX 17 15 12 17 13 18 14 19
REMARK H PARENT
REMARK Flexibility Score: 70.00
ROOT
ATOM      1  C   UNL     1      15.441  24.498  33.426  1.00  0.00     0.136 C 
ATOM      2  O   UNL     1      15.432  24.749  34.622  1.00  0.00    -0.299 OA
ENDROOT
BRANCH   1   3
ATOM      3  C   UNL     1      16.650  23.815  32.804  1.00  0.00     0.053 C 
ATOM      4  C   UNL     1      16.499  22.288  32.856  1.00  0.00     0.016 C 
BRANCH   3   5
ATOM      5  C   UNL     1      16.864  24.299  31.349  1.00  0.00     0.015 C 
BRANCH   5   6
ATOM      6  C   UNL     1      17.275  25.784  31.276  1.00  0.00     0.028 C 
BRANCH   6   7
ATOM      7  C   UNL     1      16.857  26.408  29.969  1.00  0.00    -0.028 C 
ATOM      8  C   UNL     1      15.861  27.317  29.833  1.00  0.00    -0.070 CG0
ATOM      9  C   UNL     1      15.533  27.805  28.445  1.00  0.00     0.039 C 
ATOM     10  G   UNL     1      15.069  27.862  31.014  1.00  0.00     0.000 G0
ENDBRANCH   6   7
ENDBRANCH   5   6
ENDBRANCH   3   5
ENDBRANCH   1   3
BRANCH   1  11
ATOM     11  C   UNL     1      14.235  24.854  32.588  1.00  0.00     0.087 C 
BRANCH  11  12
ATOM     12  C   UNL     1      13.782  26.336  32.723  1.00  0.00     0.066 C 
BRANCH  12  13
ATOM     13  C   UNL     1      13.862  27.042  31.377  1.00  0.00     0.140 C 
ATOM     14  O   UNL     1      12.920  26.976  30.599  1.00  0.00    -0.299 OA
BRANCH  13  15
ATOM     15  C   UNL     1      15.065  27.878  31.016  1.00  0.00     0.106 CG0
ATOM     16  G   UNL     1      15.839  27.296  29.842  1.00  0.00     0.000 G0
ENDBRANCH  13  15
ENDBRANCH  12  13
BRANCH  12  17
ATOM     17  C   UNL     1      12.377  26.531  33.388  1.00  0.00    -0.006 C 
ATOM     18  C   UNL     1      12.000  25.377  34.334  1.00  0.00     0.008 C 
ATOM     19  C   UNL     1      12.325  27.853  34.177  1.00  0.00     0.008 C 
ENDBRANCH  12  17
ENDBRANCH  11  12
ENDBRANCH   1  11
TORSDOF 1
ENDMDL
MODEL 8
REMARK VINA RESULT:    -2.843      2.654      4.888
REMARK INTER + INTRA:          -4.377
REMARK INTER:                  -3.875
REMARK INTRA:                  -0.502
REMARK UNBOUND:                -0.038
REMARK SMILES CC1=CCC[C@H](C)C(=O)C[C@H](C(C)C)C(=O)C1
REMARK SMILES IDX 8 1 9 2 6 3 7 4 5 5 4 6 3 7 2 8 1 9 10 11 11 12 15 13 16 14
REMARK SMILES IDX 17 15 12 17 13 18 14 19
REMARK H PARENT
REMARK Flexibility Score: 70.00
ROOT
ATOM      1  C   UNL     1      11.974  25.264  31.612  1.00  0.00     0.136 C 
ATOM      2  O   UNL     1      11.331  24.248  31.828  1.00  0.00    -0.299 OA
ENDROOT
BRANCH   1   3
ATOM      3  C   UNL     1      12.688  25.967  32.757  1.00  0.00     0.053 C 
ATOM      4  C   UNL     1      11.677  26.521  33.771  1.00  0.00     0.016 C 
BRANCH   3   5
ATOM      5  C   UNL     1      13.693  25.012  33.445  1.00  0.00     0.015 C 
BRANCH   5   6
ATOM      6  C   UNL     1      14.829  24.569  32.501  1.00  0.00     0.028 C 
BRANCH   6   7
ATOM      7  C   UNL     1      15.763  25.711  32.190  1.00  0.00    -0.028 C 
ATOM      8  C   UNL     1      15.957  26.234  30.955  1.00  0.00    -0.070 CG0
ATOM      9  C   UNL     1      16.968  27.343  30.807  1.00  0.00     0.039 C 
ATOM     10  G   UNL     1      15.202  25.753  29.724  1.00  0.00     0.000 G0
ENDBRANCH   6   7
ENDBRANCH   5   6
ENDBRANCH   3   5
ENDBRANCH   1   3
BRANCH   1  11
ATOM     11  C   UNL     1      12.064  25.795  30.199  1.00  0.00     0.087 C 
BRANCH  11  12
ATOM     12  C   UNL     1      12.937  27.074  30.054  1.00  0.00     0.066 C 
BRANCH  12  13
ATOM     13  C   UNL     1      14.182  26.779  29.230  1.00  0.00     0.140 C 
ATOM     14  O   UNL     1      14.390  27.405  28.198  1.00  0.00    -0.299 OA
BRANCH  13  15
ATOM     15  C   UNL     1      15.197  25.768  29.701  1.00  0.00     0.106 CG0
ATOM     16  G   UNL     1      15.948  26.240  30.938  1.00  0.00     0.000 G0
ENDBRANCH  13  15
ENDBRANCH  12  13
BRANCH  12  17
ATOM     17  C   UNL     1      12.172  28.327  29.508  1.00  0.00    -0.006 C 
ATOM     18  C   UNL     1      10.748  27.994  29.028  1.00  0.00     0.008 C 
ATOM     19  C   UNL     1      12.087  29.427  30.583  1.00  0.00     0.008 C 
ENDBRANCH  12  17
ENDBRANCH  11  12
ENDBRANCH   1  11
TORSDOF 1
ENDMDL
MODEL 9
REMARK VINA RESULT:    -2.746      4.467      6.370
REMARK INTER + INTRA:          -4.229
REMARK INTER:                  -4.096
REMARK INTRA:                  -0.133
REMARK UNBOUND:                -0.038
REMARK SMILES CC1=CCC[C@H](C)C(=O)C[C@H](C(C)C)C(=O)C1
REMARK SMILES IDX 8 1 9 2 6 3 7 4 5 5 4 6 3 7 2 8 1 9 10 11 11 12 15 13 16 14
REMARK SMILES IDX 17 15 12 17 13 18 14 19
REMARK H PARENT
REMARK Flexibility Score: 70.00
ROOT
ATOM      1  C   UNL     1      16.194  26.741  25.688  1.00  0.00     0.136 C 
ATOM      2  O   UNL     1      17.258  27.049  25.173  1.00  0.00    -0.299 OA
ENDROOT
BRANCH   1   3
ATOM      3  C   UNL     1      14.895  26.931  24.919  1.00  0.00     0.053 C 
ATOM      4  C   UNL     1      13.994  25.696  25.060  1.00  0.00     0.016 C 
BRANCH   3   5
ATOM      5  C   UNL     1      14.159  28.207  25.395  1.00  0.00     0.015 C 
BRANCH   5   6
ATOM      6  C   UNL     1      12.735  27.910  25.908  1.00  0.00     0.028 C 
BRANCH   6   7
ATOM      7  C   UNL     1      12.483  28.562  27.243  1.00  0.00    -0.028 C 
ATOM      8  C   UNL     1      12.646  27.953  28.442  1.00  0.00    -0.070 CG0
ATOM      9  C   UNL     1      12.300  28.732  29.685  1.00  0.00     0.039 C 
ATOM     10  G   UNL     1      13.160  26.526  28.583  1.00  0.00     0.000 G0
ENDBRANCH   6   7
ENDBRANCH   5   6
ENDBRANCH   3   5
ENDBRANCH   1   3
BRANCH   1  11
ATOM     11  C   UNL     1      16.192  26.155  27.082  1.00  0.00     0.087 C 
BRANCH  11  12
ATOM     12  C   UNL     1      15.693  27.133  28.183  1.00  0.00     0.066 C 
BRANCH  12  13
ATOM     13  C   UNL     1      14.610  26.478  29.028  1.00  0.00     0.140 C 
ATOM     14  O   UNL     1      14.904  25.959  30.097  1.00  0.00    -0.299 OA
BRANCH  13  15
ATOM     15  C   UNL     1      13.165  26.515  28.595  1.00  0.00     0.106 CG0
ATOM     16  G   UNL     1      12.641  27.938  28.460  1.00  0.00     0.000 G0
ENDBRANCH  13  15
ENDBRANCH  12  13
BRANCH  12  17
ATOM     17  C   UNL     1      16.826  27.742  29.077  1.00  0.00    -0.006 C 
ATOM     18  C   UNL     1      18.160  26.986  28.945  1.00  0.00     0.008 C 
ATOM     19  C   UNL     1      17.062  29.224  28.728  1.00  0.00     0.008 C 
ENDBRANCH  12  17
ENDBRANCH  11  12
ENDBRANCH   1  11
TORSDOF 1
ENDMDL
