MODEL 1
REMARK VINA RESULT:    -4.145      0.000      0.000
REMARK INTER + INTRA:          -5.634
REMARK INTER:                  -5.114
REMARK INTRA:                  -0.520
REMARK UNBOUND:                -0.520
REMARK SMILES C=CC(=C)CCC=C(C)C
REMARK SMILES IDX 5 1 6 2 7 3 9 4 8 5 10 6 3 7 4 8 2 9 1 10
REMARK H PARENT
REMARK Flexibility Score: inf
ROOT
ATOM      1  C   UNL     1      30.815   7.372  34.084  1.00  0.00     0.039 C 
ENDROOT
BRANCH   1   2
ATOM      2  C   UNL     1      31.987   7.516  33.107  1.00  0.00     0.032 C 
BRANCH   2   3
ATOM      3  C   UNL     1      31.635   8.431  31.960  1.00  0.00    -0.028 C 
ATOM      4  C   UNL     1      31.702  10.517  30.660  1.00  0.00     0.039 C 
ATOM      5  C   UNL     1      32.117   9.686  31.846  1.00  0.00    -0.080 C 
ATOM      6  C   UNL     1      33.058  10.270  32.875  1.00  0.00     0.039 C 
ENDBRANCH   2   3
ENDBRANCH   1   2
BRANCH   1   7
ATOM      7  C   UNL     1      31.216   7.809  35.476  1.00  0.00    -0.055 C 
ATOM      8  C   UNL     1      31.579   6.882  36.370  1.00  0.00     0.012 C 
BRANCH   7   9
ATOM      9  C   UNL     1      31.174   9.232  35.903  1.00  0.00    -0.005 C 
ATOM     10  C   UNL     1      31.532   9.657  37.116  1.00  0.00     0.009 C 
ENDBRANCH   7   9
ENDBRANCH   1   7
TORSDOF 4
ENDMDL
MODEL 2
REMARK VINA RESULT:    -4.127      0.822      4.124
REMARK INTER + INTRA:          -5.612
REMARK INTER:                  -4.695
REMARK INTRA:                  -0.917
REMARK UNBOUND:                -0.520
REMARK SMILES C=CC(=C)CCC=C(C)C
REMARK SMILES IDX 5 1 6 2 7 3 9 4 8 5 10 6 3 7 4 8 2 9 1 10
REMARK H PARENT
REMARK Flexibility Score: inf
ROOT
ATOM      1  C   UNL     1      32.203   7.655  32.986  1.00  0.00     0.039 C 
ENDROOT
BRANCH   1   2
ATOM      2  C   UNL     1      31.047   7.383  33.956  1.00  0.00     0.032 C 
BRANCH   2   3
ATOM      3  C   UNL     1      31.385   7.842  35.353  1.00  0.00    -0.028 C 
ATOM      4  C   UNL     1      31.207   9.276  37.343  1.00  0.00     0.039 C 
ATOM      5  C   UNL     1      30.795   8.903  35.942  1.00  0.00    -0.080 C 
ATOM      6  C   UNL     1      29.739   9.717  35.232  1.00  0.00     0.039 C 
ENDBRANCH   2   3
ENDBRANCH   1   2
BRANCH   1   7
ATOM      7  C   UNL     1      32.137   9.069  32.453  1.00  0.00    -0.055 C 
ATOM      8  C   UNL     1      31.197   9.384  31.554  1.00  0.00     0.012 C 
BRANCH   7   9
ATOM      9  C   UNL     1      33.114  10.115  32.857  1.00  0.00    -0.005 C 
ATOM     10  C   UNL     1      32.815  11.148  33.646  1.00  0.00     0.009 C 
ENDBRANCH   7   9
ENDBRANCH   1   7
TORSDOF 4
ENDMDL
MODEL 3
REMARK VINA RESULT:    -4.107      1.094      4.744
REMARK INTER + INTRA:          -5.587
REMARK INTER:                  -5.104
REMARK INTRA:                  -0.483
REMARK UNBOUND:                -0.520
REMARK SMILES C=CC(=C)CCC=C(C)C
REMARK SMILES IDX 5 1 6 2 7 3 9 4 8 5 10 6 3 7 4 8 2 9 1 10
REMARK H PARENT
REMARK Flexibility Score: inf
ROOT
ATOM      1  C   UNL     1      32.745   9.324  32.592  1.00  0.00     0.039 C 
ENDROOT
BRANCH   1   2
ATOM      2  C   UNL     1      31.377   8.882  33.124  1.00  0.00     0.032 C 
BRANCH   2   3
ATOM      3  C   UNL     1      31.513   7.745  34.108  1.00  0.00    -0.028 C 
ATOM      4  C   UNL     1      31.429   6.679  36.322  1.00  0.00     0.039 C 
ATOM      5  C   UNL     1      31.263   7.879  35.427  1.00  0.00    -0.080 C 
ATOM      6  C   UNL     1      30.821   9.197  36.018  1.00  0.00     0.039 C 
ENDBRANCH   2   3
ENDBRANCH   1   2
BRANCH   1   7
ATOM      7  C   UNL     1      32.896  10.826  32.676  1.00  0.00    -0.055 C 
ATOM      8  C   UNL     1      32.778  11.427  33.866  1.00  0.00     0.012 C 
BRANCH   7   9
ATOM      9  C   UNL     1      33.124  11.669  31.473  1.00  0.00    -0.005 C 
ATOM     10  C   UNL     1      32.531  11.463  30.296  1.00  0.00     0.009 C 
ENDBRANCH   7   9
ENDBRANCH   1   7
TORSDOF 4
ENDMDL
MODEL 4
REMARK VINA RESULT:    -3.972      1.298      4.405
REMARK INTER + INTRA:          -5.421
REMARK INTER:                  -4.547
REMARK INTRA:                  -0.874
REMARK UNBOUND:                -0.520
REMARK SMILES C=CC(=C)CCC=C(C)C
REMARK SMILES IDX 5 1 6 2 7 3 9 4 8 5 10 6 3 7 4 8 2 9 1 10
REMARK H PARENT
REMARK Flexibility Score: inf
ROOT
ATOM      1  C   UNL     1      33.125  10.403  32.723  1.00  0.00     0.039 C 
ENDROOT
BRANCH   1   2
ATOM      2  C   UNL     1      32.370  11.327  33.685  1.00  0.00     0.032 C 
BRANCH   2   3
ATOM      3  C   UNL     1      32.352  10.762  35.085  1.00  0.00    -0.028 C 
ATOM      4  C   UNL     1      31.313   9.827  37.108  1.00  0.00     0.039 C 
ATOM      5  C   UNL     1      31.219  10.379  35.709  1.00  0.00    -0.080 C 
ATOM      6  C   UNL     1      29.870  10.489  35.038  1.00  0.00     0.039 C 
ENDBRANCH   2   3
ENDBRANCH   1   2
BRANCH   1   7
ATOM      7  C   UNL     1      32.263   9.228  32.316  1.00  0.00    -0.055 C 
ATOM      8  C   UNL     1      31.344   9.396  31.358  1.00  0.00     0.012 C 
BRANCH   7   9
ATOM      9  C   UNL     1      32.367   7.901  32.979  1.00  0.00    -0.005 C 
ATOM     10  C   UNL     1      31.376   7.331  33.664  1.00  0.00     0.009 C 
ENDBRANCH   7   9
ENDBRANCH   1   7
TORSDOF 4
ENDMDL
MODEL 5
REMARK VINA RESULT:    -3.918      0.775      4.423
REMARK INTER + INTRA:          -5.354
REMARK INTER:                  -4.811
REMARK INTRA:                  -0.543
REMARK UNBOUND:                -0.520
REMARK SMILES C=CC(=C)CCC=C(C)C
REMARK SMILES IDX 5 1 6 2 7 3 9 4 8 5 10 6 3 7 4 8 2 9 1 10
REMARK H PARENT
REMARK Flexibility Score: inf
ROOT
ATOM      1  C   UNL     1      31.711   8.025  32.555  1.00  0.00     0.039 C 
ENDROOT
BRANCH   1   2
ATOM      2  C   UNL     1      30.488   8.108  33.476  1.00  0.00     0.032 C 
BRANCH   2   3
ATOM      3  C   UNL     1      30.562   7.079  34.578  1.00  0.00    -0.028 C 
ATOM      4  C   UNL     1      30.943   6.281  36.872  1.00  0.00     0.039 C 
ATOM      5  C   UNL     1      30.900   7.385  35.848  1.00  0.00    -0.080 C 
ATOM      6  C   UNL     1      31.232   8.800  36.260  1.00  0.00     0.039 C 
ENDBRANCH   2   3
ENDBRANCH   1   2
BRANCH   1   7
ATOM      7  C   UNL     1      32.154   9.404  32.122  1.00  0.00    -0.055 C 
ATOM      8  C   UNL     1      31.693   9.905  30.970  1.00  0.00     0.012 C 
BRANCH   7   9
ATOM      9  C   UNL     1      33.125  10.209  32.910  1.00  0.00    -0.005 C 
ATOM     10  C   UNL     1      32.784  11.245  33.678  1.00  0.00     0.009 C 
ENDBRANCH   7   9
ENDBRANCH   1   7
TORSDOF 4
ENDMDL
MODEL 6
REMARK VINA RESULT:    -3.880      0.981      2.072
REMARK INTER + INTRA:          -5.307
REMARK INTER:                  -4.954
REMARK INTRA:                  -0.353
REMARK UNBOUND:                -0.520
REMARK SMILES C=CC(=C)CCC=C(C)C
REMARK SMILES IDX 5 1 6 2 7 3 9 4 8 5 10 6 3 7 4 8 2 9 1 10
REMARK H PARENT
REMARK Flexibility Score: inf
ROOT
ATOM      1  C   UNL     1      30.786   8.506  33.951  1.00  0.00     0.039 C 
ENDROOT
BRANCH   1   2
ATOM      2  C   UNL     1      32.007   8.373  33.033  1.00  0.00     0.032 C 
BRANCH   2   3
ATOM      3  C   UNL     1      32.638   9.717  32.763  1.00  0.00    -0.028 C 
ATOM      4  C   UNL     1      33.100  11.752  31.462  1.00  0.00     0.039 C 
ATOM      5  C   UNL     1      32.419  10.418  31.631  1.00  0.00    -0.080 C 
ATOM      6  C   UNL     1      31.513   9.898  30.540  1.00  0.00     0.039 C 
ENDBRANCH   2   3
ENDBRANCH   1   2
BRANCH   1   7
ATOM      7  C   UNL     1      31.176   8.304  35.399  1.00  0.00    -0.055 C 
ATOM      8  C   UNL     1      31.223   9.364  36.214  1.00  0.00     0.012 C 
BRANCH   7   9
ATOM      9  C   UNL     1      31.557   6.973  35.940  1.00  0.00    -0.005 C 
ATOM     10  C   UNL     1      30.726   6.178  36.615  1.00  0.00     0.009 C 
ENDBRANCH   7   9
ENDBRANCH   1   7
TORSDOF 4
ENDMDL
MODEL 7
REMARK VINA RESULT:    -3.758      1.678      3.106
REMARK INTER + INTRA:          -5.157
REMARK INTER:                  -4.224
REMARK INTRA:                  -0.933
REMARK UNBOUND:                -0.520
REMARK SMILES C=CC(=C)CCC=C(C)C
REMARK SMILES IDX 5 1 6 2 7 3 9 4 8 5 10 6 3 7 4 8 2 9 1 10
REMARK H PARENT
REMARK Flexibility Score: inf
ROOT
ATOM      1  C   UNL     1      32.180  11.502  33.632  1.00  0.00     0.039 C 
ENDROOT
BRANCH   1   2
ATOM      2  C   UNL     1      32.938  10.341  32.978  1.00  0.00     0.032 C 
BRANCH   2   3
ATOM      3  C   UNL     1      32.088   9.647  31.941  1.00  0.00    -0.028 C 
ATOM      4  C   UNL     1      30.804   7.782  30.983  1.00  0.00     0.039 C 
ATOM      5  C   UNL     1      31.648   8.379  32.079  1.00  0.00    -0.080 C 
ATOM      6  C   UNL     1      31.980   7.555  33.301  1.00  0.00     0.039 C 
ENDBRANCH   2   3
ENDBRANCH   1   2
BRANCH   1   7
ATOM      7  C   UNL     1      31.215  10.993  34.680  1.00  0.00    -0.055 C 
ATOM      8  C   UNL     1      31.700  10.397  35.776  1.00  0.00     0.012 C 
BRANCH   7   9
ATOM      9  C   UNL     1      29.741  11.089  34.515  1.00  0.00    -0.005 C 
ATOM     10  C   UNL     1      28.994  10.146  33.938  1.00  0.00     0.009 C 
ENDBRANCH   7   9
ENDBRANCH   1   7
TORSDOF 4
ENDMDL
