MODEL 1
REMARK VINA RESULT:    -5.199      0.000      0.000
REMARK INTER + INTRA:          -5.351
REMARK INTER:                  -5.351
REMARK INTRA:                   0.000
REMARK UNBOUND:                 0.000
REMARK SMILES O=c1ccc2cc(O)ccc2o1
REMARK SMILES IDX 9 1 10 2 11 3 5 4 4 5 3 6 2 7 1 8 12 9 6 10 7 11 8 12
REMARK H PARENT 8 13
REMARK Flexibility Score: inf
ROOT
ATOM      1  C   UNL     1      21.892   1.215 -23.125  1.00  0.00     0.050 A 
ATOM      2  C   UNL     1      21.496  -0.059 -22.703  1.00  0.00     0.052 A 
ATOM      3  C   UNL     1      21.071  -0.262 -21.386  1.00  0.00     0.138 A 
ATOM      4  C   UNL     1      21.044   0.825 -20.484  1.00  0.00     0.021 A 
ATOM      5  C   UNL     1      20.615   0.591 -19.173  1.00  0.00     0.019 A 
ATOM      6  C   UNL     1      20.230  -0.695 -18.798  1.00  0.00     0.094 A 
ATOM      7  C   UNL     1      20.282  -1.722 -19.746  1.00  0.00     0.336 A 
ATOM      8  O   UNL     1      19.938  -2.891 -19.427  1.00  0.00    -0.246 OA
ATOM      9  O   UNL     1      20.695  -1.474 -20.987  1.00  0.00    -0.423 OA
ATOM     10  C   UNL     1      21.442   2.100 -20.910  1.00  0.00     0.058 A 
ATOM     11  C   UNL     1      21.866   2.296 -22.230  1.00  0.00     0.116 A 
ENDROOT
BRANCH  11  12
ATOM     12  O   UNL     1      22.259   3.566 -22.642  1.00  0.00    -0.508 OA
ATOM     13  H   UNL     1      21.643   4.367 -22.554  1.00  0.00     0.293 HD
ENDBRANCH  11  12
TORSDOF 1
ENDMDL
MODEL 2
REMARK VINA RESULT:    -5.171      2.116      3.166
REMARK INTER + INTRA:          -5.323
REMARK INTER:                  -5.323
REMARK INTRA:                   0.000
REMARK UNBOUND:                 0.000
REMARK SMILES O=c1ccc2cc(O)ccc2o1
REMARK SMILES IDX 9 1 10 2 11 3 5 4 4 5 3 6 2 7 1 8 12 9 6 10 7 11 8 12
REMARK H PARENT 8 13
REMARK Flexibility Score: inf
ROOT
ATOM      1  C   UNL     1      21.501   0.809 -21.262  1.00  0.00     0.050 A 
ATOM      2  C   UNL     1      21.122   1.133 -19.955  1.00  0.00     0.052 A 
ATOM      3  C   UNL     1      20.366   0.231 -19.200  1.00  0.00     0.138 A 
ATOM      4  C   UNL     1      19.986  -1.008 -19.762  1.00  0.00     0.021 A 
ATOM      5  C   UNL     1      19.229  -1.890 -18.983  1.00  0.00     0.019 A 
ATOM      6  C   UNL     1      18.875  -1.524 -17.685  1.00  0.00     0.094 A 
ATOM      7  C   UNL     1      19.288  -0.281 -17.194  1.00  0.00     0.336 A 
ATOM      8  O   UNL     1      18.978   0.068 -16.025  1.00  0.00    -0.246 OA
ATOM      9  O   UNL     1      20.007   0.540 -17.956  1.00  0.00    -0.423 OA
ATOM     10  C   UNL     1      20.367  -1.328 -21.073  1.00  0.00     0.058 A 
ATOM     11  C   UNL     1      21.125  -0.421 -21.823  1.00  0.00     0.116 A 
ENDROOT
BRANCH  11  12
ATOM     12  O   UNL     1      21.497  -0.749 -23.124  1.00  0.00    -0.508 OA
ATOM     13  H   UNL     1      21.387  -1.691 -23.485  1.00  0.00     0.293 HD
ENDBRANCH  11  12
TORSDOF 1
ENDMDL
MODEL 3
REMARK VINA RESULT:    -5.009     19.500     21.128
REMARK INTER + INTRA:          -5.156
REMARK INTER:                  -5.156
REMARK INTRA:                   0.000
REMARK UNBOUND:                 0.000
REMARK SMILES O=c1ccc2cc(O)ccc2o1
REMARK SMILES IDX 9 1 10 2 11 3 5 4 4 5 3 6 2 7 1 8 12 9 6 10 7 11 8 12
REMARK H PARENT 8 13
REMARK Flexibility Score: inf
ROOT
ATOM      1  C   UNL     1       4.457   3.739  -6.890  1.00  0.00     0.050 A 
ATOM      2  C   UNL     1       3.880   4.844  -7.525  1.00  0.00     0.052 A 
ATOM      3  C   UNL     1       4.525   5.446  -8.610  1.00  0.00     0.138 A 
ATOM      4  C   UNL     1       5.761   4.934  -9.063  1.00  0.00     0.021 A 
ATOM      5  C   UNL     1       6.383   5.557 -10.150  1.00  0.00     0.019 A 
ATOM      6  C   UNL     1       5.770   6.656 -10.750  1.00  0.00     0.094 A 
ATOM      7  C   UNL     1       4.545   7.107 -10.249  1.00  0.00     0.336 A 
ATOM      8  O   UNL     1       3.976   8.098 -10.777  1.00  0.00    -0.246 OA
ATOM      9  O   UNL     1       3.974   6.497  -9.212  1.00  0.00    -0.423 OA
ATOM     10  C   UNL     1       6.336   3.826  -8.423  1.00  0.00     0.058 A 
ATOM     11  C   UNL     1       5.685   3.228  -7.338  1.00  0.00     0.116 A 
ENDROOT
BRANCH  11  12
ATOM     12  O   UNL     1       6.266   2.129  -6.711  1.00  0.00    -0.508 OA
ATOM     13  H   UNL     1       7.270   1.983  -6.719  1.00  0.00     0.293 HD
ENDBRANCH  11  12
TORSDOF 1
ENDMDL
MODEL 4
REMARK VINA RESULT:    -5.004      1.197      4.766
REMARK INTER + INTRA:          -5.150
REMARK INTER:                  -5.150
REMARK INTRA:                   0.000
REMARK UNBOUND:                 0.000
REMARK SMILES O=c1ccc2cc(O)ccc2o1
REMARK SMILES IDX 9 1 10 2 11 3 5 4 4 5 3 6 2 7 1 8 12 9 6 10 7 11 8 12
REMARK H PARENT 8 13
REMARK Flexibility Score: inf
ROOT
ATOM      1  C   UNL     1      19.722  -0.407 -18.601  1.00  0.00     0.050 A 
ATOM      2  C   UNL     1      20.267   0.718 -19.230  1.00  0.00     0.052 A 
ATOM      3  C   UNL     1      20.743   0.627 -20.541  1.00  0.00     0.138 A 
ATOM      4  C   UNL     1      20.673  -0.606 -21.229  1.00  0.00     0.021 A 
ATOM      5  C   UNL     1      21.158  -0.666 -22.539  1.00  0.00     0.019 A 
ATOM      6  C   UNL     1      21.692   0.480 -23.125  1.00  0.00     0.094 A 
ATOM      7  C   UNL     1      21.728   1.667 -22.384  1.00  0.00     0.336 A 
ATOM      8  O   UNL     1      22.205   2.713 -22.896  1.00  0.00    -0.246 OA
ATOM      9  O   UNL     1      21.260   1.698 -21.138  1.00  0.00    -0.423 OA
ATOM     10  C   UNL     1      20.128  -1.731 -20.594  1.00  0.00     0.058 A 
ATOM     11  C   UNL     1      19.652  -1.633 -19.281  1.00  0.00     0.116 A 
ENDROOT
BRANCH  11  12
ATOM     12  O   UNL     1      19.113  -2.757 -18.661  1.00  0.00    -0.508 OA
ATOM     13  H   UNL     1      18.481  -3.381 -19.151  1.00  0.00     0.293 HD
ENDBRANCH  11  12
TORSDOF 1
ENDMDL
MODEL 5
REMARK VINA RESULT:    -4.976     17.107     19.509
REMARK INTER + INTRA:          -5.121
REMARK INTER:                  -5.121
REMARK INTRA:                   0.000
REMARK UNBOUND:                 0.000
REMARK SMILES O=c1ccc2cc(O)ccc2o1
REMARK SMILES IDX 9 1 10 2 11 3 5 4 4 5 3 6 2 7 1 8 12 9 6 10 7 11 8 12
REMARK H PARENT 8 13
REMARK Flexibility Score: inf
ROOT
ATOM      1  C   UNL     1       7.799  -7.411  -5.851  1.00  0.00     0.050 A 
ATOM      2  C   UNL     1       8.392  -8.301  -6.753  1.00  0.00     0.052 A 
ATOM      3  C   UNL     1       9.414  -7.865  -7.601  1.00  0.00     0.138 A 
ATOM      4  C   UNL     1       9.845  -6.521  -7.545  1.00  0.00     0.021 A 
ATOM      5  C   UNL     1      10.869  -6.113  -8.406  1.00  0.00     0.019 A 
ATOM      6  C   UNL     1      11.430  -7.036  -9.288  1.00  0.00     0.094 A 
ATOM      7  C   UNL     1      10.953  -8.351  -9.287  1.00  0.00     0.336 A 
ATOM      8  O   UNL     1      11.447  -9.200 -10.075  1.00  0.00    -0.246 OA
ATOM      9  O   UNL     1       9.977  -8.714  -8.458  1.00  0.00    -0.423 OA
ATOM     10  C   UNL     1       9.248  -5.631  -6.641  1.00  0.00     0.058 A 
ATOM     11  C   UNL     1       8.225  -6.075  -5.794  1.00  0.00     0.116 A 
ENDROOT
BRANCH  11  12
ATOM     12  O   UNL     1       7.639  -5.182  -4.900  1.00  0.00    -0.508 OA
ATOM     13  H   UNL     1       6.892  -4.559  -5.187  1.00  0.00     0.293 HD
ENDBRANCH  11  12
TORSDOF 1
ENDMDL
MODEL 6
REMARK VINA RESULT:    -4.847      1.768      4.439
REMARK INTER + INTRA:          -4.989
REMARK INTER:                  -4.989
REMARK INTRA:                   0.000
REMARK UNBOUND:                 0.000
REMARK SMILES O=c1ccc2cc(O)ccc2o1
REMARK SMILES IDX 9 1 10 2 11 3 5 4 4 5 3 6 2 7 1 8 12 9 6 10 7 11 8 12
REMARK H PARENT 8 13
REMARK Flexibility Score: inf
ROOT
ATOM      1  C   UNL     1      18.878  -1.807 -18.051  1.00  0.00     0.050 A 
ATOM      2  C   UNL     1      19.282  -1.971 -19.381  1.00  0.00     0.052 A 
ATOM      3  C   UNL     1      20.032  -0.976 -20.014  1.00  0.00     0.138 A 
ATOM      4  C   UNL     1      20.380   0.196 -19.307  1.00  0.00     0.021 A 
ATOM      5  C   UNL     1      21.131   1.175 -19.967  1.00  0.00     0.019 A 
ATOM      6  C   UNL     1      21.511   0.967 -21.292  1.00  0.00     0.094 A 
ATOM      7  C   UNL     1      21.131  -0.219 -21.929  1.00  0.00     0.336 A 
ATOM      8  O   UNL     1      21.465  -0.425 -23.125  1.00  0.00    -0.246 OA
ATOM      9  O   UNL     1      20.416  -1.134 -21.279  1.00  0.00    -0.423 OA
ATOM     10  C   UNL     1      19.973   0.357 -17.974  1.00  0.00     0.058 A 
ATOM     11  C   UNL     1      19.222  -0.644 -17.346  1.00  0.00     0.116 A 
ENDROOT
BRANCH  11  12
ATOM     12  O   UNL     1      18.822  -0.472 -16.023  1.00  0.00    -0.508 OA
ATOM     13  H   UNL     1      19.499  -0.392 -15.272  1.00  0.00     0.293 HD
ENDBRANCH  11  12
TORSDOF 1
ENDMDL
MODEL 7
REMARK VINA RESULT:    -4.826     15.792     17.550
REMARK INTER + INTRA:          -4.967
REMARK INTER:                  -4.967
REMARK INTRA:                   0.000
REMARK UNBOUND:                 0.000
REMARK SMILES O=c1ccc2cc(O)ccc2o1
REMARK SMILES IDX 9 1 10 2 11 3 5 4 4 5 3 6 2 7 1 8 12 9 6 10 7 11 8 12
REMARK H PARENT 8 13
REMARK Flexibility Score: inf
ROOT
ATOM      1  C   UNL     1       7.461  -4.487 -10.489  1.00  0.00     0.050 A 
ATOM      2  C   UNL     1       8.658  -4.917 -11.070  1.00  0.00     0.052 A 
ATOM      3  C   UNL     1       9.647  -5.513 -10.281  1.00  0.00     0.138 A 
ATOM      4  C   UNL     1       9.432  -5.678  -8.894  1.00  0.00     0.021 A 
ATOM      5  C   UNL     1      10.439  -6.278  -8.130  1.00  0.00     0.019 A 
ATOM      6  C   UNL     1      11.616  -6.691  -8.753  1.00  0.00     0.094 A 
ATOM      7  C   UNL     1      11.759  -6.496 -10.131  1.00  0.00     0.336 A 
ATOM      8  O   UNL     1      12.814  -6.862 -10.712  1.00  0.00    -0.246 OA
ATOM      9  O   UNL     1      10.786  -5.922 -10.836  1.00  0.00    -0.423 OA
ATOM     10  C   UNL     1       8.230  -5.245  -8.316  1.00  0.00     0.058 A 
ATOM     11  C   UNL     1       7.245  -4.649  -9.112  1.00  0.00     0.116 A 
ENDROOT
BRANCH  11  12
ATOM     12  O   UNL     1       6.056  -4.222  -8.526  1.00  0.00    -0.508 OA
ATOM     13  H   UNL     1       5.168  -4.657  -8.752  1.00  0.00     0.293 HD
ENDBRANCH  11  12
TORSDOF 1
ENDMDL
MODEL 8
REMARK VINA RESULT:    -4.760     17.892     19.135
REMARK INTER + INTRA:          -4.899
REMARK INTER:                  -4.899
REMARK INTRA:                   0.000
REMARK UNBOUND:                 0.000
REMARK SMILES O=c1ccc2cc(O)ccc2o1
REMARK SMILES IDX 9 1 10 2 11 3 5 4 4 5 3 6 2 7 1 8 12 9 6 10 7 11 8 12
REMARK H PARENT 8 13
REMARK Flexibility Score: inf
ROOT
ATOM      1  C   UNL     1       8.368  -5.972  -6.426  1.00  0.00     0.050 A 
ATOM      2  C   UNL     1       7.603  -6.747  -7.304  1.00  0.00     0.052 A 
ATOM      3  C   UNL     1       8.145  -7.170  -8.522  1.00  0.00     0.138 A 
ATOM      4  C   UNL     1       9.468  -6.810  -8.863  1.00  0.00     0.021 A 
ATOM      5  C   UNL     1       9.983  -7.247 -10.088  1.00  0.00     0.019 A 
ATOM      6  C   UNL     1       9.183  -8.018 -10.930  1.00  0.00     0.094 A 
ATOM      7  C   UNL     1       7.882  -8.337 -10.526  1.00  0.00     0.336 A 
ATOM      8  O   UNL     1       7.145  -9.033 -11.272  1.00  0.00    -0.246 OA
ATOM      9  O   UNL     1       7.416  -7.908  -9.355  1.00  0.00    -0.423 OA
ATOM     10  C   UNL     1      10.231  -6.031  -7.981  1.00  0.00     0.058 A 
ATOM     11  C   UNL     1       9.683  -5.612  -6.763  1.00  0.00     0.116 A 
ENDROOT
BRANCH  11  12
ATOM     12  O   UNL     1      10.450  -4.839  -5.895  1.00  0.00    -0.508 OA
ATOM     13  H   UNL     1      11.382  -5.124  -5.615  1.00  0.00     0.293 HD
ENDBRANCH  11  12
TORSDOF 1
ENDMDL
MODEL 9
REMARK VINA RESULT:    -4.635     16.945     17.690
REMARK INTER + INTRA:          -4.770
REMARK INTER:                  -4.770
REMARK INTRA:                   0.000
REMARK UNBOUND:                 0.000
REMARK SMILES O=c1ccc2cc(O)ccc2o1
REMARK SMILES IDX 9 1 10 2 11 3 5 4 4 5 3 6 2 7 1 8 12 9 6 10 7 11 8 12
REMARK H PARENT 8 13
REMARK Flexibility Score: inf
ROOT
ATOM      1  C   UNL     1      11.000  -7.145  -8.000  1.00  0.00     0.050 A 
ATOM      2  C   UNL     1      10.883  -7.843  -9.207  1.00  0.00     0.052 A 
ATOM      3  C   UNL     1       9.995  -7.399 -10.192  1.00  0.00     0.138 A 
ATOM      4  C   UNL     1       9.215  -6.243  -9.962  1.00  0.00     0.021 A 
ATOM      5  C   UNL     1       8.335  -5.823 -10.965  1.00  0.00     0.019 A 
ATOM      6  C   UNL     1       8.253  -6.550 -12.152  1.00  0.00     0.094 A 
ATOM      7  C   UNL     1       9.057  -7.685 -12.309  1.00  0.00     0.336 A 
ATOM      8  O   UNL     1       8.998  -8.354 -13.374  1.00  0.00    -0.246 OA
ATOM      9  O   UNL     1       9.886  -8.064 -11.340  1.00  0.00    -0.423 OA
ATOM     10  C   UNL     1       9.335  -5.548  -8.751  1.00  0.00     0.058 A 
ATOM     11  C   UNL     1      10.226  -5.997  -7.770  1.00  0.00     0.116 A 
ENDROOT
BRANCH  11  12
ATOM     12  O   UNL     1      10.336  -5.298  -6.570  1.00  0.00    -0.508 OA
ATOM     13  H   UNL     1      11.167  -5.363  -5.993  1.00  0.00     0.293 HD
ENDBRANCH  11  12
TORSDOF 1
ENDMDL
