MODEL 1
REMARK VINA RESULT:    -5.047      0.000      0.000
REMARK INTER + INTRA:         -11.686
REMARK INTER:                  -9.473
REMARK INTRA:                  -2.213
REMARK UNBOUND:                -2.213
REMARK SMILES O=C([O-])CCCCCCCCCCCCCCC(=O)[O-]
REMARK SMILES IDX 10 1 9 2 8 3 7 4 6 5 5 6 4 7 2 8 1 9 3 10 11 11 12 12 13 13
REMARK SMILES IDX 14 14 15 15 16 16 17 17 18 18 19 19 20 20
REMARK H PARENT
REMARK Flexibility Score: inf
ROOT
ATOM      1  C   UNL     1      35.788   4.499   8.904  1.00  0.00     0.000 C 
ENDROOT
BRANCH   1   2
ATOM      2  C   UNL     1      36.647   5.057  10.055  1.00  0.00     0.000 C 
BRANCH   2   3
ATOM      3  C   UNL     1      36.799   6.591  10.068  1.00  0.00     0.000 C 
BRANCH   3   4
ATOM      4  C   UNL     1      36.144   7.306  11.267  1.00  0.00     0.000 C 
BRANCH   4   5
ATOM      5  C   UNL     1      35.403   6.381  12.250  1.00  0.00     0.000 C 
BRANCH   5   6
ATOM      6  C   UNL     1      33.976   6.865  12.562  1.00  0.00     0.006 C 
BRANCH   6   7
ATOM      7  C   UNL     1      33.681   8.236  11.937  1.00  0.00     0.053 C 
BRANCH   7   8
ATOM      8  C   UNL     1      32.239   8.613  12.077  1.00  0.00     0.041 C 
ATOM      9  O   UNL     1      31.372   7.731  12.317  1.00  0.00    -0.550 OA
ATOM     10  O   UNL     1      31.853   9.944  11.971  1.00  0.00    -0.550 OA
ENDBRANCH   7   8
ENDBRANCH   6   7
ENDBRANCH   5   6
ENDBRANCH   4   5
ENDBRANCH   3   4
ENDBRANCH   2   3
ENDBRANCH   1   2
BRANCH   1  11
ATOM     11  C   UNL     1      34.875   5.560   8.274  1.00  0.00     0.000 C 
BRANCH  11  12
ATOM     12  C   UNL     1      33.537   5.649   9.025  1.00  0.00     0.000 C 
BRANCH  12  13
ATOM     13  C   UNL     1      32.851   4.282   9.174  1.00  0.00     0.000 C 
BRANCH  13  14
ATOM     14  C   UNL     1      32.649   3.877  10.644  1.00  0.00     0.000 C 
BRANCH  14  15
ATOM     15  C   UNL     1      33.314   2.535  10.984  1.00  0.00     0.000 C 
BRANCH  15  16
ATOM     16  C   UNL     1      33.191   2.176  12.474  1.00  0.00     0.006 C 
BRANCH  16  17
ATOM     17  C   UNL     1      33.175   3.438  13.342  1.00  0.00     0.053 C 
BRANCH  17  18
ATOM     18  C   UNL     1      33.971   3.225  14.590  1.00  0.00     0.041 C 
ATOM     19  O   UNL     1      33.933   2.116  15.184  1.00  0.00    -0.550 OA
ATOM     20  O   UNL     1      34.719   4.267  15.123  1.00  0.00    -0.550 OA
ENDBRANCH  17  18
ENDBRANCH  16  17
ENDBRANCH  15  16
ENDBRANCH  14  15
ENDBRANCH  13  14
ENDBRANCH  12  13
ENDBRANCH  11  12
ENDBRANCH   1  11
TORSDOF 15
ENDMDL
MODEL 2
REMARK VINA RESULT:    -4.877      2.843      5.419
REMARK INTER + INTRA:         -11.367
REMARK INTER:                  -9.369
REMARK INTRA:                  -1.998
REMARK UNBOUND:                -2.213
REMARK SMILES O=C([O-])CCCCCCCCCCCCCCC(=O)[O-]
REMARK SMILES IDX 10 1 9 2 8 3 7 4 6 5 5 6 4 7 2 8 1 9 3 10 11 11 12 12 13 13
REMARK SMILES IDX 14 14 15 15 16 16 17 17 18 18 19 19 20 20
REMARK H PARENT
REMARK Flexibility Score: inf
ROOT
ATOM      1  C   UNL     1      33.393   3.917  13.284  1.00  0.00     0.000 C 
ENDROOT
BRANCH   1   2
ATOM      2  C   UNL     1      33.077   2.499  12.772  1.00  0.00     0.000 C 
BRANCH   2   3
ATOM      3  C   UNL     1      33.611   2.183  11.360  1.00  0.00     0.000 C 
BRANCH   3   4
ATOM      4  C   UNL     1      32.582   2.329  10.221  1.00  0.00     0.000 C 
BRANCH   4   5
ATOM      5  C   UNL     1      32.856   3.485   9.242  1.00  0.00     0.000 C 
BRANCH   5   6
ATOM      6  C   UNL     1      34.101   4.305   9.622  1.00  0.00     0.006 C 
BRANCH   6   7
ATOM      7  C   UNL     1      34.757   4.960   8.399  1.00  0.00     0.053 C 
BRANCH   7   8
ATOM      8  C   UNL     1      33.891   6.030   7.809  1.00  0.00     0.041 C 
ATOM      9  O   UNL     1      33.104   5.760   6.863  1.00  0.00    -0.550 OA
ATOM     10  O   UNL     1      33.930   7.320   8.322  1.00  0.00    -0.550 OA
ENDBRANCH   7   8
ENDBRANCH   6   7
ENDBRANCH   5   6
ENDBRANCH   4   5
ENDBRANCH   3   4
ENDBRANCH   2   3
ENDBRANCH   1   2
BRANCH   1  11
ATOM     11  C   UNL     1      32.139   4.792  13.427  1.00  0.00     0.000 C 
BRANCH  11  12
ATOM     12  C   UNL     1      31.825   5.520  12.111  1.00  0.00     0.000 C 
BRANCH  12  13
ATOM     13  C   UNL     1      31.795   7.048  12.274  1.00  0.00     0.000 C 
BRANCH  13  14
ATOM     14  C   UNL     1      32.952   7.745  11.536  1.00  0.00     0.000 C 
BRANCH  14  15
ATOM     15  C   UNL     1      34.267   7.708  12.330  1.00  0.00     0.000 C 
BRANCH  15  16
ATOM     16  C   UNL     1      35.505   7.786  11.423  1.00  0.00     0.006 C 
BRANCH  16  17
ATOM     17  C   UNL     1      36.362   6.523  11.556  1.00  0.00     0.053 C 
BRANCH  17  18
ATOM     18  C   UNL     1      37.715   6.742  10.957  1.00  0.00     0.041 C 
ATOM     19  O   UNL     1      37.852   6.796   9.707  1.00  0.00    -0.550 OA
ATOM     20  O   UNL     1      38.831   6.841  11.777  1.00  0.00    -0.550 OA
ENDBRANCH  17  18
ENDBRANCH  16  17
ENDBRANCH  15  16
ENDBRANCH  14  15
ENDBRANCH  13  14
ENDBRANCH  12  13
ENDBRANCH  11  12
ENDBRANCH   1  11
TORSDOF 15
ENDMDL
MODEL 3
REMARK VINA RESULT:    -4.834      0.878      5.073
REMARK INTER + INTRA:         -11.286
REMARK INTER:                  -9.123
REMARK INTRA:                  -2.163
REMARK UNBOUND:                -2.213
REMARK SMILES O=C([O-])CCCCCCCCCCCCCCC(=O)[O-]
REMARK SMILES IDX 10 1 9 2 8 3 7 4 6 5 5 6 4 7 2 8 1 9 3 10 11 11 12 12 13 13
REMARK SMILES IDX 14 14 15 15 16 16 17 17 18 18 19 19 20 20
REMARK H PARENT
REMARK Flexibility Score: inf
ROOT
ATOM      1  C   UNL     1      33.975   5.391   8.016  1.00  0.00     0.000 C 
ENDROOT
BRANCH   1   2
ATOM      2  C   UNL     1      33.009   4.196   7.905  1.00  0.00     0.000 C 
BRANCH   2   3
ATOM      3  C   UNL     1      32.286   3.819   9.213  1.00  0.00     0.000 C 
BRANCH   3   4
ATOM      4  C   UNL     1      32.877   2.609   9.964  1.00  0.00     0.000 C 
BRANCH   4   5
ATOM      5  C   UNL     1      33.122   2.833  11.468  1.00  0.00     0.000 C 
BRANCH   5   6
ATOM      6  C   UNL     1      32.904   4.295  11.895  1.00  0.00     0.006 C 
BRANCH   6   7
ATOM      7  C   UNL     1      32.664   4.425  13.405  1.00  0.00     0.053 C 
BRANCH   7   8
ATOM      8  C   UNL     1      33.898   4.108  14.194  1.00  0.00     0.041 C 
ATOM      9  O   UNL     1      34.796   4.977  14.345  1.00  0.00    -0.550 OA
ATOM     10  O   UNL     1      34.043   2.860  14.788  1.00  0.00    -0.550 OA
ENDBRANCH   7   8
ENDBRANCH   6   7
ENDBRANCH   5   6
ENDBRANCH   4   5
ENDBRANCH   3   4
ENDBRANCH   2   3
ENDBRANCH   1   2
BRANCH   1  11
ATOM     11  C   UNL     1      35.451   4.969   7.975  1.00  0.00     0.000 C 
BRANCH  11  12
ATOM     12  C   UNL     1      35.929   4.506   9.361  1.00  0.00     0.000 C 
BRANCH  12  13
ATOM     13  C   UNL     1      36.744   5.582  10.094  1.00  0.00     0.000 C 
BRANCH  13  14
ATOM     14  C   UNL     1      35.997   6.169  11.305  1.00  0.00     0.000 C 
BRANCH  14  15
ATOM     15  C   UNL     1      35.662   7.658  11.128  1.00  0.00     0.000 C 
BRANCH  15  16
ATOM     16  C   UNL     1      34.155   7.907  10.954  1.00  0.00     0.006 C 
BRANCH  16  17
ATOM     17  C   UNL     1      33.452   7.980  12.313  1.00  0.00     0.053 C 
BRANCH  17  18
ATOM     18  C   UNL     1      32.085   8.570  12.165  1.00  0.00     0.041 C 
ATOM     19  O   UNL     1      31.066   7.834  12.239  1.00  0.00    -0.550 OA
ATOM     20  O   UNL     1      31.939   9.925  11.898  1.00  0.00    -0.550 OA
ENDBRANCH  17  18
ENDBRANCH  16  17
ENDBRANCH  15  16
ENDBRANCH  14  15
ENDBRANCH  13  14
ENDBRANCH  12  13
ENDBRANCH  11  12
ENDBRANCH   1  11
TORSDOF 15
ENDMDL
MODEL 4
REMARK VINA RESULT:    -4.818      3.169      5.947
REMARK INTER + INTRA:         -11.256
REMARK INTER:                  -9.367
REMARK INTRA:                  -1.890
REMARK UNBOUND:                -2.213
REMARK SMILES O=C([O-])CCCCCCCCCCCCCCC(=O)[O-]
REMARK SMILES IDX 10 1 9 2 8 3 7 4 6 5 5 6 4 7 2 8 1 9 3 10 11 11 12 12 13 13
REMARK SMILES IDX 14 14 15 15 16 16 17 17 18 18 19 19 20 20
REMARK H PARENT
REMARK Flexibility Score: inf
ROOT
ATOM      1  C   UNL     1      35.303   7.854  11.469  1.00  0.00     0.000 C 
ENDROOT
BRANCH   1   2
ATOM      2  C   UNL     1      33.977   7.811  10.687  1.00  0.00     0.000 C 
BRANCH   2   3
ATOM      3  C   UNL     1      32.712   8.043  11.538  1.00  0.00     0.000 C 
BRANCH   3   4
ATOM      4  C   UNL     1      32.487   7.022  12.671  1.00  0.00     0.000 C 
BRANCH   4   5
ATOM      5  C   UNL     1      31.844   5.694  12.232  1.00  0.00     0.000 C 
BRANCH   5   6
ATOM      6  C   UNL     1      32.543   4.465  12.841  1.00  0.00     0.006 C 
BRANCH   6   7
ATOM      7  C   UNL     1      33.984   4.773  13.268  1.00  0.00     0.053 C 
BRANCH   7   8
ATOM      8  C   UNL     1      34.344   4.085  14.549  1.00  0.00     0.041 C 
ATOM      9  O   UNL     1      35.107   4.646  15.379  1.00  0.00    -0.550 OA
ATOM     10  O   UNL     1      33.813   2.834  14.840  1.00  0.00    -0.550 OA
ENDBRANCH   7   8
ENDBRANCH   6   7
ENDBRANCH   5   6
ENDBRANCH   4   5
ENDBRANCH   3   4
ENDBRANCH   2   3
ENDBRANCH   1   2
BRANCH   1  11
ATOM     11  C   UNL     1      36.227   6.673  11.139  1.00  0.00     0.000 C 
BRANCH  11  12
ATOM     12  C   UNL     1      35.982   6.167   9.708  1.00  0.00     0.000 C 
BRANCH  12  13
ATOM     13  C   UNL     1      35.756   4.649   9.649  1.00  0.00     0.000 C 
BRANCH  13  14
ATOM     14  C   UNL     1      34.303   4.279   9.302  1.00  0.00     0.000 C 
BRANCH  14  15
ATOM     15  C   UNL     1      33.710   5.178   8.206  1.00  0.00     0.000 C 
BRANCH  15  16
ATOM     16  C   UNL     1      32.636   4.461   7.372  1.00  0.00     0.006 C 
BRANCH  16  17
ATOM     17  C   UNL     1      32.538   5.067   5.968  1.00  0.00     0.053 C 
BRANCH  17  18
ATOM     18  C   UNL     1      31.584   4.283   5.125  1.00  0.00     0.041 C 
ATOM     19  O   UNL     1      30.662   4.869   4.499  1.00  0.00    -0.550 OA
ATOM     20  O   UNL     1      31.683   2.899   5.068  1.00  0.00    -0.550 OA
ENDBRANCH  17  18
ENDBRANCH  16  17
ENDBRANCH  15  16
ENDBRANCH  14  15
ENDBRANCH  13  14
ENDBRANCH  12  13
ENDBRANCH  11  12
ENDBRANCH   1  11
TORSDOF 15
ENDMDL
MODEL 5
REMARK VINA RESULT:    -4.781      2.976      4.511
REMARK INTER + INTRA:         -11.186
REMARK INTER:                  -9.447
REMARK INTRA:                  -1.738
REMARK UNBOUND:                -2.213
REMARK SMILES O=C([O-])CCCCCCCCCCCCCCC(=O)[O-]
REMARK SMILES IDX 10 1 9 2 8 3 7 4 6 5 5 6 4 7 2 8 1 9 3 10 11 11 12 12 13 13
REMARK SMILES IDX 14 14 15 15 16 16 17 17 18 18 19 19 20 20
REMARK H PARENT
REMARK Flexibility Score: inf
ROOT
ATOM      1  C   UNL     1      36.414   6.385  11.478  1.00  0.00     0.000 C 
ENDROOT
BRANCH   1   2
ATOM      2  C   UNL     1      36.984   5.768  10.187  1.00  0.00     0.000 C 
BRANCH   2   3
ATOM      3  C   UNL     1      36.177   4.583   9.620  1.00  0.00     0.000 C 
BRANCH   3   4
ATOM      4  C   UNL     1      35.153   4.949   8.526  1.00  0.00     0.000 C 
BRANCH   4   5
ATOM      5  C   UNL     1      33.832   4.162   8.582  1.00  0.00     0.000 C 
BRANCH   5   6
ATOM      6  C   UNL     1      32.705   4.831   7.775  1.00  0.00     0.006 C 
BRANCH   6   7
ATOM      7  C   UNL     1      31.869   3.809   6.993  1.00  0.00     0.053 C 
BRANCH   7   8
ATOM      8  C   UNL     1      31.795   4.147   5.536  1.00  0.00     0.041 C 
ATOM      9  O   UNL     1      31.455   3.272   4.697  1.00  0.00    -0.550 OA
ATOM     10  O   UNL     1      32.075   5.439   5.106  1.00  0.00    -0.550 OA
ENDBRANCH   7   8
ENDBRANCH   6   7
ENDBRANCH   5   6
ENDBRANCH   4   5
ENDBRANCH   3   4
ENDBRANCH   2   3
ENDBRANCH   1   2
BRANCH   1  11
ATOM     11  C   UNL     1      35.869   7.805  11.270  1.00  0.00     0.000 C 
BRANCH  11  12
ATOM     12  C   UNL     1      34.487   7.963  11.924  1.00  0.00     0.000 C 
BRANCH  12  13
ATOM     13  C   UNL     1      33.392   7.176  11.188  1.00  0.00     0.000 C 
BRANCH  13  14
ATOM     14  C   UNL     1      32.172   6.882  12.079  1.00  0.00     0.000 C 
BRANCH  14  15
ATOM     15  C   UNL     1      31.870   5.379  12.191  1.00  0.00     0.000 C 
BRANCH  15  16
ATOM     16  C   UNL     1      33.139   4.515  12.115  1.00  0.00     0.006 C 
BRANCH  16  17
ATOM     17  C   UNL     1      32.985   3.241  12.951  1.00  0.00     0.053 C 
BRANCH  17  18
ATOM     18  C   UNL     1      33.852   3.304  14.168  1.00  0.00     0.041 C 
ATOM     19  O   UNL     1      34.006   2.285  14.890  1.00  0.00    -0.550 OA
ATOM     20  O   UNL     1      34.453   4.503  14.531  1.00  0.00    -0.550 OA
ENDBRANCH  17  18
ENDBRANCH  16  17
ENDBRANCH  15  16
ENDBRANCH  14  15
ENDBRANCH  13  14
ENDBRANCH  12  13
ENDBRANCH  11  12
ENDBRANCH   1  11
TORSDOF 15
ENDMDL
MODEL 6
REMARK VINA RESULT:    -4.684      3.158      5.336
REMARK INTER + INTRA:         -11.004
REMARK INTER:                  -9.008
REMARK INTRA:                  -1.996
REMARK UNBOUND:                -2.213
REMARK SMILES O=C([O-])CCCCCCCCCCCCCCC(=O)[O-]
REMARK SMILES IDX 10 1 9 2 8 3 7 4 6 5 5 6 4 7 2 8 1 9 3 10 11 11 12 12 13 13
REMARK SMILES IDX 14 14 15 15 16 16 17 17 18 18 19 19 20 20
REMARK H PARENT
REMARK Flexibility Score: inf
ROOT
ATOM      1  C   UNL     1      32.136   4.863  13.362  1.00  0.00     0.000 C 
ENDROOT
BRANCH   1   2
ATOM      2  C   UNL     1      31.900   5.888  12.237  1.00  0.00     0.000 C 
BRANCH   2   3
ATOM      3  C   UNL     1      32.149   7.357  12.631  1.00  0.00     0.000 C 
BRANCH   3   4
ATOM      4  C   UNL     1      32.785   8.233  11.533  1.00  0.00     0.000 C 
BRANCH   4   5
ATOM      5  C   UNL     1      33.959   7.582  10.780  1.00  0.00     0.000 C 
BRANCH   5   6
ATOM      6  C   UNL     1      35.291   7.694  11.543  1.00  0.00     0.006 C 
BRANCH   6   7
ATOM      7  C   UNL     1      36.143   6.425  11.408  1.00  0.00     0.053 C 
BRANCH   7   8
ATOM      8  C   UNL     1      37.534   6.735  10.945  1.00  0.00     0.041 C 
ATOM      9  O   UNL     1      37.780   6.863   9.717  1.00  0.00    -0.550 OA
ATOM     10  O   UNL     1      38.553   6.910  11.873  1.00  0.00    -0.550 OA
ENDBRANCH   7   8
ENDBRANCH   6   7
ENDBRANCH   5   6
ENDBRANCH   4   5
ENDBRANCH   3   4
ENDBRANCH   2   3
ENDBRANCH   1   2
BRANCH   1  11
ATOM     11  C   UNL     1      33.581   4.346  13.403  1.00  0.00     0.000 C 
BRANCH  11  12
ATOM     12  C   UNL     1      33.621   2.857  13.780  1.00  0.00     0.000 C 
BRANCH  12  13
ATOM     13  C   UNL     1      32.930   1.965  12.738  1.00  0.00     0.000 C 
BRANCH  13  14
ATOM     14  C   UNL     1      33.645   1.983  11.375  1.00  0.00     0.000 C 
BRANCH  14  15
ATOM     15  C   UNL     1      32.775   2.581  10.259  1.00  0.00     0.000 C 
BRANCH  15  16
ATOM     16  C   UNL     1      33.333   3.908   9.723  1.00  0.00     0.006 C 
BRANCH  16  17
ATOM     17  C   UNL     1      32.711   4.257   8.367  1.00  0.00     0.053 C 
BRANCH  17  18
ATOM     18  C   UNL     1      33.589   5.207   7.617  1.00  0.00     0.041 C 
ATOM     19  O   UNL     1      33.134   5.848   6.633  1.00  0.00    -0.550 OA
ATOM     20  O   UNL     1      34.923   5.350   7.975  1.00  0.00    -0.550 OA
ENDBRANCH  17  18
ENDBRANCH  16  17
ENDBRANCH  15  16
ENDBRANCH  14  15
ENDBRANCH  13  14
ENDBRANCH  12  13
ENDBRANCH  11  12
ENDBRANCH   1  11
TORSDOF 15
ENDMDL
MODEL 7
REMARK VINA RESULT:    -4.667      2.270      4.067
REMARK INTER + INTRA:         -10.971
REMARK INTER:                  -9.005
REMARK INTRA:                  -1.967
REMARK UNBOUND:                -2.213
REMARK SMILES O=C([O-])CCCCCCCCCCCCCCC(=O)[O-]
REMARK SMILES IDX 10 1 9 2 8 3 7 4 6 5 5 6 4 7 2 8 1 9 3 10 11 11 12 12 13 13
REMARK SMILES IDX 14 14 15 15 16 16 17 17 18 18 19 19 20 20
REMARK H PARENT
REMARK Flexibility Score: inf
ROOT
ATOM      1  C   UNL     1      33.610   3.123  11.351  1.00  0.00     0.000 C 
ENDROOT
BRANCH   1   2
ATOM      2  C   UNL     1      32.882   3.128  12.708  1.00  0.00     0.000 C 
BRANCH   2   3
ATOM      3  C   UNL     1      32.889   4.482  13.445  1.00  0.00     0.000 C 
BRANCH   3   4
ATOM      4  C   UNL     1      34.286   5.022  13.814  1.00  0.00     0.000 C 
BRANCH   4   5
ATOM      5  C   UNL     1      34.707   6.301  13.067  1.00  0.00     0.000 C 
BRANCH   5   6
ATOM      6  C   UNL     1      33.599   6.845  12.148  1.00  0.00     0.006 C 
BRANCH   6   7
ATOM      7  C   UNL     1      33.492   8.375  12.216  1.00  0.00     0.053 C 
BRANCH   7   8
ATOM      8  C   UNL     1      32.070   8.837  12.146  1.00  0.00     0.041 C 
ATOM      9  O   UNL     1      31.127   8.005  12.225  1.00  0.00    -0.550 OA
ATOM     10  O   UNL     1      31.782  10.191  12.023  1.00  0.00    -0.550 OA
ENDBRANCH   7   8
ENDBRANCH   6   7
ENDBRANCH   5   6
ENDBRANCH   4   5
ENDBRANCH   3   4
ENDBRANCH   2   3
ENDBRANCH   1   2
BRANCH   1  11
ATOM     11  C   UNL     1      32.967   2.169  10.334  1.00  0.00     0.000 C 
BRANCH  11  12
ATOM     12  C   UNL     1      32.495   2.932   9.086  1.00  0.00     0.000 C 
BRANCH  12  13
ATOM     13  C   UNL     1      32.893   4.416   9.116  1.00  0.00     0.000 C 
BRANCH  13  14
ATOM     14  C   UNL     1      33.661   4.849   7.855  1.00  0.00     0.000 C 
BRANCH  14  15
ATOM     15  C   UNL     1      35.169   5.006   8.106  1.00  0.00     0.000 C 
BRANCH  15  16
ATOM     16  C   UNL     1      35.475   5.881   9.331  1.00  0.00     0.006 C 
BRANCH  16  17
ATOM     17  C   UNL     1      36.748   5.404  10.040  1.00  0.00     0.053 C 
BRANCH  17  18
ATOM     18  C   UNL     1      37.440   6.553  10.701  1.00  0.00     0.041 C 
ATOM     19  O   UNL     1      36.853   7.660  10.825  1.00  0.00    -0.550 OA
ATOM     20  O   UNL     1      38.751   6.416  11.139  1.00  0.00    -0.550 OA
ENDBRANCH  17  18
ENDBRANCH  16  17
ENDBRANCH  15  16
ENDBRANCH  14  15
ENDBRANCH  13  14
ENDBRANCH  12  13
ENDBRANCH  11  12
ENDBRANCH   1  11
TORSDOF 15
ENDMDL
MODEL 8
REMARK VINA RESULT:    -4.620      3.677      5.955
REMARK INTER + INTRA:         -10.885
REMARK INTER:                  -8.884
REMARK INTRA:                  -2.001
REMARK UNBOUND:                -2.213
REMARK SMILES O=C([O-])CCCCCCCCCCCCCCC(=O)[O-]
REMARK SMILES IDX 10 1 9 2 8 3 7 4 6 5 5 6 4 7 2 8 1 9 3 10 11 11 12 12 13 13
REMARK SMILES IDX 14 14 15 15 16 16 17 17 18 18 19 19 20 20
REMARK H PARENT
REMARK Flexibility Score: inf
ROOT
ATOM      1  C   UNL     1      33.329   4.100  12.303  1.00  0.00     0.000 C 
ENDROOT
BRANCH   1   2
ATOM      2  C   UNL     1      32.699   3.940  10.906  1.00  0.00     0.000 C 
BRANCH   2   3
ATOM      3  C   UNL     1      33.708   3.758   9.755  1.00  0.00     0.000 C 
BRANCH   3   4
ATOM      4  C   UNL     1      33.130   3.956   8.339  1.00  0.00     0.000 C 
BRANCH   4   5
ATOM      5  C   UNL     1      33.532   5.273   7.651  1.00  0.00     0.000 C 
BRANCH   5   6
ATOM      6  C   UNL     1      32.951   5.406   6.232  1.00  0.00     0.006 C 
BRANCH   6   7
ATOM      7  C   UNL     1      32.100   4.190   5.841  1.00  0.00     0.053 C 
BRANCH   7   8
ATOM      8  C   UNL     1      30.898   4.587   5.040  1.00  0.00     0.041 C 
ATOM      9  O   UNL     1      29.761   4.626   5.578  1.00  0.00    -0.550 OA
ATOM     10  O   UNL     1      31.039   4.943   3.704  1.00  0.00    -0.550 OA
ENDBRANCH   7   8
ENDBRANCH   6   7
ENDBRANCH   5   6
ENDBRANCH   4   5
ENDBRANCH   3   4
ENDBRANCH   2   3
ENDBRANCH   1   2
BRANCH   1  11
ATOM     11  C   UNL     1      32.560   5.088  13.193  1.00  0.00     0.000 C 
BRANCH  11  12
ATOM     12  C   UNL     1      31.649   5.993  12.349  1.00  0.00     0.000 C 
BRANCH  12  13
ATOM     13  C   UNL     1      31.954   7.487  12.546  1.00  0.00     0.000 C 
BRANCH  13  14
ATOM     14  C   UNL     1      33.361   7.874  12.059  1.00  0.00     0.000 C 
BRANCH  14  15
ATOM     15  C   UNL     1      33.563   7.606  10.560  1.00  0.00     0.000 C 
BRANCH  15  16
ATOM     16  C   UNL     1      35.046   7.484  10.177  1.00  0.00     0.006 C 
BRANCH  16  17
ATOM     17  C   UNL     1      35.833   6.738  11.259  1.00  0.00     0.053 C 
BRANCH  17  18
ATOM     18  C   UNL     1      37.016   6.044  10.662  1.00  0.00     0.041 C 
ATOM     19  O   UNL     1      36.855   5.024   9.942  1.00  0.00    -0.550 OA
ATOM     20  O   UNL     1      38.299   6.497  10.940  1.00  0.00    -0.550 OA
ENDBRANCH  17  18
ENDBRANCH  16  17
ENDBRANCH  15  16
ENDBRANCH  14  15
ENDBRANCH  13  14
ENDBRANCH  12  13
ENDBRANCH  11  12
ENDBRANCH   1  11
TORSDOF 15
ENDMDL
MODEL 9
REMARK VINA RESULT:    -4.611      3.618      6.003
REMARK INTER + INTRA:         -10.867
REMARK INTER:                  -8.908
REMARK INTRA:                  -1.958
REMARK UNBOUND:                -2.213
REMARK SMILES O=C([O-])CCCCCCCCCCCCCCC(=O)[O-]
REMARK SMILES IDX 10 1 9 2 8 3 7 4 6 5 5 6 4 7 2 8 1 9 3 10 11 11 12 12 13 13
REMARK SMILES IDX 14 14 15 15 16 16 17 17 18 18 19 19 20 20
REMARK H PARENT
REMARK Flexibility Score: inf
ROOT
ATOM      1  C   UNL     1      32.116   4.841  13.038  1.00  0.00     0.000 C 
ENDROOT
BRANCH   1   2
ATOM      2  C   UNL     1      31.913   6.119  12.202  1.00  0.00     0.000 C 
BRANCH   2   3
ATOM      3  C   UNL     1      32.439   7.413  12.852  1.00  0.00     0.000 C 
BRANCH   3   4
ATOM      4  C   UNL     1      33.468   8.198  12.014  1.00  0.00     0.000 C 
BRANCH   4   5
ATOM      5  C   UNL     1      33.552   7.785  10.533  1.00  0.00     0.000 C 
BRANCH   5   6
ATOM      6  C   UNL     1      34.972   7.371  10.109  1.00  0.00     0.006 C 
BRANCH   6   7
ATOM      7  C   UNL     1      35.897   7.164  11.315  1.00  0.00     0.053 C 
BRANCH   7   8
ATOM      8  C   UNL     1      37.151   6.437  10.937  1.00  0.00     0.041 C 
ATOM      9  O   UNL     1      38.272   6.859  11.326  1.00  0.00    -0.550 OA
ATOM     10  O   UNL     1      37.080   5.275  10.178  1.00  0.00    -0.550 OA
ENDBRANCH   7   8
ENDBRANCH   6   7
ENDBRANCH   5   6
ENDBRANCH   4   5
ENDBRANCH   3   4
ENDBRANCH   2   3
ENDBRANCH   1   2
BRANCH   1  11
ATOM     11  C   UNL     1      33.455   4.146  12.747  1.00  0.00     0.000 C 
BRANCH  11  12
ATOM     12  C   UNL     1      33.732   4.099  11.236  1.00  0.00     0.000 C 
BRANCH  12  13
ATOM     13  C   UNL     1      33.045   2.909  10.547  1.00  0.00     0.000 C 
BRANCH  13  14
ATOM     14  C   UNL     1      32.631   3.222   9.099  1.00  0.00     0.000 C 
BRANCH  14  15
ATOM     15  C   UNL     1      33.187   4.565   8.602  1.00  0.00     0.000 C 
BRANCH  15  16
ATOM     16  C   UNL     1      32.905   4.805   7.110  1.00  0.00     0.006 C 
BRANCH  16  17
ATOM     17  C   UNL     1      31.837   3.837   6.592  1.00  0.00     0.053 C 
BRANCH  17  18
ATOM     18  C   UNL     1      31.473   4.166   5.179  1.00  0.00     0.041 C 
ATOM     19  O   UNL     1      31.018   3.273   4.417  1.00  0.00    -0.550 OA
ATOM     20  O   UNL     1      31.682   5.449   4.689  1.00  0.00    -0.550 OA
ENDBRANCH  17  18
ENDBRANCH  16  17
ENDBRANCH  15  16
ENDBRANCH  14  15
ENDBRANCH  13  14
ENDBRANCH  12  13
ENDBRANCH  11  12
ENDBRANCH   1  11
TORSDOF 15
ENDMDL
