MODEL 1
REMARK VINA RESULT:    -3.103      0.000      0.000
REMARK INTER + INTRA:          -4.846
REMARK INTER:                  -4.192
REMARK INTRA:                  -0.654
REMARK UNBOUND:                -0.654
REMARK SMILES CCCCCCC=CC(=O)[O-]
REMARK SMILES IDX 5 1 6 2 7 3 8 4 9 5 10 6 11 7 4 8 3 9 2 10 1 11
REMARK H PARENT
REMARK Flexibility Score: inf
ROOT
ATOM      1  C   UNL     1       5.203  17.993  -5.567  1.00  0.00     0.004 C 
ENDROOT
BRANCH   1   2
ATOM      2  C   UNL     1       6.465  18.088  -4.691  1.00  0.00     0.027 C 
BRANCH   2   3
ATOM      3  C   UNL     1       6.851  19.508  -4.386  1.00  0.00    -0.025 C 
ATOM      4  C   UNL     1       7.210  20.358  -5.354  1.00  0.00     0.020 C 
BRANCH   4   5
ATOM      5  C   UNL     1       7.595  21.748  -5.068  1.00  0.00     0.064 C 
ATOM      6  O   UNL     1       7.948  22.067  -3.902  1.00  0.00    -0.545 OA
ATOM      7  O   UNL     1       7.576  22.717  -6.065  1.00  0.00    -0.545 OA
ENDBRANCH   4   5
ENDBRANCH   2   3
ENDBRANCH   1   2
BRANCH   1   8
ATOM      8  C   UNL     1       5.360  17.097  -6.812  1.00  0.00     0.000 C 
BRANCH   8   9
ATOM      9  C   UNL     1       6.813  16.875  -7.278  1.00  0.00    -0.000 C 
BRANCH   9  10
ATOM     10  C   UNL     1       7.248  17.740  -8.474  1.00  0.00    -0.003 C 
ATOM     11  C   UNL     1       8.574  18.462  -8.235  1.00  0.00     0.004 C 
ENDBRANCH   9  10
ENDBRANCH   8   9
ENDBRANCH   1   8
TORSDOF 6
ENDMDL
MODEL 2
REMARK VINA RESULT:    -3.093      2.271      3.298
REMARK INTER + INTRA:          -4.832
REMARK INTER:                  -4.164
REMARK INTRA:                  -0.669
REMARK UNBOUND:                -0.654
REMARK SMILES CCCCCCC=CC(=O)[O-]
REMARK SMILES IDX 5 1 6 2 7 3 8 4 9 5 10 6 11 7 4 8 3 9 2 10 1 11
REMARK H PARENT
REMARK Flexibility Score: inf
ROOT
ATOM      1  C   UNL     1       6.520  19.600  -4.723  1.00  0.00     0.004 C 
ENDROOT
BRANCH   1   2
ATOM      2  C   UNL     1       7.925  20.102  -5.100  1.00  0.00     0.027 C 
BRANCH   2   3
ATOM      3  C   UNL     1       8.114  20.230  -6.585  1.00  0.00    -0.025 C 
ATOM      4  C   UNL     1       7.088  20.501  -7.400  1.00  0.00     0.020 C 
BRANCH   4   5
ATOM      5  C   UNL     1       7.260  20.624  -8.855  1.00  0.00     0.064 C 
ATOM      6  O   UNL     1       6.974  21.709  -9.425  1.00  0.00    -0.545 OA
ATOM      7  O   UNL     1       7.733  19.558  -9.613  1.00  0.00    -0.545 OA
ENDBRANCH   4   5
ENDBRANCH   2   3
ENDBRANCH   1   2
BRANCH   1   8
ATOM      8  C   UNL     1       6.349  18.070  -4.802  1.00  0.00     0.000 C 
BRANCH   8   9
ATOM      9  C   UNL     1       5.041  17.592  -5.464  1.00  0.00    -0.000 C 
BRANCH   9  10
ATOM     10  C   UNL     1       5.212  16.977  -6.865  1.00  0.00    -0.003 C 
ATOM     11  C   UNL     1       6.675  16.875  -7.296  1.00  0.00     0.004 C 
ENDBRANCH   9  10
ENDBRANCH   8   9
ENDBRANCH   1   8
TORSDOF 6
ENDMDL
MODEL 3
REMARK VINA RESULT:    -3.085      3.022      4.406
REMARK INTER + INTRA:          -4.821
REMARK INTER:                  -4.114
REMARK INTRA:                  -0.707
REMARK UNBOUND:                -0.654
REMARK SMILES CCCCCCC=CC(=O)[O-]
REMARK SMILES IDX 5 1 6 2 7 3 8 4 9 5 10 6 11 7 4 8 3 9 2 10 1 11
REMARK H PARENT
REMARK Flexibility Score: inf
ROOT
ATOM      1  C   UNL     1       5.639  18.568  -5.272  1.00  0.00     0.004 C 
ENDROOT
BRANCH   1   2
ATOM      2  C   UNL     1       5.775  17.096  -5.701  1.00  0.00     0.027 C 
BRANCH   2   3
ATOM      3  C   UNL     1       6.902  16.878  -6.670  1.00  0.00    -0.025 C 
ATOM      4  C   UNL     1       6.859  17.367  -7.915  1.00  0.00     0.020 C 
BRANCH   4   5
ATOM      5  C   UNL     1       7.953  17.156  -8.873  1.00  0.00     0.064 C 
ATOM      6  O   UNL     1       9.120  16.948  -8.449  1.00  0.00    -0.545 OA
ATOM      7  O   UNL     1       7.720  17.182 -10.244  1.00  0.00    -0.545 OA
ENDBRANCH   4   5
ENDBRANCH   2   3
ENDBRANCH   1   2
BRANCH   1   8
ATOM      8  C   UNL     1       6.824  19.100  -4.442  1.00  0.00     0.000 C 
BRANCH   8   9
ATOM      9  C   UNL     1       7.430  20.427  -4.943  1.00  0.00    -0.000 C 
BRANCH   9  10
ATOM     10  C   UNL     1       8.337  20.298  -6.179  1.00  0.00    -0.003 C 
ATOM     11  C   UNL     1       7.724  20.917  -7.435  1.00  0.00     0.004 C 
ENDBRANCH   9  10
ENDBRANCH   8   9
ENDBRANCH   1   8
TORSDOF 6
ENDMDL
MODEL 4
REMARK VINA RESULT:    -3.055      3.073      4.871
REMARK INTER + INTRA:          -4.781
REMARK INTER:                  -4.181
REMARK INTRA:                  -0.599
REMARK UNBOUND:                -0.654
REMARK SMILES CCCCCCC=CC(=O)[O-]
REMARK SMILES IDX 5 1 6 2 7 3 8 4 9 5 10 6 11 7 4 8 3 9 2 10 1 11
REMARK H PARENT
REMARK Flexibility Score: inf
ROOT
ATOM      1  C   UNL     1       6.892  21.562  -3.875  1.00  0.00     0.004 C 
ENDROOT
BRANCH   1   2
ATOM      2  C   UNL     1       7.580  20.282  -4.382  1.00  0.00     0.027 C 
BRANCH   2   3
ATOM      3  C   UNL     1       6.612  19.155  -4.607  1.00  0.00    -0.025 C 
ATOM      4  C   UNL     1       6.390  18.657  -5.828  1.00  0.00     0.020 C 
BRANCH   4   5
ATOM      5  C   UNL     1       5.441  17.559  -6.062  1.00  0.00     0.064 C 
ATOM      6  O   UNL     1       5.314  17.084  -7.221  1.00  0.00    -0.545 OA
ATOM      7  O   UNL     1       4.682  17.034  -5.022  1.00  0.00    -0.545 OA
ENDBRANCH   4   5
ENDBRANCH   2   3
ENDBRANCH   1   2
BRANCH   1   8
ATOM      8  C   UNL     1       7.494  22.869  -4.428  1.00  0.00     0.000 C 
BRANCH   8   9
ATOM      9  C   UNL     1       8.018  22.787  -5.875  1.00  0.00    -0.000 C 
BRANCH   9  10
ATOM     10  C   UNL     1       6.938  22.917  -6.963  1.00  0.00    -0.003 C 
ATOM     11  C   UNL     1       6.928  21.739  -7.937  1.00  0.00     0.004 C 
ENDBRANCH   9  10
ENDBRANCH   8   9
ENDBRANCH   1   8
TORSDOF 6
ENDMDL
MODEL 5
REMARK VINA RESULT:    -3.055     16.916     18.006
REMARK INTER + INTRA:          -4.781
REMARK INTER:                  -4.255
REMARK INTRA:                  -0.526
REMARK UNBOUND:                -0.654
REMARK SMILES CCCCCCC=CC(=O)[O-]
REMARK SMILES IDX 5 1 6 2 7 3 8 4 9 5 10 6 11 7 4 8 3 9 2 10 1 11
REMARK H PARENT
REMARK Flexibility Score: inf
ROOT
ATOM      1  C   UNL     1      -1.496  31.683 -12.539  1.00  0.00     0.004 C 
ENDROOT
BRANCH   1   2
ATOM      2  C   UNL     1      -2.587  30.622 -12.768  1.00  0.00     0.027 C 
BRANCH   2   3
ATOM      3  C   UNL     1      -3.703  30.715 -11.767  1.00  0.00    -0.025 C 
ATOM      4  C   UNL     1      -4.097  31.890 -11.265  1.00  0.00     0.020 C 
BRANCH   4   5
ATOM      5  C   UNL     1      -5.184  31.993 -10.281  1.00  0.00     0.064 C 
ATOM      6  O   UNL     1      -4.987  32.607  -9.200  1.00  0.00    -0.545 OA
ATOM      7  O   UNL     1      -6.429  31.423 -10.526  1.00  0.00    -0.545 OA
ENDBRANCH   4   5
ENDBRANCH   2   3
ENDBRANCH   1   2
BRANCH   1   8
ATOM      8  C   UNL     1      -1.319  32.675 -13.706  1.00  0.00     0.000 C 
BRANCH   8   9
ATOM      9  C   UNL     1      -2.618  33.054 -14.445  1.00  0.00    -0.000 C 
BRANCH   9  10
ATOM     10  C   UNL     1      -2.600  32.792 -15.961  1.00  0.00    -0.003 C 
ATOM     11  C   UNL     1      -3.468  31.602 -16.370  1.00  0.00     0.004 C 
ENDBRANCH   9  10
ENDBRANCH   8   9
ENDBRANCH   1   8
TORSDOF 6
ENDMDL
MODEL 6
REMARK VINA RESULT:    -3.022     17.288     18.536
REMARK INTER + INTRA:          -4.736
REMARK INTER:                  -4.034
REMARK INTRA:                  -0.702
REMARK UNBOUND:                -0.654
REMARK SMILES CCCCCCC=CC(=O)[O-]
REMARK SMILES IDX 5 1 6 2 7 3 8 4 9 5 10 6 11 7 4 8 3 9 2 10 1 11
REMARK H PARENT
REMARK Flexibility Score: inf
ROOT
ATOM      1  C   UNL     1      -2.934  33.378 -14.789  1.00  0.00     0.004 C 
ENDROOT
BRANCH   1   2
ATOM      2  C   UNL     1      -2.403  32.594 -16.003  1.00  0.00     0.027 C 
BRANCH   2   3
ATOM      3  C   UNL     1      -3.389  31.582 -16.514  1.00  0.00    -0.025 C 
ATOM      4  C   UNL     1      -3.324  30.297 -16.150  1.00  0.00     0.020 C 
BRANCH   4   5
ATOM      5  C   UNL     1      -4.280  29.297 -16.647  1.00  0.00     0.064 C 
ATOM      6  O   UNL     1      -3.887  28.404 -17.443  1.00  0.00    -0.545 OA
ATOM      7  O   UNL     1      -5.613  29.320 -16.251  1.00  0.00    -0.545 OA
ENDBRANCH   4   5
ENDBRANCH   2   3
ENDBRANCH   1   2
BRANCH   1   8
ATOM      8  C   UNL     1      -2.224  33.049 -13.461  1.00  0.00     0.000 C 
BRANCH   8   9
ATOM      9  C   UNL     1      -0.948  32.192 -13.596  1.00  0.00    -0.000 C 
BRANCH   9  10
ATOM     10  C   UNL     1      -1.053  30.777 -13.001  1.00  0.00    -0.003 C 
ATOM     11  C   UNL     1      -2.445  30.462 -12.454  1.00  0.00     0.004 C 
ENDBRANCH   9  10
ENDBRANCH   8   9
ENDBRANCH   1   8
TORSDOF 6
ENDMDL
MODEL 7
REMARK VINA RESULT:    -3.013     17.279     18.444
REMARK INTER + INTRA:          -4.724
REMARK INTER:                  -3.975
REMARK INTRA:                  -0.750
REMARK UNBOUND:                -0.654
REMARK SMILES CCCCCCC=CC(=O)[O-]
REMARK SMILES IDX 5 1 6 2 7 3 8 4 9 5 10 6 11 7 4 8 3 9 2 10 1 11
REMARK H PARENT
REMARK Flexibility Score: inf
ROOT
ATOM      1  C   UNL     1      -2.052  32.992 -13.560  1.00  0.00     0.004 C 
ENDROOT
BRANCH   1   2
ATOM      2  C   UNL     1      -2.932  33.396 -14.757  1.00  0.00     0.027 C 
BRANCH   2   3
ATOM      3  C   UNL     1      -2.577  32.651 -16.012  1.00  0.00    -0.025 C 
ATOM      4  C   UNL     1      -3.396  31.734 -16.538  1.00  0.00     0.020 C 
BRANCH   4   5
ATOM      5  C   UNL     1      -3.057  30.996 -17.763  1.00  0.00     0.064 C 
ATOM      6  O   UNL     1      -2.250  31.498 -18.588  1.00  0.00    -0.545 OA
ATOM      7  O   UNL     1      -3.613  29.748 -18.025  1.00  0.00    -0.545 OA
ENDBRANCH   4   5
ENDBRANCH   2   3
ENDBRANCH   1   2
BRANCH   1   8
ATOM      8  C   UNL     1      -2.707  31.975 -12.604  1.00  0.00     0.000 C 
BRANCH   8   9
ATOM      9  C   UNL     1      -2.345  30.500 -12.871  1.00  0.00    -0.000 C 
BRANCH   9  10
ATOM     10  C   UNL     1      -0.991  30.282 -13.568  1.00  0.00    -0.003 C 
ATOM     11  C   UNL     1      -1.084  29.343 -14.770  1.00  0.00     0.004 C 
ENDBRANCH   9  10
ENDBRANCH   8   9
ENDBRANCH   1   8
TORSDOF 6
ENDMDL
MODEL 8
REMARK VINA RESULT:    -2.989      1.901      3.054
REMARK INTER + INTRA:          -4.691
REMARK INTER:                  -4.363
REMARK INTRA:                  -0.328
REMARK UNBOUND:                -0.654
REMARK SMILES CCCCCCC=CC(=O)[O-]
REMARK SMILES IDX 5 1 6 2 7 3 8 4 9 5 10 6 11 7 4 8 3 9 2 10 1 11
REMARK H PARENT
REMARK Flexibility Score: inf
ROOT
ATOM      1  C   UNL     1       7.702  20.079  -5.317  1.00  0.00     0.004 C 
ENDROOT
BRANCH   1   2
ATOM      2  C   UNL     1       7.211  20.598  -3.953  1.00  0.00     0.027 C 
BRANCH   2   3
ATOM      3  C   UNL     1       7.202  22.098  -3.875  1.00  0.00    -0.025 C 
ATOM      4  C   UNL     1       7.194  22.857  -4.976  1.00  0.00     0.020 C 
BRANCH   4   5
ATOM      5  C   UNL     1       7.191  24.325  -4.913  1.00  0.00     0.064 C 
ATOM      6  O   UNL     1       6.098  24.947  -4.967  1.00  0.00    -0.545 OA
ATOM      7  O   UNL     1       8.378  25.040  -4.791  1.00  0.00    -0.545 OA
ENDBRANCH   4   5
ENDBRANCH   2   3
ENDBRANCH   1   2
BRANCH   1   8
ATOM      8  C   UNL     1       6.824  18.969  -5.928  1.00  0.00     0.000 C 
BRANCH   8   9
ATOM      9  C   UNL     1       5.758  18.383  -4.981  1.00  0.00    -0.000 C 
BRANCH   9  10
ATOM     10  C   UNL     1       5.001  17.163  -5.534  1.00  0.00    -0.003 C 
ATOM     11  C   UNL     1       5.326  16.875  -6.999  1.00  0.00     0.004 C 
ENDBRANCH   9  10
ENDBRANCH   8   9
ENDBRANCH   1   8
TORSDOF 6
ENDMDL
