MODEL 1
REMARK VINA RESULT:    -4.258      0.000      0.000
REMARK INTER + INTRA:          -9.708
REMARK INTER:                  -7.494
REMARK INTRA:                  -2.214
REMARK UNBOUND:                -2.214
REMARK SMILES CCCCCCCCCCCCCCC(=O)[O-]
REMARK SMILES IDX 9 1 10 2 11 3 12 4 13 5 14 6 15 7 16 8 17 9 8 10 7 11 6 12
REMARK SMILES IDX 5 13 4 14 3 15 2 16 1 17
REMARK H PARENT
REMARK Flexibility Score: inf
ROOT
ATOM      1  C   UNL     1      -1.809   6.815 -59.285  1.00  0.00     0.000 C 
ENDROOT
BRANCH   1   2
ATOM      2  C   UNL     1      -0.640   6.316 -58.421  1.00  0.00     0.000 C 
BRANCH   2   3
ATOM      3  C   UNL     1      -0.898   4.924 -57.822  1.00  0.00     0.000 C 
BRANCH   3   4
ATOM      4  C   UNL     1      -0.727   4.943 -56.298  1.00  0.00     0.000 C 
BRANCH   4   5
ATOM      5  C   UNL     1      -0.237   6.316 -55.815  1.00  0.00     0.006 C 
BRANCH   5   6
ATOM      6  C   UNL     1      -1.127   6.895 -54.708  1.00  0.00     0.053 C 
BRANCH   6   7
ATOM      7  C   UNL     1      -0.345   7.193 -53.467  1.00  0.00     0.041 C 
ATOM      8  O   UNL     1       0.293   8.275 -53.364  1.00  0.00    -0.550 OA
ATOM      9  O   UNL     1      -0.343   6.291 -52.411  1.00  0.00    -0.550 OA
ENDBRANCH   6   7
ENDBRANCH   5   6
ENDBRANCH   4   5
ENDBRANCH   3   4
ENDBRANCH   2   3
ENDBRANCH   1   2
BRANCH   1  10
ATOM     10  C   UNL     1      -2.724   5.674 -59.757  1.00  0.00     0.000 C 
BRANCH  10  11
ATOM     11  C   UNL     1      -4.182   5.851 -59.302  1.00  0.00    -0.000 C 
BRANCH  11  12
ATOM     12  C   UNL     1      -4.550   5.019 -58.053  1.00  0.00    -0.000 C 
BRANCH  12  13
ATOM     13  C   UNL     1      -4.401   5.826 -56.752  1.00  0.00    -0.000 C 
BRANCH  13  14
ATOM     14  C   UNL     1      -5.021   7.232 -56.843  1.00  0.00    -0.000 C 
BRANCH  14  15
ATOM     15  C   UNL     1      -4.145   8.367 -56.282  1.00  0.00    -0.000 C 
BRANCH  15  16
ATOM     16  C   UNL     1      -3.385   9.132 -57.375  1.00  0.00    -0.003 C 
ATOM     17  C   UNL     1      -4.309   9.506 -58.529  1.00  0.00     0.004 C 
ENDBRANCH  15  16
ENDBRANCH  14  15
ENDBRANCH  13  14
ENDBRANCH  12  13
ENDBRANCH  11  12
ENDBRANCH  10  11
ENDBRANCH   1  10
TORSDOF 13
ENDMDL
MODEL 2
REMARK VINA RESULT:    -4.054      1.628      2.862
REMARK INTER + INTRA:          -9.349
REMARK INTER:                  -7.535
REMARK INTRA:                  -1.814
REMARK UNBOUND:                -2.214
REMARK SMILES CCCCCCCCCCCCCCC(=O)[O-]
REMARK SMILES IDX 9 1 10 2 11 3 12 4 13 5 14 6 15 7 16 8 17 9 8 10 7 11 6 12
REMARK SMILES IDX 5 13 4 14 3 15 2 16 1 17
REMARK H PARENT
REMARK Flexibility Score: inf
ROOT
ATOM      1  C   UNL     1      -1.939   7.909 -59.092  1.00  0.00     0.000 C 
ENDROOT
BRANCH   1   2
ATOM      2  C   UNL     1      -2.410   6.512 -59.523  1.00  0.00     0.000 C 
BRANCH   2   3
ATOM      3  C   UNL     1      -1.887   5.399 -58.601  1.00  0.00     0.000 C 
BRANCH   3   4
ATOM      4  C   UNL     1      -0.484   5.734 -58.078  1.00  0.00     0.000 C 
BRANCH   4   5
ATOM      5  C   UNL     1      -0.190   4.983 -56.772  1.00  0.00     0.006 C 
BRANCH   5   6
ATOM      6  C   UNL     1      -1.138   5.395 -55.638  1.00  0.00     0.053 C 
BRANCH   6   7
ATOM      7  C   UNL     1      -0.446   6.247 -54.620  1.00  0.00     0.041 C 
ATOM      8  O   UNL     1       0.530   5.791 -53.968  1.00  0.00    -0.550 OA
ATOM      9  O   UNL     1      -0.858   7.557 -54.414  1.00  0.00    -0.550 OA
ENDBRANCH   6   7
ENDBRANCH   5   6
ENDBRANCH   4   5
ENDBRANCH   3   4
ENDBRANCH   2   3
ENDBRANCH   1   2
BRANCH   1  10
ATOM     10  C   UNL     1      -3.063   8.739 -58.450  1.00  0.00     0.000 C 
BRANCH  10  11
ATOM     11  C   UNL     1      -3.078   8.637 -56.916  1.00  0.00    -0.000 C 
BRANCH  11  12
ATOM     12  C   UNL     1      -4.395   8.068 -56.343  1.00  0.00    -0.000 C 
BRANCH  12  13
ATOM     13  C   UNL     1      -4.466   6.535 -56.461  1.00  0.00    -0.000 C 
BRANCH  13  14
ATOM     14  C   UNL     1      -5.676   6.052 -57.281  1.00  0.00    -0.000 C 
BRANCH  14  15
ATOM     15  C   UNL     1      -6.405   7.150 -58.075  1.00  0.00    -0.000 C 
BRANCH  15  16
ATOM     16  C   UNL     1      -7.922   7.155 -57.835  1.00  0.00    -0.003 C 
ATOM     17  C   UNL     1      -8.465   5.734 -57.719  1.00  0.00     0.004 C 
ENDBRANCH  15  16
ENDBRANCH  14  15
ENDBRANCH  13  14
ENDBRANCH  12  13
ENDBRANCH  11  12
ENDBRANCH  10  11
ENDBRANCH   1  10
TORSDOF 13
ENDMDL
MODEL 3
REMARK VINA RESULT:    -3.970      1.091      1.768
REMARK INTER + INTRA:          -9.201
REMARK INTER:                  -7.277
REMARK INTRA:                  -1.925
REMARK UNBOUND:                -2.214
REMARK SMILES CCCCCCCCCCCCCCC(=O)[O-]
REMARK SMILES IDX 9 1 10 2 11 3 12 4 13 5 14 6 15 7 16 8 17 9 8 10 7 11 6 12
REMARK SMILES IDX 5 13 4 14 3 15 2 16 1 17
REMARK H PARENT
REMARK Flexibility Score: inf
ROOT
ATOM      1  C   UNL     1      -3.312   5.702 -59.507  1.00  0.00     0.000 C 
ENDROOT
BRANCH   1   2
ATOM      2  C   UNL     1      -2.273   4.965 -58.647  1.00  0.00     0.000 C 
BRANCH   2   3
ATOM      3  C   UNL     1      -1.071   5.850 -58.282  1.00  0.00     0.000 C 
BRANCH   3   4
ATOM      4  C   UNL     1      -0.303   5.268 -57.088  1.00  0.00     0.000 C 
BRANCH   4   5
ATOM      5  C   UNL     1      -0.842   5.825 -55.762  1.00  0.00     0.006 C 
BRANCH   5   6
ATOM      6  C   UNL     1       0.223   6.610 -54.986  1.00  0.00     0.053 C 
BRANCH   6   7
ATOM      7  C   UNL     1      -0.358   7.296 -53.788  1.00  0.00     0.041 C 
ATOM      8  O   UNL     1       0.082   8.418 -53.424  1.00  0.00    -0.550 OA
ATOM      9  O   UNL     1      -1.407   6.709 -53.092  1.00  0.00    -0.550 OA
ENDBRANCH   6   7
ENDBRANCH   5   6
ENDBRANCH   4   5
ENDBRANCH   3   4
ENDBRANCH   2   3
ENDBRANCH   1   2
BRANCH   1  10
ATOM     10  C   UNL     1      -4.756   5.326 -59.138  1.00  0.00     0.000 C 
BRANCH  10  11
ATOM     11  C   UNL     1      -5.034   5.433 -57.629  1.00  0.00    -0.000 C 
BRANCH  11  12
ATOM     12  C   UNL     1      -6.320   6.218 -57.288  1.00  0.00    -0.000 C 
BRANCH  12  13
ATOM     13  C   UNL     1      -6.493   7.464 -58.174  1.00  0.00    -0.000 C 
BRANCH  13  14
ATOM     14  C   UNL     1      -5.639   8.657 -57.707  1.00  0.00    -0.000 C 
BRANCH  14  15
ATOM     15  C   UNL     1      -4.528   9.083 -58.682  1.00  0.00    -0.000 C 
BRANCH  15  16
ATOM     16  C   UNL     1      -3.137   9.108 -58.032  1.00  0.00    -0.003 C 
ATOM     17  C   UNL     1      -3.177   8.517 -56.626  1.00  0.00     0.004 C 
ENDBRANCH  15  16
ENDBRANCH  14  15
ENDBRANCH  13  14
ENDBRANCH  12  13
ENDBRANCH  11  12
ENDBRANCH  10  11
ENDBRANCH   1  10
TORSDOF 13
ENDMDL
MODEL 4
REMARK VINA RESULT:    -3.894      3.627      5.819
REMARK INTER + INTRA:          -9.067
REMARK INTER:                  -7.463
REMARK INTRA:                  -1.604
REMARK UNBOUND:                -2.214
REMARK SMILES CCCCCCCCCCCCCCC(=O)[O-]
REMARK SMILES IDX 9 1 10 2 11 3 12 4 13 5 14 6 15 7 16 8 17 9 8 10 7 11 6 12
REMARK SMILES IDX 5 13 4 14 3 15 2 16 1 17
REMARK H PARENT
REMARK Flexibility Score: inf
ROOT
ATOM      1  C   UNL     1      -3.288   9.449 -58.039  1.00  0.00     0.000 C 
ENDROOT
BRANCH   1   2
ATOM      2  C   UNL     1      -4.488   8.513 -57.823  1.00  0.00     0.000 C 
BRANCH   2   3
ATOM      3  C   UNL     1      -4.473   7.839 -56.442  1.00  0.00     0.000 C 
BRANCH   3   4
ATOM      4  C   UNL     1      -4.778   6.341 -56.559  1.00  0.00     0.000 C 
BRANCH   4   5
ATOM      5  C   UNL     1      -5.491   6.025 -57.882  1.00  0.00     0.006 C 
BRANCH   5   6
ATOM      6  C   UNL     1      -6.724   5.135 -57.679  1.00  0.00     0.053 C 
BRANCH   6   7
ATOM      7  C   UNL     1      -7.991   5.933 -57.697  1.00  0.00     0.041 C 
ATOM      8  O   UNL     1      -7.951   7.185 -57.821  1.00  0.00    -0.550 OA
ATOM      9  O   UNL     1      -9.219   5.290 -57.608  1.00  0.00    -0.550 OA
ENDBRANCH   6   7
ENDBRANCH   5   6
ENDBRANCH   4   5
ENDBRANCH   3   4
ENDBRANCH   2   3
ENDBRANCH   1   2
BRANCH   1  10
ATOM     10  C   UNL     1      -2.307   8.916 -59.096  1.00  0.00     0.000 C 
BRANCH  10  11
ATOM     11  C   UNL     1      -2.309   7.381 -59.193  1.00  0.00    -0.000 C 
BRANCH  11  12
ATOM     12  C   UNL     1      -1.013   6.723 -58.670  1.00  0.00    -0.000 C 
BRANCH  12  13
ATOM     13  C   UNL     1      -1.288   5.394 -57.944  1.00  0.00    -0.000 C 
BRANCH  13  14
ATOM     14  C   UNL     1      -0.185   5.019 -56.938  1.00  0.00    -0.000 C 
BRANCH  14  15
ATOM     15  C   UNL     1      -0.616   5.040 -55.461  1.00  0.00    -0.000 C 
BRANCH  15  16
ATOM     16  C   UNL     1      -1.224   6.384 -55.034  1.00  0.00    -0.003 C 
ATOM     17  C   UNL     1      -0.211   7.228 -54.267  1.00  0.00     0.004 C 
ENDBRANCH  15  16
ENDBRANCH  14  15
ENDBRANCH  13  14
ENDBRANCH  12  13
ENDBRANCH  11  12
ENDBRANCH  10  11
ENDBRANCH   1  10
TORSDOF 13
ENDMDL
MODEL 5
REMARK VINA RESULT:    -3.857      1.801      2.828
REMARK INTER + INTRA:          -9.001
REMARK INTER:                  -7.430
REMARK INTRA:                  -1.571
REMARK UNBOUND:                -2.214
REMARK SMILES CCCCCCCCCCCCCCC(=O)[O-]
REMARK SMILES IDX 9 1 10 2 11 3 12 4 13 5 14 6 15 7 16 8 17 9 8 10 7 11 6 12
REMARK SMILES IDX 5 13 4 14 3 15 2 16 1 17
REMARK H PARENT
REMARK Flexibility Score: inf
ROOT
ATOM      1  C   UNL     1      -0.564   6.679 -58.799  1.00  0.00     0.000 C 
ENDROOT
BRANCH   1   2
ATOM      2  C   UNL     1      -0.526   5.875 -57.489  1.00  0.00     0.000 C 
BRANCH   2   3
ATOM      3  C   UNL     1      -1.842   5.132 -57.211  1.00  0.00     0.000 C 
BRANCH   3   4
ATOM      4  C   UNL     1      -2.397   5.497 -55.829  1.00  0.00     0.000 C 
BRANCH   4   5
ATOM      5  C   UNL     1      -1.970   6.914 -55.421  1.00  0.00     0.006 C 
BRANCH   5   6
ATOM      6  C   UNL     1      -1.565   6.996 -53.944  1.00  0.00     0.053 C 
BRANCH   6   7
ATOM      7  C   UNL     1      -0.077   6.998 -53.777  1.00  0.00     0.041 C 
ATOM      8  O   UNL     1       0.510   8.019 -53.331  1.00  0.00    -0.550 OA
ATOM      9  O   UNL     1       0.659   5.861 -54.085  1.00  0.00    -0.550 OA
ENDBRANCH   6   7
ENDBRANCH   5   6
ENDBRANCH   4   5
ENDBRANCH   3   4
ENDBRANCH   2   3
ENDBRANCH   1   2
BRANCH   1  10
ATOM     10  C   UNL     1      -1.998   6.961 -59.276  1.00  0.00     0.000 C 
BRANCH  10  11
ATOM     11  C   UNL     1      -2.557   8.288 -58.735  1.00  0.00    -0.000 C 
BRANCH  11  12
ATOM     12  C   UNL     1      -4.075   8.254 -58.449  1.00  0.00    -0.000 C 
BRANCH  12  13
ATOM     13  C   UNL     1      -4.753   7.016 -59.062  1.00  0.00    -0.000 C 
BRANCH  13  14
ATOM     14  C   UNL     1      -5.364   6.079 -58.004  1.00  0.00    -0.000 C 
BRANCH  14  15
ATOM     15  C   UNL     1      -6.818   6.400 -57.613  1.00  0.00    -0.000 C 
BRANCH  15  16
ATOM     16  C   UNL     1      -7.604   5.160 -57.164  1.00  0.00    -0.003 C 
ATOM     17  C   UNL     1      -9.007   5.151 -57.765  1.00  0.00     0.004 C 
ENDBRANCH  15  16
ENDBRANCH  14  15
ENDBRANCH  13  14
ENDBRANCH  12  13
ENDBRANCH  11  12
ENDBRANCH  10  11
ENDBRANCH   1  10
TORSDOF 13
ENDMDL
MODEL 6
REMARK VINA RESULT:    -3.793      2.120      4.707
REMARK INTER + INTRA:          -8.890
REMARK INTER:                  -7.167
REMARK INTRA:                  -1.723
REMARK UNBOUND:                -2.214
REMARK SMILES CCCCCCCCCCCCCCC(=O)[O-]
REMARK SMILES IDX 9 1 10 2 11 3 12 4 13 5 14 6 15 7 16 8 17 9 8 10 7 11 6 12
REMARK SMILES IDX 5 13 4 14 3 15 2 16 1 17
REMARK H PARENT
REMARK Flexibility Score: inf
ROOT
ATOM      1  C   UNL     1      -1.996   6.800 -59.688  1.00  0.00     0.000 C 
ENDROOT
BRANCH   1   2
ATOM      2  C   UNL     1      -2.894   5.554 -59.675  1.00  0.00     0.000 C 
BRANCH   2   3
ATOM      3  C   UNL     1      -4.310   5.849 -59.156  1.00  0.00     0.000 C 
BRANCH   3   4
ATOM      4  C   UNL     1      -4.360   5.782 -57.625  1.00  0.00     0.000 C 
BRANCH   4   5
ATOM      5  C   UNL     1      -5.243   6.900 -57.052  1.00  0.00     0.006 C 
BRANCH   5   6
ATOM      6  C   UNL     1      -5.176   8.181 -57.893  1.00  0.00     0.053 C 
BRANCH   6   7
ATOM      7  C   UNL     1      -3.953   8.987 -57.578  1.00  0.00     0.041 C 
ATOM      8  O   UNL     1      -3.448   8.949 -56.425  1.00  0.00    -0.550 OA
ATOM      9  O   UNL     1      -3.354   9.757 -58.566  1.00  0.00    -0.550 OA
ENDBRANCH   6   7
ENDBRANCH   5   6
ENDBRANCH   4   5
ENDBRANCH   3   4
ENDBRANCH   2   3
ENDBRANCH   1   2
BRANCH   1  10
ATOM     10  C   UNL     1      -0.814   6.687 -58.711  1.00  0.00     0.000 C 
BRANCH  10  11
ATOM     11  C   UNL     1      -0.563   5.243 -58.243  1.00  0.00    -0.000 C 
BRANCH  11  12
ATOM     12  C   UNL     1      -0.761   5.038 -56.725  1.00  0.00    -0.000 C 
BRANCH  12  13
ATOM     13  C   UNL     1      -1.041   6.362 -55.991  1.00  0.00    -0.000 C 
BRANCH  13  14
ATOM     14  C   UNL     1      -1.887   6.176 -54.718  1.00  0.00    -0.000 C 
BRANCH  14  15
ATOM     15  C   UNL     1      -1.114   6.333 -53.396  1.00  0.00    -0.000 C 
BRANCH  15  16
ATOM     16  C   UNL     1       0.299   6.899 -53.592  1.00  0.00    -0.003 C 
ATOM     17  C   UNL     1       0.329   8.404 -53.342  1.00  0.00     0.004 C 
ENDBRANCH  15  16
ENDBRANCH  14  15
ENDBRANCH  13  14
ENDBRANCH  12  13
ENDBRANCH  11  12
ENDBRANCH  10  11
ENDBRANCH   1  10
TORSDOF 13
ENDMDL
MODEL 7
REMARK VINA RESULT:    -3.762     12.217     14.460
REMARK INTER + INTRA:          -8.834
REMARK INTER:                  -6.789
REMARK INTRA:                  -2.045
REMARK UNBOUND:                -2.214
REMARK SMILES CCCCCCCCCCCCCCC(=O)[O-]
REMARK SMILES IDX 9 1 10 2 11 3 12 4 13 5 14 6 15 7 16 8 17 9 8 10 7 11 6 12
REMARK SMILES IDX 5 13 4 14 3 15 2 16 1 17
REMARK H PARENT
REMARK Flexibility Score: inf
ROOT
ATOM      1  C   UNL     1      -5.886  18.010 -60.039  1.00  0.00     0.000 C 
ENDROOT
BRANCH   1   2
ATOM      2  C   UNL     1      -5.501  16.928 -61.060  1.00  0.00     0.000 C 
BRANCH   2   3
ATOM      3  C   UNL     1      -6.622  16.640 -62.070  1.00  0.00     0.000 C 
BRANCH   3   4
ATOM      4  C   UNL     1      -7.884  17.445 -61.735  1.00  0.00     0.000 C 
BRANCH   4   5
ATOM      5  C   UNL     1      -9.108  16.527 -61.614  1.00  0.00     0.006 C 
BRANCH   5   6
ATOM      6  C   UNL     1      -8.856  15.139 -62.218  1.00  0.00     0.053 C 
BRANCH   6   7
ATOM      7  C   UNL     1      -9.537  14.979 -63.541  1.00  0.00     0.041 C 
ATOM      8  O   UNL     1     -10.101  13.892 -63.837  1.00  0.00    -0.550 OA
ATOM      9  O   UNL     1      -9.577  16.040 -64.437  1.00  0.00    -0.550 OA
ENDBRANCH   6   7
ENDBRANCH   5   6
ENDBRANCH   4   5
ENDBRANCH   3   4
ENDBRANCH   2   3
ENDBRANCH   1   2
BRANCH   1  10
ATOM     10  C   UNL     1      -4.742  19.000 -59.768  1.00  0.00     0.000 C 
BRANCH  10  11
ATOM     11  C   UNL     1      -5.218  20.462 -59.715  1.00  0.00    -0.000 C 
BRANCH  11  12
ATOM     12  C   UNL     1      -6.449  20.748 -60.603  1.00  0.00    -0.000 C 
BRANCH  12  13
ATOM     13  C   UNL     1      -6.053  21.308 -61.981  1.00  0.00    -0.000 C 
BRANCH  13  14
ATOM     14  C   UNL     1      -6.744  20.579 -63.147  1.00  0.00    -0.000 C 
BRANCH  14  15
ATOM     15  C   UNL     1      -5.803  19.768 -64.056  1.00  0.00    -0.000 C 
BRANCH  15  16
ATOM     16  C   UNL     1      -4.410  19.561 -63.444  1.00  0.00    -0.003 C 
ATOM     17  C   UNL     1      -3.331  19.552 -64.522  1.00  0.00     0.004 C 
ENDBRANCH  15  16
ENDBRANCH  14  15
ENDBRANCH  13  14
ENDBRANCH  12  13
ENDBRANCH  11  12
ENDBRANCH  10  11
ENDBRANCH   1  10
TORSDOF 13
ENDMDL
MODEL 8
REMARK VINA RESULT:    -3.538     12.262     14.699
REMARK INTER + INTRA:          -8.441
REMARK INTER:                  -7.062
REMARK INTRA:                  -1.379
REMARK UNBOUND:                -2.214
REMARK SMILES CCCCCCCCCCCCCCC(=O)[O-]
REMARK SMILES IDX 9 1 10 2 11 3 12 4 13 5 14 6 15 7 16 8 17 9 8 10 7 11 6 12
REMARK SMILES IDX 5 13 4 14 3 15 2 16 1 17
REMARK H PARENT
REMARK Flexibility Score: inf
ROOT
ATOM      1  C   UNL     1      -5.346  20.386 -59.714  1.00  0.00     0.000 C 
ENDROOT
BRANCH   1   2
ATOM      2  C   UNL     1      -4.601  19.093 -60.081  1.00  0.00     0.000 C 
BRANCH   2   3
ATOM      3  C   UNL     1      -5.454  17.834 -59.860  1.00  0.00     0.000 C 
BRANCH   3   4
ATOM      4  C   UNL     1      -5.787  17.154 -61.193  1.00  0.00     0.000 C 
BRANCH   4   5
ATOM      5  C   UNL     1      -7.154  16.458 -61.131  1.00  0.00     0.006 C 
BRANCH   5   6
ATOM      6  C   UNL     1      -8.210  17.172 -61.984  1.00  0.00     0.053 C 
BRANCH   6   7
ATOM      7  C   UNL     1      -8.982  16.208 -62.831  1.00  0.00     0.041 C 
ATOM      8  O   UNL     1      -9.328  15.091 -62.364  1.00  0.00    -0.550 OA
ATOM      9  O   UNL     1      -9.347  16.556 -64.125  1.00  0.00    -0.550 OA
ENDBRANCH   6   7
ENDBRANCH   5   6
ENDBRANCH   4   5
ENDBRANCH   3   4
ENDBRANCH   2   3
ENDBRANCH   1   2
BRANCH   1  10
ATOM     10  C   UNL     1      -6.465  20.726 -60.711  1.00  0.00     0.000 C 
BRANCH  10  11
ATOM     11  C   UNL     1      -5.929  21.134 -62.094  1.00  0.00    -0.000 C 
BRANCH  11  12
ATOM     12  C   UNL     1      -6.382  20.199 -63.237  1.00  0.00    -0.000 C 
BRANCH  12  13
ATOM     13  C   UNL     1      -5.389  20.196 -64.413  1.00  0.00    -0.000 C 
BRANCH  13  14
ATOM     14  C   UNL     1      -4.049  19.522 -64.068  1.00  0.00    -0.000 C 
BRANCH  14  15
ATOM     15  C   UNL     1      -2.818  20.124 -64.768  1.00  0.00    -0.000 C 
BRANCH  15  16
ATOM     16  C   UNL     1      -1.640  19.143 -64.858  1.00  0.00    -0.003 C 
ATOM     17  C   UNL     1      -0.577  19.462 -63.812  1.00  0.00     0.004 C 
ENDBRANCH  15  16
ENDBRANCH  14  15
ENDBRANCH  13  14
ENDBRANCH  12  13
ENDBRANCH  11  12
ENDBRANCH  10  11
ENDBRANCH   1  10
TORSDOF 13
ENDMDL
MODEL 9
REMARK VINA RESULT:    -3.538     12.130     14.432
REMARK INTER + INTRA:          -8.441
REMARK INTER:                  -7.040
REMARK INTRA:                  -1.402
REMARK UNBOUND:                -2.214
REMARK SMILES CCCCCCCCCCCCCCC(=O)[O-]
REMARK SMILES IDX 9 1 10 2 11 3 12 4 13 5 14 6 15 7 16 8 17 9 8 10 7 11 6 12
REMARK SMILES IDX 5 13 4 14 3 15 2 16 1 17
REMARK H PARENT
REMARK Flexibility Score: inf
ROOT
ATOM      1  C   UNL     1      -5.820  21.043 -60.967  1.00  0.00     0.000 C 
ENDROOT
BRANCH   1   2
ATOM      2  C   UNL     1      -5.341  20.048 -59.899  1.00  0.00     0.000 C 
BRANCH   2   3
ATOM      3  C   UNL     1      -4.616  18.834 -60.501  1.00  0.00     0.000 C 
BRANCH   3   4
ATOM      4  C   UNL     1      -5.261  17.523 -60.035  1.00  0.00     0.000 C 
BRANCH   4   5
ATOM      5  C   UNL     1      -6.000  16.832 -61.190  1.00  0.00     0.006 C 
BRANCH   5   6
ATOM      6  C   UNL     1      -7.516  16.781 -60.962  1.00  0.00     0.053 C 
BRANCH   6   7
ATOM      7  C   UNL     1      -8.236  16.221 -62.150  1.00  0.00     0.041 C 
ATOM      8  O   UNL     1      -8.280  16.869 -63.229  1.00  0.00    -0.550 OA
ATOM      9  O   UNL     1      -8.833  14.969 -62.076  1.00  0.00    -0.550 OA
ENDBRANCH   6   7
ENDBRANCH   5   6
ENDBRANCH   4   5
ENDBRANCH   3   4
ENDBRANCH   2   3
ENDBRANCH   1   2
BRANCH   1  10
ATOM     10  C   UNL     1      -6.561  20.354 -62.125  1.00  0.00     0.000 C 
BRANCH  10  11
ATOM     11  C   UNL     1      -5.775  20.398 -63.446  1.00  0.00    -0.000 C 
BRANCH  11  12
ATOM     12  C   UNL     1      -5.656  19.026 -64.146  1.00  0.00    -0.000 C 
BRANCH  12  13
ATOM     13  C   UNL     1      -4.313  18.861 -64.879  1.00  0.00    -0.000 C 
BRANCH  13  14
ATOM     14  C   UNL     1      -3.301  19.968 -64.535  1.00  0.00    -0.000 C 
BRANCH  14  15
ATOM     15  C   UNL     1      -1.838  19.645 -64.888  1.00  0.00    -0.000 C 
BRANCH  15  16
ATOM     16  C   UNL     1      -1.036  19.117 -63.689  1.00  0.00    -0.003 C 
ATOM     17  C   UNL     1       0.219  18.380 -64.149  1.00  0.00     0.004 C 
ENDBRANCH  15  16
ENDBRANCH  14  15
ENDBRANCH  13  14
ENDBRANCH  12  13
ENDBRANCH  11  12
ENDBRANCH  10  11
ENDBRANCH   1  10
TORSDOF 13
ENDMDL
