MODEL 1
REMARK VINA RESULT:    -3.568      0.000      0.000
REMARK INTER + INTRA:          -9.029
REMARK INTER:                  -6.697
REMARK INTRA:                  -2.333
REMARK UNBOUND:                -2.333
REMARK SMILES CCCCCCCCC=CCCCCCCCC(=O)[O-]
REMARK SMILES IDX 10 1 9 2 11 3 12 4 13 5 14 6 15 7 16 8 17 9 18 10 19 11
REMARK SMILES IDX 20 12 8 13 7 14 6 15 5 16 4 17 3 18 2 19 1 20
REMARK H PARENT
REMARK Flexibility Score: inf
ROOT
ATOM      1  C   UNL     1     155.372 154.028 158.561  1.00  0.00    -0.031 C 
ATOM      2  C   UNL     1     154.822 153.384 157.521  1.00  0.00    -0.031 C 
ENDROOT
BRANCH   1   3
ATOM      3  C   UNL     1     155.419 155.530 158.623  1.00  0.00     0.027 C 
BRANCH   3   4
ATOM      4  C   UNL     1     154.742 156.152 157.393  1.00  0.00     0.004 C 
BRANCH   4   5
ATOM      5  C   UNL     1     153.903 157.391 157.746  1.00  0.00     0.000 C 
BRANCH   5   6
ATOM      6  C   UNL     1     153.564 157.469 159.245  1.00  0.00     0.000 C 
BRANCH   6   7
ATOM      7  C   UNL     1     153.607 158.906 159.794  1.00  0.00     0.000 C 
BRANCH   7   8
ATOM      8  C   UNL     1     154.343 159.066 161.140  1.00  0.00     0.006 C 
BRANCH   8   9
ATOM      9  C   UNL     1     153.433 159.421 162.326  1.00  0.00     0.053 C 
BRANCH   9  10
ATOM     10  C   UNL     1     154.122 160.314 163.312  1.00  0.00     0.041 C 
ATOM     11  O   UNL     1     154.859 161.252 162.911  1.00  0.00    -0.550 OA
ATOM     12  O   UNL     1     153.975 160.087 164.675  1.00  0.00    -0.550 OA
ENDBRANCH   9  10
ENDBRANCH   8   9
ENDBRANCH   7   8
ENDBRANCH   6   7
ENDBRANCH   5   6
ENDBRANCH   4   5
ENDBRANCH   3   4
ENDBRANCH   1   3
BRANCH   2  13
ATOM     13  C   UNL     1     154.795 151.882 157.449  1.00  0.00     0.027 C 
BRANCH  13  14
ATOM     14  C   UNL     1     153.405 151.336 157.811  1.00  0.00     0.004 C 
BRANCH  14  15
ATOM     15  C   UNL     1     153.298 150.936 159.291  1.00  0.00     0.000 C 
BRANCH  15  16
ATOM     16  C   UNL     1     152.683 152.044 160.162  1.00  0.00     0.000 C 
BRANCH  16  17
ATOM     17  C   UNL     1     151.509 152.765 159.472  1.00  0.00    -0.000 C 
BRANCH  17  18
ATOM     18  C   UNL     1     151.720 154.274 159.249  1.00  0.00    -0.000 C 
BRANCH  18  19
ATOM     19  C   UNL     1     151.239 154.749 157.871  1.00  0.00    -0.003 C 
ATOM     20  C   UNL     1     150.490 153.640 157.137  1.00  0.00     0.004 C 
ENDBRANCH  18  19
ENDBRANCH  17  18
ENDBRANCH  16  17
ENDBRANCH  15  16
ENDBRANCH  14  15
ENDBRANCH  13  14
ENDBRANCH   2  13
TORSDOF 15
ENDMDL
MODEL 2
REMARK VINA RESULT:    -3.554     10.485     12.253
REMARK INTER + INTRA:          -9.003
REMARK INTER:                  -7.472
REMARK INTRA:                  -1.530
REMARK UNBOUND:                -2.333
REMARK SMILES CCCCCCCCC=CCCCCCCCC(=O)[O-]
REMARK SMILES IDX 10 1 9 2 11 3 12 4 13 5 14 6 15 7 16 8 17 9 18 10 19 11
REMARK SMILES IDX 20 12 8 13 7 14 6 15 5 16 4 17 3 18 2 19 1 20
REMARK H PARENT
REMARK Flexibility Score: inf
ROOT
ATOM      1  C   UNL     1     162.701 155.085 154.072  1.00  0.00    -0.031 C 
ATOM      2  C   UNL     1     162.502 153.988 153.324  1.00  0.00    -0.031 C 
ENDROOT
BRANCH   1   3
ATOM      3  C   UNL     1     161.558 155.961 154.505  1.00  0.00     0.027 C 
BRANCH   3   4
ATOM      4  C   UNL     1     161.382 157.150 153.548  1.00  0.00     0.004 C 
BRANCH   4   5
ATOM      5  C   UNL     1     160.174 156.979 152.614  1.00  0.00     0.000 C 
BRANCH   5   6
ATOM      6  C   UNL     1     159.996 158.166 151.653  1.00  0.00     0.000 C 
BRANCH   6   7
ATOM      7  C   UNL     1     158.949 157.897 150.557  1.00  0.00     0.000 C 
BRANCH   7   8
ATOM      8  C   UNL     1     159.329 158.413 149.154  1.00  0.00     0.006 C 
BRANCH   8   9
ATOM      9  C   UNL     1     158.859 157.519 147.996  1.00  0.00     0.053 C 
BRANCH   9  10
ATOM     10  C   UNL     1     160.010 156.983 147.200  1.00  0.00     0.041 C 
ATOM     11  O   UNL     1     161.051 157.673 147.048  1.00  0.00    -0.550 OA
ATOM     12  O   UNL     1     159.916 155.734 146.598  1.00  0.00    -0.550 OA
ENDBRANCH   9  10
ENDBRANCH   8   9
ENDBRANCH   7   8
ENDBRANCH   6   7
ENDBRANCH   5   6
ENDBRANCH   4   5
ENDBRANCH   3   4
ENDBRANCH   1   3
BRANCH   2  13
ATOM     13  C   UNL     1     163.647 153.125 152.873  1.00  0.00     0.027 C 
BRANCH  13  14
ATOM     14  C   UNL     1     164.563 152.761 154.052  1.00  0.00     0.004 C 
BRANCH  14  15
ATOM     15  C   UNL     1     164.596 151.249 154.326  1.00  0.00     0.000 C 
BRANCH  15  16
ATOM     16  C   UNL     1     163.945 150.876 155.668  1.00  0.00     0.000 C 
BRANCH  16  17
ATOM     17  C   UNL     1     162.420 151.089 155.673  1.00  0.00    -0.000 C 
BRANCH  17  18
ATOM     18  C   UNL     1     161.868 151.772 156.938  1.00  0.00    -0.000 C 
BRANCH  18  19
ATOM     19  C   UNL     1     162.736 152.946 157.412  1.00  0.00    -0.003 C 
ATOM     20  C   UNL     1     161.881 154.168 157.735  1.00  0.00     0.004 C 
ENDBRANCH  18  19
ENDBRANCH  17  18
ENDBRANCH  16  17
ENDBRANCH  15  16
ENDBRANCH  14  15
ENDBRANCH  13  14
ENDBRANCH   2  13
TORSDOF 15
ENDMDL
MODEL 3
REMARK VINA RESULT:    -3.548      4.630      6.387
REMARK INTER + INTRA:          -8.993
REMARK INTER:                  -6.157
REMARK INTRA:                  -2.836
REMARK UNBOUND:                -2.333
REMARK SMILES CCCCCCCCC=CCCCCCCCC(=O)[O-]
REMARK SMILES IDX 10 1 9 2 11 3 12 4 13 5 14 6 15 7 16 8 17 9 18 10 19 11
REMARK SMILES IDX 20 12 8 13 7 14 6 15 5 16 4 17 3 18 2 19 1 20
REMARK H PARENT
REMARK Flexibility Score: inf
ROOT
ATOM      1  C   UNL     1     154.020 155.663 158.464  1.00  0.00    -0.031 C 
ATOM      2  C   UNL     1     152.852 156.062 157.936  1.00  0.00    -0.031 C 
ENDROOT
BRANCH   1   3
ATOM      3  C   UNL     1     155.189 155.288 157.595  1.00  0.00     0.027 C 
BRANCH   3   4
ATOM      4  C   UNL     1     154.716 154.791 156.220  1.00  0.00     0.004 C 
BRANCH   4   5
ATOM      5  C   UNL     1     154.981 155.811 155.102  1.00  0.00     0.000 C 
BRANCH   5   6
ATOM      6  C   UNL     1     153.810 155.922 154.111  1.00  0.00     0.000 C 
BRANCH   6   7
ATOM      7  C   UNL     1     153.024 157.237 154.259  1.00  0.00     0.000 C 
BRANCH   7   8
ATOM      8  C   UNL     1     151.536 157.067 154.630  1.00  0.00     0.006 C 
BRANCH   8   9
ATOM      9  C   UNL     1     151.045 155.611 154.646  1.00  0.00     0.053 C 
BRANCH   9  10
ATOM     10  C   UNL     1     149.716 155.462 153.971  1.00  0.00     0.041 C 
ATOM     11  O   UNL     1     148.845 154.690 154.450  1.00  0.00    -0.550 OA
ATOM     12  O   UNL     1     149.454 156.149 152.792  1.00  0.00    -0.550 OA
ENDBRANCH   9  10
ENDBRANCH   8   9
ENDBRANCH   7   8
ENDBRANCH   6   7
ENDBRANCH   5   6
ENDBRANCH   4   5
ENDBRANCH   3   4
ENDBRANCH   1   3
BRANCH   2  13
ATOM     13  C   UNL     1     151.676 156.415 158.805  1.00  0.00     0.027 C 
BRANCH  13  14
ATOM     14  C   UNL     1     150.874 155.161 159.186  1.00  0.00     0.004 C 
BRANCH  14  15
ATOM     15  C   UNL     1     150.619 154.239 157.984  1.00  0.00     0.000 C 
BRANCH  15  16
ATOM     16  C   UNL     1     151.106 152.800 158.228  1.00  0.00     0.000 C 
BRANCH  16  17
ATOM     17  C   UNL     1     151.952 152.663 159.507  1.00  0.00    -0.000 C 
BRANCH  17  18
ATOM     18  C   UNL     1     153.402 152.202 159.276  1.00  0.00    -0.000 C 
BRANCH  18  19
ATOM     19  C   UNL     1     153.631 151.625 157.872  1.00  0.00    -0.003 C 
ATOM     20  C   UNL     1     155.119 151.437 157.590  1.00  0.00     0.004 C 
ENDBRANCH  18  19
ENDBRANCH  17  18
ENDBRANCH  16  17
ENDBRANCH  15  16
ENDBRANCH  14  15
ENDBRANCH  13  14
ENDBRANCH   2  13
TORSDOF 15
ENDMDL
MODEL 4
REMARK VINA RESULT:    -3.523      2.221      2.775
REMARK INTER + INTRA:          -8.944
REMARK INTER:                  -6.871
REMARK INTRA:                  -2.074
REMARK UNBOUND:                -2.333
REMARK SMILES CCCCCCCCC=CCCCCCCCC(=O)[O-]
REMARK SMILES IDX 10 1 9 2 11 3 12 4 13 5 14 6 15 7 16 8 17 9 18 10 19 11
REMARK SMILES IDX 20 12 8 13 7 14 6 15 5 16 4 17 3 18 2 19 1 20
REMARK H PARENT
REMARK Flexibility Score: inf
ROOT
ATOM      1  C   UNL     1     154.787 155.490 157.911  1.00  0.00    -0.031 C 
ATOM      2  C   UNL     1     154.953 154.184 158.175  1.00  0.00    -0.031 C 
ENDROOT
BRANCH   1   3
ATOM      3  C   UNL     1     154.769 156.519 159.007  1.00  0.00     0.027 C 
BRANCH   3   4
ATOM      4  C   UNL     1     156.170 157.109 159.231  1.00  0.00     0.004 C 
BRANCH   4   5
ATOM      5  C   UNL     1     156.178 158.217 160.296  1.00  0.00     0.000 C 
BRANCH   5   6
ATOM      6  C   UNL     1     154.926 159.108 160.233  1.00  0.00     0.000 C 
BRANCH   6   7
ATOM      7  C   UNL     1     154.294 159.348 161.616  1.00  0.00     0.000 C 
BRANCH   7   8
ATOM      8  C   UNL     1     152.769 159.121 161.681  1.00  0.00     0.006 C 
BRANCH   8   9
ATOM      9  C   UNL     1     152.147 158.590 160.380  1.00  0.00     0.053 C 
BRANCH   9  10
ATOM     10  C   UNL     1     150.663 158.427 160.496  1.00  0.00     0.041 C 
ATOM     11  O   UNL     1     149.895 159.374 160.185  1.00  0.00    -0.550 OA
ATOM     12  O   UNL     1     150.130 157.238 160.980  1.00  0.00    -0.550 OA
ENDBRANCH   9  10
ENDBRANCH   8   9
ENDBRANCH   7   8
ENDBRANCH   6   7
ENDBRANCH   5   6
ENDBRANCH   4   5
ENDBRANCH   3   4
ENDBRANCH   1   3
BRANCH   2  13
ATOM     13  C   UNL     1     154.948 153.154 157.080  1.00  0.00     0.027 C 
BRANCH  13  14
ATOM     14  C   UNL     1     154.930 151.731 157.661  1.00  0.00     0.004 C 
BRANCH  14  15
ATOM     15  C   UNL     1     153.504 151.208 157.892  1.00  0.00     0.000 C 
BRANCH  15  16
ATOM     16  C   UNL     1     153.150 151.088 159.384  1.00  0.00     0.000 C 
BRANCH  16  17
ATOM     17  C   UNL     1     152.441 152.340 159.932  1.00  0.00    -0.000 C 
BRANCH  17  18
ATOM     18  C   UNL     1     151.392 152.954 158.988  1.00  0.00    -0.000 C 
BRANCH  18  19
ATOM     19  C   UNL     1     151.334 154.486 159.072  1.00  0.00    -0.003 C 
ATOM     20  C   UNL     1     151.182 155.108 157.686  1.00  0.00     0.004 C 
ENDBRANCH  18  19
ENDBRANCH  17  18
ENDBRANCH  16  17
ENDBRANCH  15  16
ENDBRANCH  14  15
ENDBRANCH  13  14
ENDBRANCH   2  13
TORSDOF 15
ENDMDL
MODEL 5
REMARK VINA RESULT:    -3.519      4.668      6.793
REMARK INTER + INTRA:          -8.937
REMARK INTER:                  -6.466
REMARK INTRA:                  -2.471
REMARK UNBOUND:                -2.333
REMARK SMILES CCCCCCCCC=CCCCCCCCC(=O)[O-]
REMARK SMILES IDX 10 1 9 2 11 3 12 4 13 5 14 6 15 7 16 8 17 9 18 10 19 11
REMARK SMILES IDX 20 12 8 13 7 14 6 15 5 16 4 17 3 18 2 19 1 20
REMARK H PARENT
REMARK Flexibility Score: inf
ROOT
ATOM      1  C   UNL     1     151.342 154.388 159.365  1.00  0.00    -0.031 C 
ATOM      2  C   UNL     1     151.592 153.075 159.241  1.00  0.00    -0.031 C 
ENDROOT
BRANCH   1   3
ATOM      3  C   UNL     1     150.510 155.130 158.354  1.00  0.00     0.027 C 
BRANCH   3   4
ATOM      4  C   UNL     1     150.303 154.287 157.086  1.00  0.00     0.004 C 
BRANCH   4   5
ATOM      5  C   UNL     1     150.645 155.061 155.803  1.00  0.00     0.000 C 
BRANCH   5   6
ATOM      6  C   UNL     1     151.520 156.297 156.072  1.00  0.00     0.000 C 
BRANCH   6   7
ATOM      7  C   UNL     1     151.959 157.011 154.781  1.00  0.00     0.000 C 
BRANCH   7   8
ATOM      8  C   UNL     1     151.903 156.143 153.507  1.00  0.00     0.006 C 
BRANCH   8   9
ATOM      9  C   UNL     1     153.223 156.072 152.724  1.00  0.00     0.053 C 
BRANCH   9  10
ATOM     10  C   UNL     1     153.221 156.987 151.538  1.00  0.00     0.041 C 
ATOM     11  O   UNL     1     152.990 156.533 150.388  1.00  0.00    -0.550 OA
ATOM     12  O   UNL     1     153.510 158.336 151.702  1.00  0.00    -0.550 OA
ENDBRANCH   9  10
ENDBRANCH   8   9
ENDBRANCH   7   8
ENDBRANCH   6   7
ENDBRANCH   5   6
ENDBRANCH   4   5
ENDBRANCH   3   4
ENDBRANCH   1   3
BRANCH   2  13
ATOM     13  C   UNL     1     152.441 152.339 160.240  1.00  0.00     0.027 C 
BRANCH  13  14
ATOM     14  C   UNL     1     153.110 151.113 159.599  1.00  0.00     0.004 C 
BRANCH  14  15
ATOM     15  C   UNL     1     153.122 151.185 158.064  1.00  0.00     0.000 C 
BRANCH  15  16
ATOM     16  C   UNL     1     154.545 151.158 157.480  1.00  0.00     0.000 C 
BRANCH  16  17
ATOM     17  C   UNL     1     155.202 152.551 157.442  1.00  0.00    -0.000 C 
BRANCH  17  18
ATOM     18  C   UNL     1     154.308 153.671 156.882  1.00  0.00    -0.000 C 
BRANCH  18  19
ATOM     19  C   UNL     1     154.874 155.075 157.139  1.00  0.00    -0.003 C 
ATOM     20  C   UNL     1     154.643 155.505 158.585  1.00  0.00     0.004 C 
ENDBRANCH  18  19
ENDBRANCH  17  18
ENDBRANCH  16  17
ENDBRANCH  15  16
ENDBRANCH  14  15
ENDBRANCH  13  14
ENDBRANCH   2  13
TORSDOF 15
ENDMDL
MODEL 6
REMARK VINA RESULT:    -3.506      2.931      3.495
REMARK INTER + INTRA:          -8.913
REMARK INTER:                  -7.053
REMARK INTRA:                  -1.860
REMARK UNBOUND:                -2.333
REMARK SMILES CCCCCCCCC=CCCCCCCCC(=O)[O-]
REMARK SMILES IDX 10 1 9 2 11 3 12 4 13 5 14 6 15 7 16 8 17 9 18 10 19 11
REMARK SMILES IDX 20 12 8 13 7 14 6 15 5 16 4 17 3 18 2 19 1 20
REMARK H PARENT
REMARK Flexibility Score: inf
ROOT
ATOM      1  C   UNL     1     154.809 155.588 158.555  1.00  0.00    -0.031 C 
ATOM      2  C   UNL     1     154.499 155.230 157.299  1.00  0.00    -0.031 C 
ENDROOT
BRANCH   1   3
ATOM      3  C   UNL     1     154.725 157.019 159.009  1.00  0.00     0.027 C 
BRANCH   3   4
ATOM      4  C   UNL     1     156.092 157.523 159.499  1.00  0.00     0.004 C 
BRANCH   4   5
ATOM      5  C   UNL     1     157.256 156.668 158.974  1.00  0.00     0.000 C 
BRANCH   5   6
ATOM      6  C   UNL     1     158.381 156.499 160.009  1.00  0.00     0.000 C 
BRANCH   6   7
ATOM      7  C   UNL     1     158.166 157.355 161.271  1.00  0.00     0.000 C 
BRANCH   7   8
ATOM      8  C   UNL     1     159.130 158.550 161.417  1.00  0.00     0.006 C 
BRANCH   8   9
ATOM      9  C   UNL     1     159.888 158.599 162.753  1.00  0.00     0.053 C 
BRANCH   9  10
ATOM     10  C   UNL     1     159.075 159.242 163.834  1.00  0.00     0.041 C 
ATOM     11  O   UNL     1     158.317 160.210 163.567  1.00  0.00    -0.550 OA
ATOM     12  O   UNL     1     159.181 158.792 165.144  1.00  0.00    -0.550 OA
ENDBRANCH   9  10
ENDBRANCH   8   9
ENDBRANCH   7   8
ENDBRANCH   6   7
ENDBRANCH   5   6
ENDBRANCH   4   5
ENDBRANCH   3   4
ENDBRANCH   1   3
BRANCH   2  13
ATOM     13  C   UNL     1     154.605 153.802 156.839  1.00  0.00     0.027 C 
BRANCH  13  14
ATOM     14  C   UNL     1     155.007 152.877 157.998  1.00  0.00     0.004 C 
BRANCH  14  15
ATOM     15  C   UNL     1     154.493 151.441 157.811  1.00  0.00     0.000 C 
BRANCH  15  16
ATOM     16  C   UNL     1     153.312 151.108 158.739  1.00  0.00     0.000 C 
BRANCH  16  17
ATOM     17  C   UNL     1     153.156 152.116 159.893  1.00  0.00    -0.000 C 
BRANCH  17  18
ATOM     18  C   UNL     1     151.771 152.781 159.987  1.00  0.00    -0.000 C 
BRANCH  18  19
ATOM     19  C   UNL     1     151.301 153.377 158.652  1.00  0.00    -0.003 C 
ATOM     20  C   UNL     1     151.153 154.893 158.748  1.00  0.00     0.004 C 
ENDBRANCH  18  19
ENDBRANCH  17  18
ENDBRANCH  16  17
ENDBRANCH  15  16
ENDBRANCH  14  15
ENDBRANCH  13  14
ENDBRANCH   2  13
TORSDOF 15
ENDMDL
MODEL 7
REMARK VINA RESULT:    -3.496      4.081      6.260
REMARK INTER + INTRA:          -8.894
REMARK INTER:                  -6.068
REMARK INTRA:                  -2.826
REMARK UNBOUND:                -2.333
REMARK SMILES CCCCCCCCC=CCCCCCCCC(=O)[O-]
REMARK SMILES IDX 10 1 9 2 11 3 12 4 13 5 14 6 15 7 16 8 17 9 18 10 19 11
REMARK SMILES IDX 20 12 8 13 7 14 6 15 5 16 4 17 3 18 2 19 1 20
REMARK H PARENT
REMARK Flexibility Score: inf
ROOT
ATOM      1  C   UNL     1     151.587 152.890 159.027  1.00  0.00    -0.031 C 
ATOM      2  C   UNL     1     151.139 152.733 157.771  1.00  0.00    -0.031 C 
ENDROOT
BRANCH   1   3
ATOM      3  C   UNL     1     152.853 152.230 159.500  1.00  0.00     0.027 C 
BRANCH   3   4
ATOM      4  C   UNL     1     153.557 151.499 158.346  1.00  0.00     0.004 C 
BRANCH   4   5
ATOM      5  C   UNL     1     154.752 152.290 157.792  1.00  0.00     0.000 C 
BRANCH   5   6
ATOM      6  C   UNL     1     155.049 153.562 158.603  1.00  0.00     0.000 C 
BRANCH   6   7
ATOM      7  C   UNL     1     154.809 154.853 157.801  1.00  0.00     0.000 C 
BRANCH   7   8
ATOM      8  C   UNL     1     154.195 154.644 156.401  1.00  0.00     0.006 C 
BRANCH   8   9
ATOM      9  C   UNL     1     153.555 155.900 155.791  1.00  0.00     0.053 C 
BRANCH   9  10
ATOM     10  C   UNL     1     153.608 155.884 154.294  1.00  0.00     0.041 C 
ATOM     11  O   UNL     1     154.676 156.171 153.694  1.00  0.00    -0.550 OA
ATOM     12  O   UNL     1     152.465 155.584 153.562  1.00  0.00    -0.550 OA
ENDBRANCH   9  10
ENDBRANCH   8   9
ENDBRANCH   7   8
ENDBRANCH   6   7
ENDBRANCH   5   6
ENDBRANCH   4   5
ENDBRANCH   3   4
ENDBRANCH   1   3
BRANCH   2  13
ATOM     13  C   UNL     1     149.862 153.375 157.306  1.00  0.00     0.027 C 
BRANCH  13  14
ATOM     14  C   UNL     1     150.143 154.482 156.278  1.00  0.00     0.004 C 
BRANCH  14  15
ATOM     15  C   UNL     1     149.240 155.710 156.472  1.00  0.00     0.000 C 
BRANCH  15  16
ATOM     16  C   UNL     1     148.637 155.784 157.885  1.00  0.00     0.000 C 
BRANCH  16  17
ATOM     17  C   UNL     1     149.243 156.916 158.736  1.00  0.00    -0.000 C 
BRANCH  17  18
ATOM     18  C   UNL     1     150.387 156.480 159.669  1.00  0.00    -0.000 C 
BRANCH  18  19
ATOM     19  C   UNL     1     151.761 156.508 158.985  1.00  0.00    -0.003 C 
ATOM     20  C   UNL     1     152.172 157.934 158.632  1.00  0.00     0.004 C 
ENDBRANCH  18  19
ENDBRANCH  17  18
ENDBRANCH  16  17
ENDBRANCH  15  16
ENDBRANCH  14  15
ENDBRANCH  13  14
ENDBRANCH   2  13
TORSDOF 15
ENDMDL
MODEL 8
REMARK VINA RESULT:    -3.473      4.161      6.967
REMARK INTER + INTRA:          -8.851
REMARK INTER:                  -5.994
REMARK INTRA:                  -2.858
REMARK UNBOUND:                -2.333
REMARK SMILES CCCCCCCCC=CCCCCCCCC(=O)[O-]
REMARK SMILES IDX 10 1 9 2 11 3 12 4 13 5 14 6 15 7 16 8 17 9 18 10 19 11
REMARK SMILES IDX 20 12 8 13 7 14 6 15 5 16 4 17 3 18 2 19 1 20
REMARK H PARENT
REMARK Flexibility Score: inf
ROOT
ATOM      1  C   UNL     1     154.407 153.533 156.733  1.00  0.00    -0.031 C 
ATOM      2  C   UNL     1     154.250 154.736 157.308  1.00  0.00    -0.031 C 
ENDROOT
BRANCH   1   3
ATOM      3  C   UNL     1     154.947 152.358 157.501  1.00  0.00     0.027 C 
BRANCH   3   4
ATOM      4  C   UNL     1     154.600 152.469 158.994  1.00  0.00     0.004 C 
BRANCH   4   5
ATOM      5  C   UNL     1     153.356 151.650 159.371  1.00  0.00     0.000 C 
BRANCH   5   6
ATOM      6  C   UNL     1     152.352 152.452 160.217  1.00  0.00     0.000 C 
BRANCH   6   7
ATOM      7  C   UNL     1     151.511 153.431 159.379  1.00  0.00     0.000 C 
BRANCH   7   8
ATOM      8  C   UNL     1     150.992 152.863 158.042  1.00  0.00     0.006 C 
BRANCH   8   9
ATOM      9  C   UNL     1     150.397 153.912 157.090  1.00  0.00     0.053 C 
BRANCH   9  10
ATOM     10  C   UNL     1     149.121 153.439 156.464  1.00  0.00     0.041 C 
ATOM     11  O   UNL     1     148.715 153.952 155.389  1.00  0.00    -0.550 OA
ATOM     12  O   UNL     1     148.364 152.455 157.087  1.00  0.00    -0.550 OA
ENDBRANCH   9  10
ENDBRANCH   8   9
ENDBRANCH   7   8
ENDBRANCH   6   7
ENDBRANCH   5   6
ENDBRANCH   4   5
ENDBRANCH   3   4
ENDBRANCH   1   3
BRANCH   2  13
ATOM     13  C   UNL     1     153.732 155.916 156.534  1.00  0.00     0.027 C 
BRANCH  13  14
ATOM     14  C   UNL     1     153.116 156.965 157.473  1.00  0.00     0.004 C 
BRANCH  14  15
ATOM     15  C   UNL     1     153.591 156.805 158.925  1.00  0.00     0.000 C 
BRANCH  15  16
ATOM     16  C   UNL     1     154.168 158.107 159.508  1.00  0.00     0.000 C 
BRANCH  16  17
ATOM     17  C   UNL     1     155.705 158.165 159.435  1.00  0.00    -0.000 C 
BRANCH  17  18
ATOM     18  C   UNL     1     156.398 156.796 159.313  1.00  0.00    -0.000 C 
BRANCH  18  19
ATOM     19  C   UNL     1     157.327 156.702 158.095  1.00  0.00    -0.003 C 
ATOM     20  C   UNL     1     156.924 157.702 157.015  1.00  0.00     0.004 C 
ENDBRANCH  18  19
ENDBRANCH  17  18
ENDBRANCH  16  17
ENDBRANCH  15  16
ENDBRANCH  14  15
ENDBRANCH  13  14
ENDBRANCH   2  13
TORSDOF 15
ENDMDL
MODEL 9
REMARK VINA RESULT:    -3.409      3.047      3.737
REMARK INTER + INTRA:          -8.730
REMARK INTER:                  -6.268
REMARK INTRA:                  -2.462
REMARK UNBOUND:                -2.333
REMARK SMILES CCCCCCCCC=CCCCCCCCC(=O)[O-]
REMARK SMILES IDX 10 1 9 2 11 3 12 4 13 5 14 6 15 7 16 8 17 9 18 10 19 11
REMARK SMILES IDX 20 12 8 13 7 14 6 15 5 16 4 17 3 18 2 19 1 20
REMARK H PARENT
REMARK Flexibility Score: inf
ROOT
ATOM      1  C   UNL     1     154.458 154.224 156.378  1.00  0.00    -0.031 C 
ATOM      2  C   UNL     1     154.948 154.168 157.626  1.00  0.00    -0.031 C 
ENDROOT
BRANCH   1   3
ATOM      3  C   UNL     1     154.289 155.533 155.656  1.00  0.00     0.027 C 
BRANCH   3   4
ATOM      4  C   UNL     1     154.657 156.715 156.565  1.00  0.00     0.004 C 
BRANCH   4   5
ATOM      5  C   UNL     1     156.058 157.271 156.269  1.00  0.00     0.000 C 
BRANCH   5   6
ATOM      6  C   UNL     1     156.695 157.954 157.490  1.00  0.00     0.000 C 
BRANCH   6   7
ATOM      7  C   UNL     1     156.339 157.261 158.817  1.00  0.00     0.000 C 
BRANCH   7   8
ATOM      8  C   UNL     1     157.399 156.268 159.337  1.00  0.00     0.006 C 
BRANCH   8   9
ATOM      9  C   UNL     1     158.849 156.644 158.993  1.00  0.00     0.053 C 
BRANCH   9  10
ATOM     10  C   UNL     1     159.492 157.448 160.082  1.00  0.00     0.041 C 
ATOM     11  O   UNL     1     159.176 158.655 160.249  1.00  0.00    -0.550 OA
ATOM     12  O   UNL     1     160.465 156.871 160.889  1.00  0.00    -0.550 OA
ENDBRANCH   9  10
ENDBRANCH   8   9
ENDBRANCH   7   8
ENDBRANCH   6   7
ENDBRANCH   5   6
ENDBRANCH   4   5
ENDBRANCH   3   4
ENDBRANCH   1   3
BRANCH   2  13
ATOM     13  C   UNL     1     155.096 152.861 158.355  1.00  0.00     0.027 C 
BRANCH  13  14
ATOM     14  C   UNL     1     154.489 151.705 157.546  1.00  0.00     0.004 C 
BRANCH  14  15
ATOM     15  C   UNL     1     153.209 151.147 158.186  1.00  0.00     0.000 C 
BRANCH  15  16
ATOM     16  C   UNL     1     152.896 151.792 159.547  1.00  0.00     0.000 C 
BRANCH  16  17
ATOM     17  C   UNL     1     151.696 152.756 159.491  1.00  0.00    -0.000 C 
BRANCH  17  18
ATOM     18  C   UNL     1     151.119 152.988 158.083  1.00  0.00    -0.000 C 
BRANCH  18  19
ATOM     19  C   UNL     1     150.930 154.474 157.750  1.00  0.00    -0.003 C 
ATOM     20  C   UNL     1     151.688 155.360 158.734  1.00  0.00     0.004 C 
ENDBRANCH  18  19
ENDBRANCH  17  18
ENDBRANCH  16  17
ENDBRANCH  15  16
ENDBRANCH  14  15
ENDBRANCH  13  14
ENDBRANCH   2  13
TORSDOF 15
ENDMDL
