MODEL 1
REMARK VINA RESULT:    -4.273      0.000      0.000
REMARK INTER + INTRA:          -6.548
REMARK INTER:                  -6.272
REMARK INTRA:                  -0.276
REMARK UNBOUND:                -0.276
REMARK SMILES O=C([O-])CCCCCCCC(=O)[O-]
REMARK SMILES IDX 7 1 6 2 5 3 4 4 2 5 1 6 3 7 8 8 9 9 10 10 11 11 12 12 13 13
REMARK H PARENT
REMARK Flexibility Score: inf
ROOT
ATOM      1  C   UNL     1     126.889 124.997 127.999  1.00  0.00     0.000 C 
ENDROOT
BRANCH   1   2
ATOM      2  C   UNL     1     125.737 124.205 128.637  1.00  0.00     0.000 C 
BRANCH   2   3
ATOM      3  C   UNL     1     125.850 122.694 128.386  1.00  0.00     0.006 C 
BRANCH   3   4
ATOM      4  C   UNL     1     124.748 121.931 129.126  1.00  0.00     0.053 C 
BRANCH   4   5
ATOM      5  C   UNL     1     125.314 121.205 130.305  1.00  0.00     0.041 C 
ATOM      6  O   UNL     1     124.909 121.470 131.467  1.00  0.00    -0.550 OA
ATOM      7  O   UNL     1     126.254 120.199 130.116  1.00  0.00    -0.550 OA
ENDBRANCH   4   5
ENDBRANCH   3   4
ENDBRANCH   2   3
ENDBRANCH   1   2
BRANCH   1   8
ATOM      8  C   UNL     1     127.379 124.372 126.682  1.00  0.00     0.000 C 
BRANCH   8   9
ATOM      9  C   UNL     1     126.561 124.837 125.463  1.00  0.00     0.006 C 
BRANCH   9  10
ATOM     10  C   UNL     1     127.414 125.316 124.278  1.00  0.00     0.053 C 
BRANCH  10  11
ATOM     11  C   UNL     1     126.572 125.704 123.101  1.00  0.00     0.041 C 
ATOM     12  O   UNL     1     127.086 126.314 122.127  1.00  0.00    -0.550 OA
ATOM     13  O   UNL     1     125.212 125.422 123.098  1.00  0.00    -0.550 OA
ENDBRANCH  10  11
ENDBRANCH   9  10
ENDBRANCH   8   9
ENDBRANCH   1   8
TORSDOF 8
ENDMDL
MODEL 2
REMARK VINA RESULT:    -4.194     10.371     12.184
REMARK INTER + INTRA:          -6.432
REMARK INTER:                  -6.076
REMARK INTRA:                  -0.357
REMARK UNBOUND:                -0.276
REMARK SMILES O=C([O-])CCCCCCCC(=O)[O-]
REMARK SMILES IDX 7 1 6 2 5 3 4 4 2 5 1 6 3 7 8 8 9 9 10 10 11 11 12 12 13 13
REMARK H PARENT
REMARK Flexibility Score: inf
ROOT
ATOM      1  C   UNL     1     131.646 133.100 130.396  1.00  0.00     0.000 C 
ENDROOT
BRANCH   1   2
ATOM      2  C   UNL     1     131.538 134.481 131.063  1.00  0.00     0.000 C 
BRANCH   2   3
ATOM      3  C   UNL     1     130.175 135.147 130.822  1.00  0.00     0.006 C 
BRANCH   3   4
ATOM      4  C   UNL     1     130.348 136.556 130.248  1.00  0.00     0.053 C 
BRANCH   4   5
ATOM      5  C   UNL     1     129.082 137.340 130.391  1.00  0.00     0.041 C 
ATOM      6  O   UNL     1     128.902 138.079 131.393  1.00  0.00    -0.550 OA
ATOM      7  O   UNL     1     128.119 137.292 129.389  1.00  0.00    -0.550 OA
ENDBRANCH   4   5
ENDBRANCH   3   4
ENDBRANCH   2   3
ENDBRANCH   1   2
BRANCH   1   8
ATOM      8  C   UNL     1     130.885 133.027 129.061  1.00  0.00     0.000 C 
BRANCH   8   9
ATOM      9  C   UNL     1     130.732 131.586 128.541  1.00  0.00     0.006 C 
BRANCH   9  10
ATOM     10  C   UNL     1     129.287 131.064 128.547  1.00  0.00     0.053 C 
BRANCH  10  11
ATOM     11  C   UNL     1     128.470 131.661 127.442  1.00  0.00     0.041 C 
ATOM     12  O   UNL     1     128.579 131.224 126.266  1.00  0.00    -0.550 OA
ATOM     13  O   UNL     1     127.616 132.724 127.705  1.00  0.00    -0.550 OA
ENDBRANCH  10  11
ENDBRANCH   9  10
ENDBRANCH   8   9
ENDBRANCH   1   8
TORSDOF 8
ENDMDL
MODEL 3
REMARK VINA RESULT:    -3.991      3.093      4.620
REMARK INTER + INTRA:          -6.133
REMARK INTER:                  -5.769
REMARK INTRA:                  -0.364
REMARK UNBOUND:                -0.276
REMARK SMILES O=C([O-])CCCCCCCC(=O)[O-]
REMARK SMILES IDX 7 1 6 2 5 3 4 4 2 5 1 6 3 7 8 8 9 9 10 10 11 11 12 12 13 13
REMARK H PARENT
REMARK Flexibility Score: inf
ROOT
ATOM      1  C   UNL     1     124.027 122.377 131.633  1.00  0.00     0.000 C 
ENDROOT
BRANCH   1   2
ATOM      2  C   UNL     1     123.816 121.052 132.381  1.00  0.00     0.000 C 
BRANCH   2   3
ATOM      3  C   UNL     1     123.396 119.907 131.447  1.00  0.00     0.006 C 
BRANCH   3   4
ATOM      4  C   UNL     1     124.179 118.629 131.760  1.00  0.00     0.053 C 
BRANCH   4   5
ATOM      5  C   UNL     1     125.360 118.501 130.851  1.00  0.00     0.041 C 
ATOM      6  O   UNL     1     125.328 118.998 129.696  1.00  0.00    -0.550 OA
ATOM      7  O   UNL     1     126.517 117.875 131.300  1.00  0.00    -0.550 OA
ENDBRANCH   4   5
ENDBRANCH   3   4
ENDBRANCH   2   3
ENDBRANCH   1   2
BRANCH   1   8
ATOM      8  C   UNL     1     124.280 122.174 130.129  1.00  0.00     0.000 C 
BRANCH   8   9
ATOM      9  C   UNL     1     124.827 123.438 129.442  1.00  0.00     0.006 C 
BRANCH   9  10
ATOM     10  C   UNL     1     125.473 123.181 128.072  1.00  0.00     0.053 C 
BRANCH  10  11
ATOM     11  C   UNL     1     126.626 124.101 127.814  1.00  0.00     0.041 C 
ATOM     12  O   UNL     1     127.649 123.683 127.210  1.00  0.00    -0.550 OA
ATOM     13  O   UNL     1     126.586 125.411 128.272  1.00  0.00    -0.550 OA
ENDBRANCH  10  11
ENDBRANCH   9  10
ENDBRANCH   8   9
ENDBRANCH   1   8
TORSDOF 8
ENDMDL
MODEL 4
REMARK VINA RESULT:    -3.961      2.955      8.017
REMARK INTER + INTRA:          -6.090
REMARK INTER:                  -5.705
REMARK INTRA:                  -0.385
REMARK UNBOUND:                -0.276
REMARK SMILES O=C([O-])CCCCCCCC(=O)[O-]
REMARK SMILES IDX 7 1 6 2 5 3 4 4 2 5 1 6 3 7 8 8 9 9 10 10 11 11 12 12 13 13
REMARK H PARENT
REMARK Flexibility Score: inf
ROOT
ATOM      1  C   UNL     1     125.982 120.603 130.151  1.00  0.00     0.000 C 
ENDROOT
BRANCH   1   2
ATOM      2  C   UNL     1     124.934 121.707 129.941  1.00  0.00     0.000 C 
BRANCH   2   3
ATOM      3  C   UNL     1     125.024 122.348 128.548  1.00  0.00     0.006 C 
BRANCH   3   4
ATOM      4  C   UNL     1     126.467 122.739 128.217  1.00  0.00     0.053 C 
BRANCH   4   5
ATOM      5  C   UNL     1     126.526 124.144 127.705  1.00  0.00     0.041 C 
ATOM      6  O   UNL     1     126.080 125.092 128.402  1.00  0.00    -0.550 OA
ATOM      7  O   UNL     1     127.119 124.411 126.477  1.00  0.00    -0.550 OA
ENDBRANCH   4   5
ENDBRANCH   3   4
ENDBRANCH   2   3
ENDBRANCH   1   2
BRANCH   1   8
ATOM      8  C   UNL     1     125.404 119.192 129.942  1.00  0.00     0.000 C 
BRANCH   8   9
ATOM      9  C   UNL     1     125.306 118.390 131.252  1.00  0.00     0.006 C 
BRANCH   9  10
ATOM     10  C   UNL     1     123.884 117.926 131.602  1.00  0.00     0.053 C 
BRANCH  10  11
ATOM     11  C   UNL     1     123.262 118.777 132.667  1.00  0.00     0.041 C 
ATOM     12  O   UNL     1     123.498 120.013 132.708  1.00  0.00    -0.550 OA
ATOM     13  O   UNL     1     122.452 118.198 133.634  1.00  0.00    -0.550 OA
ENDBRANCH  10  11
ENDBRANCH   9  10
ENDBRANCH   8   9
ENDBRANCH   1   8
TORSDOF 8
ENDMDL
MODEL 5
REMARK VINA RESULT:    -3.942      2.977      7.476
REMARK INTER + INTRA:          -6.062
REMARK INTER:                  -5.653
REMARK INTRA:                  -0.409
REMARK UNBOUND:                -0.276
REMARK SMILES O=C([O-])CCCCCCCC(=O)[O-]
REMARK SMILES IDX 7 1 6 2 5 3 4 4 2 5 1 6 3 7 8 8 9 9 10 10 11 11 12 12 13 13
REMARK H PARENT
REMARK Flexibility Score: inf
ROOT
ATOM      1  C   UNL     1     125.573 120.967 130.043  1.00  0.00     0.000 C 
ENDROOT
BRANCH   1   2
ATOM      2  C   UNL     1     124.708 122.176 129.648  1.00  0.00     0.000 C 
BRANCH   2   3
ATOM      3  C   UNL     1     125.024 122.689 128.235  1.00  0.00     0.006 C 
BRANCH   3   4
ATOM      4  C   UNL     1     126.505 123.054 128.103  1.00  0.00     0.053 C 
BRANCH   4   5
ATOM      5  C   UNL     1     126.658 124.458 127.610  1.00  0.00     0.041 C 
ATOM      6  O   UNL     1     126.665 125.418 128.423  1.00  0.00    -0.550 OA
ATOM      7  O   UNL     1     126.845 124.702 126.254  1.00  0.00    -0.550 OA
ENDBRANCH   4   5
ENDBRANCH   3   4
ENDBRANCH   2   3
ENDBRANCH   1   2
BRANCH   1   8
ATOM      8  C   UNL     1     124.771 119.885 130.786  1.00  0.00     0.000 C 
BRANCH   8   9
ATOM      9  C   UNL     1     123.397 120.387 131.266  1.00  0.00     0.006 C 
BRANCH   9  10
ATOM     10  C   UNL     1     123.342 120.740 132.760  1.00  0.00     0.053 C 
BRANCH  10  11
ATOM     11  C   UNL     1     122.928 122.162 132.985  1.00  0.00     0.041 C 
ATOM     12  O   UNL     1     121.962 122.651 132.343  1.00  0.00    -0.550 OA
ATOM     13  O   UNL     1     123.634 122.957 133.878  1.00  0.00    -0.550 OA
ENDBRANCH  10  11
ENDBRANCH   9  10
ENDBRANCH   8   9
ENDBRANCH   1   8
TORSDOF 8
ENDMDL
MODEL 6
REMARK VINA RESULT:    -3.874      3.226      5.097
REMARK INTER + INTRA:          -5.963
REMARK INTER:                  -5.469
REMARK INTRA:                  -0.494
REMARK UNBOUND:                -0.276
REMARK SMILES O=C([O-])CCCCCCCC(=O)[O-]
REMARK SMILES IDX 7 1 6 2 5 3 4 4 2 5 1 6 3 7 8 8 9 9 10 10 11 11 12 12 13 13
REMARK H PARENT
REMARK Flexibility Score: inf
ROOT
ATOM      1  C   UNL     1     125.505 120.899 130.590  1.00  0.00     0.000 C 
ENDROOT
BRANCH   1   2
ATOM      2  C   UNL     1     125.051 119.510 130.112  1.00  0.00     0.000 C 
BRANCH   2   3
ATOM      3  C   UNL     1     124.865 118.519 131.271  1.00  0.00     0.006 C 
BRANCH   3   4
ATOM      4  C   UNL     1     123.383 118.359 131.623  1.00  0.00     0.053 C 
BRANCH   4   5
ATOM      5  C   UNL     1     123.125 118.812 133.025  1.00  0.00     0.041 C 
ATOM      6  O   UNL     1     123.082 120.040 133.297  1.00  0.00    -0.550 OA
ATOM      7  O   UNL     1     122.880 117.877 134.023  1.00  0.00    -0.550 OA
ENDBRANCH   4   5
ENDBRANCH   3   4
ENDBRANCH   2   3
ENDBRANCH   1   2
BRANCH   1   8
ATOM      8  C   UNL     1     124.359 121.925 130.597  1.00  0.00     0.000 C 
BRANCH   8   9
ATOM      9  C   UNL     1     124.618 123.111 129.650  1.00  0.00     0.006 C 
BRANCH   9  10
ATOM     10  C   UNL     1     125.050 122.704 128.233  1.00  0.00     0.053 C 
BRANCH  10  11
ATOM     11  C   UNL     1     126.391 123.263 127.872  1.00  0.00     0.041 C 
ATOM     12  O   UNL     1     127.442 122.646 128.190  1.00  0.00    -0.550 OA
ATOM     13  O   UNL     1     126.482 124.484 127.217  1.00  0.00    -0.550 OA
ENDBRANCH  10  11
ENDBRANCH   9  10
ENDBRANCH   8   9
ENDBRANCH   1   8
TORSDOF 8
ENDMDL
MODEL 7
REMARK VINA RESULT:    -3.835     11.246     13.049
REMARK INTER + INTRA:          -5.906
REMARK INTER:                  -5.437
REMARK INTRA:                  -0.469
REMARK UNBOUND:                -0.276
REMARK SMILES O=C([O-])CCCCCCCC(=O)[O-]
REMARK SMILES IDX 7 1 6 2 5 3 4 4 2 5 1 6 3 7 8 8 9 9 10 10 11 11 12 12 13 13
REMARK H PARENT
REMARK Flexibility Score: inf
ROOT
ATOM      1  C   UNL     1     130.994 134.466 130.488  1.00  0.00     0.000 C 
ENDROOT
BRANCH   1   2
ATOM      2  C   UNL     1     131.455 133.000 130.545  1.00  0.00     0.000 C 
BRANCH   2   3
ATOM      3  C   UNL     1     131.432 132.321 129.167  1.00  0.00     0.006 C 
BRANCH   3   4
ATOM      4  C   UNL     1     130.385 132.968 128.255  1.00  0.00     0.053 C 
BRANCH   4   5
ATOM      5  C   UNL     1     129.306 131.988 127.918  1.00  0.00     0.041 C 
ATOM      6  O   UNL     1     129.519 130.752 128.016  1.00  0.00    -0.550 OA
ATOM      7  O   UNL     1     128.047 132.443 127.544  1.00  0.00    -0.550 OA
ENDBRANCH   4   5
ENDBRANCH   3   4
ENDBRANCH   2   3
ENDBRANCH   1   2
BRANCH   1   8
ATOM      8  C   UNL     1     131.920 135.408 131.276  1.00  0.00     0.000 C 
BRANCH   8   9
ATOM      9  C   UNL     1     132.322 134.837 132.648  1.00  0.00     0.006 C 
BRANCH   9  10
ATOM     10  C   UNL     1     133.737 135.228 133.104  1.00  0.00     0.053 C 
BRANCH  10  11
ATOM     11  C   UNL     1     134.776 134.858 132.091  1.00  0.00     0.041 C 
ATOM     12  O   UNL     1     135.084 133.650 131.911  1.00  0.00    -0.550 OA
ATOM     13  O   UNL     1     135.429 135.850 131.371  1.00  0.00    -0.550 OA
ENDBRANCH  10  11
ENDBRANCH   9  10
ENDBRANCH   8   9
ENDBRANCH   1   8
TORSDOF 8
ENDMDL
MODEL 8
REMARK VINA RESULT:    -3.812     10.733     11.916
REMARK INTER + INTRA:          -5.871
REMARK INTER:                  -5.434
REMARK INTRA:                  -0.437
REMARK UNBOUND:                -0.276
REMARK SMILES O=C([O-])CCCCCCCC(=O)[O-]
REMARK SMILES IDX 7 1 6 2 5 3 4 4 2 5 1 6 3 7 8 8 9 9 10 10 11 11 12 12 13 13
REMARK H PARENT
REMARK Flexibility Score: inf
ROOT
ATOM      1  C   UNL     1     130.366 134.777 130.102  1.00  0.00     0.000 C 
ENDROOT
BRANCH   1   2
ATOM      2  C   UNL     1     130.985 135.934 130.903  1.00  0.00     0.000 C 
BRANCH   2   3
ATOM      3  C   UNL     1     132.425 135.639 131.348  1.00  0.00     0.006 C 
BRANCH   3   4
ATOM      4  C   UNL     1     132.491 135.379 132.855  1.00  0.00     0.053 C 
BRANCH   4   5
ATOM      5  C   UNL     1     132.569 133.911 133.132  1.00  0.00     0.041 C 
ATOM      6  O   UNL     1     131.569 133.297 133.588  1.00  0.00    -0.550 OA
ATOM      7  O   UNL     1     133.732 133.210 132.837  1.00  0.00    -0.550 OA
ENDBRANCH   4   5
ENDBRANCH   3   4
ENDBRANCH   2   3
ENDBRANCH   1   2
BRANCH   1   8
ATOM      8  C   UNL     1     131.405 133.718 129.695  1.00  0.00     0.000 C 
BRANCH   8   9
ATOM      9  C   UNL     1     130.759 132.433 129.144  1.00  0.00     0.006 C 
BRANCH   9  10
ATOM     10  C   UNL     1     129.882 132.651 127.902  1.00  0.00     0.053 C 
BRANCH  10  11
ATOM     11  C   UNL     1     129.155 131.404 127.502  1.00  0.00     0.041 C 
ATOM     12  O   UNL     1     128.514 131.363 126.419  1.00  0.00    -0.550 OA
ATOM     13  O   UNL     1     129.156 130.300 128.344  1.00  0.00    -0.550 OA
ENDBRANCH  10  11
ENDBRANCH   9  10
ENDBRANCH   8   9
ENDBRANCH   1   8
TORSDOF 8
ENDMDL
MODEL 9
REMARK VINA RESULT:    -3.810      2.951      4.623
REMARK INTER + INTRA:          -5.869
REMARK INTER:                  -5.459
REMARK INTRA:                  -0.410
REMARK UNBOUND:                -0.276
REMARK SMILES O=C([O-])CCCCCCCC(=O)[O-]
REMARK SMILES IDX 7 1 6 2 5 3 4 4 2 5 1 6 3 7 8 8 9 9 10 10 11 11 12 12 13 13
REMARK H PARENT
REMARK Flexibility Score: inf
ROOT
ATOM      1  C   UNL     1     124.906 121.054 129.723  1.00  0.00     0.000 C 
ENDROOT
BRANCH   1   2
ATOM      2  C   UNL     1     125.092 120.503 131.146  1.00  0.00     0.000 C 
BRANCH   2   3
ATOM      3  C   UNL     1     123.889 119.672 131.618  1.00  0.00     0.006 C 
BRANCH   3   4
ATOM      4  C   UNL     1     123.105 120.413 132.705  1.00  0.00     0.053 C 
BRANCH   4   5
ATOM      5  C   UNL     1     121.939 121.137 132.110  1.00  0.00     0.041 C 
ATOM      6  O   UNL     1     121.959 122.391 132.003  1.00  0.00    -0.550 OA
ATOM      7  O   UNL     1     120.850 120.422 131.625  1.00  0.00    -0.550 OA
ENDBRANCH   4   5
ENDBRANCH   3   4
ENDBRANCH   2   3
ENDBRANCH   1   2
BRANCH   1   8
ATOM      8  C   UNL     1     124.823 122.589 129.690  1.00  0.00     0.000 C 
BRANCH   8   9
ATOM      9  C   UNL     1     125.074 123.168 128.286  1.00  0.00     0.006 C 
BRANCH   9  10
ATOM     10  C   UNL     1     126.121 124.293 128.245  1.00  0.00     0.053 C 
BRANCH  10  11
ATOM     11  C   UNL     1     127.377 123.866 127.552  1.00  0.00     0.041 C 
ATOM     12  O   UNL     1     127.615 124.251 126.377  1.00  0.00    -0.550 OA
ATOM     13  O   UNL     1     128.267 123.012 128.190  1.00  0.00    -0.550 OA
ENDBRANCH  10  11
ENDBRANCH   9  10
ENDBRANCH   8   9
ENDBRANCH   1   8
TORSDOF 8
ENDMDL
