MODEL 1
REMARK VINA RESULT:    -4.783      0.000      0.000
REMARK INTER + INTRA:          -5.079
REMARK INTER:                  -5.062
REMARK INTRA:                  -0.017
REMARK UNBOUND:                -0.017
REMARK SMILES O=C([O-])c1cccnc1
REMARK SMILES IDX 4 1 5 2 9 3 6 4 8 5 7 6 2 7 1 8 3 9
REMARK H PARENT
REMARK Flexibility Score: inf
ROOT
ATOM      1  C   UNL     1      14.819  75.361  71.248  1.00  0.00     0.016 A 
ATOM      2  C   UNL     1      13.592  75.745  70.681  1.00  0.00     0.013 A 
ATOM      3  C   UNL     1      15.708  74.603  70.468  1.00  0.00     0.120 A 
ATOM      4  C   UNL     1      13.279  75.375  69.373  1.00  0.00     0.021 A 
ATOM      5  N   UNL     1      15.378  74.256  69.195  1.00  0.00    -0.264 NA
ATOM      6  C   UNL     1      14.195  74.622  68.637  1.00  0.00     0.111 A 
ENDROOT
BRANCH   1   7
ATOM      7  C   UNL     1      15.162  75.748  72.634  1.00  0.00     0.073 C 
ATOM      8  O   UNL     1      14.608  75.180  73.613  1.00  0.00    -0.545 OA
ATOM      9  O   UNL     1      16.101  76.744  72.876  1.00  0.00    -0.545 OA
ENDBRANCH   1   7
TORSDOF 1
ENDMDL
MODEL 2
REMARK VINA RESULT:    -4.611      1.119      1.555
REMARK INTER + INTRA:          -4.897
REMARK INTER:                  -4.880
REMARK INTRA:                  -0.018
REMARK UNBOUND:                -0.017
REMARK SMILES O=C([O-])c1cccnc1
REMARK SMILES IDX 4 1 5 2 9 3 6 4 8 5 7 6 2 7 1 8 3 9
REMARK H PARENT
REMARK Flexibility Score: inf
ROOT
ATOM      1  C   UNL     1      14.553  75.521  71.270  1.00  0.00     0.016 A 
ATOM      2  C   UNL     1      14.730  74.272  70.653  1.00  0.00     0.013 A 
ATOM      3  C   UNL     1      13.897  76.535  70.552  1.00  0.00     0.120 A 
ATOM      4  C   UNL     1      14.260  74.059  69.356  1.00  0.00     0.021 A 
ATOM      5  N   UNL     1      13.449  76.301  69.289  1.00  0.00    -0.264 NA
ATOM      6  C   UNL     1      13.614  75.096  68.683  1.00  0.00     0.111 A 
ENDROOT
BRANCH   1   7
ATOM      7  C   UNL     1      15.047  75.759  72.644  1.00  0.00     0.073 C 
ATOM      8  O   UNL     1      14.586  75.101  73.613  1.00  0.00    -0.545 OA
ATOM      9  O   UNL     1      16.028  76.715  72.884  1.00  0.00    -0.545 OA
ENDBRANCH   1   7
TORSDOF 1
ENDMDL
MODEL 3
REMARK VINA RESULT:    -4.589      3.162      3.914
REMARK INTER + INTRA:          -4.874
REMARK INTER:                  -4.857
REMARK INTRA:                  -0.017
REMARK UNBOUND:                -0.017
REMARK SMILES O=C([O-])c1cccnc1
REMARK SMILES IDX 4 1 5 2 9 3 6 4 8 5 7 6 2 7 1 8 3 9
REMARK H PARENT
REMARK Flexibility Score: inf
ROOT
ATOM      1  C   UNL     1      14.891  74.222  69.544  1.00  0.00     0.016 A 
ATOM      2  C   UNL     1      13.725  74.984  69.720  1.00  0.00     0.013 A 
ATOM      3  C   UNL     1      15.833  74.190  70.587  1.00  0.00     0.120 A 
ATOM      4  C   UNL     1      13.520  75.688  70.908  1.00  0.00     0.021 A 
ATOM      5  N   UNL     1      15.609  74.885  71.734  1.00  0.00    -0.264 NA
ATOM      6  C   UNL     1      14.484  75.625  71.915  1.00  0.00     0.111 A 
ENDROOT
BRANCH   1   7
ATOM      7  C   UNL     1      15.119  73.472  68.290  1.00  0.00     0.073 C 
ATOM      8  O   UNL     1      15.361  74.081  67.214  1.00  0.00    -0.545 OA
ATOM      9  O   UNL     1      15.069  72.082  68.281  1.00  0.00    -0.545 OA
ENDBRANCH   1   7
TORSDOF 1
ENDMDL
MODEL 4
REMARK VINA RESULT:    -4.473      3.061      4.059
REMARK INTER + INTRA:          -4.751
REMARK INTER:                  -4.730
REMARK INTRA:                  -0.021
REMARK UNBOUND:                -0.017
REMARK SMILES O=C([O-])c1cccnc1
REMARK SMILES IDX 4 1 5 2 9 3 6 4 8 5 7 6 2 7 1 8 3 9
REMARK H PARENT
REMARK Flexibility Score: inf
ROOT
ATOM      1  C   UNL     1      15.232  74.528  69.935  1.00  0.00     0.016 A 
ATOM      2  C   UNL     1      16.107  74.295  71.008  1.00  0.00     0.013 A 
ATOM      3  C   UNL     1      14.268  75.542  70.067  1.00  0.00     0.120 A 
ATOM      4  C   UNL     1      16.010  75.060  72.171  1.00  0.00     0.021 A 
ATOM      5  N   UNL     1      14.194  76.273  71.212  1.00  0.00    -0.264 NA
ATOM      6  C   UNL     1      15.037  76.057  72.255  1.00  0.00     0.111 A 
ENDROOT
BRANCH   1   7
ATOM      7  C   UNL     1      15.325  73.723  68.698  1.00  0.00     0.073 C 
ATOM      8  O   UNL     1      15.062  74.236  67.579  1.00  0.00    -0.545 OA
ATOM      9  O   UNL     1      15.704  72.386  68.754  1.00  0.00    -0.545 OA
ENDBRANCH   1   7
TORSDOF 1
ENDMDL
MODEL 5
REMARK VINA RESULT:    -4.440      2.825      3.617
REMARK INTER + INTRA:          -4.716
REMARK INTER:                  -4.694
REMARK INTRA:                  -0.021
REMARK UNBOUND:                -0.017
REMARK SMILES O=C([O-])c1cccnc1
REMARK SMILES IDX 4 1 5 2 9 3 6 4 8 5 7 6 2 7 1 8 3 9
REMARK H PARENT
REMARK Flexibility Score: inf
ROOT
ATOM      1  C   UNL     1      14.761  74.600  70.500  1.00  0.00     0.016 A 
ATOM      2  C   UNL     1      14.164  75.567  71.325  1.00  0.00     0.013 A 
ATOM      3  C   UNL     1      16.062  74.169  70.809  1.00  0.00     0.120 A 
ATOM      4  C   UNL     1      14.859  76.079  72.422  1.00  0.00     0.021 A 
ATOM      5  N   UNL     1      16.717  74.684  71.885  1.00  0.00    -0.264 NA
ATOM      6  C   UNL     1      16.149  75.619  72.689  1.00  0.00     0.111 A 
ENDROOT
BRANCH   1   7
ATOM      7  C   UNL     1      14.034  74.051  69.334  1.00  0.00     0.073 C 
ATOM      8  O   UNL     1      14.230  72.865  68.958  1.00  0.00    -0.545 OA
ATOM      9  O   UNL     1      13.124  74.838  68.637  1.00  0.00    -0.545 OA
ENDBRANCH   1   7
TORSDOF 1
ENDMDL
MODEL 6
REMARK VINA RESULT:    -4.378      3.070      4.059
REMARK INTER + INTRA:          -4.650
REMARK INTER:                  -4.627
REMARK INTRA:                  -0.023
REMARK UNBOUND:                -0.017
REMARK SMILES O=C([O-])c1cccnc1
REMARK SMILES IDX 4 1 5 2 9 3 6 4 8 5 7 6 2 7 1 8 3 9
REMARK H PARENT
REMARK Flexibility Score: inf
ROOT
ATOM      1  C   UNL     1      14.757  75.120  69.835  1.00  0.00     0.016 A 
ATOM      2  C   UNL     1      15.799  74.340  70.362  1.00  0.00     0.013 A 
ATOM      3  C   UNL     1      14.208  76.133  70.638  1.00  0.00     0.120 A 
ATOM      4  C   UNL     1      16.267  74.578  71.656  1.00  0.00     0.021 A 
ATOM      5  N   UNL     1      14.683  76.345  71.895  1.00  0.00    -0.264 NA
ATOM      6  C   UNL     1      15.690  75.597  72.415  1.00  0.00     0.111 A 
ENDROOT
BRANCH   1   7
ATOM      7  C   UNL     1      14.252  74.876  68.466  1.00  0.00     0.073 C 
ATOM      8  O   UNL     1      14.946  74.236  67.632  1.00  0.00    -0.545 OA
ATOM      9  O   UNL     1      13.004  75.352  68.080  1.00  0.00    -0.545 OA
ENDBRANCH   1   7
TORSDOF 1
ENDMDL
MODEL 7
REMARK VINA RESULT:    -4.374      3.244      4.513
REMARK INTER + INTRA:          -4.646
REMARK INTER:                  -4.627
REMARK INTRA:                  -0.019
REMARK UNBOUND:                -0.017
REMARK SMILES O=C([O-])c1cccnc1
REMARK SMILES IDX 4 1 5 2 9 3 6 4 8 5 7 6 2 7 1 8 3 9
REMARK H PARENT
REMARK Flexibility Score: inf
ROOT
ATOM      1  C   UNL     1      16.928  75.623  72.489  1.00  0.00     0.016 A 
ATOM      2  C   UNL     1      16.948  77.014  72.676  1.00  0.00     0.013 A 
ATOM      3  C   UNL     1      18.033  74.873  72.927  1.00  0.00     0.120 A 
ATOM      4  C   UNL     1      18.046  77.624  73.285  1.00  0.00     0.021 A 
ATOM      5  N   UNL     1      19.090  75.492  73.518  1.00  0.00    -0.264 NA
ATOM      6  C   UNL     1      19.119  76.838  73.704  1.00  0.00     0.111 A 
ENDROOT
BRANCH   1   7
ATOM      7  C   UNL     1      15.770  74.965  71.845  1.00  0.00     0.073 C 
ATOM      8  O   UNL     1      15.941  74.130  70.918  1.00  0.00    -0.545 OA
ATOM      9  O   UNL     1      14.474  75.262  72.254  1.00  0.00    -0.545 OA
ENDBRANCH   1   7
TORSDOF 1
ENDMDL
MODEL 8
REMARK VINA RESULT:    -4.178      2.207      2.670
REMARK INTER + INTRA:          -4.439
REMARK INTER:                  -4.422
REMARK INTRA:                  -0.017
REMARK UNBOUND:                -0.017
REMARK SMILES O=C([O-])c1cccnc1
REMARK SMILES IDX 4 1 5 2 9 3 6 4 8 5 7 6 2 7 1 8 3 9
REMARK H PARENT
REMARK Flexibility Score: inf
ROOT
ATOM      1  C   UNL     1      14.323  75.608  69.714  1.00  0.00     0.016 A 
ATOM      2  C   UNL     1      13.905  74.812  68.636  1.00  0.00     0.013 A 
ATOM      3  C   UNL     1      15.366  75.136  70.529  1.00  0.00     0.120 A 
ATOM      4  C   UNL     1      14.521  73.583  68.392  1.00  0.00     0.021 A 
ATOM      5  N   UNL     1      15.950  73.935  70.269  1.00  0.00    -0.264 NA
ATOM      6  C   UNL     1      15.554  73.157  69.228  1.00  0.00     0.111 A 
ENDROOT
BRANCH   1   7
ATOM      7  C   UNL     1      13.678  76.912  69.983  1.00  0.00     0.073 C 
ATOM      8  O   UNL     1      12.925  77.060  70.982  1.00  0.00    -0.545 OA
ATOM      9  O   UNL     1      13.893  77.992  69.135  1.00  0.00    -0.545 OA
ENDBRANCH   1   7
TORSDOF 1
ENDMDL
MODEL 9
REMARK VINA RESULT:    -4.087      2.676      3.217
REMARK INTER + INTRA:          -4.342
REMARK INTER:                  -4.319
REMARK INTRA:                  -0.023
REMARK UNBOUND:                -0.017
REMARK SMILES O=C([O-])c1cccnc1
REMARK SMILES IDX 4 1 5 2 9 3 6 4 8 5 7 6 2 7 1 8 3 9
REMARK H PARENT
REMARK Flexibility Score: inf
ROOT
ATOM      1  C   UNL     1      14.871  74.709  69.445  1.00  0.00     0.016 A 
ATOM      2  C   UNL     1      13.897  74.703  68.433  1.00  0.00     0.013 A 
ATOM      3  C   UNL     1      15.035  75.877  70.209  1.00  0.00     0.120 A 
ATOM      4  C   UNL     1      13.118  75.839  68.204  1.00  0.00     0.021 A 
ATOM      5  N   UNL     1      14.262  76.969  69.965  1.00  0.00    -0.264 NA
ATOM      6  C   UNL     1      13.316  76.974  68.990  1.00  0.00     0.111 A 
ENDROOT
BRANCH   1   7
ATOM      7  C   UNL     1      15.704  73.512  69.696  1.00  0.00     0.073 C 
ATOM      8  O   UNL     1      16.431  73.442  70.721  1.00  0.00    -0.545 OA
ATOM      9  O   UNL     1      15.694  72.447  68.802  1.00  0.00    -0.545 OA
ENDBRANCH   1   7
TORSDOF 1
ENDMDL
