MODEL 1
REMARK VINA RESULT:    -2.090      0.000      0.000
REMARK INTER + INTRA:          -2.090
REMARK INTER:                  -2.090
REMARK INTRA:                   0.000
REMARK UNBOUND:                 0.000
REMARK SMILES CC(=O)[O-]
REMARK SMILES IDX 1 1 2 2 3 3 4 4
REMARK H PARENT
REMARK Flexibility Score: inf
ROOT
ATOM      1  C   UNL     1      53.362 -40.837 -32.218  1.00  0.00     0.063 C 
ATOM      2  C   UNL     1      54.406 -40.495 -33.226  1.00  0.00     0.038 C 
ATOM      3  O   UNL     1      54.373 -41.015 -34.372  1.00  0.00    -0.550 OA
ATOM      4  O   UNL     1      55.387 -39.560 -32.922  1.00  0.00    -0.550 OA
ENDROOT
TORSDOF 0
ENDMDL
MODEL 2
REMARK VINA RESULT:    -1.979      1.438      1.768
REMARK INTER + INTRA:          -1.979
REMARK INTER:                  -1.979
REMARK INTRA:                   0.000
REMARK UNBOUND:                 0.000
REMARK SMILES CC(=O)[O-]
REMARK SMILES IDX 1 1 2 2 3 3 4 4
REMARK H PARENT
REMARK Flexibility Score: inf
ROOT
ATOM      1  C   UNL     1      54.646 -40.835 -34.327  1.00  0.00     0.063 C 
ATOM      2  C   UNL     1      54.513 -40.505 -32.879  1.00  0.00     0.038 C 
ATOM      3  O   UNL     1      53.410 -40.665 -32.293  1.00  0.00    -0.550 OA
ATOM      4  O   UNL     1      55.619 -40.072 -32.160  1.00  0.00    -0.550 OA
ENDROOT
TORSDOF 0
ENDMDL
MODEL 3
REMARK VINA RESULT:    -1.945     13.182     13.398
REMARK INTER + INTRA:          -1.945
REMARK INTER:                  -1.945
REMARK INTRA:                   0.000
REMARK UNBOUND:                 0.000
REMARK SMILES CC(=O)[O-]
REMARK SMILES IDX 1 1 2 2 3 3 4 4
REMARK H PARENT
REMARK Flexibility Score: inf
ROOT
ATOM      1  C   UNL     1      51.323 -27.224 -32.057  1.00  0.00     0.063 C 
ATOM      2  C   UNL     1      50.085 -27.924 -32.507  1.00  0.00     0.038 C 
ATOM      3  O   UNL     1      49.720 -27.851 -33.709  1.00  0.00    -0.550 OA
ATOM      4  O   UNL     1      49.362 -28.702 -31.613  1.00  0.00    -0.550 OA
ENDROOT
TORSDOF 0
ENDMDL
MODEL 4
REMARK VINA RESULT:    -1.942     13.456     13.776
REMARK INTER + INTRA:          -1.942
REMARK INTER:                  -1.942
REMARK INTRA:                   0.000
REMARK UNBOUND:                 0.000
REMARK SMILES CC(=O)[O-]
REMARK SMILES IDX 1 1 2 2 3 3 4 4
REMARK H PARENT
REMARK Flexibility Score: inf
ROOT
ATOM      1  C   UNL     1      47.736 -28.723 -32.343  1.00  0.00     0.063 C 
ATOM      2  C   UNL     1      48.964 -27.898 -32.526  1.00  0.00     0.038 C 
ATOM      3  O   UNL     1      49.402 -27.197 -31.577  1.00  0.00    -0.550 OA
ATOM      4  O   UNL     1      49.659 -27.942 -33.728  1.00  0.00    -0.550 OA
ENDROOT
TORSDOF 0
ENDMDL
MODEL 5
REMARK VINA RESULT:    -1.874     13.047     13.364
REMARK INTER + INTRA:          -1.874
REMARK INTER:                  -1.874
REMARK INTRA:                   0.000
REMARK UNBOUND:                 0.000
REMARK SMILES CC(=O)[O-]
REMARK SMILES IDX 1 1 2 2 3 3 4 4
REMARK H PARENT
REMARK Flexibility Score: inf
ROOT
ATOM      1  C   UNL     1      50.028 -28.698 -31.218  1.00  0.00     0.063 C 
ATOM      2  C   UNL     1      50.443 -27.807 -32.340  1.00  0.00     0.038 C 
ATOM      3  O   UNL     1      51.377 -26.979 -32.177  1.00  0.00    -0.550 OA
ATOM      4  O   UNL     1      49.837 -27.927 -33.584  1.00  0.00    -0.550 OA
ENDROOT
TORSDOF 0
ENDMDL
MODEL 6
REMARK VINA RESULT:    -1.825     10.832     10.896
REMARK INTER + INTRA:          -1.825
REMARK INTER:                  -1.825
REMARK INTRA:                   0.000
REMARK UNBOUND:                 0.000
REMARK SMILES CC(=O)[O-]
REMARK SMILES IDX 1 1 2 2 3 3 4 4
REMARK H PARENT
REMARK Flexibility Score: inf
ROOT
ATOM      1  C   UNL     1      46.673 -34.062 -29.615  1.00  0.00     0.063 C 
ATOM      2  C   UNL     1      46.966 -34.426 -28.199  1.00  0.00     0.038 C 
ATOM      3  O   UNL     1      46.538 -35.509 -27.724  1.00  0.00    -0.550 OA
ATOM      4  O   UNL     1      47.759 -33.595 -27.417  1.00  0.00    -0.550 OA
ENDROOT
TORSDOF 0
ENDMDL
MODEL 7
REMARK VINA RESULT:    -1.787     15.431     15.903
REMARK INTER + INTRA:          -1.787
REMARK INTER:                  -1.787
REMARK INTRA:                   0.000
REMARK UNBOUND:                 0.000
REMARK SMILES CC(=O)[O-]
REMARK SMILES IDX 1 1 2 2 3 3 4 4
REMARK H PARENT
REMARK Flexibility Score: inf
ROOT
ATOM      1  C   UNL     1      38.517 -39.538 -29.182  1.00  0.00     0.063 C 
ATOM      2  C   UNL     1      39.048 -40.863 -29.615  1.00  0.00     0.038 C 
ATOM      3  O   UNL     1      39.995 -41.402 -28.985  1.00  0.00    -0.550 OA
ATOM      4  O   UNL     1      38.461 -41.532 -30.681  1.00  0.00    -0.550 OA
ENDROOT
TORSDOF 0
ENDMDL
MODEL 8
REMARK VINA RESULT:    -1.711     16.214     16.457
REMARK INTER + INTRA:          -1.711
REMARK INTER:                  -1.711
REMARK INTRA:                   0.000
REMARK UNBOUND:                 0.000
REMARK SMILES CC(=O)[O-]
REMARK SMILES IDX 1 1 2 2 3 3 4 4
REMARK H PARENT
REMARK Flexibility Score: inf
ROOT
ATOM      1  C   UNL     1      38.334 -41.746 -28.312  1.00  0.00     0.063 C 
ATOM      2  C   UNL     1      38.468 -42.193 -29.728  1.00  0.00     0.038 C 
ATOM      3  O   UNL     1      38.606 -41.346 -30.648  1.00  0.00    -0.550 OA
ATOM      4  O   UNL     1      38.494 -43.549 -30.030  1.00  0.00    -0.550 OA
ENDROOT
TORSDOF 0
ENDMDL
MODEL 9
REMARK VINA RESULT:    -1.702     15.111     15.543
REMARK INTER + INTRA:          -1.702
REMARK INTER:                  -1.702
REMARK INTRA:                   0.000
REMARK UNBOUND:                 0.000
REMARK SMILES CC(=O)[O-]
REMARK SMILES IDX 1 1 2 2 3 3 4 4
REMARK H PARENT
REMARK Flexibility Score: inf
ROOT
ATOM      1  C   UNL     1      39.021 -41.958 -30.264  1.00  0.00     0.063 C 
ATOM      2  C   UNL     1      39.363 -40.733 -29.484  1.00  0.00     0.038 C 
ATOM      3  O   UNL     1      38.606 -39.728 -29.522  1.00  0.00    -0.550 OA
ATOM      4  O   UNL     1      40.488 -40.718 -28.671  1.00  0.00    -0.550 OA
ENDROOT
TORSDOF 0
ENDMDL
