MODEL 1
REMARK VINA RESULT:    -4.685      0.000      0.000
REMARK INTER + INTRA:          -5.349
REMARK INTER:                  -5.096
REMARK INTRA:                  -0.253
REMARK UNBOUND:                -0.253
REMARK SMILES O=C([O-])c1ccccc1O
REMARK SMILES IDX 4 1 9 2 5 3 8 4 6 5 7 6 2 7 1 8 3 9 10 10
REMARK H PARENT 10 11
REMARK Flexibility Score: inf
ROOT
ATOM      1  C   UNL     1      12.844   3.276   0.096  1.00  0.00     0.039 A 
ATOM      2  C   UNL     1      13.026   2.216  -0.826  1.00  0.00     0.124 A 
ATOM      3  C   UNL     1      12.081   3.043   1.256  1.00  0.00     0.014 A 
ATOM      4  C   UNL     1      12.446   0.963  -0.573  1.00  0.00     0.047 A 
ATOM      5  C   UNL     1      11.510   1.790   1.495  1.00  0.00     0.001 A 
ATOM      6  C   UNL     1      11.693   0.752   0.582  1.00  0.00     0.004 A 
ENDROOT
BRANCH   1   7
ATOM      7  C   UNL     1      13.437   4.620  -0.125  1.00  0.00     0.075 C 
ATOM      8  O   UNL     1      14.103   5.193   0.777  1.00  0.00    -0.545 OA
ATOM      9  O   UNL     1      13.263   5.270  -1.341  1.00  0.00    -0.545 OA
ENDBRANCH   1   7
BRANCH   2  10
ATOM     10  O   UNL     1      13.774   2.401  -1.988  1.00  0.00    -0.507 OA
ATOM     11  H   UNL     1      13.724   3.260  -2.523  1.00  0.00     0.293 HD
ENDBRANCH   2  10
TORSDOF 2
ENDMDL
MODEL 2
REMARK VINA RESULT:    -4.399      9.891     10.975
REMARK INTER + INTRA:          -5.039
REMARK INTER:                  -4.826
REMARK INTRA:                  -0.212
REMARK UNBOUND:                -0.253
REMARK SMILES O=C([O-])c1ccccc1O
REMARK SMILES IDX 4 1 9 2 5 3 8 4 6 5 7 6 2 7 1 8 3 9 10 10
REMARK H PARENT 10 11
REMARK Flexibility Score: inf
ROOT
ATOM      1  C   UNL     1       5.486   9.639   2.760  1.00  0.00     0.039 A 
ATOM      2  C   UNL     1       6.040  10.940   2.847  1.00  0.00     0.124 A 
ATOM      3  C   UNL     1       4.451   9.281   3.645  1.00  0.00     0.014 A 
ATOM      4  C   UNL     1       5.555  11.843   3.806  1.00  0.00     0.047 A 
ATOM      5  C   UNL     1       3.978  10.192   4.594  1.00  0.00     0.001 A 
ATOM      6  C   UNL     1       4.529  11.470   4.673  1.00  0.00     0.004 A 
ENDROOT
BRANCH   1   7
ATOM      7  C   UNL     1       5.964   8.646   1.764  1.00  0.00     0.075 C 
ATOM      8  O   UNL     1       7.122   8.723   1.274  1.00  0.00    -0.545 OA
ATOM      9  O   UNL     1       5.134   7.609   1.356  1.00  0.00    -0.545 OA
ENDBRANCH   1   7
BRANCH   2  10
ATOM     10  O   UNL     1       7.067  11.337   1.991  1.00  0.00    -0.507 OA
ATOM     11  H   UNL     1       7.980  11.604   2.342  1.00  0.00     0.293 HD
ENDBRANCH   2  10
TORSDOF 2
ENDMDL
MODEL 3
REMARK VINA RESULT:    -4.340      9.359     10.224
REMARK INTER + INTRA:          -4.974
REMARK INTER:                  -4.764
REMARK INTRA:                  -0.210
REMARK UNBOUND:                -0.253
REMARK SMILES O=C([O-])c1ccccc1O
REMARK SMILES IDX 4 1 9 2 5 3 8 4 6 5 7 6 2 7 1 8 3 9 10 10
REMARK H PARENT 10 11
REMARK Flexibility Score: inf
ROOT
ATOM      1  C   UNL     1       5.479   9.463   2.719  1.00  0.00     0.039 A 
ATOM      2  C   UNL     1       6.594   9.770   1.903  1.00  0.00     0.124 A 
ATOM      3  C   UNL     1       4.915   8.176   2.642  1.00  0.00     0.014 A 
ATOM      4  C   UNL     1       7.115   8.796   1.036  1.00  0.00     0.047 A 
ATOM      5  C   UNL     1       5.444   7.216   1.774  1.00  0.00     0.001 A 
ATOM      6  C   UNL     1       6.542   7.526   0.973  1.00  0.00     0.004 A 
ENDROOT
BRANCH   1   7
ATOM      7  C   UNL     1       4.891  10.458   3.653  1.00  0.00     0.075 C 
ATOM      8  O   UNL     1       5.054  11.693   3.474  1.00  0.00    -0.545 OA
ATOM      9  O   UNL     1       4.145  10.036   4.747  1.00  0.00    -0.545 OA
ENDBRANCH   1   7
BRANCH   2  10
ATOM     10  O   UNL     1       7.186  11.033   1.946  1.00  0.00    -0.507 OA
ATOM     11  H   UNL     1       8.182  11.150   2.088  1.00  0.00     0.293 HD
ENDBRANCH   2  10
TORSDOF 2
ENDMDL
MODEL 4
REMARK VINA RESULT:    -4.256     10.256     11.095
REMARK INTER + INTRA:          -4.882
REMARK INTER:                  -4.675
REMARK INTRA:                  -0.208
REMARK UNBOUND:                -0.253
REMARK SMILES O=C([O-])c1ccccc1O
REMARK SMILES IDX 4 1 9 2 5 3 8 4 6 5 7 6 2 7 1 8 3 9 10 10
REMARK H PARENT 10 11
REMARK Flexibility Score: inf
ROOT
ATOM      1  C   UNL     1       5.231  10.551   3.410  1.00  0.00     0.039 A 
ATOM      2  C   UNL     1       6.262  10.299   2.473  1.00  0.00     0.124 A 
ATOM      3  C   UNL     1       4.438   9.475   3.853  1.00  0.00     0.014 A 
ATOM      4  C   UNL     1       6.475   8.994   2.002  1.00  0.00     0.047 A 
ATOM      5  C   UNL     1       4.662   8.180   3.375  1.00  0.00     0.001 A 
ATOM      6  C   UNL     1       5.679   7.941   2.452  1.00  0.00     0.004 A 
ENDROOT
BRANCH   1   7
ATOM      7  C   UNL     1       4.965  11.913   3.939  1.00  0.00     0.075 C 
ATOM      8  O   UNL     1       5.853  12.805   3.914  1.00  0.00    -0.545 OA
ATOM      9  O   UNL     1       3.720  12.226   4.473  1.00  0.00    -0.545 OA
ENDBRANCH   1   7
BRANCH   2  10
ATOM     10  O   UNL     1       7.072  11.335   2.007  1.00  0.00    -0.507 OA
ATOM     11  H   UNL     1       6.931  11.752   1.095  1.00  0.00     0.293 HD
ENDBRANCH   2  10
TORSDOF 2
ENDMDL
MODEL 5
REMARK VINA RESULT:    -4.064      8.784      9.557
REMARK INTER + INTRA:          -4.673
REMARK INTER:                  -4.439
REMARK INTRA:                  -0.234
REMARK UNBOUND:                -0.253
REMARK SMILES O=C([O-])c1ccccc1O
REMARK SMILES IDX 4 1 9 2 5 3 8 4 6 5 7 6 2 7 1 8 3 9 10 10
REMARK H PARENT 10 11
REMARK Flexibility Score: inf
ROOT
ATOM      1  C   UNL     1       4.207   2.417  -1.000  1.00  0.00     0.039 A 
ATOM      2  C   UNL     1       3.162   2.926  -1.809  1.00  0.00     0.124 A 
ATOM      3  C   UNL     1       4.712   3.219   0.042  1.00  0.00     0.014 A 
ATOM      4  C   UNL     1       2.651   4.210  -1.563  1.00  0.00     0.047 A 
ATOM      5  C   UNL     1       4.192   4.496   0.274  1.00  0.00     0.001 A 
ATOM      6  C   UNL     1       3.163   4.989  -0.527  1.00  0.00     0.004 A 
ENDROOT
BRANCH   1   7
ATOM      7  C   UNL     1       4.783   1.065  -1.218  1.00  0.00     0.075 C 
ATOM      8  O   UNL     1       4.882   0.580  -2.376  1.00  0.00    -0.545 OA
ATOM      9  O   UNL     1       5.227   0.311  -0.139  1.00  0.00    -0.545 OA
ENDBRANCH   1   7
BRANCH   2  10
ATOM     10  O   UNL     1       2.632   2.167  -2.852  1.00  0.00    -0.507 OA
ATOM     11  H   UNL     1       1.894   1.490  -2.696  1.00  0.00     0.293 HD
ENDBRANCH   2  10
TORSDOF 2
ENDMDL
MODEL 6
REMARK VINA RESULT:    -3.992     11.731     12.756
REMARK INTER + INTRA:          -4.596
REMARK INTER:                  -4.356
REMARK INTRA:                  -0.239
REMARK UNBOUND:                -0.253
REMARK SMILES O=C([O-])c1ccccc1O
REMARK SMILES IDX 4 1 9 2 5 3 8 4 6 5 7 6 2 7 1 8 3 9 10 10
REMARK H PARENT 10 11
REMARK Flexibility Score: inf
ROOT
ATOM      1  C   UNL     1       4.057   9.950   4.413  1.00  0.00     0.039 A 
ATOM      2  C   UNL     1       2.814   9.478   4.901  1.00  0.00     0.124 A 
ATOM      3  C   UNL     1       4.505  11.223   4.816  1.00  0.00     0.014 A 
ATOM      4  C   UNL     1       2.055  10.278   5.769  1.00  0.00     0.047 A 
ATOM      5  C   UNL     1       3.739  12.008   5.682  1.00  0.00     0.001 A 
ATOM      6  C   UNL     1       2.516  11.535   6.158  1.00  0.00     0.004 A 
ENDROOT
BRANCH   1   7
ATOM      7  C   UNL     1       4.898   9.143   3.492  1.00  0.00     0.075 C 
ATOM      8  O   UNL     1       5.244   9.591   2.368  1.00  0.00    -0.545 OA
ATOM      9  O   UNL     1       5.319   7.871   3.862  1.00  0.00    -0.545 OA
ENDBRANCH   1   7
BRANCH   2  10
ATOM     10  O   UNL     1       2.330   8.224   4.528  1.00  0.00    -0.507 OA
ATOM     11  H   UNL     1       2.190   7.975   3.556  1.00  0.00     0.293 HD
ENDBRANCH   2  10
TORSDOF 2
ENDMDL
MODEL 7
REMARK VINA RESULT:    -3.937     14.223     15.329
REMARK INTER + INTRA:          -4.535
REMARK INTER:                  -4.281
REMARK INTRA:                  -0.254
REMARK UNBOUND:                -0.253
REMARK SMILES O=C([O-])c1ccccc1O
REMARK SMILES IDX 4 1 9 2 5 3 8 4 6 5 7 6 2 7 1 8 3 9 10 10
REMARK H PARENT 10 11
REMARK Flexibility Score: inf
ROOT
ATOM      1  C   UNL     1       2.409  10.297   7.287  1.00  0.00     0.039 A 
ATOM      2  C   UNL     1       1.472  10.949   8.125  1.00  0.00     0.124 A 
ATOM      3  C   UNL     1       3.491   9.618   7.879  1.00  0.00     0.014 A 
ATOM      4  C   UNL     1       1.634  10.910   9.518  1.00  0.00     0.047 A 
ATOM      5  C   UNL     1       3.640   9.587   9.269  1.00  0.00     0.001 A 
ATOM      6  C   UNL     1       2.713  10.232  10.086  1.00  0.00     0.004 A 
ENDROOT
BRANCH   1   7
ATOM      7  C   UNL     1       2.282  10.308   5.807  1.00  0.00     0.075 C 
ATOM      8  O   UNL     1       2.370   9.245   5.139  1.00  0.00    -0.545 OA
ATOM      9  O   UNL     1       2.061  11.503   5.132  1.00  0.00    -0.545 OA
ENDBRANCH   1   7
BRANCH   2  10
ATOM     10  O   UNL     1       0.384  11.634   7.582  1.00  0.00    -0.507 OA
ATOM     11  H   UNL     1      -0.293  11.172   6.987  1.00  0.00     0.293 HD
ENDBRANCH   2  10
TORSDOF 2
ENDMDL
MODEL 8
REMARK VINA RESULT:    -3.929     19.219     20.341
REMARK INTER + INTRA:          -4.527
REMARK INTER:                  -4.277
REMARK INTRA:                  -0.249
REMARK UNBOUND:                -0.253
REMARK SMILES O=C([O-])c1ccccc1O
REMARK SMILES IDX 4 1 9 2 5 3 8 4 6 5 7 6 2 7 1 8 3 9 10 10
REMARK H PARENT 10 11
REMARK Flexibility Score: inf
ROOT
ATOM      1  C   UNL     1      -3.141   6.242  11.949  1.00  0.00     0.039 A 
ATOM      2  C   UNL     1      -2.162   6.806  12.803  1.00  0.00     0.124 A 
ATOM      3  C   UNL     1      -2.806   5.106  11.189  1.00  0.00     0.014 A 
ATOM      4  C   UNL     1      -0.884   6.230  12.876  1.00  0.00     0.047 A 
ATOM      5  C   UNL     1      -1.529   4.543  11.273  1.00  0.00     0.001 A 
ATOM      6  C   UNL     1      -0.571   5.104  12.115  1.00  0.00     0.004 A 
ENDROOT
BRANCH   1   7
ATOM      7  C   UNL     1      -4.507   6.814  11.835  1.00  0.00     0.075 C 
ATOM      8  O   UNL     1      -5.149   7.172  12.858  1.00  0.00    -0.545 OA
ATOM      9  O   UNL     1      -5.102   6.964  10.588  1.00  0.00    -0.545 OA
ENDBRANCH   1   7
BRANCH   2  10
ATOM     10  O   UNL     1      -2.449   7.932  13.574  1.00  0.00    -0.507 OA
ATOM     11  H   UNL     1      -1.718   8.474  14.018  1.00  0.00     0.293 HD
ENDBRANCH   2  10
TORSDOF 2
ENDMDL
MODEL 9
REMARK VINA RESULT:    -3.903     11.453     12.617
REMARK INTER + INTRA:          -4.499
REMARK INTER:                  -4.252
REMARK INTRA:                  -0.247
REMARK UNBOUND:                -0.253
REMARK SMILES O=C([O-])c1ccccc1O
REMARK SMILES IDX 4 1 9 2 5 3 8 4 6 5 7 6 2 7 1 8 3 9 10 10
REMARK H PARENT 10 11
REMARK Flexibility Score: inf
ROOT
ATOM      1  C   UNL     1       4.340   0.632   8.661  1.00  0.00     0.039 A 
ATOM      2  C   UNL     1       4.910  -0.565   9.159  1.00  0.00     0.124 A 
ATOM      3  C   UNL     1       3.004   0.613   8.215  1.00  0.00     0.014 A 
ATOM      4  C   UNL     1       4.144  -1.740   9.200  1.00  0.00     0.047 A 
ATOM      5  C   UNL     1       2.253  -0.565   8.262  1.00  0.00     0.001 A 
ATOM      6  C   UNL     1       2.823  -1.739   8.754  1.00  0.00     0.004 A 
ENDROOT
BRANCH   1   7
ATOM      7  C   UNL     1       5.108   1.902   8.597  1.00  0.00     0.075 C 
ATOM      8  O   UNL     1       6.222   1.959   8.013  1.00  0.00    -0.545 OA
ATOM      9  O   UNL     1       4.602   3.056   9.184  1.00  0.00    -0.545 OA
ENDBRANCH   1   7
BRANCH   2  10
ATOM     10  O   UNL     1       6.230  -0.593   9.611  1.00  0.00    -0.507 OA
ATOM     11  H   UNL     1       6.583   0.096  10.265  1.00  0.00     0.293 HD
ENDBRANCH   2  10
TORSDOF 2
ENDMDL
