MODEL 1
REMARK VINA RESULT:    -5.510      0.000      0.000
REMARK INTER + INTRA:          -6.178
REMARK INTER:                  -5.993
REMARK INTRA:                  -0.185
REMARK UNBOUND:                -0.185
REMARK SMILES Cc1ccc(C(C)C)c(O)c1
REMARK SMILES IDX 1 1 2 2 11 3 9 4 5 5 4 6 3 7 10 8 6 10 7 11 8 12
REMARK H PARENT 10 9
REMARK Flexibility Score: inf
ROOT
ATOM      1  C   UNL     1      18.615  -6.659  32.265  1.00  0.00     0.044 C 
ATOM      2  C   UNL     1      17.815  -5.675  33.067  1.00  0.00    -0.047 A 
ATOM      3  C   UNL     1      17.612  -5.880  34.436  1.00  0.00     0.049 A 
ATOM      4  C   UNL     1      16.900  -4.955  35.211  1.00  0.00     0.119 A 
ATOM      5  C   UNL     1      16.380  -3.774  34.602  1.00  0.00    -0.004 A 
ATOM      6  C   UNL     1      16.615  -3.578  33.224  1.00  0.00     0.008 A 
ATOM      7  C   UNL     1      17.328  -4.511  32.470  1.00  0.00     0.004 A 
ENDROOT
BRANCH   4   8
ATOM      8  O   UNL     1      16.749  -5.262  36.564  1.00  0.00    -0.508 OA
ATOM      9  H   UNL     1      16.228  -6.043  36.924  1.00  0.00     0.293 HD
ENDBRANCH   4   8
BRANCH   5  10
ATOM     10  C   UNL     1      15.584  -2.697  35.337  1.00  0.00     0.017 C 
ATOM     11  C   UNL     1      14.121  -3.094  35.578  1.00  0.00     0.012 C 
ATOM     12  C   UNL     1      15.733  -1.305  34.707  1.00  0.00     0.012 C 
ENDBRANCH   5  10
TORSDOF 2
ENDMDL
MODEL 2
REMARK VINA RESULT:    -5.392      0.909      4.019
REMARK INTER + INTRA:          -6.049
REMARK INTER:                  -5.889
REMARK INTRA:                  -0.160
REMARK UNBOUND:                -0.185
REMARK SMILES Cc1ccc(C(C)C)c(O)c1
REMARK SMILES IDX 1 1 2 2 11 3 9 4 5 5 4 6 3 7 10 8 6 10 7 11 8 12
REMARK H PARENT 10 9
REMARK Flexibility Score: inf
ROOT
ATOM      1  C   UNL     1      15.111  -1.235  34.354  1.00  0.00     0.044 C 
ATOM      2  C   UNL     1      15.841  -2.545  34.288  1.00  0.00    -0.047 A 
ATOM      3  C   UNL     1      15.927  -3.362  35.419  1.00  0.00     0.049 A 
ATOM      4  C   UNL     1      16.571  -4.606  35.369  1.00  0.00     0.119 A 
ATOM      5  C   UNL     1      17.142  -5.057  34.143  1.00  0.00    -0.004 A 
ATOM      6  C   UNL     1      17.024  -4.226  33.009  1.00  0.00     0.008 A 
ATOM      7  C   UNL     1      16.377  -2.991  33.078  1.00  0.00     0.004 A 
ENDROOT
BRANCH   4   8
ATOM      8  O   UNL     1      16.607  -5.336  36.559  1.00  0.00    -0.508 OA
ATOM      9  H   UNL     1      16.308  -4.994  37.455  1.00  0.00     0.293 HD
ENDBRANCH   4   8
BRANCH   5  10
ATOM     10  C   UNL     1      17.873  -6.387  33.963  1.00  0.00     0.017 C 
ATOM     11  C   UNL     1      19.247  -6.411  34.647  1.00  0.00     0.012 C 
ATOM     12  C   UNL     1      17.920  -6.854  32.501  1.00  0.00     0.012 C 
ENDBRANCH   5  10
TORSDOF 2
ENDMDL
MODEL 3
REMARK VINA RESULT:    -5.182     12.366     13.122
REMARK INTER + INTRA:          -5.820
REMARK INTER:                  -5.633
REMARK INTRA:                  -0.187
REMARK UNBOUND:                -0.185
REMARK SMILES Cc1ccc(C(C)C)c(O)c1
REMARK SMILES IDX 1 1 2 2 11 3 9 4 5 5 4 6 3 7 10 8 6 10 7 11 8 12
REMARK H PARENT 10 9
REMARK Flexibility Score: inf
ROOT
ATOM      1  C   UNL     1      26.335   0.168  27.950  1.00  0.00     0.044 C 
ATOM      2  C   UNL     1      25.955   1.546  28.409  1.00  0.00    -0.047 A 
ATOM      3  C   UNL     1      26.882   2.591  28.343  1.00  0.00     0.049 A 
ATOM      4  C   UNL     1      26.537   3.892  28.731  1.00  0.00     0.119 A 
ATOM      5  C   UNL     1      25.215   4.166  29.192  1.00  0.00    -0.004 A 
ATOM      6  C   UNL     1      24.290   3.100  29.230  1.00  0.00     0.008 A 
ATOM      7  C   UNL     1      24.653   1.811  28.838  1.00  0.00     0.004 A 
ENDROOT
BRANCH   4   8
ATOM      8  O   UNL     1      27.541   4.857  28.633  1.00  0.00    -0.508 OA
ATOM      9  H   UNL     1      27.532   5.749  29.097  1.00  0.00     0.293 HD
ENDBRANCH   4   8
BRANCH   5  10
ATOM     10  C   UNL     1      24.721   5.538  29.648  1.00  0.00     0.017 C 
ATOM     11  C   UNL     1      23.679   5.455  30.772  1.00  0.00     0.012 C 
ATOM     12  C   UNL     1      24.279   6.434  28.483  1.00  0.00     0.012 C 
ENDBRANCH   5  10
TORSDOF 2
ENDMDL
MODEL 4
REMARK VINA RESULT:    -5.073     12.043     12.822
REMARK INTER + INTRA:          -5.702
REMARK INTER:                  -5.716
REMARK INTRA:                   0.013
REMARK UNBOUND:                -0.185
REMARK SMILES Cc1ccc(C(C)C)c(O)c1
REMARK SMILES IDX 1 1 2 2 11 3 9 4 5 5 4 6 3 7 10 8 6 10 7 11 8 12
REMARK H PARENT 10 9
REMARK Flexibility Score: inf
ROOT
ATOM      1  C   UNL     1      26.423  -0.302  28.028  1.00  0.00     0.044 C 
ATOM      2  C   UNL     1      26.094   1.139  28.285  1.00  0.00    -0.047 A 
ATOM      3  C   UNL     1      24.826   1.501  28.749  1.00  0.00     0.049 A 
ATOM      4  C   UNL     1      24.509   2.837  29.031  1.00  0.00     0.119 A 
ATOM      5  C   UNL     1      25.497   3.850  28.854  1.00  0.00    -0.004 A 
ATOM      6  C   UNL     1      26.777   3.459  28.406  1.00  0.00     0.008 A 
ATOM      7  C   UNL     1      27.073   2.123  28.132  1.00  0.00     0.004 A 
ENDROOT
BRANCH   4   8
ATOM      8  O   UNL     1      23.211   3.087  29.479  1.00  0.00    -0.508 OA
ATOM      9  H   UNL     1      22.626   2.423  29.955  1.00  0.00     0.293 HD
ENDBRANCH   4   8
BRANCH   5  10
ATOM     10  C   UNL     1      25.273   5.338  29.121  1.00  0.00     0.017 C 
ATOM     11  C   UNL     1      24.721   5.618  30.525  1.00  0.00     0.012 C 
ATOM     12  C   UNL     1      24.473   6.032  28.010  1.00  0.00     0.012 C 
ENDBRANCH   5  10
TORSDOF 2
ENDMDL
MODEL 5
REMARK VINA RESULT:    -5.057     12.474     13.892
REMARK INTER + INTRA:          -5.685
REMARK INTER:                  -5.499
REMARK INTRA:                  -0.186
REMARK UNBOUND:                -0.185
REMARK SMILES Cc1ccc(C(C)C)c(O)c1
REMARK SMILES IDX 1 1 2 2 11 3 9 4 5 5 4 6 3 7 10 8 6 10 7 11 8 12
REMARK H PARENT 10 9
REMARK Flexibility Score: inf
ROOT
ATOM      1  C   UNL     1      25.794   0.030  21.991  1.00  0.00     0.044 C 
ATOM      2  C   UNL     1      26.025  -0.300  23.437  1.00  0.00    -0.047 A 
ATOM      3  C   UNL     1      27.145   0.207  24.105  1.00  0.00     0.049 A 
ATOM      4  C   UNL     1      27.361  -0.058  25.464  1.00  0.00     0.119 A 
ATOM      5  C   UNL     1      26.420  -0.849  26.188  1.00  0.00    -0.004 A 
ATOM      6  C   UNL     1      25.287  -1.332  25.499  1.00  0.00     0.008 A 
ATOM      7  C   UNL     1      25.089  -1.056  24.145  1.00  0.00     0.004 A 
ENDROOT
BRANCH   4   8
ATOM      8  O   UNL     1      28.514   0.489  26.029  1.00  0.00    -0.508 OA
ATOM      9  H   UNL     1      29.318  -0.037  26.324  1.00  0.00     0.293 HD
ENDBRANCH   4   8
BRANCH   5  10
ATOM     10  C   UNL     1      26.547  -1.212  27.667  1.00  0.00     0.017 C 
ATOM     11  C   UNL     1      26.092  -2.646  27.972  1.00  0.00     0.012 C 
ATOM     12  C   UNL     1      25.914  -0.169  28.598  1.00  0.00     0.012 C 
ENDBRANCH   5  10
TORSDOF 2
ENDMDL
MODEL 6
REMARK VINA RESULT:    -5.037     12.750     14.081
REMARK INTER + INTRA:          -5.663
REMARK INTER:                  -5.493
REMARK INTRA:                  -0.170
REMARK UNBOUND:                -0.185
REMARK SMILES Cc1ccc(C(C)C)c(O)c1
REMARK SMILES IDX 1 1 2 2 11 3 9 4 5 5 4 6 3 7 10 8 6 10 7 11 8 12
REMARK H PARENT 10 9
REMARK Flexibility Score: inf
ROOT
ATOM      1  C   UNL     1      23.171   6.001  31.002  1.00  0.00     0.044 C 
ATOM      2  C   UNL     1      24.169   5.202  30.215  1.00  0.00    -0.047 A 
ATOM      3  C   UNL     1      25.525   5.542  30.246  1.00  0.00     0.049 A 
ATOM      4  C   UNL     1      26.478   4.787  29.549  1.00  0.00     0.119 A 
ATOM      5  C   UNL     1      26.066   3.644  28.802  1.00  0.00    -0.004 A 
ATOM      6  C   UNL     1      24.695   3.308  28.803  1.00  0.00     0.008 A 
ATOM      7  C   UNL     1      23.762   4.071  29.504  1.00  0.00     0.004 A 
ENDROOT
BRANCH   4   8
ATOM      8  O   UNL     1      27.802   5.219  29.640  1.00  0.00    -0.508 OA
ATOM      9  H   UNL     1      28.608   4.619  29.633  1.00  0.00     0.293 HD
ENDBRANCH   4   8
BRANCH   5  10
ATOM     10  C   UNL     1      27.006   2.747  27.997  1.00  0.00     0.017 C 
ATOM     11  C   UNL     1      27.499   3.406  26.701  1.00  0.00     0.012 C 
ATOM     12  C   UNL     1      26.447   1.334  27.779  1.00  0.00     0.012 C 
ENDBRANCH   5  10
TORSDOF 2
ENDMDL
MODEL 7
REMARK VINA RESULT:    -5.015     11.348     12.942
REMARK INTER + INTRA:          -5.639
REMARK INTER:                  -5.460
REMARK INTRA:                  -0.179
REMARK UNBOUND:                -0.185
REMARK SMILES Cc1ccc(C(C)C)c(O)c1
REMARK SMILES IDX 1 1 2 2 11 3 9 4 5 5 4 6 3 7 10 8 6 10 7 11 8 12
REMARK H PARENT 10 9
REMARK Flexibility Score: inf
ROOT
ATOM      1  C   UNL     1      22.115  -3.778  25.077  1.00  0.00     0.044 C 
ATOM      2  C   UNL     1      23.327  -2.899  25.181  1.00  0.00    -0.047 A 
ATOM      3  C   UNL     1      24.496  -3.377  25.782  1.00  0.00     0.049 A 
ATOM      4  C   UNL     1      25.650  -2.586  25.855  1.00  0.00     0.119 A 
ATOM      5  C   UNL     1      25.644  -1.272  25.299  1.00  0.00    -0.004 A 
ATOM      6  C   UNL     1      24.460  -0.819  24.679  1.00  0.00     0.008 A 
ATOM      7  C   UNL     1      23.321  -1.622  24.614  1.00  0.00     0.004 A 
ENDROOT
BRANCH   4   8
ATOM      8  O   UNL     1      26.757  -3.158  26.484  1.00  0.00    -0.508 OA
ATOM      9  H   UNL     1      27.658  -3.291  26.059  1.00  0.00     0.293 HD
ENDBRANCH   4   8
BRANCH   5  10
ATOM     10  C   UNL     1      26.834  -0.314  25.322  1.00  0.00     0.017 C 
ATOM     11  C   UNL     1      26.726   0.747  26.426  1.00  0.00     0.012 C 
ATOM     12  C   UNL     1      27.152   0.282  23.944  1.00  0.00     0.012 C 
ENDBRANCH   5  10
TORSDOF 2
ENDMDL
MODEL 8
REMARK VINA RESULT:    -4.997     12.667     13.945
REMARK INTER + INTRA:          -5.620
REMARK INTER:                  -5.442
REMARK INTRA:                  -0.178
REMARK UNBOUND:                -0.185
REMARK SMILES Cc1ccc(C(C)C)c(O)c1
REMARK SMILES IDX 1 1 2 2 11 3 9 4 5 5 4 6 3 7 10 8 6 10 7 11 8 12
REMARK H PARENT 10 9
REMARK Flexibility Score: inf
ROOT
ATOM      1  C   UNL     1      28.194   1.941  27.552  1.00  0.00     0.044 C 
ATOM      2  C   UNL     1      27.239   1.116  26.740  1.00  0.00    -0.047 A 
ATOM      3  C   UNL     1      27.599   0.672  25.464  1.00  0.00     0.049 A 
ATOM      4  C   UNL     1      26.737  -0.130  24.704  1.00  0.00     0.119 A 
ATOM      5  C   UNL     1      25.472  -0.513  25.240  1.00  0.00    -0.004 A 
ATOM      6  C   UNL     1      25.138  -0.070  26.538  1.00  0.00     0.008 A 
ATOM      7  C   UNL     1      26.011   0.726  27.280  1.00  0.00     0.004 A 
ENDROOT
BRANCH   4   8
ATOM      8  O   UNL     1      27.193  -0.510  23.441  1.00  0.00    -0.508 OA
ATOM      9  H   UNL     1      28.155  -0.514  23.151  1.00  0.00     0.293 HD
ENDBRANCH   4   8
BRANCH   5  10
ATOM     10  C   UNL     1      24.445  -1.377  24.509  1.00  0.00     0.017 C 
ATOM     11  C   UNL     1      23.045  -0.748  24.484  1.00  0.00     0.012 C 
ATOM     12  C   UNL     1      24.441  -2.836  24.984  1.00  0.00     0.012 C 
ENDBRANCH   5  10
TORSDOF 2
ENDMDL
MODEL 9
REMARK VINA RESULT:    -4.961      6.393      7.529
REMARK INTER + INTRA:          -5.581
REMARK INTER:                  -5.398
REMARK INTRA:                  -0.183
REMARK UNBOUND:                -0.185
REMARK SMILES Cc1ccc(C(C)C)c(O)c1
REMARK SMILES IDX 1 1 2 2 11 3 9 4 5 5 4 6 3 7 10 8 6 10 7 11 8 12
REMARK H PARENT 10 9
REMARK Flexibility Score: inf
ROOT
ATOM      1  C   UNL     1      21.127  -4.814  27.285  1.00  0.00     0.044 C 
ATOM      2  C   UNL     1      19.694  -5.259  27.305  1.00  0.00    -0.047 A 
ATOM      3  C   UNL     1      19.087  -5.627  28.511  1.00  0.00     0.049 A 
ATOM      4  C   UNL     1      17.740  -6.010  28.558  1.00  0.00     0.119 A 
ATOM      5  C   UNL     1      16.964  -6.018  27.361  1.00  0.00    -0.004 A 
ATOM      6  C   UNL     1      17.592  -5.622  26.160  1.00  0.00     0.008 A 
ATOM      7  C   UNL     1      18.934  -5.242  26.134  1.00  0.00     0.004 A 
ENDROOT
BRANCH   4   8
ATOM      8  O   UNL     1      17.238  -6.366  29.811  1.00  0.00    -0.508 OA
ATOM      9  H   UNL     1      17.737  -6.280  30.679  1.00  0.00     0.293 HD
ENDBRANCH   4   8
BRANCH   5  10
ATOM     10  C   UNL     1      15.493  -6.421  27.282  1.00  0.00     0.017 C 
ATOM     11  C   UNL     1      15.296  -7.900  26.923  1.00  0.00     0.012 C 
ATOM     12  C   UNL     1      14.656  -5.473  26.411  1.00  0.00     0.012 C 
ENDBRANCH   5  10
TORSDOF 2
ENDMDL
