MODEL 1
REMARK VINA RESULT:     0.000      0.000      0.000
REMARK INTER + INTRA:          -2.549
REMARK INTER:                   0.000
REMARK INTRA:                  -2.549
REMARK UNBOUND:                -2.549
REMARK SMILES CCCCCCCCCCCCCC(=O)[O-]
REMARK SMILES IDX 8 1 9 2 10 3 11 4 12 5 13 6 14 7 15 8 16 9 7 10 6 11 5 12
REMARK SMILES IDX 4 13 3 14 2 15 1 16
REMARK H PARENT
REMARK Flexibility Score: inf
ROOT
ATOM      1  C   UNL     1      11.835   7.064  36.226  1.00  0.00     0.000 C 
ENDROOT
BRANCH   1   2
ATOM      2  C   UNL     1      12.828   7.807  35.318  1.00  0.00     0.000 C 
BRANCH   2   3
ATOM      3  C   UNL     1      13.914   6.853  34.800  1.00  0.00     0.000 C 
BRANCH   3   4
ATOM      4  C   UNL     1      13.848   6.638  33.277  1.00  0.00     0.000 C 
BRANCH   4   5
ATOM      5  C   UNL     1      14.022   5.175  32.817  1.00  0.00     0.006 C 
BRANCH   5   6
ATOM      6  C   UNL     1      14.531   4.220  33.907  1.00  0.00     0.053 C 
BRANCH   6   7
ATOM      7  C   UNL     1      13.781   2.924  33.911  1.00  0.00     0.041 C 
ATOM      8  O   UNL     1      13.253   2.493  32.852  1.00  0.00    -0.550 OA
ATOM      9  O   UNL     1      13.639   2.207  35.092  1.00  0.00    -0.550 OA
ENDBRANCH   6   7
ENDBRANCH   5   6
ENDBRANCH   4   5
ENDBRANCH   3   4
ENDBRANCH   2   3
ENDBRANCH   1   2
BRANCH   1  10
ATOM     10  C   UNL     1      12.243   5.605  36.485  1.00  0.00     0.000 C 
BRANCH  10  11
ATOM     11  C   UNL     1      11.166   4.601  36.037  1.00  0.00    -0.000 C 
BRANCH  11  12
ATOM     12  C   UNL     1      10.218   5.187  34.978  1.00  0.00    -0.000 C 
BRANCH  12  13
ATOM     13  C   UNL     1      10.432   4.575  33.585  1.00  0.00    -0.000 C 
BRANCH  13  14
ATOM     14  C   UNL     1      10.332   5.648  32.494  1.00  0.00    -0.000 C 
BRANCH  14  15
ATOM     15  C   UNL     1       9.881   6.991  33.082  1.00  0.00    -0.003 C 
ATOM     16  C   UNL     1      10.554   8.159  32.369  1.00  0.00     0.004 C 
ENDBRANCH  14  15
ENDBRANCH  13  14
ENDBRANCH  12  13
ENDBRANCH  11  12
ENDBRANCH  10  11
ENDBRANCH   1  10
TORSDOF 12
ENDMDL
MODEL 2
REMARK VINA RESULT:     0.001     13.198     15.113
REMARK INTER + INTRA:          -2.548
REMARK INTER:                   0.000
REMARK INTRA:                  -2.548
REMARK UNBOUND:                -2.549
REMARK SMILES CCCCCCCCCCCCCC(=O)[O-]
REMARK SMILES IDX 8 1 9 2 10 3 11 4 12 5 13 6 14 7 15 8 16 9 7 10 6 11 5 12
REMARK SMILES IDX 4 13 3 14 2 15 1 16
REMARK H PARENT
REMARK Flexibility Score: inf
ROOT
ATOM      1  C   UNL     1      24.135   1.667  42.674  1.00  0.00     0.000 C 
ENDROOT
BRANCH   1   2
ATOM      2  C   UNL     1      22.885   2.089  43.461  1.00  0.00     0.000 C 
BRANCH   2   3
ATOM      3  C   UNL     1      23.172   3.329  44.321  1.00  0.00     0.000 C 
BRANCH   3   4
ATOM      4  C   UNL     1      22.406   4.578  43.851  1.00  0.00     0.000 C 
BRANCH   4   5
ATOM      5  C   UNL     1      23.229   5.882  43.838  1.00  0.00     0.006 C 
BRANCH   5   6
ATOM      6  C   UNL     1      24.601   5.778  44.522  1.00  0.00     0.053 C 
BRANCH   6   7
ATOM      7  C   UNL     1      25.672   6.472  43.738  1.00  0.00     0.041 C 
ATOM      8  O   UNL     1      26.874   6.116  43.853  1.00  0.00    -0.550 OA
ATOM      9  O   UNL     1      25.344   7.535  42.905  1.00  0.00    -0.550 OA
ENDBRANCH   6   7
ENDBRANCH   5   6
ENDBRANCH   4   5
ENDBRANCH   3   4
ENDBRANCH   2   3
ENDBRANCH   1   2
BRANCH   1  10
ATOM     10  C   UNL     1      25.393   2.445  43.094  1.00  0.00     0.000 C 
BRANCH  10  11
ATOM     11  C   UNL     1      26.030   3.215  41.924  1.00  0.00    -0.000 C 
BRANCH  11  12
ATOM     12  C   UNL     1      25.059   3.408  40.747  1.00  0.00    -0.000 C 
BRANCH  12  13
ATOM     13  C   UNL     1      24.662   4.878  40.539  1.00  0.00    -0.000 C 
BRANCH  13  14
ATOM     14  C   UNL     1      23.167   5.001  40.220  1.00  0.00    -0.000 C 
BRANCH  14  15
ATOM     15  C   UNL     1      22.541   3.623  39.978  1.00  0.00    -0.003 C 
ATOM     16  C   UNL     1      21.110   3.568  40.504  1.00  0.00     0.004 C 
ENDBRANCH  14  15
ENDBRANCH  13  14
ENDBRANCH  12  13
ENDBRANCH  11  12
ENDBRANCH  10  11
ENDBRANCH   1  10
TORSDOF 12
ENDMDL
MODEL 3
REMARK VINA RESULT:     0.002      7.853      9.884
REMARK INTER + INTRA:          -2.546
REMARK INTER:                   0.000
REMARK INTRA:                  -2.546
REMARK UNBOUND:                -2.549
REMARK SMILES CCCCCCCCCCCCCC(=O)[O-]
REMARK SMILES IDX 8 1 9 2 10 3 11 4 12 5 13 6 14 7 15 8 16 9 7 10 6 11 5 12
REMARK SMILES IDX 4 13 3 14 2 15 1 16
REMARK H PARENT
REMARK Flexibility Score: inf
ROOT
ATOM      1  C   UNL     1      17.135   1.481  39.095  1.00  0.00     0.000 C 
ENDROOT
BRANCH   1   2
ATOM      2  C   UNL     1      16.661   1.392  37.636  1.00  0.00     0.000 C 
BRANCH   2   3
ATOM      3  C   UNL     1      17.767   1.848  36.672  1.00  0.00     0.000 C 
BRANCH   3   4
ATOM      4  C   UNL     1      18.297   0.709  35.784  1.00  0.00     0.000 C 
BRANCH   4   5
ATOM      5  C   UNL     1      19.828   0.688  35.594  1.00  0.00     0.006 C 
BRANCH   5   6
ATOM      6  C   UNL     1      20.552   1.941  36.112  1.00  0.00     0.053 C 
BRANCH   6   7
ATOM      7  C   UNL     1      21.752   1.593  36.938  1.00  0.00     0.041 C 
ATOM      8  O   UNL     1      22.141   2.369  37.850  1.00  0.00    -0.550 OA
ATOM      9  O   UNL     1      22.459   0.426  36.678  1.00  0.00    -0.550 OA
ENDBRANCH   6   7
ENDBRANCH   5   6
ENDBRANCH   4   5
ENDBRANCH   3   4
ENDBRANCH   2   3
ENDBRANCH   1   2
BRANCH   1  10
ATOM     10  C   UNL     1      18.537   2.099  39.228  1.00  0.00     0.000 C 
BRANCH  10  11
ATOM     11  C   UNL     1      19.526   1.169  39.953  1.00  0.00    -0.000 C 
BRANCH  11  12
ATOM     12  C   UNL     1      19.137  -0.314  39.834  1.00  0.00    -0.000 C 
BRANCH  12  13
ATOM     13  C   UNL     1      20.035  -1.087  38.856  1.00  0.00    -0.000 C 
BRANCH  13  14
ATOM     14  C   UNL     1      19.216  -2.095  38.041  1.00  0.00    -0.000 C 
BRANCH  14  15
ATOM     15  C   UNL     1      17.756  -2.125  38.510  1.00  0.00    -0.003 C 
ATOM     16  C   UNL     1      16.804  -2.330  37.335  1.00  0.00     0.004 C 
ENDBRANCH  14  15
ENDBRANCH  13  14
ENDBRANCH  12  13
ENDBRANCH  11  12
ENDBRANCH  10  11
ENDBRANCH   1  10
TORSDOF 12
ENDMDL
MODEL 4
REMARK VINA RESULT:     0.003      1.817      2.536
REMARK INTER + INTRA:          -2.544
REMARK INTER:                   0.000
REMARK INTRA:                  -2.544
REMARK UNBOUND:                -2.549
REMARK SMILES CCCCCCCCCCCCCC(=O)[O-]
REMARK SMILES IDX 8 1 9 2 10 3 11 4 12 5 13 6 14 7 15 8 16 9 7 10 6 11 5 12
REMARK SMILES IDX 4 13 3 14 2 15 1 16
REMARK H PARENT
REMARK Flexibility Score: inf
ROOT
ATOM      1  C   UNL     1      12.847   6.657  37.252  1.00  0.00     0.000 C 
ENDROOT
BRANCH   1   2
ATOM      2  C   UNL     1      13.731   6.710  35.997  1.00  0.00     0.000 C 
BRANCH   2   3
ATOM      3  C   UNL     1      14.546   5.417  35.845  1.00  0.00     0.000 C 
BRANCH   3   4
ATOM      4  C   UNL     1      14.147   4.597  34.606  1.00  0.00     0.000 C 
BRANCH   4   5
ATOM      5  C   UNL     1      14.022   3.077  34.841  1.00  0.00     0.006 C 
BRANCH   5   6
ATOM      6  C   UNL     1      14.613   2.587  36.172  1.00  0.00     0.053 C 
BRANCH   6   7
ATOM      7  C   UNL     1      13.689   1.649  36.884  1.00  0.00     0.041 C 
ATOM      8  O   UNL     1      12.885   0.932  36.231  1.00  0.00    -0.550 OA
ATOM      9  O   UNL     1      13.692   1.590  38.272  1.00  0.00    -0.550 OA
ENDBRANCH   6   7
ENDBRANCH   5   6
ENDBRANCH   4   5
ENDBRANCH   3   4
ENDBRANCH   2   3
ENDBRANCH   1   2
BRANCH   1  10
ATOM     10  C   UNL     1      13.051   5.370  38.068  1.00  0.00     0.000 C 
BRANCH  10  11
ATOM     11  C   UNL     1      11.746   4.578  38.258  1.00  0.00    -0.000 C 
BRANCH  11  12
ATOM     12  C   UNL     1      10.725   4.846  37.140  1.00  0.00    -0.000 C 
BRANCH  12  13
ATOM     13  C   UNL     1      10.603   3.673  36.154  1.00  0.00    -0.000 C 
BRANCH  13  14
ATOM     14  C   UNL     1      10.440   4.182  34.716  1.00  0.00    -0.000 C 
BRANCH  14  15
ATOM     15  C   UNL     1      10.335   5.712  34.682  1.00  0.00    -0.003 C 
ATOM     16  C   UNL     1      11.026   6.284  33.448  1.00  0.00     0.004 C 
ENDBRANCH  14  15
ENDBRANCH  13  14
ENDBRANCH  12  13
ENDBRANCH  11  12
ENDBRANCH  10  11
ENDBRANCH   1  10
TORSDOF 12
ENDMDL
MODEL 5
REMARK VINA RESULT:     0.012     15.464     17.256
REMARK INTER + INTRA:          -2.530
REMARK INTER:                   0.000
REMARK INTRA:                  -2.530
REMARK UNBOUND:                -2.549
REMARK SMILES CCCCCCCCCCCCCC(=O)[O-]
REMARK SMILES IDX 8 1 9 2 10 3 11 4 12 5 13 6 14 7 15 8 16 9 7 10 6 11 5 12
REMARK SMILES IDX 4 13 3 14 2 15 1 16
REMARK H PARENT
REMARK Flexibility Score: inf
ROOT
ATOM      1  C   UNL     1      26.007   6.297  43.891  1.00  0.00     0.000 C 
ENDROOT
BRANCH   1   2
ATOM      2  C   UNL     1      24.637   6.122  43.218  1.00  0.00     0.000 C 
BRANCH   2   3
ATOM      3  C   UNL     1      23.901   4.899  43.785  1.00  0.00     0.000 C 
BRANCH   3   4
ATOM      4  C   UNL     1      22.628   5.273  44.566  1.00  0.00     0.000 C 
BRANCH   4   5
ATOM      5  C   UNL     1      22.441   4.530  45.905  1.00  0.00     0.006 C 
BRANCH   5   6
ATOM      6  C   UNL     1      23.447   3.394  46.149  1.00  0.00     0.053 C 
BRANCH   6   7
ATOM      7  C   UNL     1      23.862   3.314  47.586  1.00  0.00     0.041 C 
ATOM      8  O   UNL     1      24.937   2.741  47.905  1.00  0.00    -0.550 OA
ATOM      9  O   UNL     1      23.045   3.845  48.576  1.00  0.00    -0.550 OA
ENDBRANCH   6   7
ENDBRANCH   5   6
ENDBRANCH   4   5
ENDBRANCH   3   4
ENDBRANCH   2   3
ENDBRANCH   1   2
BRANCH   1  10
ATOM     10  C   UNL     1      26.412   5.082  44.741  1.00  0.00     0.000 C 
BRANCH  10  11
ATOM     11  C   UNL     1      26.620   5.441  46.223  1.00  0.00    -0.000 C 
BRANCH  11  12
ATOM     12  C   UNL     1      26.103   6.848  46.568  1.00  0.00    -0.000 C 
BRANCH  12  13
ATOM     13  C   UNL     1      24.989   6.828  47.626  1.00  0.00    -0.000 C 
BRANCH  13  14
ATOM     14  C   UNL     1      23.791   7.672  47.174  1.00  0.00    -0.000 C 
BRANCH  14  15
ATOM     15  C   UNL     1      24.192   8.643  46.057  1.00  0.00    -0.003 C 
ATOM     16  C   UNL     1      23.016   8.928  45.126  1.00  0.00     0.004 C 
ENDBRANCH  14  15
ENDBRANCH  13  14
ENDBRANCH  12  13
ENDBRANCH  11  12
ENDBRANCH  10  11
ENDBRANCH   1  10
TORSDOF 12
ENDMDL
MODEL 6
REMARK VINA RESULT:     0.014     13.140     15.697
REMARK INTER + INTRA:          -2.526
REMARK INTER:                   0.000
REMARK INTRA:                  -2.526
REMARK UNBOUND:                -2.549
REMARK SMILES CCCCCCCCCCCCCC(=O)[O-]
REMARK SMILES IDX 8 1 9 2 10 3 11 4 12 5 13 6 14 7 15 8 16 9 7 10 6 11 5 12
REMARK SMILES IDX 4 13 3 14 2 15 1 16
REMARK H PARENT
REMARK Flexibility Score: inf
ROOT
ATOM      1  C   UNL     1      25.102  -4.406  41.859  1.00  0.00     0.000 C 
ENDROOT
BRANCH   1   2
ATOM      2  C   UNL     1      25.283  -2.936  42.269  1.00  0.00     0.000 C 
BRANCH   2   3
ATOM      3  C   UNL     1      23.925  -2.232  42.396  1.00  0.00     0.000 C 
BRANCH   3   4
ATOM      4  C   UNL     1      23.711  -1.141  41.331  1.00  0.00     0.000 C 
BRANCH   4   5
ATOM      5  C   UNL     1      22.299  -1.103  40.710  1.00  0.00     0.006 C 
BRANCH   5   6
ATOM      6  C   UNL     1      21.301  -2.090  41.334  1.00  0.00     0.053 C 
BRANCH   6   7
ATOM      7  C   UNL     1      20.359  -2.654  40.314  1.00  0.00     0.041 C 
ATOM      8  O   UNL     1      20.127  -2.025  39.248  1.00  0.00    -0.550 OA
ATOM      9  O   UNL     1      19.713  -3.859  40.558  1.00  0.00    -0.550 OA
ENDBRANCH   6   7
ENDBRANCH   5   6
ENDBRANCH   4   5
ENDBRANCH   3   4
ENDBRANCH   2   3
ENDBRANCH   1   2
BRANCH   1  10
ATOM     10  C   UNL     1      23.651  -4.891  42.010  1.00  0.00     0.000 C 
BRANCH  10  11
ATOM     11  C   UNL     1      23.048  -5.375  40.680  1.00  0.00    -0.000 C 
BRANCH  11  12
ATOM     12  C   UNL     1      23.920  -5.007  39.468  1.00  0.00    -0.000 C 
BRANCH  12  13
ATOM     13  C   UNL     1      23.222  -4.029  38.509  1.00  0.00    -0.000 C 
BRANCH  13  14
ATOM     14  C   UNL     1      24.182  -2.919  38.065  1.00  0.00    -0.000 C 
BRANCH  14  15
ATOM     15  C   UNL     1      25.633  -3.273  38.415  1.00  0.00    -0.003 C 
ATOM     16  C   UNL     1      26.403  -2.042  38.885  1.00  0.00     0.004 C 
ENDBRANCH  14  15
ENDBRANCH  13  14
ENDBRANCH  12  13
ENDBRANCH  11  12
ENDBRANCH  10  11
ENDBRANCH   1  10
TORSDOF 12
ENDMDL
MODEL 7
REMARK VINA RESULT:     0.016      6.798      9.057
REMARK INTER + INTRA:          -2.522
REMARK INTER:                   0.000
REMARK INTRA:                  -2.522
REMARK UNBOUND:                -2.549
REMARK SMILES CCCCCCCCCCCCCC(=O)[O-]
REMARK SMILES IDX 8 1 9 2 10 3 11 4 12 5 13 6 14 7 15 8 16 9 7 10 6 11 5 12
REMARK SMILES IDX 4 13 3 14 2 15 1 16
REMARK H PARENT
REMARK Flexibility Score: inf
ROOT
ATOM      1  C   UNL     1      16.821   0.483  41.697  1.00  0.00     0.000 C 
ENDROOT
BRANCH   1   2
ATOM      2  C   UNL     1      15.431  -0.159  41.575  1.00  0.00     0.000 C 
BRANCH   2   3
ATOM      3  C   UNL     1      14.344   0.782  42.116  1.00  0.00     0.000 C 
BRANCH   3   4
ATOM      4  C   UNL     1      13.340   1.224  41.036  1.00  0.00     0.000 C 
BRANCH   4   5
ATOM      5  C   UNL     1      13.178   2.750  40.880  1.00  0.00     0.006 C 
BRANCH   5   6
ATOM      6  C   UNL     1      13.525   3.560  42.139  1.00  0.00     0.053 C 
BRANCH   6   7
ATOM      7  C   UNL     1      14.089   4.905  41.802  1.00  0.00     0.041 C 
ATOM      8  O   UNL     1      13.740   5.494  40.745  1.00  0.00    -0.550 OA
ATOM      9  O   UNL     1      15.028   5.495  42.641  1.00  0.00    -0.550 OA
ENDBRANCH   6   7
ENDBRANCH   5   6
ENDBRANCH   4   5
ENDBRANCH   3   4
ENDBRANCH   2   3
ENDBRANCH   1   2
BRANCH   1  10
ATOM     10  C   UNL     1      16.795   1.816  42.461  1.00  0.00     0.000 C 
BRANCH  10  11
ATOM     11  C   UNL     1      17.331   2.989  41.622  1.00  0.00    -0.000 C 
BRANCH  11  12
ATOM     12  C   UNL     1      17.375   2.667  40.119  1.00  0.00    -0.000 C 
BRANCH  12  13
ATOM     13  C   UNL     1      16.455   3.576  39.289  1.00  0.00    -0.000 C 
BRANCH  13  14
ATOM     14  C   UNL     1      15.702   2.768  38.225  1.00  0.00    -0.000 C 
BRANCH  14  15
ATOM     15  C   UNL     1      16.213   1.324  38.167  1.00  0.00    -0.003 C 
ATOM     16  C   UNL     1      15.077   0.348  37.878  1.00  0.00     0.004 C 
ENDBRANCH  14  15
ENDBRANCH  13  14
ENDBRANCH  12  13
ENDBRANCH  11  12
ENDBRANCH  10  11
ENDBRANCH   1  10
TORSDOF 12
ENDMDL
MODEL 8
REMARK VINA RESULT:     0.029     14.928     16.585
REMARK INTER + INTRA:          -2.500
REMARK INTER:                   0.000
REMARK INTRA:                  -2.500
REMARK UNBOUND:                -2.549
REMARK SMILES CCCCCCCCCCCCCC(=O)[O-]
REMARK SMILES IDX 8 1 9 2 10 3 11 4 12 5 13 6 14 7 15 8 16 9 7 10 6 11 5 12
REMARK SMILES IDX 4 13 3 14 2 15 1 16
REMARK H PARENT
REMARK Flexibility Score: inf
ROOT
ATOM      1  C   UNL     1      22.627   0.446  47.215  1.00  0.00     0.000 C 
ENDROOT
BRANCH   1   2
ATOM      2  C   UNL     1      24.033   1.052  47.086  1.00  0.00     0.000 C 
BRANCH   2   3
ATOM      3  C   UNL     1      24.528   0.983  45.634  1.00  0.00     0.000 C 
BRANCH   3   4
ATOM      4  C   UNL     1      25.263   2.260  45.188  1.00  0.00     0.000 C 
BRANCH   4   5
ATOM      5  C   UNL     1      25.513   3.294  46.306  1.00  0.00     0.006 C 
BRANCH   5   6
ATOM      6  C   UNL     1      25.169   4.741  45.924  1.00  0.00     0.053 C 
BRANCH   6   7
ATOM      7  C   UNL     1      25.807   5.147  44.632  1.00  0.00     0.041 C 
ATOM      8  O   UNL     1      27.055   5.294  44.559  1.00  0.00    -0.550 OA
ATOM      9  O   UNL     1      25.018   5.394  43.515  1.00  0.00    -0.550 OA
ENDBRANCH   6   7
ENDBRANCH   5   6
ENDBRANCH   4   5
ENDBRANCH   3   4
ENDBRANCH   2   3
ENDBRANCH   1   2
BRANCH   1  10
ATOM     10  C   UNL     1      21.556   1.495  47.555  1.00  0.00     0.000 C 
BRANCH  10  11
ATOM     11  C   UNL     1      22.160   2.873  47.875  1.00  0.00    -0.000 C 
BRANCH  11  12
ATOM     12  C   UNL     1      21.649   3.975  46.932  1.00  0.00    -0.000 C 
BRANCH  12  13
ATOM     13  C   UNL     1      21.077   3.416  45.620  1.00  0.00    -0.000 C 
BRANCH  13  14
ATOM     14  C   UNL     1      21.940   3.836  44.424  1.00  0.00    -0.000 C 
BRANCH  14  15
ATOM     15  C   UNL     1      22.046   2.702  43.397  1.00  0.00    -0.003 C 
ATOM     16  C   UNL     1      21.256   1.476  43.846  1.00  0.00     0.004 C 
ENDBRANCH  14  15
ENDBRANCH  13  14
ENDBRANCH  12  13
ENDBRANCH  11  12
ENDBRANCH  10  11
ENDBRANCH   1  10
TORSDOF 12
ENDMDL
MODEL 9
REMARK VINA RESULT:     0.030     10.659     13.525
REMARK INTER + INTRA:          -2.499
REMARK INTER:                   0.000
REMARK INTRA:                  -2.499
REMARK UNBOUND:                -2.549
REMARK SMILES CCCCCCCCCCCCCC(=O)[O-]
REMARK SMILES IDX 8 1 9 2 10 3 11 4 12 5 13 6 14 7 15 8 16 9 7 10 6 11 5 12
REMARK SMILES IDX 4 13 3 14 2 15 1 16
REMARK H PARENT
REMARK Flexibility Score: inf
ROOT
ATOM      1  C   UNL     1      23.540  -4.015  37.708  1.00  0.00     0.000 C 
ENDROOT
BRANCH   1   2
ATOM      2  C   UNL     1      22.037  -3.959  38.023  1.00  0.00     0.000 C 
BRANCH   2   3
ATOM      3  C   UNL     1      21.315  -2.988  37.077  1.00  0.00     0.000 C 
BRANCH   3   4
ATOM      4  C   UNL     1      20.267  -2.118  37.793  1.00  0.00     0.000 C 
BRANCH   4   5
ATOM      5  C   UNL     1      19.996  -2.501  39.263  1.00  0.00     0.006 C 
BRANCH   5   6
ATOM      6  C   UNL     1      19.949  -1.311  40.234  1.00  0.00     0.053 C 
BRANCH   6   7
ATOM      7  C   UNL     1      19.048  -0.221  39.741  1.00  0.00     0.041 C 
ATOM      8  O   UNL     1      19.516   0.916  39.471  1.00  0.00    -0.550 OA
ATOM      9  O   UNL     1      17.684  -0.453  39.612  1.00  0.00    -0.550 OA
ENDBRANCH   6   7
ENDBRANCH   5   6
ENDBRANCH   4   5
ENDBRANCH   3   4
ENDBRANCH   2   3
ENDBRANCH   1   2
BRANCH   1  10
ATOM     10  C   UNL     1      24.404  -3.410  38.827  1.00  0.00     0.000 C 
BRANCH  10  11
ATOM     11  C   UNL     1      23.589  -3.075  40.088  1.00  0.00    -0.000 C 
BRANCH  11  12
ATOM     12  C   UNL     1      23.660  -1.584  40.457  1.00  0.00    -0.000 C 
BRANCH  12  13
ATOM     13  C   UNL     1      24.102  -0.701  39.280  1.00  0.00    -0.000 C 
BRANCH  13  14
ATOM     14  C   UNL     1      22.982   0.262  38.867  1.00  0.00    -0.000 C 
BRANCH  14  15
ATOM     15  C   UNL     1      22.915   0.406  37.342  1.00  0.00    -0.003 C 
ATOM     16  C   UNL     1      24.015  -0.405  36.663  1.00  0.00     0.004 C 
ENDBRANCH  14  15
ENDBRANCH  13  14
ENDBRANCH  12  13
ENDBRANCH  11  12
ENDBRANCH  10  11
ENDBRANCH   1  10
TORSDOF 12
ENDMDL
