MODEL 1
REMARK VINA RESULT:    -1.683      0.000      0.000
REMARK INTER + INTRA:          -1.475
REMARK INTER:                  -1.978
REMARK INTRA:                   0.503
REMARK UNBOUND:                 0.503
REMARK SMILES O=c1c(O)c(-c2ccc(O)cc2)oc2cc(O)cc(O)c12
REMARK SMILES IDX 5 1 3 2 2 3 1 4 21 5 19 6 18 7 16 8 15 9 14 10 13 11 6 12
REMARK SMILES IDX 7 13 8 14 9 15 12 16 11 17 10 18 4 20 20 22 17 24
REMARK H PARENT 10 19 4 21 20 23 17 25
REMARK Flexibility Score: inf
ROOT
ATOM      1  C   UNL     1       0.693  -6.320   7.984  1.00  0.00     0.180 A 
ATOM      2  C   UNL     1      -0.542  -6.988   7.907  1.00  0.00     0.208 A 
ATOM      3  C   UNL     1      -1.722  -6.231   7.831  1.00  0.00     0.238 A 
ATOM      4  O   UNL     1      -2.827  -6.834   7.817  1.00  0.00    -0.285 OA
ATOM      5  C   UNL     1      -1.652  -4.817   7.817  1.00  0.00     0.111 A 
ATOM      6  C   UNL     1      -2.781  -3.951   7.702  1.00  0.00     0.134 A 
ATOM      7  C   UNL     1      -2.606  -2.568   7.830  1.00  0.00     0.093 A 
ATOM      8  C   UNL     1      -1.338  -2.015   8.003  1.00  0.00     0.123 A 
ATOM      9  C   UNL     1      -0.220  -2.848   8.057  1.00  0.00     0.094 A 
ATOM     10  C   UNL     1      -0.367  -4.235   7.968  1.00  0.00     0.146 A 
ATOM     11  O   UNL     1       0.721  -4.994   8.035  1.00  0.00    -0.452 OA
ENDROOT
BRANCH   1  12
ATOM     12  C   UNL     1       1.981  -7.049   8.042  1.00  0.00     0.021 A 
ATOM     13  C   UNL     1       3.183  -6.325   8.093  1.00  0.00     0.016 A 
ATOM     14  C   UNL     1       4.411  -6.994   8.124  1.00  0.00     0.047 A 
ATOM     15  C   UNL     1       4.453  -8.394   8.090  1.00  0.00     0.115 A 
ATOM     16  C   UNL     1       2.030  -8.455   7.987  1.00  0.00     0.016 A 
ATOM     17  C   UNL     1       3.260  -9.120   8.018  1.00  0.00     0.047 A 
BRANCH  15  18
ATOM     18  O   UNL     1       5.670  -9.070   8.122  1.00  0.00    -0.508 OA
ATOM     19  H   UNL     1       6.077  -9.466   7.283  1.00  0.00     0.293 HD
ENDBRANCH  15  18
ENDBRANCH   1  12
BRANCH   2  20
ATOM     20  O   UNL     1      -0.590  -8.385   7.945  1.00  0.00    -0.502 OA
ATOM     21  H   UNL     1       0.044  -8.966   7.410  1.00  0.00     0.293 HD
ENDBRANCH   2  20
BRANCH   6  22
ATOM     22  O   UNL     1      -4.080  -4.394   7.437  1.00  0.00    -0.507 OA
ATOM     23  H   UNL     1      -4.898  -4.122   7.962  1.00  0.00     0.293 HD
ENDBRANCH   6  22
BRANCH   8  24
ATOM     24  O   UNL     1      -1.199  -0.633   8.111  1.00  0.00    -0.508 OA
ATOM     25  H   UNL     1      -1.748   0.001   7.542  1.00  0.00     0.293 HD
ENDBRANCH   8  24
TORSDOF 5
ENDMDL
MODEL 2
REMARK VINA RESULT:    -1.019      1.759      6.526
REMARK INTER + INTRA:          -0.695
REMARK INTER:                  -1.229
REMARK INTRA:                   0.534
REMARK UNBOUND:                 0.503
REMARK SMILES O=c1c(O)c(-c2ccc(O)cc2)oc2cc(O)cc(O)c12
REMARK SMILES IDX 5 1 3 2 2 3 1 4 21 5 19 6 18 7 16 8 15 9 14 10 13 11 6 12
REMARK SMILES IDX 7 13 8 14 9 15 12 16 11 17 10 18 4 20 20 22 17 24
REMARK H PARENT 10 19 4 21 20 23 17 25
REMARK Flexibility Score: inf
ROOT
ATOM      1  C   UNL     1      -1.611  -3.991   7.799  1.00  0.00     0.180 A 
ATOM      2  C   UNL     1      -2.771  -4.741   7.540  1.00  0.00     0.208 A 
ATOM      3  C   UNL     1      -2.678  -6.141   7.477  1.00  0.00     0.238 A 
ATOM      4  O   UNL     1      -3.709  -6.803   7.190  1.00  0.00    -0.285 OA
ATOM      5  C   UNL     1      -1.429  -6.773   7.691  1.00  0.00     0.111 A 
ATOM      6  C   UNL     1      -1.226  -8.186   7.690  1.00  0.00     0.134 A 
ATOM      7  C   UNL     1       0.074  -8.697   7.782  1.00  0.00     0.093 A 
ATOM      8  C   UNL     1       1.171  -7.851   7.941  1.00  0.00     0.123 A 
ATOM      9  C   UNL     1       0.978  -6.470   8.003  1.00  0.00     0.094 A 
ATOM     10  C   UNL     1      -0.305  -5.929   7.877  1.00  0.00     0.146 A 
ATOM     11  O   UNL     1      -0.444  -4.610   7.930  1.00  0.00    -0.452 OA
ENDROOT
BRANCH   1  12
ATOM     12  C   UNL     1      -1.635  -2.514   7.905  1.00  0.00     0.021 A 
ATOM     13  C   UNL     1      -2.869  -1.847   7.987  1.00  0.00     0.016 A 
ATOM     14  C   UNL     1      -2.915  -0.452   8.065  1.00  0.00     0.047 A 
ATOM     15  C   UNL     1      -1.730   0.295   8.046  1.00  0.00     0.115 A 
ATOM     16  C   UNL     1      -0.449  -1.757   7.866  1.00  0.00     0.016 A 
ATOM     17  C   UNL     1      -0.499  -0.361   7.944  1.00  0.00     0.047 A 
BRANCH  15  18
ATOM     18  O   UNL     1      -1.763   1.685   8.123  1.00  0.00    -0.508 OA
ATOM     19  H   UNL     1      -0.944   2.246   7.921  1.00  0.00     0.293 HD
ENDBRANCH  15  18
ENDBRANCH   1  12
BRANCH   2  20
ATOM     20  O   UNL     1      -3.990  -4.095   7.310  1.00  0.00    -0.502 OA
ATOM     21  H   UNL     1      -4.531  -4.239   6.466  1.00  0.00     0.293 HD
ENDBRANCH   2  20
BRANCH   6  22
ATOM     22  O   UNL     1      -2.262  -9.123   7.629  1.00  0.00    -0.507 OA
ATOM     23  H   UNL     1      -2.322  -9.952   8.202  1.00  0.00     0.293 HD
ENDBRANCH   6  22
BRANCH   8  24
ATOM     24  O   UNL     1       2.450  -8.395   8.046  1.00  0.00    -0.508 OA
ATOM     25  H   UNL     1       2.649  -9.342   7.746  1.00  0.00     0.293 HD
ENDBRANCH   8  24
TORSDOF 5
ENDMDL
