MODEL 1
REMARK VINA RESULT:    -2.491      0.000      0.000
REMARK INTER + INTRA:          -2.952
REMARK INTER:                  -2.928
REMARK INTRA:                  -0.024
REMARK UNBOUND:                -0.024
REMARK SMILES CCCCC(=O)[O-]
REMARK SMILES IDX 4 1 5 2 6 3 7 4 3 5 2 6 1 7
REMARK H PARENT
REMARK Flexibility Score: inf
ROOT
ATOM      1  C   UNL     1      92.559  16.957 121.005  1.00  0.00     0.053 C 
ENDROOT
BRANCH   1   2
ATOM      2  C   UNL     1      91.523  17.870 120.431  1.00  0.00     0.041 C 
ATOM      3  O   UNL     1      90.438  18.062 121.042  1.00  0.00    -0.550 OA
ATOM      4  O   UNL     1      91.731  18.470 119.195  1.00  0.00    -0.550 OA
ENDBRANCH   1   2
BRANCH   1   5
ATOM      5  C   UNL     1      93.341  16.261 119.884  1.00  0.00     0.006 C 
BRANCH   5   6
ATOM      6  C   UNL     1      94.507  15.413 120.415  1.00  0.00    -0.003 C 
ATOM      7  C   UNL     1      95.570  16.251 121.125  1.00  0.00     0.004 C 
ENDBRANCH   5   6
ENDBRANCH   1   5
TORSDOF 3
ENDMDL
MODEL 2
REMARK VINA RESULT:    -2.486      1.528      2.395
REMARK INTER + INTRA:          -2.946
REMARK INTER:                  -2.841
REMARK INTRA:                  -0.106
REMARK UNBOUND:                -0.024
REMARK SMILES CCCCC(=O)[O-]
REMARK SMILES IDX 4 1 5 2 6 3 7 4 3 5 2 6 1 7
REMARK H PARENT
REMARK Flexibility Score: inf
ROOT
ATOM      1  C   UNL     1      93.610  16.133 120.871  1.00  0.00     0.053 C 
ENDROOT
BRANCH   1   2
ATOM      2  C   UNL     1      93.096  16.626 119.556  1.00  0.00     0.041 C 
ATOM      3  O   UNL     1      93.605  16.213 118.481  1.00  0.00    -0.550 OA
ATOM      4  O   UNL     1      92.088  17.582 119.517  1.00  0.00    -0.550 OA
ENDBRANCH   1   2
BRANCH   1   5
ATOM      5  C   UNL     1      95.036  15.589 120.719  1.00  0.00     0.006 C 
BRANCH   5   6
ATOM      6  C   UNL     1      96.105  16.615 121.124  1.00  0.00    -0.003 C 
ATOM      7  C   UNL     1      97.020  17.003 119.963  1.00  0.00     0.004 C 
ENDBRANCH   5   6
ENDBRANCH   1   5
TORSDOF 3
ENDMDL
MODEL 3
REMARK VINA RESULT:    -2.042      5.389      7.441
REMARK INTER + INTRA:          -2.424
REMARK INTER:                  -2.404
REMARK INTRA:                  -0.019
REMARK UNBOUND:                -0.024
REMARK SMILES CCCCC(=O)[O-]
REMARK SMILES IDX 4 1 5 2 6 3 7 4 3 5 2 6 1 7
REMARK H PARENT
REMARK Flexibility Score: inf
ROOT
ATOM      1  C   UNL     1      86.871  17.764 120.120  1.00  0.00     0.053 C 
ENDROOT
BRANCH   1   2
ATOM      2  C   UNL     1      87.912  18.614 120.777  1.00  0.00     0.041 C 
ATOM      3  O   UNL     1      87.640  19.794 121.125  1.00  0.00    -0.550 OA
ATOM      4  O   UNL     1      89.199  18.123 120.959  1.00  0.00    -0.550 OA
ENDBRANCH   1   2
BRANCH   1   5
ATOM      5  C   UNL     1      85.742  17.441 121.107  1.00  0.00     0.006 C 
BRANCH   5   6
ATOM      6  C   UNL     1      84.438  17.040 120.401  1.00  0.00    -0.003 C 
ATOM      7  C   UNL     1      83.210  17.730 120.992  1.00  0.00     0.004 C 
ENDBRANCH   5   6
ENDBRANCH   1   5
TORSDOF 3
ENDMDL
MODEL 4
REMARK VINA RESULT:    -1.726     13.384     14.395
REMARK INTER + INTRA:          -2.053
REMARK INTER:                  -2.091
REMARK INTRA:                   0.038
REMARK UNBOUND:                -0.024
REMARK SMILES CCCCC(=O)[O-]
REMARK SMILES IDX 4 1 5 2 6 3 7 4 3 5 2 6 1 7
REMARK H PARENT
REMARK Flexibility Score: inf
ROOT
ATOM      1  C   UNL     1      82.375  25.891 114.321  1.00  0.00     0.053 C 
ENDROOT
BRANCH   1   2
ATOM      2  C   UNL     1      83.472  26.725 113.739  1.00  0.00     0.041 C 
ATOM      3  O   UNL     1      84.430  27.106 114.461  1.00  0.00    -0.550 OA
ATOM      4  O   UNL     1      83.412  27.125 112.410  1.00  0.00    -0.550 OA
ENDBRANCH   1   2
BRANCH   1   5
ATOM      5  C   UNL     1      82.791  24.415 114.364  1.00  0.00     0.006 C 
BRANCH   5   6
ATOM      6  C   UNL     1      83.094  23.929 115.790  1.00  0.00    -0.003 C 
ATOM      7  C   UNL     1      83.158  25.072 116.802  1.00  0.00     0.004 C 
ENDBRANCH   5   6
ENDBRANCH   1   5
TORSDOF 3
ENDMDL
MODEL 5
REMARK VINA RESULT:    -1.294     15.082     15.756
REMARK INTER + INTRA:          -1.545
REMARK INTER:                  -1.693
REMARK INTRA:                   0.148
REMARK UNBOUND:                -0.024
REMARK SMILES CCCCC(=O)[O-]
REMARK SMILES IDX 4 1 5 2 6 3 7 4 3 5 2 6 1 7
REMARK H PARENT
REMARK Flexibility Score: inf
ROOT
ATOM      1  C   UNL     1      84.398  14.620 108.265  1.00  0.00     0.053 C 
ENDROOT
BRANCH   1   2
ATOM      2  C   UNL     1      83.547  13.916 107.256  1.00  0.00     0.041 C 
ATOM      3  O   UNL     1      82.738  14.568 106.543  1.00  0.00    -0.550 OA
ATOM      4  O   UNL     1      83.608  12.533 107.136  1.00  0.00    -0.550 OA
ENDBRANCH   1   2
BRANCH   1   5
ATOM      5  C   UNL     1      84.183  14.020 109.660  1.00  0.00     0.006 C 
BRANCH   5   6
ATOM      6  C   UNL     1      82.722  13.616 109.909  1.00  0.00    -0.003 C 
ATOM      7  C   UNL     1      82.354  13.619 111.392  1.00  0.00     0.004 C 
ENDBRANCH   5   6
ENDBRANCH   1   5
TORSDOF 3
ENDMDL
MODEL 6
REMARK VINA RESULT:    -1.154      2.514      3.300
REMARK INTER + INTRA:          -1.381
REMARK INTER:                  -1.355
REMARK INTRA:                  -0.025
REMARK UNBOUND:                -0.024
REMARK SMILES CCCCC(=O)[O-]
REMARK SMILES IDX 4 1 5 2 6 3 7 4 3 5 2 6 1 7
REMARK H PARENT
REMARK Flexibility Score: inf
ROOT
ATOM      1  C   UNL     1      95.040  16.113 120.030  1.00  0.00     0.053 C 
ENDROOT
BRANCH   1   2
ATOM      2  C   UNL     1      93.718  15.736 120.620  1.00  0.00     0.041 C 
ATOM      3  O   UNL     1      92.795  16.589 120.705  1.00  0.00    -0.550 OA
ATOM      4  O   UNL     1      93.519  14.456 121.123  1.00  0.00    -0.550 OA
ENDBRANCH   1   2
BRANCH   1   5
ATOM      5  C   UNL     1      95.992  16.611 121.125  1.00  0.00     0.006 C 
BRANCH   5   6
ATOM      6  C   UNL     1      97.366  17.019 120.572  1.00  0.00    -0.003 C 
ATOM      7  C   UNL     1      97.277  17.666 119.190  1.00  0.00     0.004 C 
ENDBRANCH   5   6
ENDBRANCH   1   5
TORSDOF 3
ENDMDL
MODEL 7
REMARK VINA RESULT:    -0.826     14.652     15.525
REMARK INTER + INTRA:          -0.994
REMARK INTER:                  -1.380
REMARK INTRA:                   0.386
REMARK UNBOUND:                -0.024
REMARK SMILES CCCCC(=O)[O-]
REMARK SMILES IDX 4 1 5 2 6 3 7 4 3 5 2 6 1 7
REMARK H PARENT
REMARK Flexibility Score: inf
ROOT
ATOM      1  C   UNL     1      84.231  12.991 108.272  1.00  0.00     0.053 C 
ENDROOT
BRANCH   1   2
ATOM      2  C   UNL     1      84.007  13.635 109.604  1.00  0.00     0.041 C 
ATOM      3  O   UNL     1      84.987  13.987 110.311  1.00  0.00    -0.550 OA
ATOM      4  O   UNL     1      82.715  13.801 110.088  1.00  0.00    -0.550 OA
ENDBRANCH   1   2
BRANCH   1   5
ATOM      5  C   UNL     1      83.103  13.360 107.301  1.00  0.00     0.006 C 
BRANCH   5   6
ATOM      6  C   UNL     1      83.130  14.843 106.901  1.00  0.00    -0.003 C 
ATOM      7  C   UNL     1      84.461  15.519 107.230  1.00  0.00     0.004 C 
ENDBRANCH   5   6
ENDBRANCH   1   5
TORSDOF 3
ENDMDL
MODEL 8
REMARK VINA RESULT:    -0.540      2.895      3.919
REMARK INTER + INTRA:          -0.659
REMARK INTER:                  -0.627
REMARK INTRA:                  -0.032
REMARK UNBOUND:                -0.024
REMARK SMILES CCCCC(=O)[O-]
REMARK SMILES IDX 4 1 5 2 6 3 7 4 3 5 2 6 1 7
REMARK H PARENT
REMARK Flexibility Score: inf
ROOT
ATOM      1  C   UNL     1      93.251  16.272 120.968  1.00  0.00     0.053 C 
ENDROOT
BRANCH   1   2
ATOM      2  C   UNL     1      94.557  15.543 120.938  1.00  0.00     0.041 C 
ATOM      3  O   UNL     1      94.592  14.298 121.125  1.00  0.00    -0.550 OA
ATOM      4  O   UNL     1      95.742  16.244 120.755  1.00  0.00    -0.550 OA
ENDBRANCH   1   2
BRANCH   1   5
ATOM      5  C   UNL     1      92.844  16.700 119.552  1.00  0.00     0.006 C 
BRANCH   5   6
ATOM      6  C   UNL     1      91.749  17.777 119.553  1.00  0.00    -0.003 C 
ATOM      7  C   UNL     1      91.224  18.084 120.955  1.00  0.00     0.004 C 
ENDBRANCH   5   6
ENDBRANCH   1   5
TORSDOF 3
ENDMDL
