MODEL 1
REMARK VINA RESULT:    -3.711      0.000      0.000
REMARK INTER + INTRA:          -5.357
REMARK INTER:                  -5.013
REMARK INTRA:                  -0.344
REMARK UNBOUND:                -0.344
REMARK SMILES CCCCCCCC(=O)[O-]
REMARK SMILES IDX 5 1 6 2 7 3 8 4 9 5 10 6 4 7 3 8 2 9 1 10
REMARK H PARENT
REMARK Flexibility Score: inf
ROOT
ATOM      1  C   UNL     1      -1.887   4.145  -9.718  1.00  0.00     0.000 C 
ENDROOT
BRANCH   1   2
ATOM      2  C   UNL     1      -0.596   3.770  -8.971  1.00  0.00     0.006 C 
BRANCH   2   3
ATOM      3  C   UNL     1      -0.865   2.837  -7.783  1.00  0.00     0.053 C 
BRANCH   3   4
ATOM      4  C   UNL     1       0.117   1.705  -7.735  1.00  0.00     0.041 C 
ATOM      5  O   UNL     1       0.695   1.323  -8.786  1.00  0.00    -0.550 OA
ATOM      6  O   UNL     1       0.367   1.052  -6.535  1.00  0.00    -0.550 OA
ENDBRANCH   3   4
ENDBRANCH   2   3
ENDBRANCH   1   2
BRANCH   1   7
ATOM      7  C   UNL     1      -2.950   4.776  -8.800  1.00  0.00     0.000 C 
BRANCH   7   8
ATOM      8  C   UNL     1      -4.362   4.180  -8.938  1.00  0.00    -0.000 C 
BRANCH   8   9
ATOM      9  C   UNL     1      -4.351   2.704  -9.365  1.00  0.00    -0.003 C 
ATOM     10  C   UNL     1      -5.657   2.012  -8.987  1.00  0.00     0.004 C 
ENDBRANCH   8   9
ENDBRANCH   7   8
ENDBRANCH   1   7
TORSDOF 6
ENDMDL
MODEL 2
REMARK VINA RESULT:    -3.559      3.309      4.837
REMARK INTER + INTRA:          -5.151
REMARK INTER:                  -4.712
REMARK INTRA:                  -0.439
REMARK UNBOUND:                -0.344
REMARK SMILES CCCCCCCC(=O)[O-]
REMARK SMILES IDX 5 1 6 2 7 3 8 4 9 5 10 6 4 7 3 8 2 9 1 10
REMARK H PARENT
REMARK Flexibility Score: inf
ROOT
ATOM      1  C   UNL     1      -3.314   5.192  -9.791  1.00  0.00     0.000 C 
ENDROOT
BRANCH   1   2
ATOM      2  C   UNL     1      -4.300   4.413  -8.905  1.00  0.00     0.006 C 
BRANCH   2   3
ATOM      3  C   UNL     1      -4.374   2.929  -9.289  1.00  0.00     0.053 C 
BRANCH   3   4
ATOM      4  C   UNL     1      -5.759   2.382  -9.120  1.00  0.00     0.041 C 
ATOM      5  O   UNL     1      -6.461   2.729  -8.134  1.00  0.00    -0.550 OA
ATOM      6  O   UNL     1      -6.260   1.463 -10.032  1.00  0.00    -0.550 OA
ENDBRANCH   3   4
ENDBRANCH   2   3
ENDBRANCH   1   2
BRANCH   1   7
ATOM      7  C   UNL     1      -2.397   6.132  -8.987  1.00  0.00     0.000 C 
BRANCH   7   8
ATOM      8  C   UNL     1      -1.336   5.422  -8.127  1.00  0.00    -0.000 C 
BRANCH   8   9
ATOM      9  C   UNL     1      -0.679   4.234  -8.845  1.00  0.00    -0.003 C 
ATOM     10  C   UNL     1      -0.782   2.961  -8.011  1.00  0.00     0.004 C 
ENDBRANCH   8   9
ENDBRANCH   7   8
ENDBRANCH   1   7
TORSDOF 6
ENDMDL
MODEL 3
REMARK VINA RESULT:    -3.556      3.247      4.921
REMARK INTER + INTRA:          -5.147
REMARK INTER:                  -4.834
REMARK INTRA:                  -0.313
REMARK UNBOUND:                -0.344
REMARK SMILES CCCCCCCC(=O)[O-]
REMARK SMILES IDX 5 1 6 2 7 3 8 4 9 5 10 6 4 7 3 8 2 9 1 10
REMARK H PARENT
REMARK Flexibility Score: inf
ROOT
ATOM      1  C   UNL     1      -2.976   5.120  -9.219  1.00  0.00     0.000 C 
ENDROOT
BRANCH   1   2
ATOM      2  C   UNL     1      -4.327   4.465  -8.887  1.00  0.00     0.006 C 
BRANCH   2   3
ATOM      3  C   UNL     1      -4.384   2.997  -9.332  1.00  0.00     0.053 C 
BRANCH   3   4
ATOM      4  C   UNL     1      -5.751   2.413  -9.139  1.00  0.00     0.041 C 
ATOM      5  O   UNL     1      -6.462   2.773  -8.164  1.00  0.00    -0.550 OA
ATOM      6  O   UNL     1      -6.223   1.445 -10.016  1.00  0.00    -0.550 OA
ENDBRANCH   3   4
ENDBRANCH   2   3
ENDBRANCH   1   2
BRANCH   1   7
ATOM      7  C   UNL     1      -1.843   4.095  -9.408  1.00  0.00     0.000 C 
BRANCH   7   8
ATOM      8  C   UNL     1      -0.867   3.981  -8.223  1.00  0.00    -0.000 C 
BRANCH   8   9
ATOM      9  C   UNL     1      -0.462   2.531  -7.917  1.00  0.00    -0.003 C 
ATOM     10  C   UNL     1       0.014   1.815  -9.178  1.00  0.00     0.004 C 
ENDBRANCH   8   9
ENDBRANCH   7   8
ENDBRANCH   1   7
TORSDOF 6
ENDMDL
MODEL 4
REMARK VINA RESULT:    -3.478      3.329      4.776
REMARK INTER + INTRA:          -5.042
REMARK INTER:                  -4.584
REMARK INTRA:                  -0.457
REMARK UNBOUND:                -0.344
REMARK SMILES CCCCCCCC(=O)[O-]
REMARK SMILES IDX 5 1 6 2 7 3 8 4 9 5 10 6 4 7 3 8 2 9 1 10
REMARK H PARENT
REMARK Flexibility Score: inf
ROOT
ATOM      1  C   UNL     1      -0.443   2.577  -8.055  1.00  0.00     0.000 C 
ENDROOT
BRANCH   1   2
ATOM      2  C   UNL     1      -1.207   3.683  -8.802  1.00  0.00     0.006 C 
BRANCH   2   3
ATOM      3  C   UNL     1      -2.663   3.289  -9.088  1.00  0.00     0.053 C 
BRANCH   3   4
ATOM      4  C   UNL     1      -3.605   4.423  -8.820  1.00  0.00     0.041 C 
ATOM      5  O   UNL     1      -3.161   5.546  -8.466  1.00  0.00    -0.550 OA
ATOM      6  O   UNL     1      -4.976   4.228  -8.929  1.00  0.00    -0.550 OA
ENDBRANCH   3   4
ENDBRANCH   2   3
ENDBRANCH   1   2
BRANCH   1   7
ATOM      7  C   UNL     1       0.177   1.532  -9.001  1.00  0.00     0.000 C 
BRANCH   7   8
ATOM      8  C   UNL     1       1.040   2.115 -10.135  1.00  0.00    -0.000 C 
BRANCH   8   9
ATOM      9  C   UNL     1       0.570   1.679 -11.530  1.00  0.00    -0.003 C 
ATOM     10  C   UNL     1      -0.819   1.049 -11.472  1.00  0.00     0.004 C 
ENDBRANCH   8   9
ENDBRANCH   7   8
ENDBRANCH   1   7
TORSDOF 6
ENDMDL
MODEL 5
REMARK VINA RESULT:    -3.466      1.229      2.623
REMARK INTER + INTRA:          -5.025
REMARK INTER:                  -4.583
REMARK INTRA:                  -0.443
REMARK UNBOUND:                -0.344
REMARK SMILES CCCCCCCC(=O)[O-]
REMARK SMILES IDX 5 1 6 2 7 3 8 4 9 5 10 6 4 7 3 8 2 9 1 10
REMARK H PARENT
REMARK Flexibility Score: inf
ROOT
ATOM      1  C   UNL     1      -3.252   2.976  -9.253  1.00  0.00     0.000 C 
ENDROOT
BRANCH   1   2
ATOM      2  C   UNL     1      -1.749   2.975  -9.578  1.00  0.00     0.006 C 
BRANCH   2   3
ATOM      3  C   UNL     1      -0.889   3.249  -8.337  1.00  0.00     0.053 C 
BRANCH   3   4
ATOM      4  C   UNL     1       0.004   2.089  -8.015  1.00  0.00     0.041 C 
ATOM      5  O   UNL     1       0.172   1.730  -6.820  1.00  0.00    -0.550 OA
ATOM      6  O   UNL     1       0.678   1.427  -9.033  1.00  0.00    -0.550 OA
ENDBRANCH   3   4
ENDBRANCH   2   3
ENDBRANCH   1   2
BRANCH   1   7
ATOM      7  C   UNL     1      -3.755   4.339  -8.744  1.00  0.00     0.000 C 
BRANCH   7   8
ATOM      8  C   UNL     1      -4.230   5.306  -9.844  1.00  0.00    -0.000 C 
BRANCH   8   9
ATOM      9  C   UNL     1      -3.286   6.502 -10.038  1.00  0.00    -0.003 C 
ATOM     10  C   UNL     1      -2.328   6.644  -8.859  1.00  0.00     0.004 C 
ENDBRANCH   8   9
ENDBRANCH   7   8
ENDBRANCH   1   7
TORSDOF 6
ENDMDL
MODEL 6
REMARK VINA RESULT:    -3.444     13.777     15.012
REMARK INTER + INTRA:          -4.996
REMARK INTER:                  -4.804
REMARK INTRA:                  -0.192
REMARK UNBOUND:                -0.344
REMARK SMILES CCCCCCCC(=O)[O-]
REMARK SMILES IDX 5 1 6 2 7 3 8 4 9 5 10 6 4 7 3 8 2 9 1 10
REMARK H PARENT
REMARK Flexibility Score: inf
ROOT
ATOM      1  C   UNL     1       1.030 -10.587  -4.779  1.00  0.00     0.000 C 
ENDROOT
BRANCH   1   2
ATOM      2  C   UNL     1      -0.423 -10.100  -4.653  1.00  0.00     0.006 C 
BRANCH   2   3
ATOM      3  C   UNL     1      -1.203 -10.876  -3.583  1.00  0.00     0.053 C 
BRANCH   3   4
ATOM      4  C   UNL     1      -1.772  -9.961  -2.541  1.00  0.00     0.041 C 
ATOM      5  O   UNL     1      -2.377 -10.435  -1.544  1.00  0.00    -0.550 OA
ATOM      6  O   UNL     1      -1.663  -8.585  -2.690  1.00  0.00    -0.550 OA
ENDBRANCH   3   4
ENDBRANCH   2   3
ENDBRANCH   1   2
BRANCH   1   7
ATOM      7  C   UNL     1       1.211 -11.661  -5.868  1.00  0.00     0.000 C 
BRANCH   7   8
ATOM      8  C   UNL     1       1.824 -11.152  -7.184  1.00  0.00    -0.000 C 
BRANCH   8   9
ATOM      9  C   UNL     1       3.280 -10.687  -7.028  1.00  0.00    -0.003 C 
ATOM     10  C   UNL     1       4.254 -11.834  -7.282  1.00  0.00     0.004 C 
ENDBRANCH   8   9
ENDBRANCH   7   8
ENDBRANCH   1   7
TORSDOF 6
ENDMDL
MODEL 7
REMARK VINA RESULT:    -3.321      3.764      5.516
REMARK INTER + INTRA:          -4.829
REMARK INTER:                  -4.555
REMARK INTRA:                  -0.274
REMARK UNBOUND:                -0.344
REMARK SMILES CCCCCCCC(=O)[O-]
REMARK SMILES IDX 5 1 6 2 7 3 8 4 9 5 10 6 4 7 3 8 2 9 1 10
REMARK H PARENT
REMARK Flexibility Score: inf
ROOT
ATOM      1  C   UNL     1      -3.135   2.407 -10.522  1.00  0.00     0.000 C 
ENDROOT
BRANCH   1   2
ATOM      2  C   UNL     1      -4.029   2.700  -9.305  1.00  0.00     0.006 C 
BRANCH   2   3
ATOM      3  C   UNL     1      -5.369   1.956  -9.380  1.00  0.00     0.053 C 
BRANCH   3   4
ATOM      4  C   UNL     1      -6.514   2.837  -8.981  1.00  0.00     0.041 C 
ATOM      5  O   UNL     1      -6.582   3.297  -7.811  1.00  0.00    -0.550 OA
ATOM      6  O   UNL     1      -7.523   3.121  -9.892  1.00  0.00    -0.550 OA
ENDBRANCH   3   4
ENDBRANCH   2   3
ENDBRANCH   1   2
BRANCH   1   7
ATOM      7  C   UNL     1      -1.676   2.854 -10.316  1.00  0.00     0.000 C 
BRANCH   7   8
ATOM      8  C   UNL     1      -0.642   1.714 -10.318  1.00  0.00    -0.000 C 
BRANCH   8   9
ATOM      9  C   UNL     1       0.155   1.625  -9.008  1.00  0.00    -0.003 C 
ATOM     10  C   UNL     1      -0.409   2.575  -7.956  1.00  0.00     0.004 C 
ENDBRANCH   8   9
ENDBRANCH   7   8
ENDBRANCH   1   7
TORSDOF 6
ENDMDL
MODEL 8
REMARK VINA RESULT:    -3.236      3.255      4.860
REMARK INTER + INTRA:          -4.715
REMARK INTER:                  -4.369
REMARK INTRA:                  -0.346
REMARK UNBOUND:                -0.344
REMARK SMILES CCCCCCCC(=O)[O-]
REMARK SMILES IDX 5 1 6 2 7 3 8 4 9 5 10 6 4 7 3 8 2 9 1 10
REMARK H PARENT
REMARK Flexibility Score: inf
ROOT
ATOM      1  C   UNL     1      -0.568   5.797  -8.586  1.00  0.00     0.000 C 
ENDROOT
BRANCH   1   2
ATOM      2  C   UNL     1      -2.002   6.345  -8.484  1.00  0.00     0.006 C 
BRANCH   2   3
ATOM      3  C   UNL     1      -2.803   6.112  -9.772  1.00  0.00     0.053 C 
BRANCH   3   4
ATOM      4  C   UNL     1      -4.090   5.393  -9.501  1.00  0.00     0.041 C 
ATOM      5  O   UNL     1      -5.098   5.605 -10.223  1.00  0.00    -0.550 OA
ATOM      6  O   UNL     1      -4.183   4.516  -8.428  1.00  0.00    -0.550 OA
ENDBRANCH   3   4
ENDBRANCH   2   3
ENDBRANCH   1   2
BRANCH   1   7
ATOM      7  C   UNL     1      -0.512   4.360  -9.135  1.00  0.00     0.000 C 
BRANCH   7   8
ATOM      8  C   UNL     1      -0.831   3.260  -8.107  1.00  0.00    -0.000 C 
BRANCH   8   9
ATOM      9  C   UNL     1      -0.049   1.962  -8.356  1.00  0.00    -0.003 C 
ATOM     10  C   UNL     1       0.472   1.899  -9.788  1.00  0.00     0.004 C 
ENDBRANCH   8   9
ENDBRANCH   7   8
ENDBRANCH   1   7
TORSDOF 6
ENDMDL
MODEL 9
REMARK VINA RESULT:    -3.193      3.123      4.806
REMARK INTER + INTRA:          -4.657
REMARK INTER:                  -4.265
REMARK INTRA:                  -0.392
REMARK UNBOUND:                -0.344
REMARK SMILES CCCCCCCC(=O)[O-]
REMARK SMILES IDX 5 1 6 2 7 3 8 4 9 5 10 6 4 7 3 8 2 9 1 10
REMARK H PARENT
REMARK Flexibility Score: inf
ROOT
ATOM      1  C   UNL     1      -2.928   2.855 -10.614  1.00  0.00     0.000 C 
ENDROOT
BRANCH   1   2
ATOM      2  C   UNL     1      -3.684   2.993  -9.281  1.00  0.00     0.006 C 
BRANCH   2   3
ATOM      3  C   UNL     1      -4.619   4.210  -9.270  1.00  0.00     0.053 C 
BRANCH   3   4
ATOM      4  C   UNL     1      -3.851   5.498  -9.247  1.00  0.00     0.041 C 
ATOM      5  O   UNL     1      -4.173   6.442 -10.014  1.00  0.00    -0.550 OA
ATOM      6  O   UNL     1      -2.758   5.639  -8.402  1.00  0.00    -0.550 OA
ENDBRANCH   3   4
ENDBRANCH   2   3
ENDBRANCH   1   2
BRANCH   1   7
ATOM      7  C   UNL     1      -1.402   2.983 -10.455  1.00  0.00     0.000 C 
BRANCH   7   8
ATOM      8  C   UNL     1      -0.669   1.665 -10.148  1.00  0.00    -0.000 C 
BRANCH   8   9
ATOM      9  C   UNL     1       0.238   1.758  -8.911  1.00  0.00    -0.003 C 
ATOM     10  C   UNL     1      -0.436   2.545  -7.792  1.00  0.00     0.004 C 
ENDBRANCH   8   9
ENDBRANCH   7   8
ENDBRANCH   1   7
TORSDOF 6
ENDMDL
