MODEL 1
REMARK VINA RESULT:    20.993      0.000      0.000
REMARK INTER + INTRA:          24.929
REMARK INTER:                  25.288
REMARK INTRA:                  -0.359
REMARK UNBOUND:                -0.359
REMARK SMILES Oc1cc(O)c2c(c1)O[C@H](c1ccc(O)c(O)c1)[C@@H](O)C2
REMARK SMILES IDX 21 1 19 2 10 3 9 4 7 5 8 6 2 7 3 8 4 9 6 10 20 11 11 13
REMARK SMILES IDX 18 14 12 15 16 16 13 17 14 18 17 19 15 21 5 23 1 25
REMARK H PARENT 20 12 17 20 15 22 5 24 1 26
REMARK Flexibility Score: inf
ROOT
ATOM      1  C   UNL     1      16.956  -1.336  17.741  1.00  0.00     0.079 C 
ATOM      2  C   UNL     1      16.345  -0.380  16.700  1.00  0.00     0.164 C 
ATOM      3  C   UNL     1      17.006   1.007  16.819  1.00  0.00     0.232 C 
ATOM      4  O   UNL     1      16.872   1.504  18.152  1.00  0.00    -0.482 OA
ATOM      5  C   UNL     1      16.947   0.671  19.274  1.00  0.00     0.131 A 
ATOM      6  C   UNL     1      16.978   1.242  20.550  1.00  0.00     0.093 A 
ATOM      7  C   UNL     1      17.054   0.431  21.684  1.00  0.00     0.122 A 
ATOM      8  C   UNL     1      17.100  -0.963  21.542  1.00  0.00     0.092 A 
ATOM      9  C   UNL     1      17.063  -1.547  20.267  1.00  0.00     0.126 A 
ATOM     10  C   UNL     1      16.967  -0.730  19.125  1.00  0.00     0.039 A 
ENDROOT
BRANCH   2  11
ATOM     11  O   UNL     1      16.547  -0.893  15.409  1.00  0.00    -0.389 OA
ATOM     12  H   UNL     1      16.049  -0.302  14.786  1.00  0.00     0.211 HD
ENDBRANCH   2  11
BRANCH   3  13
ATOM     13  C   UNL     1      16.391   1.987  15.848  1.00  0.00    -0.001 A 
ATOM     14  C   UNL     1      15.064   2.420  16.015  1.00  0.00     0.057 A 
ATOM     15  C   UNL     1      17.125   2.440  14.740  1.00  0.00     0.012 A 
ATOM     16  C   UNL     1      14.484   3.307  15.102  1.00  0.00     0.157 A 
ATOM     17  C   UNL     1      16.548   3.326  13.827  1.00  0.00     0.050 A 
ATOM     18  C   UNL     1      15.229   3.766  14.002  1.00  0.00     0.157 A 
BRANCH  16  19
ATOM     19  O   UNL     1      13.167   3.721  15.302  1.00  0.00    -0.504 OA
ATOM     20  H   UNL     1      12.646   3.475  16.134  1.00  0.00     0.293 HD
ENDBRANCH  16  19
BRANCH  18  21
ATOM     21  O   UNL     1      14.657   4.650  13.090  1.00  0.00    -0.504 OA
ATOM     22  H   UNL     1      13.653   4.699  12.956  1.00  0.00     0.293 HD
ENDBRANCH  18  21
ENDBRANCH   3  13
BRANCH   9  23
ATOM     23  O   UNL     1      17.124  -2.934  20.134  1.00  0.00    -0.507 OA
ATOM     24  H   UNL     1      16.438  -3.540  20.568  1.00  0.00     0.293 HD
ENDBRANCH   9  23
BRANCH   7  25
ATOM     25  O   UNL     1      17.086   1.016  22.947  1.00  0.00    -0.508 OA
ATOM     26  H   UNL     1      17.940   1.058  23.491  1.00  0.00     0.293 HD
ENDBRANCH   7  25
TORSDOF 6
ENDMDL
MODEL 2
REMARK VINA RESULT:    23.539      1.561      2.170
REMARK INTER + INTRA:          27.996
REMARK INTER:                  27.616
REMARK INTRA:                   0.380
REMARK UNBOUND:                -0.359
REMARK SMILES Oc1cc(O)c2c(c1)O[C@H](c1ccc(O)c(O)c1)[C@@H](O)C2
REMARK SMILES IDX 21 1 19 2 10 3 9 4 7 5 8 6 2 7 3 8 4 9 6 10 20 11 11 13
REMARK SMILES IDX 18 14 12 15 16 16 13 17 14 18 17 19 15 21 5 23 1 25
REMARK H PARENT 20 12 17 20 15 22 5 24 1 26
REMARK Flexibility Score: inf
ROOT
ATOM      1  C   UNL     1      16.556  -1.834  19.763  1.00  0.00     0.079 C 
ATOM      2  C   UNL     1      16.181  -1.102  18.462  1.00  0.00     0.164 C 
ATOM      3  C   UNL     1      17.124   0.097  18.250  1.00  0.00     0.232 C 
ATOM      4  O   UNL     1      17.084   0.962  19.386  1.00  0.00    -0.482 OA
ATOM      5  C   UNL     1      16.961   0.479  20.694  1.00  0.00     0.131 A 
ATOM      6  C   UNL     1      17.099   1.364  21.767  1.00  0.00     0.093 A 
ATOM      7  C   UNL     1      16.982   0.903  23.081  1.00  0.00     0.122 A 
ATOM      8  C   UNL     1      16.727  -0.453  23.323  1.00  0.00     0.092 A 
ATOM      9  C   UNL     1      16.582  -1.349  22.254  1.00  0.00     0.126 A 
ATOM     10  C   UNL     1      16.680  -0.882  20.930  1.00  0.00     0.039 A 
ENDROOT
BRANCH   2  11
ATOM     11  O   UNL     1      16.283  -1.985  17.375  1.00  0.00    -0.389 OA
ATOM     12  H   UNL     1      15.541  -1.761  16.754  1.00  0.00     0.211 HD
ENDBRANCH   2  11
BRANCH   3  13
ATOM     13  C   UNL     1      16.749   0.872  17.010  1.00  0.00    -0.001 A 
ATOM     14  C   UNL     1      16.343   0.201  15.844  1.00  0.00     0.057 A 
ATOM     15  C   UNL     1      16.849   2.273  16.993  1.00  0.00     0.012 A 
ATOM     16  C   UNL     1      16.021   0.915  14.684  1.00  0.00     0.157 A 
ATOM     17  C   UNL     1      16.528   2.989  15.837  1.00  0.00     0.050 A 
ATOM     18  C   UNL     1      16.111   2.317  14.680  1.00  0.00     0.157 A 
BRANCH  16  19
ATOM     19  O   UNL     1      15.615   0.217  13.548  1.00  0.00    -0.504 OA
ATOM     20  H   UNL     1      15.672  -0.793  13.487  1.00  0.00     0.293 HD
ENDBRANCH  16  19
BRANCH  18  21
ATOM     21  O   UNL     1      15.791   3.035  13.529  1.00  0.00    -0.504 OA
ATOM     22  H   UNL     1      16.337   3.838  13.236  1.00  0.00     0.293 HD
ENDBRANCH  18  21
ENDBRANCH   3  13
BRANCH   9  23
ATOM     23  O   UNL     1      16.342  -2.701  22.504  1.00  0.00    -0.507 OA
ATOM     24  H   UNL     1      16.779  -3.182  23.282  1.00  0.00     0.293 HD
ENDBRANCH   9  23
BRANCH   7  25
ATOM     25  O   UNL     1      17.124   1.798  24.138  1.00  0.00    -0.508 OA
ATOM     26  H   UNL     1      16.443   1.846  24.887  1.00  0.00     0.293 HD
ENDBRANCH   7  25
TORSDOF 6
ENDMDL
