MODEL 1
REMARK VINA RESULT:     9.990      0.000      0.000
REMARK INTER + INTRA:          12.182
REMARK INTER:                  11.450
REMARK INTRA:                   0.732
REMARK UNBOUND:                 0.732
REMARK SMILES C=C(C)[C@H]1CC[C@]2(C(=O)[O-])CC[C@]3(C)[C@H](CC[C@@H]4[C@]5(C)CC[C@H](O)C(C)(C)[C@H]5CC[C@@]43C)[C@@H]12
REMARK SMILES IDX 7 1 6 2 33 3 11 4 5 5 15 6 4 7 12 8 16 9 13 10 17 11 31 12
REMARK SMILES IDX 14 13 18 14 30 15 32 16 19 17 29 18 21 19 20 20 28 21 22 22
REMARK SMILES IDX 25 23 23 24 26 25 27 26 8 27 9 28 10 29 2 30 3 31 1 32 24 33
REMARK H PARENT 24 34
REMARK Flexibility Score: inf
ROOT
ATOM      1  C   UNL     1      26.773   0.907  12.233  1.00  0.00     0.014 C 
ATOM      2  C   UNL     1      26.162   1.766  11.108  1.00  0.00     0.014 C 
ATOM      3  C   UNL     1      25.500   0.348  12.884  1.00  0.00     0.012 C 
ATOM      4  C   UNL     1      27.607  -0.283  11.737  1.00  0.00     0.014 C 
ATOM      5  C   UNL     1      24.904   2.409  11.723  1.00  0.00     0.009 C 
ATOM      6  C   UNL     1      25.736  -0.594  14.100  1.00  0.00     0.000 C 
ATOM      7  C   UNL     1      24.477   1.510  12.911  1.00  0.00     0.018 C 
ATOM      8  C   UNL     1      28.006  -1.189  12.925  1.00  0.00     0.008 C 
ATOM      9  C   UNL     1      24.419  -1.243  14.537  1.00  0.00     0.005 C 
ATOM     10  C   UNL     1      26.784  -1.737  13.792  1.00  0.00    -0.024 C 
ATOM     11  C   UNL     1      24.577  -2.104  15.791  1.00  0.00     0.005 C 
ATOM     12  C   UNL     1      27.220  -2.386  15.211  1.00  0.00    -0.024 C 
ATOM     13  C   UNL     1      26.142  -2.856  12.884  1.00  0.00     0.012 C 
ATOM     14  C   UNL     1      25.937  -2.873  16.061  1.00  0.00     0.002 C 
ATOM     15  C   UNL     1      28.124  -1.422  16.093  1.00  0.00     0.008 C 
ATOM     16  C   UNL     1      28.119  -3.636  14.870  1.00  0.00     0.012 C 
ATOM     17  C   UNL     1      26.215  -3.017  17.633  1.00  0.00    -0.026 C 
ATOM     18  C   UNL     1      27.547  -0.773  17.369  1.00  0.00     0.005 C 
ATOM     19  C   UNL     1      24.959  -3.583  18.381  1.00  0.00     0.010 C 
ATOM     20  C   UNL     1      27.364  -4.042  17.867  1.00  0.00     0.012 C 
ATOM     21  C   UNL     1      26.537  -1.597  18.214  1.00  0.00     0.003 C 
ATOM     22  C   UNL     1      25.075  -3.550  19.922  1.00  0.00     0.033 C 
ATOM     23  C   UNL     1      26.701  -1.500  19.783  1.00  0.00    -0.006 C 
ATOM     24  C   UNL     1      25.463  -2.166  20.490  1.00  0.00     0.120 C 
ATOM     25  C   UNL     1      28.011  -2.155  20.301  1.00  0.00     0.014 C 
ATOM     26  C   UNL     1      26.753  -0.003  20.210  1.00  0.00     0.014 C 
ENDROOT
BRANCH   1  27
ATOM     27  C   UNL     1      27.664   1.789  13.111  1.00  0.00     0.048 C 
ATOM     28  O   UNL     1      28.108   2.880  12.661  1.00  0.00    -0.550 OA
ATOM     29  O   UNL     1      28.103   1.373  14.360  1.00  0.00    -0.550 OA
ENDBRANCH   1  27
BRANCH   7  30
ATOM     30  C   UNL     1      24.299   2.260  14.240  1.00  0.00    -0.077 C 
ATOM     31  C   UNL     1      25.216   1.955  15.401  1.00  0.00     0.039 C 
ATOM     32  C   UNL     1      23.280   3.104  14.478  1.00  0.00     0.008 C 
ENDBRANCH   7  30
BRANCH  24  33
ATOM     33  O   UNL     1      24.338  -1.315  20.513  1.00  0.00    -0.393 OA
ATOM     34  H   UNL     1      24.537  -0.544  21.100  1.00  0.00     0.210 HD
ENDBRANCH  24  33
TORSDOF 3
ENDMDL
MODEL 2
REMARK VINA RESULT:    10.089      2.147      7.430
REMARK INTER + INTRA:          12.296
REMARK INTER:                  11.553
REMARK INTRA:                   0.743
REMARK UNBOUND:                 0.732
REMARK SMILES C=C(C)[C@H]1CC[C@]2(C(=O)[O-])CC[C@]3(C)[C@H](CC[C@@H]4[C@]5(C)CC[C@H](O)C(C)(C)[C@H]5CC[C@@]43C)[C@@H]12
REMARK SMILES IDX 7 1 6 2 33 3 11 4 5 5 15 6 4 7 12 8 16 9 13 10 17 11 31 12
REMARK SMILES IDX 14 13 18 14 30 15 32 16 19 17 29 18 21 19 20 20 28 21 22 22
REMARK SMILES IDX 25 23 23 24 26 25 27 26 8 27 9 28 10 29 2 30 3 31 1 32 24 33
REMARK H PARENT 24 34
REMARK Flexibility Score: inf
ROOT
ATOM      1  C   UNL     1      26.869  -1.317  16.898  1.00  0.00     0.014 C 
ATOM      2  C   UNL     1      26.307  -2.139  18.075  1.00  0.00     0.014 C 
ATOM      3  C   UNL     1      25.569  -0.759  16.299  1.00  0.00     0.012 C 
ATOM      4  C   UNL     1      27.739  -0.123  17.319  1.00  0.00     0.014 C 
ATOM      5  C   UNL     1      25.013  -2.782  17.543  1.00  0.00     0.009 C 
ATOM      6  C   UNL     1      25.752   0.148  15.048  1.00  0.00     0.000 C 
ATOM      7  C   UNL     1      24.534  -1.910  16.355  1.00  0.00     0.018 C 
ATOM      8  C   UNL     1      28.086   0.746  16.089  1.00  0.00     0.008 C 
ATOM      9  C   UNL     1      24.422   0.801  14.661  1.00  0.00     0.005 C 
ATOM     10  C   UNL     1      26.828   1.285  15.271  1.00  0.00    -0.024 C 
ATOM     11  C   UNL     1      24.524   1.626  13.378  1.00  0.00     0.005 C 
ATOM     12  C   UNL     1      27.196   1.892  13.814  1.00  0.00    -0.024 C 
ATOM     13  C   UNL     1      26.245   2.435  16.180  1.00  0.00     0.012 C 
ATOM     14  C   UNL     1      25.877   2.372  13.018  1.00  0.00     0.002 C 
ATOM     15  C   UNL     1      28.044   0.895  12.914  1.00  0.00     0.008 C 
ATOM     16  C   UNL     1      28.125   3.140  14.076  1.00  0.00     0.012 C 
ATOM     17  C   UNL     1      26.075   2.472  11.431  1.00  0.00    -0.026 C 
ATOM     18  C   UNL     1      27.395   0.220  11.687  1.00  0.00     0.005 C 
ATOM     19  C   UNL     1      24.788   3.033  10.733  1.00  0.00     0.010 C 
ATOM     20  C   UNL     1      27.221   3.476  11.111  1.00  0.00     0.012 C 
ATOM     21  C   UNL     1      26.351   1.033  10.872  1.00  0.00     0.003 C 
ATOM     22  C   UNL     1      24.824   2.958   9.190  1.00  0.00     0.033 C 
ATOM     23  C   UNL     1      26.434   0.893   9.300  1.00  0.00    -0.006 C 
ATOM     24  C   UNL     1      25.168   1.555   8.640  1.00  0.00     0.120 C 
ATOM     25  C   UNL     1      27.722   1.519   8.698  1.00  0.00     0.014 C 
ATOM     26  C   UNL     1      26.448  -0.615   8.911  1.00  0.00     0.014 C 
ENDROOT
BRANCH   1  27
ATOM     27  C   UNL     1      27.704  -2.232  16.000  1.00  0.00     0.048 C 
ATOM     28  O   UNL     1      28.125  -3.334  16.443  1.00  0.00    -0.550 OA
ATOM     29  O   UNL     1      28.119  -1.837  14.736  1.00  0.00    -0.550 OA
ENDBRANCH   1  27
BRANCH   7  30
ATOM     30  C   UNL     1      24.280  -2.692  15.057  1.00  0.00    -0.077 C 
ATOM     31  C   UNL     1      25.022  -2.313  13.797  1.00  0.00     0.039 C 
ATOM     32  C   UNL     1      23.331  -3.637  14.941  1.00  0.00     0.008 C 
ENDBRANCH   7  30
BRANCH  24  33
ATOM     33  O   UNL     1      24.034   0.717   8.698  1.00  0.00    -0.393 OA
ATOM     34  H   UNL     1      23.252   1.221   8.360  1.00  0.00     0.210 HD
ENDBRANCH  24  33
TORSDOF 3
ENDMDL
