MODEL 1
REMARK VINA RESULT:    -0.195      0.000      0.000
REMARK INTER + INTRA:          -2.365
REMARK INTER:                  -0.286
REMARK INTRA:                  -2.078
REMARK UNBOUND:                -2.078
REMARK SMILES O=c1c(O[C@H]2O[C@H](CO)[C@H](O)[C@@H](O)[C@H]2O)c(-c2ccc(O)c(O)c2)oc2cc(O)cc(O)c12
REMARK SMILES IDX 4 1 3 2 16 3 25 4 2 5 26 6 1 7 33 8 27 9 31 10 28 11 30 12
REMARK SMILES IDX 17 13 18 14 19 15 20 16 24 17 22 18 21 19 23 21 32 23 29 25
REMARK SMILES IDX 5 27 14 28 6 29 12 30 7 31 10 32 15 33 13 35 8 37 9 38 11 40
REMARK H PARENT 21 20 23 22 32 24 29 26 15 34 13 36 9 39 11 41
REMARK Flexibility Score: inf
ROOT
ATOM      1  O   UNL     1      24.117  26.088  48.010  1.00  0.00    -0.454 OA
ENDROOT
BRANCH   1   2
ATOM      2  C   UNL     1      24.548  27.430  47.924  1.00  0.00     0.214 A 
ATOM      3  C   UNL     1      25.892  27.716  48.240  1.00  0.00     0.180 A 
ATOM      4  O   UNL     1      26.329  28.970  48.249  1.00  0.00    -0.452 OA
ATOM      5  C   UNL     1      23.703  28.510  47.572  1.00  0.00     0.239 A 
ATOM      6  C   UNL     1      25.566  30.009  47.941  1.00  0.00     0.146 A 
ATOM      7  O   UNL     1      22.502  28.303  47.256  1.00  0.00    -0.285 OA
ATOM      8  C   UNL     1      24.214  29.826  47.578  1.00  0.00     0.111 A 
ATOM      9  C   UNL     1      26.122  31.292  47.976  1.00  0.00     0.094 A 
ATOM     10  C   UNL     1      23.432  30.960  47.244  1.00  0.00     0.134 A 
ATOM     11  C   UNL     1      25.348  32.406  47.650  1.00  0.00     0.123 A 
ATOM     12  C   UNL     1      24.008  32.240  47.283  1.00  0.00     0.093 A 
BRANCH   3  13
ATOM     13  C   UNL     1      26.851  26.648  48.585  1.00  0.00     0.025 A 
ATOM     14  C   UNL     1      27.672  26.101  47.589  1.00  0.00     0.016 A 
ATOM     15  C   UNL     1      28.570  25.076  47.898  1.00  0.00     0.051 A 
ATOM     16  C   UNL     1      28.647  24.572  49.201  1.00  0.00     0.157 A 
ATOM     17  C   UNL     1      26.912  26.126  49.888  1.00  0.00     0.062 A 
ATOM     18  C   UNL     1      27.810  25.096  50.201  1.00  0.00     0.158 A 
BRANCH  16  19
ATOM     19  O   UNL     1      29.555  23.552  49.481  1.00  0.00    -0.504 OA
ATOM     20  H   UNL     1      30.509  23.742  49.762  1.00  0.00     0.293 HD
ENDBRANCH  16  19
BRANCH  18  21
ATOM     21  O   UNL     1      27.870  24.588  51.498  1.00  0.00    -0.504 OA
ATOM     22  H   UNL     1      27.616  25.152  52.301  1.00  0.00     0.293 HD
ENDBRANCH  18  21
ENDBRANCH   3  13
BRANCH  10  23
ATOM     23  O   UNL     1      22.093  30.829  46.876  1.00  0.00    -0.507 OA
ATOM     24  H   UNL     1      21.424  31.576  47.022  1.00  0.00     0.293 HD
ENDBRANCH  10  23
BRANCH  11  25
ATOM     25  O   UNL     1      25.920  33.676  47.691  1.00  0.00    -0.508 OA
ATOM     26  H   UNL     1      26.801  33.875  47.231  1.00  0.00     0.293 HD
ENDBRANCH  11  25
ENDBRANCH   1   2
BRANCH   1  27
ATOM     27  C   UNL     1      23.981  25.153  46.933  1.00  0.00     0.339 C 
ATOM     28  C   UNL     1      22.545  24.585  46.875  1.00  0.00     0.214 C 
ATOM     29  O   UNL     1      24.944  24.113  47.023  1.00  0.00    -0.332 OA
ATOM     30  C   UNL     1      22.272  23.623  48.049  1.00  0.00     0.180 C 
ATOM     31  C   UNL     1      24.773  23.345  48.203  1.00  0.00     0.179 C 
ATOM     32  C   UNL     1      23.417  22.603  48.175  1.00  0.00     0.177 C 
BRANCH  28  33
ATOM     33  O   UNL     1      21.603  25.627  46.882  1.00  0.00    -0.384 OA
ATOM     34  H   UNL     1      20.707  25.205  46.827  1.00  0.00     0.211 HD
ENDBRANCH  28  33
BRANCH  30  35
ATOM     35  O   UNL     1      22.148  24.333  49.255  1.00  0.00    -0.387 OA
ATOM     36  H   UNL     1      22.450  23.729  49.983  1.00  0.00     0.211 HD
ENDBRANCH  30  35
BRANCH  31  37
ATOM     37  C   UNL     1      25.951  22.367  48.323  1.00  0.00     0.191 C 
BRANCH  37  38
ATOM     38  O   UNL     1      26.428  21.994  47.058  1.00  0.00    -0.394 OA
ATOM     39  H   UNL     1      25.956  21.155  46.813  1.00  0.00     0.210 HD
ENDBRANCH  37  38
ENDBRANCH  31  37
BRANCH  32  40
ATOM     40  O   UNL     1      23.385  21.711  47.089  1.00  0.00    -0.387 OA
ATOM     41  H   UNL     1      24.300  21.692  46.705  1.00  0.00     0.211 HD
ENDBRANCH  32  40
ENDBRANCH   1  27
TORSDOF 12
ENDMDL
MODEL 2
REMARK VINA RESULT:    -0.157      2.391      7.025
REMARK INTER + INTRA:          -2.309
REMARK INTER:                  -0.211
REMARK INTRA:                  -2.098
REMARK UNBOUND:                -2.078
REMARK SMILES O=c1c(O[C@H]2O[C@H](CO)[C@H](O)[C@@H](O)[C@H]2O)c(-c2ccc(O)c(O)c2)oc2cc(O)cc(O)c12
REMARK SMILES IDX 4 1 3 2 16 3 25 4 2 5 26 6 1 7 33 8 27 9 31 10 28 11 30 12
REMARK SMILES IDX 17 13 18 14 19 15 20 16 24 17 22 18 21 19 23 21 32 23 29 25
REMARK SMILES IDX 5 27 14 28 6 29 12 30 7 31 10 32 15 33 13 35 8 37 9 38 11 40
REMARK H PARENT 21 20 23 22 32 24 29 26 15 34 13 36 9 39 11 41
REMARK Flexibility Score: inf
ROOT
ATOM      1  O   UNL     1      23.994  30.061  48.363  1.00  0.00    -0.454 OA
ENDROOT
BRANCH   1   2
ATOM      2  C   UNL     1      24.281  28.690  48.187  1.00  0.00     0.214 A 
ATOM      3  C   UNL     1      25.604  28.256  48.409  1.00  0.00     0.180 A 
ATOM      4  O   UNL     1      25.944  26.992  48.184  1.00  0.00    -0.452 OA
ATOM      5  C   UNL     1      23.327  27.731  47.769  1.00  0.00     0.239 A 
ATOM      6  C   UNL     1      25.086  26.068  47.777  1.00  0.00     0.146 A 
ATOM      7  O   UNL     1      22.127  28.063  47.584  1.00  0.00    -0.285 OA
ATOM      8  C   UNL     1      23.729  26.394  47.559  1.00  0.00     0.111 A 
ATOM      9  C   UNL     1      25.542  24.762  47.572  1.00  0.00     0.094 A 
ATOM     10  C   UNL     1      22.838  25.376  47.135  1.00  0.00     0.134 A 
ATOM     11  C   UNL     1      24.662  23.765  47.152  1.00  0.00     0.123 A 
ATOM     12  C   UNL     1      23.314  24.071  46.936  1.00  0.00     0.093 A 
BRANCH   3  13
ATOM     13  C   UNL     1      26.655  29.181  48.878  1.00  0.00     0.025 A 
ATOM     14  C   UNL     1      27.398  29.921  47.946  1.00  0.00     0.016 A 
ATOM     15  C   UNL     1      28.408  30.784  48.374  1.00  0.00     0.051 A 
ATOM     16  C   UNL     1      28.702  30.908  49.736  1.00  0.00     0.157 A 
ATOM     17  C   UNL     1      26.966  29.288  50.244  1.00  0.00     0.062 A 
ATOM     18  C   UNL     1      27.982  30.153  50.677  1.00  0.00     0.158 A 
BRANCH  16  19
ATOM     19  O   UNL     1      29.714  31.781  50.135  1.00  0.00    -0.504 OA
ATOM     20  H   UNL     1      30.585  31.450  50.533  1.00  0.00     0.293 HD
ENDBRANCH  16  19
BRANCH  18  21
ATOM     21  O   UNL     1      28.279  30.259  52.034  1.00  0.00    -0.504 OA
ATOM     22  H   UNL     1      27.608  29.995  52.747  1.00  0.00     0.293 HD
ENDBRANCH  18  21
ENDBRANCH   3  13
BRANCH  10  23
ATOM     23  O   UNL     1      21.488  25.649  46.909  1.00  0.00    -0.507 OA
ATOM     24  H   UNL     1      20.822  25.712  47.670  1.00  0.00     0.293 HD
ENDBRANCH  10  23
BRANCH  11  25
ATOM     25  O   UNL     1      25.136  22.470  46.953  1.00  0.00    -0.508 OA
ATOM     26  H   UNL     1      24.873  21.709  47.569  1.00  0.00     0.293 HD
ENDBRANCH  11  25
ENDBRANCH   1   2
BRANCH   1  27
ATOM     27  C   UNL     1      23.399  30.679  49.511  1.00  0.00     0.339 C 
ATOM     28  C   UNL     1      22.156  31.504  49.110  1.00  0.00     0.214 C 
ATOM     29  O   UNL     1      24.339  31.476  50.218  1.00  0.00    -0.332 OA
ATOM     30  C   UNL     1      22.550  32.780  48.341  1.00  0.00     0.180 C 
ATOM     31  C   UNL     1      24.814  32.550  49.422  1.00  0.00     0.179 C 
ATOM     32  C   UNL     1      23.664  33.528  49.092  1.00  0.00     0.177 C 
BRANCH  28  33
ATOM     33  O   UNL     1      21.281  30.727  48.332  1.00  0.00    -0.384 OA
ATOM     34  H   UNL     1      21.022  31.281  47.550  1.00  0.00     0.211 HD
ENDBRANCH  28  33
BRANCH  30  35
ATOM     35  O   UNL     1      22.994  32.464  47.046  1.00  0.00    -0.387 OA
ATOM     36  H   UNL     1      23.977  32.334  47.097  1.00  0.00     0.211 HD
ENDBRANCH  30  35
BRANCH  31  37
ATOM     37  C   UNL     1      25.953  33.250  50.180  1.00  0.00     0.191 C 
BRANCH  37  38
ATOM     38  O   UNL     1      25.802  33.102  51.566  1.00  0.00    -0.394 OA
ATOM     39  H   UNL     1      26.369  33.799  51.989  1.00  0.00     0.210 HD
ENDBRANCH  37  38
ENDBRANCH  31  37
BRANCH  32  40
ATOM     40  O   UNL     1      23.153  34.082  50.279  1.00  0.00    -0.387 OA
ATOM     41  H   UNL     1      23.203  35.069  50.180  1.00  0.00     0.211 HD
ENDBRANCH  32  40
ENDBRANCH   1  27
TORSDOF 12
ENDMDL
MODEL 3
REMARK VINA RESULT:    -0.123      3.586      6.700
REMARK INTER + INTRA:          -2.259
REMARK INTER:                  -0.156
REMARK INTRA:                  -2.103
REMARK UNBOUND:                -2.078
REMARK SMILES O=c1c(O[C@H]2O[C@H](CO)[C@H](O)[C@@H](O)[C@H]2O)c(-c2ccc(O)c(O)c2)oc2cc(O)cc(O)c12
REMARK SMILES IDX 4 1 3 2 16 3 25 4 2 5 26 6 1 7 33 8 27 9 31 10 28 11 30 12
REMARK SMILES IDX 17 13 18 14 19 15 20 16 24 17 22 18 21 19 23 21 32 23 29 25
REMARK SMILES IDX 5 27 14 28 6 29 12 30 7 31 10 32 15 33 13 35 8 37 9 38 11 40
REMARK H PARENT 21 20 23 22 32 24 29 26 15 34 13 36 9 39 11 41
REMARK Flexibility Score: inf
ROOT
ATOM      1  O   UNL     1      26.778  28.318  49.629  1.00  0.00    -0.454 OA
ENDROOT
BRANCH   1   2
ATOM      2  C   UNL     1      27.123  29.187  50.687  1.00  0.00     0.214 A 
ATOM      3  C   UNL     1      26.502  30.451  50.735  1.00  0.00     0.180 A 
ATOM      4  O   UNL     1      26.846  31.335  51.664  1.00  0.00    -0.452 OA
ATOM      5  C   UNL     1      28.078  28.876  51.684  1.00  0.00     0.239 A 
ATOM      6  C   UNL     1      27.747  31.090  52.605  1.00  0.00     0.146 A 
ATOM      7  O   UNL     1      28.641  27.750  51.701  1.00  0.00    -0.285 OA
ATOM      8  C   UNL     1      28.402  29.839  52.665  1.00  0.00     0.111 A 
ATOM      9  C   UNL     1      28.037  32.086  53.542  1.00  0.00     0.094 A 
ATOM     10  C   UNL     1      29.351  29.609  53.692  1.00  0.00     0.134 A 
ATOM     11  C   UNL     1      28.974  31.855  54.550  1.00  0.00     0.123 A 
ATOM     12  C   UNL     1      29.627  30.620  54.625  1.00  0.00     0.093 A 
BRANCH   3  13
ATOM     13  C   UNL     1      25.470  30.846  49.755  1.00  0.00     0.025 A 
ATOM     14  C   UNL     1      25.854  31.391  48.521  1.00  0.00     0.016 A 
ATOM     15  C   UNL     1      24.888  31.787  47.593  1.00  0.00     0.051 A 
ATOM     16  C   UNL     1      23.528  31.661  47.892  1.00  0.00     0.157 A 
ATOM     17  C   UNL     1      24.104  30.741  50.064  1.00  0.00     0.062 A 
ATOM     18  C   UNL     1      23.132  31.140  49.135  1.00  0.00     0.158 A 
BRANCH  16  19
ATOM     19  O   UNL     1      22.586  32.061  46.945  1.00  0.00    -0.504 OA
ATOM     20  H   UNL     1      22.814  32.705  46.197  1.00  0.00     0.293 HD
ENDBRANCH  16  19
BRANCH  18  21
ATOM     21  O   UNL     1      21.778  31.026  49.446  1.00  0.00    -0.504 OA
ATOM     22  H   UNL     1      21.277  30.154  49.322  1.00  0.00     0.293 HD
ENDBRANCH  18  21
ENDBRANCH   3  13
BRANCH  10  23
ATOM     23  O   UNL     1      30.021  28.389  53.794  1.00  0.00    -0.507 OA
ATOM     24  H   UNL     1      29.579  27.570  54.195  1.00  0.00     0.293 HD
ENDBRANCH  10  23
BRANCH  11  25
ATOM     25  O   UNL     1      29.249  32.861  55.475  1.00  0.00    -0.508 OA
ATOM     26  H   UNL     1      30.178  33.256  55.568  1.00  0.00     0.293 HD
ENDBRANCH  11  25
ENDBRANCH   1   2
BRANCH   1  27
ATOM     27  C   UNL     1      25.852  27.225  49.674  1.00  0.00     0.339 C 
ATOM     28  C   UNL     1      26.514  25.921  49.175  1.00  0.00     0.214 C 
ATOM     29  O   UNL     1      24.670  27.516  48.942  1.00  0.00    -0.332 OA
ATOM     30  C   UNL     1      26.752  25.956  47.653  1.00  0.00     0.180 C 
ATOM     31  C   UNL     1      24.946  27.712  47.564  1.00  0.00     0.179 C 
ATOM     32  C   UNL     1      25.473  26.406  46.927  1.00  0.00     0.177 C 
BRANCH  28  33
ATOM     33  O   UNL     1      27.729  25.700  49.845  1.00  0.00    -0.384 OA
ATOM     34  H   UNL     1      28.259  25.079  49.281  1.00  0.00     0.211 HD
ENDBRANCH  28  33
BRANCH  30  35
ATOM     35  O   UNL     1      27.800  26.836  47.334  1.00  0.00    -0.387 OA
ATOM     36  H   UNL     1      27.851  26.885  46.343  1.00  0.00     0.211 HD
ENDBRANCH  30  35
BRANCH  31  37
ATOM     37  C   UNL     1      23.663  28.200  46.875  1.00  0.00     0.191 C 
BRANCH  37  38
ATOM     38  O   UNL     1      22.522  27.756  47.560  1.00  0.00    -0.394 OA
ATOM     39  H   UNL     1      21.766  28.318  47.248  1.00  0.00     0.210 HD
ENDBRANCH  37  38
ENDBRANCH  31  37
BRANCH  32  40
ATOM     40  O   UNL     1      24.493  25.401  47.017  1.00  0.00    -0.387 OA
ATOM     41  H   UNL     1      24.184  25.386  47.961  1.00  0.00     0.211 HD
ENDBRANCH  32  40
ENDBRANCH   1  27
TORSDOF 12
ENDMDL
MODEL 4
REMARK VINA RESULT:    -0.118      4.231      5.595
REMARK INTER + INTRA:          -2.252
REMARK INTER:                  -0.150
REMARK INTRA:                  -2.102
REMARK UNBOUND:                -2.078
REMARK SMILES O=c1c(O[C@H]2O[C@H](CO)[C@H](O)[C@@H](O)[C@H]2O)c(-c2ccc(O)c(O)c2)oc2cc(O)cc(O)c12
REMARK SMILES IDX 4 1 3 2 16 3 25 4 2 5 26 6 1 7 33 8 27 9 31 10 28 11 30 12
REMARK SMILES IDX 17 13 18 14 19 15 20 16 24 17 22 18 21 19 23 21 32 23 29 25
REMARK SMILES IDX 5 27 14 28 6 29 12 30 7 31 10 32 15 33 13 35 8 37 9 38 11 40
REMARK H PARENT 21 20 23 22 32 24 29 26 15 34 13 36 9 39 11 41
REMARK Flexibility Score: inf
ROOT
ATOM      1  O   UNL     1      23.142  29.223  49.693  1.00  0.00    -0.454 OA
ENDROOT
BRANCH   1   2
ATOM      2  C   UNL     1      23.197  30.156  50.751  1.00  0.00     0.214 A 
ATOM      3  C   UNL     1      22.892  29.702  52.051  1.00  0.00     0.180 A 
ATOM      4  O   UNL     1      22.855  30.554  53.069  1.00  0.00    -0.452 OA
ATOM      5  C   UNL     1      23.509  31.526  50.581  1.00  0.00     0.239 A 
ATOM      6  C   UNL     1      23.124  31.846  52.949  1.00  0.00     0.146 A 
ATOM      7  O   UNL     1      23.814  31.975  49.445  1.00  0.00    -0.285 OA
ATOM      8  C   UNL     1      23.474  32.393  51.694  1.00  0.00     0.111 A 
ATOM      9  C   UNL     1      23.061  32.660  54.084  1.00  0.00     0.094 A 
ATOM     10  C   UNL     1      23.767  33.777  51.607  1.00  0.00     0.134 A 
ATOM     11  C   UNL     1      23.347  34.023  53.991  1.00  0.00     0.123 A 
ATOM     12  C   UNL     1      23.700  34.579  52.757  1.00  0.00     0.093 A 
BRANCH   3  13
ATOM     13  C   UNL     1      22.588  28.284  52.325  1.00  0.00     0.025 A 
ATOM     14  C   UNL     1      21.271  27.818  52.204  1.00  0.00     0.016 A 
ATOM     15  C   UNL     1      20.966  26.483  52.481  1.00  0.00     0.051 A 
ATOM     16  C   UNL     1      21.968  25.601  52.898  1.00  0.00     0.157 A 
ATOM     17  C   UNL     1      23.590  27.403  52.767  1.00  0.00     0.062 A 
ATOM     18  C   UNL     1      23.286  26.063  53.047  1.00  0.00     0.158 A 
BRANCH  16  19
ATOM     19  O   UNL     1      21.635  24.273  53.163  1.00  0.00    -0.504 OA
ATOM     20  H   UNL     1      20.858  23.811  52.706  1.00  0.00     0.293 HD
ENDBRANCH  16  19
BRANCH  18  21
ATOM     21  O   UNL     1      24.288  25.194  53.477  1.00  0.00    -0.504 OA
ATOM     22  H   UNL     1      24.630  24.446  52.886  1.00  0.00     0.293 HD
ENDBRANCH  18  21
ENDBRANCH   3  13
BRANCH  10  23
ATOM     23  O   UNL     1      24.120  34.363  50.390  1.00  0.00    -0.507 OA
ATOM     24  H   UNL     1      25.031  34.216  49.973  1.00  0.00     0.293 HD
ENDBRANCH  10  23
BRANCH  11  25
ATOM     25  O   UNL     1      23.280  34.818  55.134  1.00  0.00    -0.508 OA
ATOM     26  H   UNL     1      23.703  35.738  55.165  1.00  0.00     0.293 HD
ENDBRANCH  11  25
ENDBRANCH   1   2
BRANCH   1  27
ATOM     27  C   UNL     1      24.245  28.542  49.082  1.00  0.00     0.339 C 
ATOM     28  C   UNL     1      24.244  28.754  47.552  1.00  0.00     0.214 C 
ATOM     29  O   UNL     1      24.248  27.160  49.411  1.00  0.00    -0.332 OA
ATOM     30  C   UNL     1      23.095  27.980  46.876  1.00  0.00     0.180 C 
ATOM     31  C   UNL     1      23.090  26.505  48.920  1.00  0.00     0.179 C 
ATOM     32  C   UNL     1      23.071  26.525  47.374  1.00  0.00     0.177 C 
BRANCH  28  33
ATOM     33  O   UNL     1      24.145  30.121  47.245  1.00  0.00    -0.384 OA
ATOM     34  H   UNL     1      23.195  30.298  47.022  1.00  0.00     0.211 HD
ENDBRANCH  28  33
BRANCH  30  35
ATOM     35  O   UNL     1      21.858  28.585  47.153  1.00  0.00    -0.387 OA
ATOM     36  H   UNL     1      21.701  28.500  48.130  1.00  0.00     0.211 HD
ENDBRANCH  30  35
BRANCH  31  37
ATOM     37  C   UNL     1      23.073  25.070  49.468  1.00  0.00     0.191 C 
BRANCH  37  38
ATOM     38  O   UNL     1      24.375  24.606  49.707  1.00  0.00    -0.394 OA
ATOM     39  H   UNL     1      24.484  23.778  49.170  1.00  0.00     0.210 HD
ENDBRANCH  37  38
ENDBRANCH  31  37
BRANCH  32  40
ATOM     40  O   UNL     1      24.187  25.830  46.875  1.00  0.00    -0.387 OA
ATOM     41  H   UNL     1      24.076  25.779  45.890  1.00  0.00     0.211 HD
ENDBRANCH  32  40
ENDBRANCH   1  27
TORSDOF 12
ENDMDL
MODEL 5
REMARK VINA RESULT:    -0.116      3.752      6.647
REMARK INTER + INTRA:          -2.248
REMARK INTER:                  -0.148
REMARK INTRA:                  -2.100
REMARK UNBOUND:                -2.078
REMARK SMILES O=c1c(O[C@H]2O[C@H](CO)[C@H](O)[C@@H](O)[C@H]2O)c(-c2ccc(O)c(O)c2)oc2cc(O)cc(O)c12
REMARK SMILES IDX 4 1 3 2 16 3 25 4 2 5 26 6 1 7 33 8 27 9 31 10 28 11 30 12
REMARK SMILES IDX 17 13 18 14 19 15 20 16 24 17 22 18 21 19 23 21 32 23 29 25
REMARK SMILES IDX 5 27 14 28 6 29 12 30 7 31 10 32 15 33 13 35 8 37 9 38 11 40
REMARK H PARENT 21 20 23 22 32 24 29 26 15 34 13 36 9 39 11 41
REMARK Flexibility Score: inf
ROOT
ATOM      1  O   UNL     1      26.600  27.824  49.612  1.00  0.00    -0.454 OA
ENDROOT
BRANCH   1   2
ATOM      2  C   UNL     1      27.597  27.864  50.611  1.00  0.00     0.214 A 
ATOM      3  C   UNL     1      27.184  27.961  51.956  1.00  0.00     0.180 A 
ATOM      4  O   UNL     1      28.081  28.079  52.928  1.00  0.00    -0.452 OA
ATOM      5  C   UNL     1      28.987  27.846  50.341  1.00  0.00     0.239 A 
ATOM      6  C   UNL     1      29.389  28.084  52.715  1.00  0.00     0.146 A 
ATOM      7  O   UNL     1      29.406  27.735  49.159  1.00  0.00    -0.285 OA
ATOM      8  C   UNL     1      29.906  27.957  51.407  1.00  0.00     0.111 A 
ATOM      9  C   UNL     1      30.253  28.210  53.808  1.00  0.00     0.094 A 
ATOM     10  C   UNL     1      31.311  27.954  51.220  1.00  0.00     0.134 A 
ATOM     11  C   UNL     1      31.636  28.209  53.618  1.00  0.00     0.123 A 
ATOM     12  C   UNL     1      32.162  28.080  52.329  1.00  0.00     0.093 A 
BRANCH   3  13
ATOM     13  C   UNL     1      25.756  27.953  52.331  1.00  0.00     0.025 A 
ATOM     14  C   UNL     1      25.042  29.158  52.377  1.00  0.00     0.016 A 
ATOM     15  C   UNL     1      23.695  29.167  52.750  1.00  0.00     0.051 A 
ATOM     16  C   UNL     1      23.051  27.976  53.098  1.00  0.00     0.157 A 
ATOM     17  C   UNL     1      25.115  26.760  52.703  1.00  0.00     0.062 A 
ATOM     18  C   UNL     1      23.764  26.766  53.080  1.00  0.00     0.158 A 
BRANCH  16  19
ATOM     19  O   UNL     1      21.705  28.014  53.463  1.00  0.00    -0.504 OA
ATOM     20  H   UNL     1      21.129  27.182  53.484  1.00  0.00     0.293 HD
ENDBRANCH  16  19
BRANCH  18  21
ATOM     21  O   UNL     1      23.133  25.576  53.441  1.00  0.00    -0.504 OA
ATOM     22  H   UNL     1      23.473  24.677  53.122  1.00  0.00     0.293 HD
ENDBRANCH  18  21
ENDBRANCH   3  13
BRANCH  10  23
ATOM     23  O   UNL     1      31.868  27.829  49.947  1.00  0.00    -0.507 OA
ATOM     24  H   UNL     1      31.694  28.512  49.219  1.00  0.00     0.293 HD
ENDBRANCH  10  23
BRANCH  11  25
ATOM     25  O   UNL     1      32.480  28.335  54.720  1.00  0.00    -0.508 OA
ATOM     26  H   UNL     1      32.971  27.537  55.106  1.00  0.00     0.293 HD
ENDBRANCH  11  25
ENDBRANCH   1   2
BRANCH   1  27
ATOM     27  C   UNL     1      26.103  26.663  48.934  1.00  0.00     0.339 C 
ATOM     28  C   UNL     1      26.209  26.833  47.402  1.00  0.00     0.214 C 
ATOM     29  O   UNL     1      24.771  26.362  49.328  1.00  0.00    -0.332 OA
ATOM     30  C   UNL     1      25.187  27.860  46.877  1.00  0.00     0.180 C 
ATOM     31  C   UNL     1      23.876  27.407  48.981  1.00  0.00     0.179 C 
ATOM     32  C   UNL     1      23.790  27.557  47.445  1.00  0.00     0.177 C 
BRANCH  28  33
ATOM     33  O   UNL     1      27.509  27.222  47.040  1.00  0.00    -0.384 OA
ATOM     34  H   UNL     1      27.430  28.102  46.589  1.00  0.00     0.211 HD
ENDBRANCH  28  33
BRANCH  30  35
ATOM     35  O   UNL     1      25.562  29.165  47.239  1.00  0.00    -0.387 OA
ATOM     36  H   UNL     1      25.016  29.419  48.028  1.00  0.00     0.211 HD
ENDBRANCH  30  35
BRANCH  31  37
ATOM     37  C   UNL     1      22.504  27.097  49.597  1.00  0.00     0.191 C 
BRANCH  37  38
ATOM     38  O   UNL     1      22.292  25.713  49.687  1.00  0.00    -0.394 OA
ATOM     39  H   UNL     1      22.533  25.331  48.804  1.00  0.00     0.210 HD
ENDBRANCH  37  38
ENDBRANCH  31  37
BRANCH  32  40
ATOM     40  O   UNL     1      23.289  26.372  46.877  1.00  0.00    -0.387 OA
ATOM     41  H   UNL     1      23.467  25.644  47.528  1.00  0.00     0.211 HD
ENDBRANCH  32  40
ENDBRANCH   1  27
TORSDOF 12
ENDMDL
MODEL 6
REMARK VINA RESULT:    -0.115      3.536      6.590
REMARK INTER + INTRA:          -2.247
REMARK INTER:                  -0.145
REMARK INTRA:                  -2.102
REMARK UNBOUND:                -2.078
REMARK SMILES O=c1c(O[C@H]2O[C@H](CO)[C@H](O)[C@@H](O)[C@H]2O)c(-c2ccc(O)c(O)c2)oc2cc(O)cc(O)c12
REMARK SMILES IDX 4 1 3 2 16 3 25 4 2 5 26 6 1 7 33 8 27 9 31 10 28 11 30 12
REMARK SMILES IDX 17 13 18 14 19 15 20 16 24 17 22 18 21 19 23 21 32 23 29 25
REMARK SMILES IDX 5 27 14 28 6 29 12 30 7 31 10 32 15 33 13 35 8 37 9 38 11 40
REMARK H PARENT 21 20 23 22 32 24 29 26 15 34 13 36 9 39 11 41
REMARK Flexibility Score: inf
ROOT
ATOM      1  O   UNL     1      24.973  27.238  50.094  1.00  0.00    -0.454 OA
ENDROOT
BRANCH   1   2
ATOM      2  C   UNL     1      25.259  27.955  51.276  1.00  0.00     0.214 A 
ATOM      3  C   UNL     1      24.854  29.304  51.347  1.00  0.00     0.180 A 
ATOM      4  O   UNL     1      25.164  30.045  52.404  1.00  0.00    -0.452 OA
ATOM      5  C   UNL     1      25.955  27.411  52.381  1.00  0.00     0.239 A 
ATOM      6  C   UNL     1      25.829  29.578  53.451  1.00  0.00     0.146 A 
ATOM      7  O   UNL     1      26.314  26.204  52.378  1.00  0.00    -0.285 OA
ATOM      8  C   UNL     1      26.249  28.230  53.493  1.00  0.00     0.111 A 
ATOM      9  C   UNL     1      26.104  30.439  54.518  1.00  0.00     0.094 A 
ATOM     10  C   UNL     1      26.948  27.764  54.635  1.00  0.00     0.134 A 
ATOM     11  C   UNL     1      26.794  29.975  55.639  1.00  0.00     0.123 A 
ATOM     12  C   UNL     1      27.213  28.642  55.697  1.00  0.00     0.093 A 
BRANCH   3  13
ATOM     13  C   UNL     1      24.093  29.943  50.254  1.00  0.00     0.025 A 
ATOM     14  C   UNL     1      24.779  30.541  49.186  1.00  0.00     0.016 A 
ATOM     15  C   UNL     1      24.072  31.167  48.156  1.00  0.00     0.051 A 
ATOM     16  C   UNL     1      22.675  31.220  48.189  1.00  0.00     0.157 A 
ATOM     17  C   UNL     1      22.691  30.018  50.298  1.00  0.00     0.062 A 
ATOM     18  C   UNL     1      21.980  30.647  49.267  1.00  0.00     0.158 A 
BRANCH  16  19
ATOM     19  O   UNL     1      21.996  31.848  47.145  1.00  0.00    -0.504 OA
ATOM     20  H   UNL     1      22.396  32.626  46.633  1.00  0.00     0.293 HD
ENDBRANCH  16  19
BRANCH  18  21
ATOM     21  O   UNL     1      20.588  30.710  49.313  1.00  0.00    -0.504 OA
ATOM     22  H   UNL     1      20.076  31.472  48.884  1.00  0.00     0.293 HD
ENDBRANCH  18  21
ENDBRANCH   3  13
BRANCH  10  23
ATOM     23  O   UNL     1      27.381  26.440  54.723  1.00  0.00    -0.507 OA
ATOM     24  H   UNL     1      27.384  25.825  53.918  1.00  0.00     0.293 HD
ENDBRANCH  10  23
BRANCH  11  25
ATOM     25  O   UNL     1      27.059  30.848  56.692  1.00  0.00    -0.508 OA
ATOM     26  H   UNL     1      27.936  31.352  56.756  1.00  0.00     0.293 HD
ENDBRANCH  11  25
ENDBRANCH   1   2
BRANCH   1  27
ATOM     27  C   UNL     1      23.899  26.313  49.882  1.00  0.00     0.339 C 
ATOM     28  C   UNL     1      24.433  24.957  49.371  1.00  0.00     0.214 C 
ATOM     29  O   UNL     1      22.921  26.847  49.000  1.00  0.00    -0.332 OA
ATOM     30  C   UNL     1      24.936  25.059  47.918  1.00  0.00     0.180 C 
ATOM     31  C   UNL     1      23.460  27.091  47.711  1.00  0.00     0.179 C 
ATOM     32  C   UNL     1      23.887  25.765  47.042  1.00  0.00     0.177 C 
BRANCH  28  33
ATOM     33  O   UNL     1      25.464  24.490  50.203  1.00  0.00    -0.384 OA
ATOM     34  H   UNL     1      25.395  24.992  51.057  1.00  0.00     0.211 HD
ENDBRANCH  28  33
BRANCH  30  35
ATOM     35  O   UNL     1      26.145  25.773  47.860  1.00  0.00    -0.387 OA
ATOM     36  H   UNL     1      25.914  26.736  47.785  1.00  0.00     0.211 HD
ENDBRANCH  30  35
BRANCH  31  37
ATOM     37  C   UNL     1      22.406  27.833  46.875  1.00  0.00     0.191 C 
BRANCH  37  38
ATOM     38  O   UNL     1      21.108  27.512  47.301  1.00  0.00    -0.394 OA
ATOM     39  H   UNL     1      20.754  26.846  46.655  1.00  0.00     0.210 HD
ENDBRANCH  37  38
ENDBRANCH  31  37
BRANCH  32  40
ATOM     40  O   UNL     1      22.766  24.933  46.875  1.00  0.00    -0.387 OA
ATOM     41  H   UNL     1      21.990  25.528  46.701  1.00  0.00     0.211 HD
ENDBRANCH  32  40
ENDBRANCH   1  27
TORSDOF 12
ENDMDL
MODEL 7
REMARK VINA RESULT:    -0.113      4.080      5.829
REMARK INTER + INTRA:          -2.243
REMARK INTER:                  -0.142
REMARK INTRA:                  -2.102
REMARK UNBOUND:                -2.078
REMARK SMILES O=c1c(O[C@H]2O[C@H](CO)[C@H](O)[C@@H](O)[C@H]2O)c(-c2ccc(O)c(O)c2)oc2cc(O)cc(O)c12
REMARK SMILES IDX 4 1 3 2 16 3 25 4 2 5 26 6 1 7 33 8 27 9 31 10 28 11 30 12
REMARK SMILES IDX 17 13 18 14 19 15 20 16 24 17 22 18 21 19 23 21 32 23 29 25
REMARK SMILES IDX 5 27 14 28 6 29 12 30 7 31 10 32 15 33 13 35 8 37 9 38 11 40
REMARK H PARENT 21 20 23 22 32 24 29 26 15 34 13 36 9 39 11 41
REMARK Flexibility Score: inf
ROOT
ATOM      1  O   UNL     1      24.170  27.840  49.765  1.00  0.00    -0.454 OA
ENDROOT
BRANCH   1   2
ATOM      2  C   UNL     1      24.315  28.617  50.935  1.00  0.00     0.214 A 
ATOM      3  C   UNL     1      23.359  28.458  51.959  1.00  0.00     0.180 A 
ATOM      4  O   UNL     1      23.405  29.217  53.047  1.00  0.00    -0.452 OA
ATOM      5  C   UNL     1      25.345  29.568  51.129  1.00  0.00     0.239 A 
ATOM      6  C   UNL     1      24.343  30.130  53.259  1.00  0.00     0.146 A 
ATOM      7  O   UNL     1      26.238  29.729  50.256  1.00  0.00    -0.285 OA
ATOM      8  C   UNL     1      25.367  30.343  52.309  1.00  0.00     0.111 A 
ATOM      9  C   UNL     1      24.307  30.878  54.440  1.00  0.00     0.094 A 
ATOM     10  C   UNL     1      26.358  31.320  52.575  1.00  0.00     0.134 A 
ATOM     11  C   UNL     1      25.284  31.840  54.696  1.00  0.00     0.123 A 
ATOM     12  C   UNL     1      26.307  32.059  53.767  1.00  0.00     0.093 A 
BRANCH   3  13
ATOM     13  C   UNL     1      22.271  27.465  51.856  1.00  0.00     0.025 A 
ATOM     14  C   UNL     1      21.067  27.815  51.227  1.00  0.00     0.016 A 
ATOM     15  C   UNL     1      20.021  26.892  51.140  1.00  0.00     0.051 A 
ATOM     16  C   UNL     1      20.158  25.616  51.695  1.00  0.00     0.157 A 
ATOM     17  C   UNL     1      22.398  26.191  52.434  1.00  0.00     0.062 A 
ATOM     18  C   UNL     1      21.350  25.264  52.350  1.00  0.00     0.158 A 
BRANCH  16  19
ATOM     19  O   UNL     1      19.099  24.714  51.590  1.00  0.00    -0.504 OA
ATOM     20  H   UNL     1      19.021  23.903  52.192  1.00  0.00     0.293 HD
ENDBRANCH  16  19
BRANCH  18  21
ATOM     21  O   UNL     1      21.487  23.998  52.919  1.00  0.00    -0.504 OA
ATOM     22  H   UNL     1      22.356  23.481  52.858  1.00  0.00     0.293 HD
ENDBRANCH  18  21
ENDBRANCH   3  13
BRANCH  10  23
ATOM     23  O   UNL     1      27.391  31.563  51.669  1.00  0.00    -0.507 OA
ATOM     24  H   UNL     1      28.224  30.987  51.642  1.00  0.00     0.293 HD
ENDBRANCH  10  23
BRANCH  11  25
ATOM     25  O   UNL     1      25.231  32.575  55.879  1.00  0.00    -0.508 OA
ATOM     26  H   UNL     1      25.868  33.343  56.055  1.00  0.00     0.293 HD
ENDBRANCH  11  25
ENDBRANCH   1   2
BRANCH   1  27
ATOM     27  C   UNL     1      24.875  26.638  49.432  1.00  0.00     0.339 C 
ATOM     28  C   UNL     1      25.551  26.761  48.048  1.00  0.00     0.214 C 
ATOM     29  O   UNL     1      24.023  25.503  49.490  1.00  0.00    -0.332 OA
ATOM     30  C   UNL     1      24.512  26.740  46.910  1.00  0.00     0.180 C 
ATOM     31  C   UNL     1      22.972  25.591  48.541  1.00  0.00     0.179 C 
ATOM     32  C   UNL     1      23.538  25.565  47.103  1.00  0.00     0.177 C 
BRANCH  28  33
ATOM     33  O   UNL     1      26.314  27.938  47.977  1.00  0.00    -0.384 OA
ATOM     34  H   UNL     1      25.895  28.512  47.285  1.00  0.00     0.211 HD
ENDBRANCH  28  33
BRANCH  30  35
ATOM     35  O   UNL     1      23.787  27.943  46.875  1.00  0.00    -0.387 OA
ATOM     36  H   UNL     1      24.215  28.562  47.522  1.00  0.00     0.211 HD
ENDBRANCH  30  35
BRANCH  31  37
ATOM     37  C   UNL     1      21.995  24.431  48.787  1.00  0.00     0.191 C 
BRANCH  37  38
ATOM     38  O   UNL     1      22.645  23.343  49.387  1.00  0.00    -0.394 OA
ATOM     39  H   UNL     1      23.256  22.964  48.703  1.00  0.00     0.210 HD
ENDBRANCH  37  38
ENDBRANCH  31  37
BRANCH  32  40
ATOM     40  O   UNL     1      24.204  24.348  46.875  1.00  0.00    -0.387 OA
ATOM     41  H   UNL     1      23.679  23.643  47.335  1.00  0.00     0.211 HD
ENDBRANCH  32  40
ENDBRANCH   1  27
TORSDOF 12
ENDMDL
MODEL 8
REMARK VINA RESULT:    -0.108      4.314      7.052
REMARK INTER + INTRA:          -2.236
REMARK INTER:                  -0.133
REMARK INTRA:                  -2.103
REMARK UNBOUND:                -2.078
REMARK SMILES O=c1c(O[C@H]2O[C@H](CO)[C@H](O)[C@@H](O)[C@H]2O)c(-c2ccc(O)c(O)c2)oc2cc(O)cc(O)c12
REMARK SMILES IDX 4 1 3 2 16 3 25 4 2 5 26 6 1 7 33 8 27 9 31 10 28 11 30 12
REMARK SMILES IDX 17 13 18 14 19 15 20 16 24 17 22 18 21 19 23 21 32 23 29 25
REMARK SMILES IDX 5 27 14 28 6 29 12 30 7 31 10 32 15 33 13 35 8 37 9 38 11 40
REMARK H PARENT 21 20 23 22 32 24 29 26 15 34 13 36 9 39 11 41
REMARK Flexibility Score: inf
ROOT
ATOM      1  O   UNL     1      23.642  27.459  50.846  1.00  0.00    -0.454 OA
ENDROOT
BRANCH   1   2
ATOM      2  C   UNL     1      23.488  26.828  52.100  1.00  0.00     0.214 A 
ATOM      3  C   UNL     1      23.186  25.451  52.116  1.00  0.00     0.180 A 
ATOM      4  O   UNL     1      22.956  24.826  53.265  1.00  0.00    -0.452 OA
ATOM      5  C   UNL     1      23.587  27.502  53.340  1.00  0.00     0.239 A 
ATOM      6  C   UNL     1      23.022  25.424  54.445  1.00  0.00     0.146 A 
ATOM      7  O   UNL     1      23.881  28.726  53.380  1.00  0.00    -0.285 OA
ATOM      8  C   UNL     1      23.351  26.795  54.539  1.00  0.00     0.111 A 
ATOM      9  C   UNL     1      22.766  24.678  55.599  1.00  0.00     0.094 A 
ATOM     10  C   UNL     1      23.424  27.398  55.820  1.00  0.00     0.134 A 
ATOM     11  C   UNL     1      22.836  25.276  56.858  1.00  0.00     0.123 A 
ATOM     12  C   UNL     1      23.166  26.631  56.967  1.00  0.00     0.093 A 
BRANCH   3  13
ATOM     13  C   UNL     1      23.097  24.662  50.871  1.00  0.00     0.025 A 
ATOM     14  C   UNL     1      21.880  24.592  50.177  1.00  0.00     0.016 A 
ATOM     15  C   UNL     1      21.776  23.833  49.009  1.00  0.00     0.051 A 
ATOM     16  C   UNL     1      22.880  23.121  48.528  1.00  0.00     0.157 A 
ATOM     17  C   UNL     1      24.198  23.928  50.401  1.00  0.00     0.062 A 
ATOM     18  C   UNL     1      24.097  23.164  49.230  1.00  0.00     0.158 A 
BRANCH  16  19
ATOM     19  O   UNL     1      22.749  22.375  47.357  1.00  0.00    -0.504 OA
ATOM     20  H   UNL     1      22.013  22.554  46.685  1.00  0.00     0.293 HD
ENDBRANCH  16  19
BRANCH  18  21
ATOM     21  O   UNL     1      25.197  22.444  48.765  1.00  0.00    -0.504 OA
ATOM     22  H   UNL     1      26.024  22.313  49.336  1.00  0.00     0.293 HD
ENDBRANCH  18  21
ENDBRANCH   3  13
BRANCH  10  23
ATOM     23  O   UNL     1      23.749  28.747  55.964  1.00  0.00    -0.507 OA
ATOM     24  H   UNL     1      24.708  29.071  55.936  1.00  0.00     0.293 HD
ENDBRANCH  10  23
BRANCH  11  25
ATOM     25  O   UNL     1      22.578  24.515  57.996  1.00  0.00    -0.508 OA
ATOM     26  H   UNL     1      23.291  24.348  58.695  1.00  0.00     0.293 HD
ENDBRANCH  11  25
ENDBRANCH   1   2
BRANCH   1  27
ATOM     27  C   UNL     1      24.873  27.777  50.184  1.00  0.00     0.339 C 
ATOM     28  C   UNL     1      24.925  29.274  49.808  1.00  0.00     0.214 C 
ATOM     29  O   UNL     1      25.078  26.952  49.045  1.00  0.00    -0.332 OA
ATOM     30  C   UNL     1      23.955  29.601  48.656  1.00  0.00     0.180 C 
ATOM     31  C   UNL     1      24.068  27.153  48.068  1.00  0.00     0.179 C 
ATOM     32  C   UNL     1      24.135  28.592  47.509  1.00  0.00     0.177 C 
BRANCH  28  33
ATOM     33  O   UNL     1      24.628  30.072  50.926  1.00  0.00    -0.384 OA
ATOM     34  H   UNL     1      23.946  29.582  51.455  1.00  0.00     0.211 HD
ENDBRANCH  28  33
BRANCH  30  35
ATOM     35  O   UNL     1      22.623  29.563  49.102  1.00  0.00    -0.387 OA
ATOM     36  H   UNL     1      22.065  29.266  48.336  1.00  0.00     0.211 HD
ENDBRANCH  30  35
BRANCH  31  37
ATOM     37  C   UNL     1      24.249  26.105  46.959  1.00  0.00     0.191 C 
BRANCH  37  38
ATOM     38  O   UNL     1      25.585  25.685  46.875  1.00  0.00    -0.394 OA
ATOM     39  H   UNL     1      25.584  24.839  46.355  1.00  0.00     0.210 HD
ENDBRANCH  37  38
ENDBRANCH  31  37
BRANCH  32  40
ATOM     40  O   UNL     1      25.374  28.802  46.878  1.00  0.00    -0.387 OA
ATOM     41  H   UNL     1      25.676  29.712  47.134  1.00  0.00     0.211 HD
ENDBRANCH  32  40
ENDBRANCH   1  27
TORSDOF 12
ENDMDL
MODEL 9
REMARK VINA RESULT:     0.004      2.987      8.169
REMARK INTER + INTRA:          -2.072
REMARK INTER:                   0.005
REMARK INTRA:                  -2.078
REMARK UNBOUND:                -2.078
REMARK SMILES O=c1c(O[C@H]2O[C@H](CO)[C@H](O)[C@@H](O)[C@H]2O)c(-c2ccc(O)c(O)c2)oc2cc(O)cc(O)c12
REMARK SMILES IDX 4 1 3 2 16 3 25 4 2 5 26 6 1 7 33 8 27 9 31 10 28 11 30 12
REMARK SMILES IDX 17 13 18 14 19 15 20 16 24 17 22 18 21 19 23 21 32 23 29 25
REMARK SMILES IDX 5 27 14 28 6 29 12 30 7 31 10 32 15 33 13 35 8 37 9 38 11 40
REMARK H PARENT 21 20 23 22 32 24 29 26 15 34 13 36 9 39 11 41
REMARK Flexibility Score: inf
ROOT
ATOM      1  O   UNL     1      23.347  29.026  48.513  1.00  0.00    -0.454 OA
ENDROOT
BRANCH   1   2
ATOM      2  C   UNL     1      23.332  27.614  48.511  1.00  0.00     0.214 A 
ATOM      3  C   UNL     1      22.244  26.962  49.126  1.00  0.00     0.180 A 
ATOM      4  O   UNL     1      22.218  25.638  49.219  1.00  0.00    -0.452 OA
ATOM      5  C   UNL     1      24.360  26.814  47.957  1.00  0.00     0.239 A 
ATOM      6  C   UNL     1      23.168  24.854  48.728  1.00  0.00     0.146 A 
ATOM      7  O   UNL     1      25.340  27.347  47.374  1.00  0.00    -0.285 OA
ATOM      8  C   UNL     1      24.284  25.408  48.063  1.00  0.00     0.111 A 
ATOM      9  C   UNL     1      23.047  23.469  48.874  1.00  0.00     0.094 A 
ATOM     10  C   UNL     1      25.275  24.538  47.542  1.00  0.00     0.134 A 
ATOM     11  C   UNL     1      24.026  22.617  48.362  1.00  0.00     0.123 A 
ATOM     12  C   UNL     1      25.135  23.150  47.697  1.00  0.00     0.093 A 
BRANCH   3  13
ATOM     13  C   UNL     1      21.111  27.717  49.699  1.00  0.00     0.025 A 
ATOM     14  C   UNL     1      19.954  27.922  48.934  1.00  0.00     0.016 A 
ATOM     15  C   UNL     1      18.883  28.652  49.456  1.00  0.00     0.051 A 
ATOM     16  C   UNL     1      18.961  29.200  50.741  1.00  0.00     0.157 A 
ATOM     17  C   UNL     1      21.198  28.287  50.980  1.00  0.00     0.062 A 
ATOM     18  C   UNL     1      20.126  29.022  51.506  1.00  0.00     0.158 A 
BRANCH  16  19
ATOM     19  O   UNL     1      17.875  29.920  51.238  1.00  0.00    -0.504 OA
ATOM     20  H   UNL     1      17.151  29.485  51.798  1.00  0.00     0.293 HD
ENDBRANCH  16  19
BRANCH  18  21
ATOM     21  O   UNL     1      20.217  29.578  52.781  1.00  0.00    -0.504 OA
ATOM     22  H   UNL     1      19.553  30.271  53.106  1.00  0.00     0.293 HD
ENDBRANCH  18  21
ENDBRANCH   3  13
BRANCH  10  23
ATOM     23  O   UNL     1      26.394  25.038  46.875  1.00  0.00    -0.507 OA
ATOM     24  H   UNL     1      26.945  25.798  47.255  1.00  0.00     0.293 HD
ENDBRANCH  10  23
BRANCH  11  25
ATOM     25  O   UNL     1      23.886  21.239  48.518  1.00  0.00    -0.508 OA
ATOM     26  H   UNL     1      23.976  20.606  47.732  1.00  0.00     0.293 HD
ENDBRANCH  11  25
ENDBRANCH   1   2
BRANCH   1  27
ATOM     27  C   UNL     1      22.977  29.896  47.435  1.00  0.00     0.339 C 
ATOM     28  C   UNL     1      24.129  30.865  47.090  1.00  0.00     0.214 C 
ATOM     29  O   UNL     1      21.779  30.602  47.726  1.00  0.00    -0.332 OA
ATOM     30  C   UNL     1      24.319  31.929  48.189  1.00  0.00     0.180 C 
ATOM     31  C   UNL     1      21.935  31.451  48.852  1.00  0.00     0.179 C 
ATOM     32  C   UNL     1      22.965  32.563  48.552  1.00  0.00     0.177 C 
BRANCH  28  33
ATOM     33  O   UNL     1      25.327  30.156  46.898  1.00  0.00    -0.384 OA
ATOM     34  H   UNL     1      25.537  29.708  47.758  1.00  0.00     0.211 HD
ENDBRANCH  28  33
BRANCH  30  35
ATOM     35  O   UNL     1      24.888  31.360  49.340  1.00  0.00    -0.387 OA
ATOM     36  H   UNL     1      24.272  30.646  49.650  1.00  0.00     0.211 HD
ENDBRANCH  30  35
BRANCH  31  37
ATOM     37  C   UNL     1      20.562  32.034  49.216  1.00  0.00     0.191 C 
BRANCH  37  38
ATOM     38  O   UNL     1      19.759  32.186  48.075  1.00  0.00    -0.394 OA
ATOM     39  H   UNL     1      20.154  31.607  47.371  1.00  0.00     0.210 HD
ENDBRANCH  37  38
ENDBRANCH  31  37
BRANCH  32  40
ATOM     40  O   UNL     1      22.510  33.361  47.487  1.00  0.00    -0.387 OA
ATOM     41  H   UNL     1      23.289  33.888  47.170  1.00  0.00     0.211 HD
ENDBRANCH  32  40
ENDBRANCH   1  27
TORSDOF 12
ENDMDL
