MODEL 1
REMARK VINA RESULT:    -4.777      0.000      0.000
REMARK INTER + INTRA:          -5.627
REMARK INTER:                  -5.476
REMARK INTRA:                  -0.151
REMARK UNBOUND:                -0.151
REMARK SMILES O=C([O-])C=Cc1ccc(O)cc1
REMARK SMILES IDX 6 1 7 2 12 3 8 4 11 5 9 6 5 7 4 8 2 9 1 10 3 11 10 12
REMARK H PARENT 10 13
REMARK Flexibility Score: inf
ROOT
ATOM      1  C   UNL     1      18.639  25.844  27.967  1.00  0.00    -0.025 A 
ATOM      2  C   UNL     1      18.987  26.381  29.219  1.00  0.00     0.012 A 
ATOM      3  C   UNL     1      18.179  26.715  26.958  1.00  0.00     0.012 A 
ATOM      4  C   UNL     1      18.855  27.751  29.467  1.00  0.00     0.047 A 
ATOM      5  C   UNL     1      18.051  28.084  27.210  1.00  0.00     0.047 A 
ATOM      6  C   UNL     1      18.385  28.605  28.466  1.00  0.00     0.115 A 
ENDROOT
BRANCH   1   7
ATOM      7  C   UNL     1      18.806  24.386  27.750  1.00  0.00     0.010 C 
ATOM      8  C   UNL     1      18.750  23.476  28.732  1.00  0.00     0.025 C 
BRANCH   8   9
ATOM      9  C   UNL     1      18.933  22.039  28.472  1.00  0.00     0.064 C 
ATOM     10  O   UNL     1      19.366  21.660  27.353  1.00  0.00    -0.545 OA
ATOM     11  O   UNL     1      18.639  21.091  29.446  1.00  0.00    -0.545 OA
ENDBRANCH   8   9
ENDBRANCH   1   7
BRANCH   6  12
ATOM     12  O   UNL     1      18.259  29.967  28.727  1.00  0.00    -0.508 OA
ATOM     13  H   UNL     1      19.059  30.590  28.690  1.00  0.00     0.293 HD
ENDBRANCH   6  12
TORSDOF 3
ENDMDL
MODEL 2
REMARK VINA RESULT:    -4.744      3.648      5.398
REMARK INTER + INTRA:          -5.589
REMARK INTER:                  -5.451
REMARK INTRA:                  -0.139
REMARK UNBOUND:                -0.151
REMARK SMILES O=C([O-])C=Cc1ccc(O)cc1
REMARK SMILES IDX 6 1 7 2 12 3 8 4 11 5 9 6 5 7 4 8 2 9 1 10 3 11 10 12
REMARK H PARENT 10 13
REMARK Flexibility Score: inf
ROOT
ATOM      1  C   UNL     1      18.409  28.609  31.376  1.00  0.00    -0.025 A 
ATOM      2  C   UNL     1      17.688  29.664  31.962  1.00  0.00     0.012 A 
ATOM      3  C   UNL     1      19.135  27.735  32.211  1.00  0.00     0.012 A 
ATOM      4  C   UNL     1      17.713  29.860  33.346  1.00  0.00     0.047 A 
ATOM      5  C   UNL     1      19.155  27.934  33.595  1.00  0.00     0.047 A 
ATOM      6  C   UNL     1      18.447  28.998  34.165  1.00  0.00     0.115 A 
ENDROOT
BRANCH   1   7
ATOM      7  C   UNL     1      18.343  28.437  29.903  1.00  0.00     0.010 C 
ATOM      8  C   UNL     1      18.024  27.283  29.302  1.00  0.00     0.025 C 
BRANCH   8   9
ATOM      9  C   UNL     1      17.982  27.155  27.836  1.00  0.00     0.064 C 
ATOM     10  O   UNL     1      17.529  28.102  27.143  1.00  0.00    -0.545 OA
ATOM     11  O   UNL     1      18.439  26.004  27.203  1.00  0.00    -0.545 OA
ENDBRANCH   8   9
ENDBRANCH   1   7
BRANCH   6  12
ATOM     12  O   UNL     1      18.462  29.206  35.543  1.00  0.00    -0.508 OA
ATOM     13  H   UNL     1      19.324  29.167  36.075  1.00  0.00     0.293 HD
ENDBRANCH   6  12
TORSDOF 3
ENDMDL
MODEL 3
REMARK VINA RESULT:    -4.729      4.042      6.255
REMARK INTER + INTRA:          -5.572
REMARK INTER:                  -5.426
REMARK INTRA:                  -0.146
REMARK UNBOUND:                -0.151
REMARK SMILES O=C([O-])C=Cc1ccc(O)cc1
REMARK SMILES IDX 6 1 7 2 12 3 8 4 11 5 9 6 5 7 4 8 2 9 1 10 3 11 10 12
REMARK H PARENT 10 13
REMARK Flexibility Score: inf
ROOT
ATOM      1  C   UNL     1      18.086  29.359  30.704  1.00  0.00    -0.025 A 
ATOM      2  C   UNL     1      18.072  28.034  30.231  1.00  0.00     0.012 A 
ATOM      3  C   UNL     1      18.336  30.403  29.791  1.00  0.00     0.012 A 
ATOM      4  C   UNL     1      18.328  27.757  28.885  1.00  0.00     0.047 A 
ATOM      5  C   UNL     1      18.589  30.121  28.445  1.00  0.00     0.047 A 
ATOM      6  C   UNL     1      18.588  28.797  27.990  1.00  0.00     0.115 A 
ENDROOT
BRANCH   1   7
ATOM      7  C   UNL     1      17.799  29.602  32.139  1.00  0.00     0.010 C 
ATOM      8  C   UNL     1      18.343  28.893  33.138  1.00  0.00     0.025 C 
BRANCH   8   9
ATOM      9  C   UNL     1      18.021  29.162  34.548  1.00  0.00     0.064 C 
ATOM     10  O   UNL     1      16.877  29.588  34.854  1.00  0.00    -0.545 OA
ATOM     11  O   UNL     1      18.959  28.948  35.552  1.00  0.00    -0.545 OA
ENDBRANCH   8   9
ENDBRANCH   1   7
BRANCH   6  12
ATOM     12  O   UNL     1      18.841  28.506  26.651  1.00  0.00    -0.508 OA
ATOM     13  H   UNL     1      18.859  29.233  25.944  1.00  0.00     0.293 HD
ENDBRANCH   6  12
TORSDOF 3
ENDMDL
MODEL 4
REMARK VINA RESULT:    -4.703      4.022      7.002
REMARK INTER + INTRA:          -5.541
REMARK INTER:                  -5.399
REMARK INTRA:                  -0.143
REMARK UNBOUND:                -0.151
REMARK SMILES O=C([O-])C=Cc1ccc(O)cc1
REMARK SMILES IDX 6 1 7 2 12 3 8 4 11 5 9 6 5 7 4 8 2 9 1 10 3 11 10 12
REMARK H PARENT 10 13
REMARK Flexibility Score: inf
ROOT
ATOM      1  C   UNL     1      18.167  29.890  30.661  1.00  0.00    -0.025 A 
ATOM      2  C   UNL     1      18.027  28.501  30.496  1.00  0.00     0.012 A 
ATOM      3  C   UNL     1      18.389  30.690  29.522  1.00  0.00     0.012 A 
ATOM      4  C   UNL     1      18.133  27.920  29.229  1.00  0.00     0.047 A 
ATOM      5  C   UNL     1      18.492  30.106  28.256  1.00  0.00     0.047 A 
ATOM      6  C   UNL     1      18.367  28.719  28.107  1.00  0.00     0.115 A 
ENDROOT
BRANCH   1   7
ATOM      7  C   UNL     1      18.037  30.459  32.025  1.00  0.00     0.010 C 
ATOM      8  C   UNL     1      17.018  30.187  32.851  1.00  0.00     0.025 C 
BRANCH   8   9
ATOM      9  C   UNL     1      16.923  30.784  34.193  1.00  0.00     0.064 C 
ATOM     10  O   UNL     1      16.586  30.066  35.170  1.00  0.00    -0.545 OA
ATOM     11  O   UNL     1      17.205  32.129  34.402  1.00  0.00    -0.545 OA
ENDBRANCH   8   9
ENDBRANCH   1   7
BRANCH   6  12
ATOM     12  O   UNL     1      18.470  28.127  26.850  1.00  0.00    -0.508 OA
ATOM     13  H   UNL     1      19.182  27.434  26.647  1.00  0.00     0.293 HD
ENDBRANCH   6  12
TORSDOF 3
ENDMDL
MODEL 5
REMARK VINA RESULT:    -4.667      4.153      6.470
REMARK INTER + INTRA:          -5.501
REMARK INTER:                  -5.362
REMARK INTRA:                  -0.139
REMARK UNBOUND:                -0.151
REMARK SMILES O=C([O-])C=Cc1ccc(O)cc1
REMARK SMILES IDX 6 1 7 2 12 3 8 4 11 5 9 6 5 7 4 8 2 9 1 10 3 11 10 12
REMARK H PARENT 10 13
REMARK Flexibility Score: inf
ROOT
ATOM      1  C   UNL     1      18.007  29.491  30.719  1.00  0.00    -0.025 A 
ATOM      2  C   UNL     1      18.352  30.537  29.845  1.00  0.00     0.012 A 
ATOM      3  C   UNL     1      18.018  28.168  30.233  1.00  0.00     0.012 A 
ATOM      4  C   UNL     1      18.674  30.272  28.510  1.00  0.00     0.047 A 
ATOM      5  C   UNL     1      18.343  27.907  28.899  1.00  0.00     0.047 A 
ATOM      6  C   UNL     1      18.669  28.958  28.033  1.00  0.00     0.115 A 
ENDROOT
BRANCH   1   7
ATOM      7  C   UNL     1      17.682  29.823  32.128  1.00  0.00     0.010 C 
ATOM      8  C   UNL     1      18.094  29.100  33.178  1.00  0.00     0.025 C 
BRANCH   8   9
ATOM      9  C   UNL     1      17.738  29.460  34.560  1.00  0.00     0.064 C 
ATOM     10  O   UNL     1      18.604  29.370  35.468  1.00  0.00    -0.545 OA
ATOM     11  O   UNL     1      16.459  29.903  34.879  1.00  0.00    -0.545 OA
ENDBRANCH   8   9
ENDBRANCH   1   7
BRANCH   6  12
ATOM     12  O   UNL     1      18.993  28.709  26.702  1.00  0.00    -0.508 OA
ATOM     13  H   UNL     1      18.675  29.319  25.956  1.00  0.00     0.293 HD
ENDBRANCH   6  12
TORSDOF 3
ENDMDL
MODEL 6
REMARK VINA RESULT:    -4.650      5.978      9.457
REMARK INTER + INTRA:          -5.481
REMARK INTER:                  -5.342
REMARK INTRA:                  -0.140
REMARK UNBOUND:                -0.151
REMARK SMILES O=C([O-])C=Cc1ccc(O)cc1
REMARK SMILES IDX 6 1 7 2 12 3 8 4 11 5 9 6 5 7 4 8 2 9 1 10 3 11 10 12
REMARK H PARENT 10 13
REMARK Flexibility Score: inf
ROOT
ATOM      1  C   UNL     1      17.471  30.278  33.967  1.00  0.00    -0.025 A 
ATOM      2  C   UNL     1      17.982  29.412  34.950  1.00  0.00     0.012 A 
ATOM      3  C   UNL     1      17.688  29.968  32.609  1.00  0.00     0.012 A 
ATOM      4  C   UNL     1      18.714  28.277  34.587  1.00  0.00     0.047 A 
ATOM      5  C   UNL     1      18.418  28.831  32.251  1.00  0.00     0.047 A 
ATOM      6  C   UNL     1      18.936  27.985  33.239  1.00  0.00     0.115 A 
ENDROOT
BRANCH   1   7
ATOM      7  C   UNL     1      16.693  31.464  34.402  1.00  0.00     0.010 C 
ATOM      8  C   UNL     1      16.502  32.550  33.640  1.00  0.00     0.025 C 
BRANCH   8   9
ATOM      9  C   UNL     1      15.732  33.710  34.117  1.00  0.00     0.064 C 
ATOM     10  O   UNL     1      15.740  33.999  35.342  1.00  0.00    -0.545 OA
ATOM     11  O   UNL     1      14.998  34.495  33.235  1.00  0.00    -0.545 OA
ENDBRANCH   8   9
ENDBRANCH   1   7
BRANCH   6  12
ATOM     12  O   UNL     1      19.667  26.850  32.893  1.00  0.00    -0.508 OA
ATOM     13  H   UNL     1      20.648  26.758  33.134  1.00  0.00     0.293 HD
ENDBRANCH   6  12
TORSDOF 3
ENDMDL
MODEL 7
REMARK VINA RESULT:    -4.623      6.065      9.058
REMARK INTER + INTRA:          -5.450
REMARK INTER:                  -5.305
REMARK INTRA:                  -0.145
REMARK UNBOUND:                -0.151
REMARK SMILES O=C([O-])C=Cc1ccc(O)cc1
REMARK SMILES IDX 6 1 7 2 12 3 8 4 11 5 9 6 5 7 4 8 2 9 1 10 3 11 10 12
REMARK H PARENT 10 13
REMARK Flexibility Score: inf
ROOT
ATOM      1  C   UNL     1      17.767  29.436  33.877  1.00  0.00    -0.025 A 
ATOM      2  C   UNL     1      18.393  28.571  34.792  1.00  0.00     0.012 A 
ATOM      3  C   UNL     1      18.020  29.266  32.500  1.00  0.00     0.012 A 
ATOM      4  C   UNL     1      19.270  27.578  34.348  1.00  0.00     0.047 A 
ATOM      5  C   UNL     1      18.897  28.271  32.060  1.00  0.00     0.047 A 
ATOM      6  C   UNL     1      19.527  27.426  32.982  1.00  0.00     0.115 A 
ENDROOT
BRANCH   1   7
ATOM      7  C   UNL     1      16.836  30.468  34.398  1.00  0.00     0.010 C 
ATOM      8  C   UNL     1      17.056  31.172  35.516  1.00  0.00     0.025 C 
BRANCH   8   9
ATOM      9  C   UNL     1      16.100  32.178  36.003  1.00  0.00     0.064 C 
ATOM     10  O   UNL     1      16.014  33.288  35.417  1.00  0.00    -0.545 OA
ATOM     11  O   UNL     1      15.284  31.922  37.100  1.00  0.00    -0.545 OA
ENDBRANCH   8   9
ENDBRANCH   1   7
BRANCH   6  12
ATOM     12  O   UNL     1      20.403  26.432  32.554  1.00  0.00    -0.508 OA
ATOM     13  H   UNL     1      21.272  26.659  32.081  1.00  0.00     0.293 HD
ENDBRANCH   6  12
TORSDOF 3
ENDMDL
MODEL 8
REMARK VINA RESULT:    -4.576      6.515      9.687
REMARK INTER + INTRA:          -5.396
REMARK INTER:                  -5.249
REMARK INTRA:                  -0.147
REMARK UNBOUND:                -0.151
REMARK SMILES O=C([O-])C=Cc1ccc(O)cc1
REMARK SMILES IDX 6 1 7 2 12 3 8 4 11 5 9 6 5 7 4 8 2 9 1 10 3 11 10 12
REMARK H PARENT 10 13
REMARK Flexibility Score: inf
ROOT
ATOM      1  C   UNL     1      17.271  29.923  34.461  1.00  0.00    -0.025 A 
ATOM      2  C   UNL     1      17.153  30.275  33.105  1.00  0.00     0.012 A 
ATOM      3  C   UNL     1      18.121  28.855  34.815  1.00  0.00     0.012 A 
ATOM      4  C   UNL     1      17.846  29.563  32.122  1.00  0.00     0.047 A 
ATOM      5  C   UNL     1      18.814  28.146  33.828  1.00  0.00     0.047 A 
ATOM      6  C   UNL     1      18.676  28.496  32.480  1.00  0.00     0.115 A 
ENDROOT
BRANCH   1   7
ATOM      7  C   UNL     1      16.523  30.716  35.467  1.00  0.00     0.010 C 
ATOM      8  C   UNL     1      16.502  32.055  35.494  1.00  0.00     0.025 C 
BRANCH   8   9
ATOM      9  C   UNL     1      15.755  32.802  36.519  1.00  0.00     0.064 C 
ATOM     10  O   UNL     1      15.204  32.179  37.463  1.00  0.00    -0.545 OA
ATOM     11  O   UNL     1      15.649  34.187  36.463  1.00  0.00    -0.545 OA
ENDBRANCH   8   9
ENDBRANCH   1   7
BRANCH   6  12
ATOM     12  O   UNL     1      19.360  27.795  31.489  1.00  0.00    -0.508 OA
ATOM     13  H   UNL     1      20.224  27.303  31.690  1.00  0.00     0.293 HD
ENDBRANCH   6  12
TORSDOF 3
ENDMDL
MODEL 9
REMARK VINA RESULT:    -4.569      4.469      6.287
REMARK INTER + INTRA:          -5.389
REMARK INTER:                  -5.242
REMARK INTRA:                  -0.147
REMARK UNBOUND:                -0.151
REMARK SMILES O=C([O-])C=Cc1ccc(O)cc1
REMARK SMILES IDX 6 1 7 2 12 3 8 4 11 5 9 6 5 7 4 8 2 9 1 10 3 11 10 12
REMARK H PARENT 10 13
REMARK Flexibility Score: inf
ROOT
ATOM      1  C   UNL     1      18.171  29.092  32.704  1.00  0.00    -0.025 A 
ATOM      2  C   UNL     1      17.351  30.207  32.451  1.00  0.00     0.012 A 
ATOM      3  C   UNL     1      18.358  28.675  34.038  1.00  0.00     0.012 A 
ATOM      4  C   UNL     1      16.754  30.905  33.505  1.00  0.00     0.047 A 
ATOM      5  C   UNL     1      17.757  29.375  35.089  1.00  0.00     0.047 A 
ATOM      6  C   UNL     1      16.956  30.493  34.825  1.00  0.00     0.115 A 
ENDROOT
BRANCH   1   7
ATOM      7  C   UNL     1      18.774  28.379  31.551  1.00  0.00     0.010 C 
ATOM      8  C   UNL     1      18.167  28.234  30.365  1.00  0.00     0.025 C 
BRANCH   8   9
ATOM      9  C   UNL     1      18.799  27.509  29.252  1.00  0.00     0.064 C 
ATOM     10  O   UNL     1      18.261  26.462  28.808  1.00  0.00    -0.545 OA
ATOM     11  O   UNL     1      19.981  27.964  28.678  1.00  0.00    -0.545 OA
ENDBRANCH   8   9
ENDBRANCH   1   7
BRANCH   6  12
ATOM     12  O   UNL     1      16.354  31.198  35.866  1.00  0.00    -0.508 OA
ATOM     13  H   UNL     1      15.728  30.743  36.520  1.00  0.00     0.293 HD
ENDBRANCH   6  12
TORSDOF 3
ENDMDL
