MODEL 1
REMARK VINA RESULT:    -4.792      0.000      0.000
REMARK INTER + INTRA:          -5.170
REMARK INTER:                  -5.072
REMARK INTRA:                  -0.098
REMARK UNBOUND:                -0.098
REMARK SMILES C=C(C)[C@@H]1CC=C(C)C(=O)C1
REMARK SMILES IDX 8 1 7 2 6 3 5 4 4 5 11 6 9 7 10 8 2 9 1 10 3 11
REMARK H PARENT
REMARK Flexibility Score: inf
ROOT
ATOM      1  C   UNL     1      22.320 -49.063  -3.193  1.00  0.00     0.048 C 
ATOM      2  C   UNL     1      20.853 -48.966  -2.876  1.00  0.00    -0.012 C 
ATOM      3  C   UNL     1      19.946 -48.949  -3.867  1.00  0.00    -0.019 C 
ATOM      4  C   UNL     1      18.465 -48.929  -3.596  1.00  0.00     0.036 C 
ATOM      5  C   UNL     1      18.151 -48.199  -2.276  1.00  0.00     0.025 C 
ATOM      6  C   UNL     1      18.950 -48.820  -1.116  1.00  0.00     0.089 C 
ATOM      7  C   UNL     1      20.411 -48.902  -1.461  1.00  0.00     0.158 C 
ATOM      8  O   UNL     1      21.259 -48.960  -0.530  1.00  0.00    -0.295 OA
ENDROOT
BRANCH   5   9
ATOM      9  C   UNL     1      16.657 -48.193  -1.983  1.00  0.00    -0.077 C 
ATOM     10  C   UNL     1      16.179 -48.836  -0.906  1.00  0.00     0.008 C 
ATOM     11  C   UNL     1      15.683 -47.473  -2.883  1.00  0.00     0.039 C 
ENDBRANCH   5   9
TORSDOF 1
ENDMDL
MODEL 2
REMARK VINA RESULT:    -4.723      1.819      4.405
REMARK INTER + INTRA:          -5.097
REMARK INTER:                  -4.999
REMARK INTRA:                  -0.098
REMARK UNBOUND:                -0.098
REMARK SMILES C=C(C)[C@@H]1CC=C(C)C(=O)C1
REMARK SMILES IDX 8 1 7 2 6 3 5 4 4 5 11 6 9 7 10 8 2 9 1 10 3 11
REMARK H PARENT
REMARK Flexibility Score: inf
ROOT
ATOM      1  C   UNL     1      14.938 -48.348  -1.655  1.00  0.00     0.048 C 
ATOM      2  C   UNL     1      16.440 -48.417  -1.627  1.00  0.00    -0.012 C 
ATOM      3  C   UNL     1      17.160 -47.929  -2.653  1.00  0.00    -0.019 C 
ATOM      4  C   UNL     1      18.665 -47.908  -2.635  1.00  0.00     0.036 C 
ATOM      5  C   UNL     1      19.228 -49.083  -1.812  1.00  0.00     0.025 C 
ATOM      6  C   UNL     1      18.627 -49.082  -0.395  1.00  0.00     0.089 C 
ATOM      7  C   UNL     1      17.126 -49.015  -0.456  1.00  0.00     0.158 C 
ATOM      8  O   UNL     1      16.453 -49.435   0.525  1.00  0.00    -0.295 OA
ENDROOT
BRANCH   5   9
ATOM      9  C   UNL     1      20.750 -49.057  -1.772  1.00  0.00    -0.077 C 
ATOM     10  C   UNL     1      21.388 -48.692  -0.648  1.00  0.00     0.008 C 
ATOM     11  C   UNL     1      21.575 -49.435  -2.977  1.00  0.00     0.039 C 
ENDBRANCH   5   9
TORSDOF 1
ENDMDL
MODEL 3
REMARK VINA RESULT:    -4.606      1.991      4.806
REMARK INTER + INTRA:          -4.973
REMARK INTER:                  -4.883
REMARK INTRA:                  -0.090
REMARK UNBOUND:                -0.098
REMARK SMILES C=C(C)[C@@H]1CC=C(C)C(=O)C1
REMARK SMILES IDX 8 1 7 2 6 3 5 4 4 5 11 6 9 7 10 8 2 9 1 10 3 11
REMARK H PARENT
REMARK Flexibility Score: inf
ROOT
ATOM      1  C   UNL     1      14.766 -48.634  -0.494  1.00  0.00     0.048 C 
ATOM      2  C   UNL     1      16.224 -48.791  -0.826  1.00  0.00    -0.012 C 
ATOM      3  C   UNL     1      17.038 -49.466   0.005  1.00  0.00    -0.019 C 
ATOM      4  C   UNL     1      18.488 -49.713  -0.323  1.00  0.00     0.036 C 
ATOM      5  C   UNL     1      19.066 -48.572  -1.181  1.00  0.00     0.025 C 
ATOM      6  C   UNL     1      18.210 -48.363  -2.443  1.00  0.00     0.089 C 
ATOM      7  C   UNL     1      16.758 -48.207  -2.080  1.00  0.00     0.158 C 
ATOM      8  O   UNL     1      15.987 -47.610  -2.879  1.00  0.00    -0.295 OA
ENDROOT
BRANCH   5   9
ATOM      9  C   UNL     1      20.526 -48.825  -1.534  1.00  0.00    -0.077 C 
ATOM     10  C   UNL     1      21.485 -48.620  -0.618  1.00  0.00     0.008 C 
ATOM     11  C   UNL     1      20.931 -49.304  -2.906  1.00  0.00     0.039 C 
ENDBRANCH   5   9
TORSDOF 1
ENDMDL
MODEL 4
REMARK VINA RESULT:    -4.512      1.681      2.434
REMARK INTER + INTRA:          -4.874
REMARK INTER:                  -4.785
REMARK INTRA:                  -0.089
REMARK UNBOUND:                -0.098
REMARK SMILES C=C(C)[C@@H]1CC=C(C)C(=O)C1
REMARK SMILES IDX 8 1 7 2 6 3 5 4 4 5 11 6 9 7 10 8 2 9 1 10 3 11
REMARK H PARENT
REMARK Flexibility Score: inf
ROOT
ATOM      1  C   UNL     1      20.456 -48.933  -0.798  1.00  0.00     0.048 C 
ATOM      2  C   UNL     1      19.126 -48.756  -1.476  1.00  0.00    -0.012 C 
ATOM      3  C   UNL     1      19.069 -48.429  -2.779  1.00  0.00    -0.019 C 
ATOM      4  C   UNL     1      17.762 -48.316  -3.518  1.00  0.00     0.036 C 
ATOM      5  C   UNL     1      16.629 -47.863  -2.578  1.00  0.00     0.025 C 
ATOM      6  C   UNL     1      16.532 -48.802  -1.362  1.00  0.00     0.089 C 
ATOM      7  C   UNL     1      17.876 -48.957  -0.704  1.00  0.00     0.158 C 
ATOM      8  O   UNL     1      17.929 -49.304   0.507  1.00  0.00    -0.295 OA
ENDROOT
BRANCH   5   9
ATOM      9  C   UNL     1      15.298 -47.766  -3.313  1.00  0.00    -0.077 C 
ATOM     10  C   UNL     1      14.448 -46.764  -3.039  1.00  0.00     0.008 C 
ATOM     11  C   UNL     1      14.902 -48.781  -4.357  1.00  0.00     0.039 C 
ENDBRANCH   5   9
TORSDOF 1
ENDMDL
MODEL 5
REMARK VINA RESULT:    -4.484      1.503      2.440
REMARK INTER + INTRA:          -4.844
REMARK INTER:                  -4.746
REMARK INTRA:                  -0.098
REMARK UNBOUND:                -0.098
REMARK SMILES C=C(C)[C@@H]1CC=C(C)C(=O)C1
REMARK SMILES IDX 8 1 7 2 6 3 5 4 4 5 11 6 9 7 10 8 2 9 1 10 3 11
REMARK H PARENT
REMARK Flexibility Score: inf
ROOT
ATOM      1  C   UNL     1      21.445 -49.499  -1.827  1.00  0.00     0.048 C 
ATOM      2  C   UNL     1      19.998 -49.105  -1.718  1.00  0.00    -0.012 C 
ATOM      3  C   UNL     1      19.326 -49.305  -0.571  1.00  0.00    -0.019 C 
ATOM      4  C   UNL     1      17.899 -48.857  -0.391  1.00  0.00     0.036 C 
ATOM      5  C   UNL     1      17.133 -48.892  -1.727  1.00  0.00     0.025 C 
ATOM      6  C   UNL     1      17.875 -48.064  -2.793  1.00  0.00     0.089 C 
ATOM      7  C   UNL     1      19.317 -48.483  -2.880  1.00  0.00     0.158 C 
ATOM      8  O   UNL     1      19.958 -48.258  -3.942  1.00  0.00    -0.295 OA
ENDROOT
BRANCH   5   9
ATOM      9  C   UNL     1      15.695 -48.420  -1.559  1.00  0.00    -0.077 C 
ATOM     10  C   UNL     1      15.103 -47.703  -2.527  1.00  0.00     0.008 C 
ATOM     11  C   UNL     1      14.904 -48.741  -0.314  1.00  0.00     0.039 C 
ENDBRANCH   5   9
TORSDOF 1
ENDMDL
MODEL 6
REMARK VINA RESULT:    -4.443      1.594      2.207
REMARK INTER + INTRA:          -4.802
REMARK INTER:                  -4.709
REMARK INTRA:                  -0.093
REMARK UNBOUND:                -0.098
REMARK SMILES C=C(C)[C@@H]1CC=C(C)C(=O)C1
REMARK SMILES IDX 8 1 7 2 6 3 5 4 4 5 11 6 9 7 10 8 2 9 1 10 3 11
REMARK H PARENT
REMARK Flexibility Score: inf
ROOT
ATOM      1  C   UNL     1      22.950 -49.773  -3.126  1.00  0.00     0.048 C 
ATOM      2  C   UNL     1      21.549 -49.380  -2.747  1.00  0.00    -0.012 C 
ATOM      3  C   UNL     1      21.239 -49.132  -1.463  1.00  0.00    -0.019 C 
ATOM      4  C   UNL     1      19.870 -48.662  -1.047  1.00  0.00     0.036 C 
ATOM      5  C   UNL     1      18.783 -49.214  -1.990  1.00  0.00     0.025 C 
ATOM      6  C   UNL     1      19.106 -48.851  -3.451  1.00  0.00     0.089 C 
ATOM      7  C   UNL     1      20.511 -49.258  -3.800  1.00  0.00     0.158 C 
ATOM      8  O   UNL     1      20.811 -49.451  -5.010  1.00  0.00    -0.295 OA
ENDROOT
BRANCH   5   9
ATOM      9  C   UNL     1      17.397 -48.727  -1.588  1.00  0.00    -0.077 C 
ATOM     10  C   UNL     1      16.898 -49.037  -0.381  1.00  0.00     0.008 C 
ATOM     11  C   UNL     1      16.555 -47.894  -2.524  1.00  0.00     0.039 C 
ENDBRANCH   5   9
TORSDOF 1
ENDMDL
MODEL 7
REMARK VINA RESULT:    -4.365      3.034      5.505
REMARK INTER + INTRA:          -4.718
REMARK INTER:                  -4.620
REMARK INTRA:                  -0.098
REMARK UNBOUND:                -0.098
REMARK SMILES C=C(C)[C@@H]1CC=C(C)C(=O)C1
REMARK SMILES IDX 8 1 7 2 6 3 5 4 4 5 11 6 9 7 10 8 2 9 1 10 3 11
REMARK H PARENT
REMARK Flexibility Score: inf
ROOT
ATOM      1  C   UNL     1      13.139 -47.133  -5.596  1.00  0.00     0.048 C 
ATOM      2  C   UNL     1      14.173 -47.577  -4.598  1.00  0.00    -0.012 C 
ATOM      3  C   UNL     1      13.998 -47.335  -3.288  1.00  0.00    -0.019 C 
ATOM      4  C   UNL     1      14.968 -47.827  -2.247  1.00  0.00     0.036 C 
ATOM      5  C   UNL     1      16.399 -47.904  -2.813  1.00  0.00     0.025 C 
ATOM      6  C   UNL     1      16.426 -48.764  -4.089  1.00  0.00     0.089 C 
ATOM      7  C   UNL     1      15.384 -48.295  -5.067  1.00  0.00     0.158 C 
ATOM      8  O   UNL     1      15.529 -48.558  -6.292  1.00  0.00    -0.295 OA
ENDROOT
BRANCH   5   9
ATOM      9  C   UNL     1      17.384 -48.421  -1.772  1.00  0.00    -0.077 C 
ATOM     10  C   UNL     1      16.934 -48.986  -0.641  1.00  0.00     0.008 C 
ATOM     11  C   UNL     1      18.875 -48.313  -1.979  1.00  0.00     0.039 C 
ENDBRANCH   5   9
TORSDOF 1
ENDMDL
MODEL 8
REMARK VINA RESULT:    -4.149      3.198      5.128
REMARK INTER + INTRA:          -4.490
REMARK INTER:                  -4.399
REMARK INTRA:                  -0.092
REMARK UNBOUND:                -0.098
REMARK SMILES C=C(C)[C@@H]1CC=C(C)C(=O)C1
REMARK SMILES IDX 8 1 7 2 6 3 5 4 4 5 11 6 9 7 10 8 2 9 1 10 3 11
REMARK H PARENT
REMARK Flexibility Score: inf
ROOT
ATOM      1  C   UNL     1      13.967 -48.225  -6.310  1.00  0.00     0.048 C 
ATOM      2  C   UNL     1      14.954 -48.238  -5.175  1.00  0.00    -0.012 C 
ATOM      3  C   UNL     1      16.130 -48.875  -5.308  1.00  0.00    -0.019 C 
ATOM      4  C   UNL     1      17.179 -48.851  -4.228  1.00  0.00     0.036 C 
ATOM      5  C   UNL     1      16.537 -48.738  -2.832  1.00  0.00     0.025 C 
ATOM      6  C   UNL     1      15.604 -47.516  -2.767  1.00  0.00     0.089 C 
ATOM      7  C   UNL     1      14.628 -47.532  -3.911  1.00  0.00     0.158 C 
ATOM      8  O   UNL     1      13.543 -46.899  -3.802  1.00  0.00    -0.295 OA
ENDROOT
BRANCH   5   9
ATOM      9  C   UNL     1      17.592 -48.692  -1.735  1.00  0.00    -0.077 C 
ATOM     10  C   UNL     1      17.271 -49.030  -0.476  1.00  0.00     0.008 C 
ATOM     11  C   UNL     1      19.011 -48.270  -2.027  1.00  0.00     0.039 C 
ENDBRANCH   5   9
TORSDOF 1
ENDMDL
MODEL 9
REMARK VINA RESULT:    -4.135     19.498     20.324
REMARK INTER + INTRA:          -4.476
REMARK INTER:                  -4.377
REMARK INTRA:                  -0.098
REMARK UNBOUND:                -0.098
REMARK SMILES C=C(C)[C@@H]1CC=C(C)C(=O)C1
REMARK SMILES IDX 8 1 7 2 6 3 5 4 4 5 11 6 9 7 10 8 2 9 1 10 3 11
REMARK H PARENT
REMARK Flexibility Score: inf
ROOT
ATOM      1  C   UNL     1      24.368 -31.419  -9.498  1.00  0.00     0.048 C 
ATOM      2  C   UNL     1      24.555 -31.935 -10.898  1.00  0.00    -0.012 C 
ATOM      3  C   UNL     1      23.518 -32.468 -11.567  1.00  0.00    -0.019 C 
ATOM      4  C   UNL     1      23.640 -32.928 -12.996  1.00  0.00     0.036 C 
ATOM      5  C   UNL     1      25.067 -33.424 -13.300  1.00  0.00     0.025 C 
ATOM      6  C   UNL     1      26.099 -32.338 -12.946  1.00  0.00     0.089 C 
ATOM      7  C   UNL     1      25.889 -31.844 -11.541  1.00  0.00     0.158 C 
ATOM      8  O   UNL     1      26.851 -31.307 -10.929  1.00  0.00    -0.295 OA
ENDROOT
BRANCH   5   9
ATOM      9  C   UNL     1      25.204 -33.872 -14.749  1.00  0.00    -0.077 C 
ATOM     10  C   UNL     1      26.221 -33.421 -15.500  1.00  0.00     0.008 C 
ATOM     11  C   UNL     1      24.214 -34.823 -15.375  1.00  0.00     0.039 C 
ENDBRANCH   5   9
TORSDOF 1
ENDMDL
