MODEL 1
REMARK VINA RESULT:    -4.431      0.000      0.000
REMARK INTER + INTRA:          -4.560
REMARK INTER:                  -4.560
REMARK INTRA:                   0.000
REMARK UNBOUND:                 0.000
REMARK SMILES Nc1ncnc2nc[nH]c12
REMARK SMILES IDX 8 1 7 2 6 3 5 4 4 5 3 6 2 7 10 8 9 9 1 11
REMARK H PARENT 9 10 1 12 1 13
REMARK Flexibility Score: inf
ROOT
ATOM      1  C   UNL     1      -9.948  24.681  18.297  1.00  0.00     0.199 A 
ATOM      2  N   UNL     1     -10.022  25.999  18.630  1.00  0.00    -0.217 NA
ATOM      3  C   UNL     1      -9.316  26.045  19.772  1.00  0.00     0.182 A 
ATOM      4  N   UNL     1      -9.077  27.142  20.530  1.00  0.00    -0.215 NA
ATOM      5  C   UNL     1      -8.332  26.991  21.667  1.00  0.00     0.226 A 
ATOM      6  N   UNL     1      -7.846  25.758  22.022  1.00  0.00    -0.217 NA
ATOM      7  C   UNL     1      -8.087  24.650  21.259  1.00  0.00     0.152 A 
ATOM      8  C   UNL     1      -8.846  24.821  20.105  1.00  0.00     0.127 A 
ATOM      9  N   UNL     1      -9.236  23.934  19.180  1.00  0.00    -0.340 N 
ATOM     10  H   UNL     1      -9.044  22.909  19.136  1.00  0.00     0.168 HD
ENDROOT
BRANCH   7  11
ATOM     11  N   UNL     1      -7.570  23.377  21.648  1.00  0.00    -0.382 N 
ATOM     12  H   UNL     1      -8.050  22.502  21.340  1.00  0.00     0.158 HD
ATOM     13  H   UNL     1      -6.714  23.295  22.239  1.00  0.00     0.158 HD
ENDBRANCH   7  11
TORSDOF 1
ENDMDL
MODEL 2
REMARK VINA RESULT:    -4.390      1.469      3.372
REMARK INTER + INTRA:          -4.518
REMARK INTER:                  -4.518
REMARK INTRA:                   0.000
REMARK UNBOUND:                 0.000
REMARK SMILES Nc1ncnc2nc[nH]c12
REMARK SMILES IDX 8 1 7 2 6 3 5 4 4 5 3 6 2 7 10 8 9 9 1 11
REMARK H PARENT 9 10 1 12 1 13
REMARK Flexibility Score: inf
ROOT
ATOM      1  C   UNL     1      -8.368  26.827  24.176  1.00  0.00     0.199 A 
ATOM      2  N   UNL     1      -8.911  27.694  23.278  1.00  0.00    -0.217 NA
ATOM      3  C   UNL     1      -8.853  26.994  22.133  1.00  0.00     0.182 A 
ATOM      4  N   UNL     1      -9.272  27.406  20.913  1.00  0.00    -0.215 NA
ATOM      5  C   UNL     1      -9.130  26.547  19.858  1.00  0.00     0.226 A 
ATOM      6  N   UNL     1      -8.576  25.305  20.042  1.00  0.00    -0.217 NA
ATOM      7  C   UNL     1      -8.152  24.889  21.272  1.00  0.00     0.152 A 
ATOM      8  C   UNL     1      -8.304  25.774  22.335  1.00  0.00     0.127 A 
ATOM      9  N   UNL     1      -7.987  25.644  23.630  1.00  0.00    -0.340 N 
ATOM     10  H   UNL     1      -7.550  24.831  24.116  1.00  0.00     0.168 HD
ENDROOT
BRANCH   7  11
ATOM     11  N   UNL     1      -7.579  23.591  21.440  1.00  0.00    -0.382 N 
ATOM     12  H   UNL     1      -6.542  23.482  21.504  1.00  0.00     0.158 HD
ATOM     13  H   UNL     1      -8.175  22.737  21.502  1.00  0.00     0.158 HD
ENDBRANCH   7  11
TORSDOF 1
ENDMDL
MODEL 3
REMARK VINA RESULT:    -4.376      3.733      5.308
REMARK INTER + INTRA:          -4.504
REMARK INTER:                  -4.504
REMARK INTRA:                   0.000
REMARK UNBOUND:                 0.000
REMARK SMILES Nc1ncnc2nc[nH]c12
REMARK SMILES IDX 8 1 7 2 6 3 5 4 4 5 3 6 2 7 10 8 9 9 1 11
REMARK H PARENT 9 10 1 12 1 13
REMARK Flexibility Score: inf
ROOT
ATOM      1  C   UNL     1      -9.221  29.774  23.310  1.00  0.00     0.199 A 
ATOM      2  N   UNL     1      -9.184  28.710  22.463  1.00  0.00    -0.217 NA
ATOM      3  C   UNL     1      -9.100  27.672  23.311  1.00  0.00     0.182 A 
ATOM      4  N   UNL     1      -9.034  26.360  22.979  1.00  0.00    -0.215 NA
ATOM      5  C   UNL     1      -8.952  25.442  23.989  1.00  0.00     0.226 A 
ATOM      6  N   UNL     1      -8.936  25.848  25.300  1.00  0.00    -0.217 NA
ATOM      7  C   UNL     1      -9.002  27.171  25.636  1.00  0.00     0.152 A 
ATOM      8  C   UNL     1      -9.086  28.093  24.597  1.00  0.00     0.127 A 
ATOM      9  N   UNL     1      -9.162  29.430  24.623  1.00  0.00    -0.340 N 
ATOM     10  H   UNL     1      -9.175  30.067  25.449  1.00  0.00     0.168 HD
ENDROOT
BRANCH   7  11
ATOM     11  N   UNL     1      -8.986  27.570  27.007  1.00  0.00    -0.382 N 
ATOM     12  H   UNL     1      -9.883  27.682  27.530  1.00  0.00     0.158 HD
ATOM     13  H   UNL     1      -8.089  27.755  27.510  1.00  0.00     0.158 HD
ENDBRANCH   7  11
TORSDOF 1
ENDMDL
MODEL 4
REMARK VINA RESULT:    -4.240      2.743      4.219
REMARK INTER + INTRA:          -4.364
REMARK INTER:                  -4.364
REMARK INTRA:                   0.000
REMARK UNBOUND:                 0.000
REMARK SMILES Nc1ncnc2nc[nH]c12
REMARK SMILES IDX 8 1 7 2 6 3 5 4 4 5 3 6 2 7 10 8 9 9 1 11
REMARK H PARENT 9 10 1 12 1 13
REMARK Flexibility Score: inf
ROOT
ATOM      1  C   UNL     1      -7.782  25.710  22.176  1.00  0.00     0.199 A 
ATOM      2  N   UNL     1      -8.442  26.628  21.419  1.00  0.00    -0.217 NA
ATOM      3  C   UNL     1      -8.892  27.491  22.344  1.00  0.00     0.182 A 
ATOM      4  N   UNL     1      -9.624  28.609  22.117  1.00  0.00    -0.215 NA
ATOM      5  C   UNL     1      -9.991  29.368  23.194  1.00  0.00     0.226 A 
ATOM      6  N   UNL     1      -9.626  28.999  24.464  1.00  0.00    -0.217 NA
ATOM      7  C   UNL     1      -8.889  27.871  24.694  1.00  0.00     0.152 A 
ATOM      8  C   UNL     1      -8.522  27.110  23.587  1.00  0.00     0.127 A 
ATOM      9  N   UNL     1      -7.813  25.977  23.508  1.00  0.00    -0.340 N 
ATOM     10  H   UNL     1      -7.381  25.421  24.278  1.00  0.00     0.168 HD
ENDROOT
BRANCH   7  11
ATOM     11  N   UNL     1      -8.520  27.507  26.024  1.00  0.00    -0.382 N 
ATOM     12  H   UNL     1      -8.911  28.032  26.838  1.00  0.00     0.158 HD
ATOM     13  H   UNL     1      -7.861  26.719  26.210  1.00  0.00     0.158 HD
ENDBRANCH   7  11
TORSDOF 1
ENDMDL
MODEL 5
REMARK VINA RESULT:    -4.159      1.843      4.204
REMARK INTER + INTRA:          -4.280
REMARK INTER:                  -4.280
REMARK INTRA:                   0.000
REMARK UNBOUND:                 0.000
REMARK SMILES Nc1ncnc2nc[nH]c12
REMARK SMILES IDX 8 1 7 2 6 3 5 4 4 5 3 6 2 7 10 8 9 9 1 11
REMARK H PARENT 9 10 1 12 1 13
REMARK Flexibility Score: inf
ROOT
ATOM      1  C   UNL     1      -9.253  28.668  23.583  1.00  0.00     0.199 A 
ATOM      2  N   UNL     1      -8.754  27.541  24.161  1.00  0.00    -0.217 NA
ATOM      3  C   UNL     1      -8.579  26.731  23.104  1.00  0.00     0.182 A 
ATOM      4  N   UNL     1      -8.097  25.465  23.128  1.00  0.00    -0.215 NA
ATOM      5  C   UNL     1      -7.989  24.794  21.941  1.00  0.00     0.226 A 
ATOM      6  N   UNL     1      -8.362  25.394  20.765  1.00  0.00    -0.217 NA
ATOM      7  C   UNL     1      -8.849  26.671  20.740  1.00  0.00     0.152 A 
ATOM      8  C   UNL     1      -8.952  27.341  21.956  1.00  0.00     0.127 A 
ATOM      9  N   UNL     1      -9.386  28.577  22.235  1.00  0.00    -0.340 N 
ATOM     10  H   UNL     1      -9.743  29.307  21.581  1.00  0.00     0.168 HD
ENDROOT
BRANCH   7  11
ATOM     11  N   UNL     1      -9.230  27.276  19.504  1.00  0.00    -0.382 N 
ATOM     12  H   UNL     1      -9.852  26.762  18.840  1.00  0.00     0.158 HD
ATOM     13  H   UNL     1      -8.902  28.232  19.241  1.00  0.00     0.158 HD
ENDBRANCH   7  11
TORSDOF 1
ENDMDL
MODEL 6
REMARK VINA RESULT:    -4.103      4.007      5.932
REMARK INTER + INTRA:          -4.223
REMARK INTER:                  -4.223
REMARK INTRA:                   0.000
REMARK UNBOUND:                 0.000
REMARK SMILES Nc1ncnc2nc[nH]c12
REMARK SMILES IDX 8 1 7 2 6 3 5 4 4 5 3 6 2 7 10 8 9 9 1 11
REMARK H PARENT 9 10 1 12 1 13
REMARK Flexibility Score: inf
ROOT
ATOM      1  C   UNL     1      -8.070  27.026  25.056  1.00  0.00     0.199 A 
ATOM      2  N   UNL     1      -8.547  26.632  23.844  1.00  0.00    -0.217 NA
ATOM      3  C   UNL     1      -9.412  27.615  23.544  1.00  0.00     0.182 A 
ATOM      4  N   UNL     1     -10.170  27.710  22.425  1.00  0.00    -0.215 NA
ATOM      5  C   UNL     1     -10.997  28.792  22.296  1.00  0.00     0.226 A 
ATOM      6  N   UNL     1     -11.051  29.748  23.279  1.00  0.00    -0.217 NA
ATOM      7  C   UNL     1     -10.287  29.653  24.408  1.00  0.00     0.152 A 
ATOM      8  C   UNL     1      -9.450  28.546  24.524  1.00  0.00     0.127 A 
ATOM      9  N   UNL     1      -8.603  28.194  25.499  1.00  0.00    -0.340 N 
ATOM     10  H   UNL     1      -8.393  28.690  26.393  1.00  0.00     0.168 HD
ENDROOT
BRANCH   7  11
ATOM     11  N   UNL     1     -10.359  30.661  25.418  1.00  0.00    -0.382 N 
ATOM     12  H   UNL     1     -10.217  30.407  26.421  1.00  0.00     0.158 HD
ATOM     13  H   UNL     1     -10.550  31.659  25.178  1.00  0.00     0.158 HD
ENDBRANCH   7  11
TORSDOF 1
ENDMDL
MODEL 7
REMARK VINA RESULT:    -4.101      1.081      3.044
REMARK INTER + INTRA:          -4.221
REMARK INTER:                  -4.221
REMARK INTRA:                   0.000
REMARK UNBOUND:                 0.000
REMARK SMILES Nc1ncnc2nc[nH]c12
REMARK SMILES IDX 8 1 7 2 6 3 5 4 4 5 3 6 2 7 10 8 9 9 1 11
REMARK H PARENT 9 10 1 12 1 13
REMARK Flexibility Score: inf
ROOT
ATOM      1  C   UNL     1      -7.427  25.047  22.073  1.00  0.00     0.199 A 
ATOM      2  N   UNL     1      -8.273  26.083  22.326  1.00  0.00    -0.217 NA
ATOM      3  C   UNL     1      -9.099  26.041  21.268  1.00  0.00     0.182 A 
ATOM      4  N   UNL     1     -10.143  26.871  21.025  1.00  0.00    -0.215 NA
ATOM      5  C   UNL     1     -10.874  26.671  19.887  1.00  0.00     0.226 A 
ATOM      6  N   UNL     1     -10.551  25.656  19.021  1.00  0.00    -0.217 NA
ATOM      7  C   UNL     1      -9.498  24.820  19.265  1.00  0.00     0.152 A 
ATOM      8  C   UNL     1      -8.765  25.036  20.428  1.00  0.00     0.127 A 
ATOM      9  N   UNL     1      -7.701  24.387  20.919  1.00  0.00    -0.340 N 
ATOM     10  H   UNL     1      -7.194  23.567  20.520  1.00  0.00     0.168 HD
ENDROOT
BRANCH   7  11
ATOM     11  N   UNL     1      -9.181  23.770  18.350  1.00  0.00    -0.382 N 
ATOM     12  H   UNL     1      -8.803  22.863  18.704  1.00  0.00     0.158 HD
ATOM     13  H   UNL     1      -9.320  23.884  17.321  1.00  0.00     0.158 HD
ENDBRANCH   7  11
TORSDOF 1
ENDMDL
MODEL 8
REMARK VINA RESULT:    -4.057      1.537      2.612
REMARK INTER + INTRA:          -4.176
REMARK INTER:                  -4.176
REMARK INTRA:                   0.000
REMARK UNBOUND:                 0.000
REMARK SMILES Nc1ncnc2nc[nH]c12
REMARK SMILES IDX 8 1 7 2 6 3 5 4 4 5 3 6 2 7 10 8 9 9 1 11
REMARK H PARENT 9 10 1 12 1 13
REMARK Flexibility Score: inf
ROOT
ATOM      1  C   UNL     1     -10.709  27.914  20.602  1.00  0.00     0.199 A 
ATOM      2  N   UNL     1     -10.245  28.133  21.863  1.00  0.00    -0.217 NA
ATOM      3  C   UNL     1      -9.325  27.165  22.001  1.00  0.00     0.182 A 
ATOM      4  N   UNL     1      -8.554  26.933  23.091  1.00  0.00    -0.215 NA
ATOM      5  C   UNL     1      -7.667  25.893  23.044  1.00  0.00     0.226 A 
ATOM      6  N   UNL     1      -7.569  25.112  21.920  1.00  0.00    -0.217 NA
ATOM      7  C   UNL     1      -8.346  25.345  20.821  1.00  0.00     0.152 A 
ATOM      8  C   UNL     1      -9.243  26.407  20.884  1.00  0.00     0.127 A 
ATOM      9  N   UNL     1     -10.115  26.864  19.977  1.00  0.00    -0.340 N 
ATOM     10  H   UNL     1     -10.304  26.508  19.015  1.00  0.00     0.168 HD
ENDROOT
BRANCH   7  11
ATOM     11  N   UNL     1      -8.225  24.519  19.662  1.00  0.00    -0.382 N 
ATOM     12  H   UNL     1      -8.783  23.639  19.586  1.00  0.00     0.158 HD
ATOM     13  H   UNL     1      -7.587  24.774  18.876  1.00  0.00     0.158 HD
ENDBRANCH   7  11
TORSDOF 1
ENDMDL
MODEL 9
REMARK VINA RESULT:    -3.973      2.785      4.362
REMARK INTER + INTRA:          -4.089
REMARK INTER:                  -4.089
REMARK INTRA:                   0.000
REMARK UNBOUND:                 0.000
REMARK SMILES Nc1ncnc2nc[nH]c12
REMARK SMILES IDX 8 1 7 2 6 3 5 4 4 5 3 6 2 7 10 8 9 9 1 11
REMARK H PARENT 9 10 1 12 1 13
REMARK Flexibility Score: inf
ROOT
ATOM      1  C   UNL     1      -7.813  26.682  24.768  1.00  0.00     0.199 A 
ATOM      2  N   UNL     1      -9.154  26.594  24.984  1.00  0.00    -0.217 NA
ATOM      3  C   UNL     1      -9.541  25.731  24.030  1.00  0.00     0.182 A 
ATOM      4  N   UNL     1     -10.802  25.292  23.802  1.00  0.00    -0.215 NA
ATOM      5  C   UNL     1     -11.001  24.408  22.778  1.00  0.00     0.226 A 
ATOM      6  N   UNL     1      -9.947  23.984  22.008  1.00  0.00    -0.217 NA
ATOM      7  C   UNL     1      -8.674  24.426  22.238  1.00  0.00     0.152 A 
ATOM      8  C   UNL     1      -8.488  25.325  23.284  1.00  0.00     0.127 A 
ATOM      9  N   UNL     1      -7.375  25.918  23.734  1.00  0.00    -0.340 N 
ATOM     10  H   UNL     1      -6.397  25.823  23.383  1.00  0.00     0.168 HD
ENDROOT
BRANCH   7  11
ATOM     11  N   UNL     1      -7.593  23.971  21.425  1.00  0.00    -0.382 N 
ATOM     12  H   UNL     1      -7.299  22.968  21.458  1.00  0.00     0.158 HD
ATOM     13  H   UNL     1      -7.079  24.619  20.788  1.00  0.00     0.158 HD
ENDBRANCH   7  11
TORSDOF 1
ENDMDL
