MODEL 1
REMARK VINA RESULT:    -1.439      0.000      0.000
REMARK INTER + INTRA:          -1.557
REMARK INTER:                  -1.649
REMARK INTRA:                   0.091
REMARK UNBOUND:                 0.091
REMARK SMILES C=Cc1ccc(O)c(OC)c1
REMARK SMILES IDX 8 1 6 2 5 3 4 4 3 5 11 6 9 7 10 8 7 9 2 11 1 12
REMARK H PARENT 7 10
REMARK Flexibility Score: inf
ROOT
ATOM      1  C   UNL     1      92.050  17.344 120.463  1.00  0.00     0.161 A 
ATOM      2  C   UNL     1      92.372  17.658 119.131  1.00  0.00     0.157 A 
ATOM      3  C   UNL     1      93.335  16.912 118.449  1.00  0.00     0.051 A 
ATOM      4  C   UNL     1      93.984  15.848 119.078  1.00  0.00     0.012 A 
ATOM      5  C   UNL     1      93.669  15.507 120.407  1.00  0.00    -0.022 A 
ATOM      6  C   UNL     1      92.709  16.269 121.094  1.00  0.00     0.058 A 
ENDROOT
BRANCH   1   7
ATOM      7  O   UNL     1      91.081  18.114 121.125  1.00  0.00    -0.493 OA
ATOM      8  C   UNL     1      89.696  18.132 120.792  1.00  0.00     0.278 C 
ENDBRANCH   1   7
BRANCH   2   9
ATOM      9  O   UNL     1      91.744  18.713 118.467  1.00  0.00    -0.504 OA
ATOM     10  H   UNL     1      90.959  19.212 118.868  1.00  0.00     0.293 HD
ENDBRANCH   2   9
BRANCH   5  11
ATOM     11  C   UNL     1      94.335  14.391 121.125  1.00  0.00     0.000 C 
ATOM     12  C   UNL     1      93.915  13.125 121.100  1.00  0.00     0.009 C 
ENDBRANCH   5  11
TORSDOF 3
ENDMDL
MODEL 2
REMARK VINA RESULT:    -0.827      2.390      4.156
REMARK INTER + INTRA:          -0.856
REMARK INTER:                  -0.762
REMARK INTRA:                  -0.094
REMARK UNBOUND:                 0.091
REMARK SMILES C=Cc1ccc(O)c(OC)c1
REMARK SMILES IDX 8 1 6 2 5 3 4 4 3 5 11 6 9 7 10 8 7 9 2 11 1 12
REMARK H PARENT 7 10
REMARK Flexibility Score: inf
ROOT
ATOM      1  C   UNL     1      94.090  16.243 120.460  1.00  0.00     0.161 A 
ATOM      2  C   UNL     1      93.888  15.842 119.129  1.00  0.00     0.157 A 
ATOM      3  C   UNL     1      92.734  16.235 118.448  1.00  0.00     0.051 A 
ATOM      4  C   UNL     1      91.774  17.030 119.077  1.00  0.00     0.012 A 
ATOM      5  C   UNL     1      91.962  17.454 120.406  1.00  0.00    -0.022 A 
ATOM      6  C   UNL     1      93.119  17.046 121.092  1.00  0.00     0.058 A 
ENDROOT
BRANCH   1   7
ATOM      7  O   UNL     1      95.257  15.830 121.122  1.00  0.00    -0.493 OA
ATOM      8  C   UNL     1      96.485  16.552 121.125  1.00  0.00     0.278 C 
ENDBRANCH   1   7
BRANCH   2   9
ATOM      9  O   UNL     1      94.824  15.048 118.464  1.00  0.00    -0.504 OA
ATOM     10  H   UNL     1      95.476  15.432 117.792  1.00  0.00     0.293 HD
ENDBRANCH   2   9
BRANCH   5  11
ATOM     11  C   UNL     1      90.970  18.293 121.125  1.00  0.00     0.000 C 
ATOM     12  C   UNL     1      89.648  18.170 120.995  1.00  0.00     0.009 C 
ENDBRANCH   5  11
TORSDOF 3
ENDMDL
