MODEL 1
REMARK VINA RESULT:    -7.248      0.000      0.000
REMARK INTER + INTRA:          -9.010
REMARK INTER:                  -8.943
REMARK INTRA:                  -0.067
REMARK UNBOUND:                -0.067
REMARK SMILES O=c1c(O)c(-c2cc(O)c(O)c(O)c2)oc2cc(O)cc(O)c12
REMARK SMILES IDX 5 1 3 2 2 3 1 4 23 5 21 6 20 7 18 8 17 9 16 10 15 11 6 12
REMARK SMILES IDX 7 13 8 14 14 15 10 16 12 17 9 18 11 20 13 22 4 24 22 26
REMARK SMILES IDX 19 28
REMARK H PARENT 9 19 11 21 13 23 4 25 22 27 19 29
REMARK Flexibility Score: inf
ROOT
ATOM      1  C   UNL     1      13.920  31.059  36.398  1.00  0.00     0.180 A 
ATOM      2  C   UNL     1      13.580  32.403  36.169  1.00  0.00     0.208 A 
ATOM      3  C   UNL     1      14.607  33.353  36.044  1.00  0.00     0.238 A 
ATOM      4  O   UNL     1      14.296  34.564  35.895  1.00  0.00    -0.285 OA
ATOM      5  C   UNL     1      15.960  32.943  36.132  1.00  0.00     0.111 A 
ATOM      6  C   UNL     1      17.081  33.813  35.980  1.00  0.00     0.134 A 
ATOM      7  C   UNL     1      18.371  33.325  36.216  1.00  0.00     0.093 A 
ATOM      8  C   UNL     1      18.587  31.984  36.534  1.00  0.00     0.123 A 
ATOM      9  C   UNL     1      17.502  31.111  36.627  1.00  0.00     0.094 A 
ATOM     10  C   UNL     1      16.200  31.577  36.432  1.00  0.00     0.146 A 
ATOM     11  O   UNL     1      15.195  30.717  36.541  1.00  0.00    -0.452 OA
ENDROOT
BRANCH   1  12
ATOM     12  C   UNL     1      12.895  29.997  36.516  1.00  0.00     0.029 A 
ATOM     13  C   UNL     1      11.840  30.099  37.439  1.00  0.00     0.062 A 
ATOM     14  C   UNL     1      10.865  29.095  37.520  1.00  0.00     0.162 A 
ATOM     15  C   UNL     1      12.941  28.892  35.652  1.00  0.00     0.062 A 
ATOM     16  C   UNL     1      10.931  27.985  36.670  1.00  0.00     0.200 A 
ATOM     17  C   UNL     1      11.970  27.884  35.729  1.00  0.00     0.162 A 
BRANCH  14  18
ATOM     18  O   UNL     1       9.823  29.197  38.441  1.00  0.00    -0.504 OA
ATOM     19  H   UNL     1       9.177  28.432  38.598  1.00  0.00     0.293 HD
ENDBRANCH  14  18
BRANCH  16  20
ATOM     20  O   UNL     1       9.954  26.993  36.767  1.00  0.00    -0.502 OA
ATOM     21  H   UNL     1      10.168  26.011  36.641  1.00  0.00     0.293 HD
ENDBRANCH  16  20
BRANCH  17  22
ATOM     22  O   UNL     1      12.035  26.784  34.875  1.00  0.00    -0.504 OA
ATOM     23  H   UNL     1      12.915  26.462  34.490  1.00  0.00     0.293 HD
ENDBRANCH  17  22
ENDBRANCH   1  12
BRANCH   2  24
ATOM     24  O   UNL     1      12.238  32.790  36.108  1.00  0.00    -0.502 OA
ATOM     25  H   UNL     1      11.578  32.584  36.848  1.00  0.00     0.293 HD
ENDBRANCH   2  24
BRANCH   6  26
ATOM     26  O   UNL     1      16.984  35.149  35.575  1.00  0.00    -0.507 OA
ATOM     27  H   UNL     1      16.475  35.863  36.070  1.00  0.00     0.293 HD
ENDBRANCH   6  26
BRANCH   8  28
ATOM     28  O   UNL     1      19.886  31.528  36.747  1.00  0.00    -0.508 OA
ATOM     29  H   UNL     1      20.670  31.901  36.225  1.00  0.00     0.293 HD
ENDBRANCH   8  28
TORSDOF 7
ENDMDL
MODEL 2
REMARK VINA RESULT:    -7.144      0.212      1.760
REMARK INTER + INTRA:          -8.881
REMARK INTER:                  -8.837
REMARK INTRA:                  -0.044
REMARK UNBOUND:                -0.067
REMARK SMILES O=c1c(O)c(-c2cc(O)c(O)c(O)c2)oc2cc(O)cc(O)c12
REMARK SMILES IDX 5 1 3 2 2 3 1 4 23 5 21 6 20 7 18 8 17 9 16 10 15 11 6 12
REMARK SMILES IDX 7 13 8 14 14 15 10 16 12 17 9 18 11 20 13 22 4 24 22 26
REMARK SMILES IDX 19 28
REMARK H PARENT 9 19 11 21 13 23 4 25 22 27 19 29
REMARK Flexibility Score: inf
ROOT
ATOM      1  C   UNL     1      13.874  31.032  36.396  1.00  0.00     0.180 A 
ATOM      2  C   UNL     1      13.517  32.374  36.178  1.00  0.00     0.208 A 
ATOM      3  C   UNL     1      14.526  33.349  36.140  1.00  0.00     0.238 A 
ATOM      4  O   UNL     1      14.197  34.556  36.000  1.00  0.00    -0.285 OA
ATOM      5  C   UNL     1      15.881  32.968  36.302  1.00  0.00     0.111 A 
ATOM      6  C   UNL     1      16.989  33.866  36.239  1.00  0.00     0.134 A 
ATOM      7  C   UNL     1      18.273  33.401  36.544  1.00  0.00     0.093 A 
ATOM      8  C   UNL     1      18.500  32.057  36.843  1.00  0.00     0.123 A 
ATOM      9  C   UNL     1      17.432  31.158  36.848  1.00  0.00     0.094 A 
ATOM     10  C   UNL     1      16.134  31.600  36.584  1.00  0.00     0.146 A 
ATOM     11  O   UNL     1      15.145  30.715  36.609  1.00  0.00    -0.452 OA
ENDROOT
BRANCH   1  12
ATOM     12  C   UNL     1      12.869  29.945  36.425  1.00  0.00     0.029 A 
ATOM     13  C   UNL     1      13.007  28.799  35.623  1.00  0.00     0.062 A 
ATOM     14  C   UNL     1      12.057  27.770  35.682  1.00  0.00     0.162 A 
ATOM     15  C   UNL     1      11.785  30.030  37.312  1.00  0.00     0.062 A 
ATOM     16  C   UNL     1      10.966  27.873  36.554  1.00  0.00     0.200 A 
ATOM     17  C   UNL     1      10.831  29.005  37.375  1.00  0.00     0.162 A 
BRANCH  14  18
ATOM     18  O   UNL     1      12.195  26.638  34.881  1.00  0.00    -0.504 OA
ATOM     19  H   UNL     1      11.702  26.549  33.999  1.00  0.00     0.293 HD
ENDBRANCH  14  18
BRANCH  16  20
ATOM     20  O   UNL     1      10.029  26.840  36.596  1.00  0.00    -0.502 OA
ATOM     21  H   UNL     1       9.634  26.506  37.468  1.00  0.00     0.293 HD
ENDBRANCH  16  20
BRANCH  17  22
ATOM     22  O   UNL     1       9.750  29.108  38.250  1.00  0.00    -0.504 OA
ATOM     23  H   UNL     1       8.994  29.763  38.086  1.00  0.00     0.293 HD
ENDBRANCH  17  22
ENDBRANCH   1  12
BRANCH   2  24
ATOM     24  O   UNL     1      12.172  32.732  36.043  1.00  0.00    -0.502 OA
ATOM     25  H   UNL     1      11.422  32.053  36.083  1.00  0.00     0.293 HD
ENDBRANCH   2  24
BRANCH   6  26
ATOM     26  O   UNL     1      16.885  35.209  35.861  1.00  0.00    -0.507 OA
ATOM     27  H   UNL     1      16.147  35.831  36.151  1.00  0.00     0.293 HD
ENDBRANCH   6  26
BRANCH   8  28
ATOM     28  O   UNL     1      19.794  31.625  37.125  1.00  0.00    -0.508 OA
ATOM     29  H   UNL     1      20.115  30.703  36.855  1.00  0.00     0.293 HD
ENDBRANCH   8  28
TORSDOF 7
ENDMDL
MODEL 3
REMARK VINA RESULT:    -5.828      1.689      7.537
REMARK INTER + INTRA:          -7.258
REMARK INTER:                  -6.929
REMARK INTRA:                  -0.329
REMARK UNBOUND:                -0.067
REMARK SMILES O=c1c(O)c(-c2cc(O)c(O)c(O)c2)oc2cc(O)cc(O)c12
REMARK SMILES IDX 5 1 3 2 2 3 1 4 23 5 21 6 20 7 18 8 17 9 16 10 15 11 6 12
REMARK SMILES IDX 7 13 8 14 14 15 10 16 12 17 9 18 11 20 13 22 4 24 22 26
REMARK SMILES IDX 19 28
REMARK H PARENT 9 19 11 21 13 23 4 25 22 27 19 29
REMARK Flexibility Score: inf
ROOT
ATOM      1  C   UNL     1      12.866  30.310  36.785  1.00  0.00     0.180 A 
ATOM      2  C   UNL     1      13.064  29.163  35.997  1.00  0.00     0.208 A 
ATOM      3  C   UNL     1      12.050  28.194  35.939  1.00  0.00     0.238 A 
ATOM      4  O   UNL     1      12.255  27.143  35.275  1.00  0.00    -0.285 OA
ATOM      5  C   UNL     1      10.845  28.391  36.655  1.00  0.00     0.111 A 
ATOM      6  C   UNL     1       9.734  27.495  36.636  1.00  0.00     0.134 A 
ATOM      7  C   UNL     1       8.646  27.725  37.484  1.00  0.00     0.093 A 
ATOM      8  C   UNL     1       8.597  28.854  38.303  1.00  0.00     0.123 A 
ATOM      9  C   UNL     1       9.651  29.768  38.286  1.00  0.00     0.094 A 
ATOM     10  C   UNL     1      10.767  29.546  37.476  1.00  0.00     0.146 A 
ATOM     11  O   UNL     1      11.753  30.435  37.497  1.00  0.00    -0.452 OA
ENDROOT
BRANCH   1  12
ATOM     12  C   UNL     1      13.879  31.386  36.878  1.00  0.00     0.029 A 
ATOM     13  C   UNL     1      14.996  31.269  37.723  1.00  0.00     0.062 A 
ATOM     14  C   UNL     1      15.957  32.288  37.779  1.00  0.00     0.162 A 
ATOM     15  C   UNL     1      13.756  32.523  36.063  1.00  0.00     0.062 A 
ATOM     16  C   UNL     1      15.814  33.429  36.980  1.00  0.00     0.200 A 
ATOM     17  C   UNL     1      14.713  33.546  36.116  1.00  0.00     0.162 A 
BRANCH  14  18
ATOM     18  O   UNL     1      17.059  32.171  38.623  1.00  0.00    -0.504 OA
ATOM     19  H   UNL     1      16.951  32.056  39.625  1.00  0.00     0.293 HD
ENDBRANCH  14  18
BRANCH  16  20
ATOM     20  O   UNL     1      16.779  34.436  37.052  1.00  0.00    -0.502 OA
ATOM     21  H   UNL     1      17.311  34.731  36.242  1.00  0.00     0.293 HD
ENDBRANCH  16  20
BRANCH  17  22
ATOM     22  O   UNL     1      14.571  34.677  35.313  1.00  0.00    -0.504 OA
ATOM     23  H   UNL     1      14.862  34.679  34.342  1.00  0.00     0.293 HD
ENDBRANCH  17  22
ENDBRANCH   1  12
BRANCH   2  24
ATOM     24  O   UNL     1      14.271  28.977  35.315  1.00  0.00    -0.502 OA
ATOM     25  H   UNL     1      15.168  28.982  35.785  1.00  0.00     0.293 HD
ENDBRANCH   2  24
BRANCH   6  26
ATOM     26  O   UNL     1       9.641  26.386  35.787  1.00  0.00    -0.507 OA
ATOM     27  H   UNL     1       9.874  25.442  36.049  1.00  0.00     0.293 HD
ENDBRANCH   6  26
BRANCH   8  28
ATOM     28  O   UNL     1       7.490  29.060  39.124  1.00  0.00    -0.508 OA
ATOM     29  H   UNL     1       6.626  28.549  38.987  1.00  0.00     0.293 HD
ENDBRANCH   8  28
TORSDOF 7
ENDMDL
MODEL 4
REMARK VINA RESULT:    -5.776      1.418      3.430
REMARK INTER + INTRA:          -7.194
REMARK INTER:                  -6.863
REMARK INTRA:                  -0.331
REMARK UNBOUND:                -0.067
REMARK SMILES O=c1c(O)c(-c2cc(O)c(O)c(O)c2)oc2cc(O)cc(O)c12
REMARK SMILES IDX 5 1 3 2 2 3 1 4 23 5 21 6 20 7 18 8 17 9 16 10 15 11 6 12
REMARK SMILES IDX 7 13 8 14 14 15 10 16 12 17 9 18 11 20 13 22 4 24 22 26
REMARK SMILES IDX 19 28
REMARK H PARENT 9 19 11 21 13 23 4 25 22 27 19 29
REMARK Flexibility Score: inf
ROOT
ATOM      1  C   UNL     1      15.214  31.235  36.734  1.00  0.00     0.180 A 
ATOM      2  C   UNL     1      16.415  30.659  37.185  1.00  0.00     0.208 A 
ATOM      3  C   UNL     1      17.595  31.418  37.134  1.00  0.00     0.238 A 
ATOM      4  O   UNL     1      18.677  30.879  37.488  1.00  0.00    -0.285 OA
ATOM      5  C   UNL     1      17.557  32.748  36.650  1.00  0.00     0.111 A 
ATOM      6  C   UNL     1      18.684  33.622  36.592  1.00  0.00     0.134 A 
ATOM      7  C   UNL     1      18.558  34.871  35.974  1.00  0.00     0.093 A 
ATOM      8  C   UNL     1      17.332  35.306  35.470  1.00  0.00     0.123 A 
ATOM      9  C   UNL     1      16.210  34.483  35.575  1.00  0.00     0.094 A 
ATOM     10  C   UNL     1      16.312  33.217  36.154  1.00  0.00     0.146 A 
ATOM     11  O   UNL     1      15.223  32.461  36.225  1.00  0.00    -0.452 OA
ENDROOT
BRANCH   1  12
ATOM     12  C   UNL     1      13.926  30.506  36.779  1.00  0.00     0.029 A 
ATOM     13  C   UNL     1      13.581  29.569  35.790  1.00  0.00     0.062 A 
ATOM     14  C   UNL     1      12.367  28.871  35.862  1.00  0.00     0.162 A 
ATOM     15  C   UNL     1      13.054  30.710  37.860  1.00  0.00     0.062 A 
ATOM     16  C   UNL     1      11.493  29.097  36.932  1.00  0.00     0.200 A 
ATOM     17  C   UNL     1      11.838  30.016  37.937  1.00  0.00     0.162 A 
BRANCH  14  18
ATOM     18  O   UNL     1      12.027  27.948  34.876  1.00  0.00    -0.504 OA
ATOM     19  H   UNL     1      11.393  27.179  35.065  1.00  0.00     0.293 HD
ENDBRANCH  14  18
BRANCH  16  20
ATOM     20  O   UNL     1      10.287  28.396  36.985  1.00  0.00    -0.502 OA
ATOM     21  H   UNL     1       9.476  28.678  36.448  1.00  0.00     0.293 HD
ENDBRANCH  16  20
BRANCH  17  22
ATOM     22  O   UNL     1      10.974  30.238  39.008  1.00  0.00    -0.504 OA
ATOM     23  H   UNL     1      10.098  30.735  38.890  1.00  0.00     0.293 HD
ENDBRANCH  17  22
ENDBRANCH   1  12
BRANCH   2  24
ATOM     24  O   UNL     1      16.434  29.337  37.639  1.00  0.00    -0.502 OA
ATOM     25  H   UNL     1      16.753  28.568  37.062  1.00  0.00     0.293 HD
ENDBRANCH   2  24
BRANCH   6  26
ATOM     26  O   UNL     1      19.933  33.323  37.147  1.00  0.00    -0.507 OA
ATOM     27  H   UNL     1      20.532  33.992  37.605  1.00  0.00     0.293 HD
ENDBRANCH   6  26
BRANCH   8  28
ATOM     28  O   UNL     1      17.239  36.562  34.875  1.00  0.00    -0.508 OA
ATOM     29  H   UNL     1      16.419  36.839  34.348  1.00  0.00     0.293 HD
ENDBRANCH   8  28
TORSDOF 7
ENDMDL
MODEL 5
REMARK VINA RESULT:    -5.635      1.356      6.975
REMARK INTER + INTRA:          -7.020
REMARK INTER:                  -7.091
REMARK INTRA:                   0.071
REMARK UNBOUND:                -0.067
REMARK SMILES O=c1c(O)c(-c2cc(O)c(O)c(O)c2)oc2cc(O)cc(O)c12
REMARK SMILES IDX 5 1 3 2 2 3 1 4 23 5 21 6 20 7 18 8 17 9 16 10 15 11 6 12
REMARK SMILES IDX 7 13 8 14 14 15 10 16 12 17 9 18 11 20 13 22 4 24 22 26
REMARK SMILES IDX 19 28
REMARK H PARENT 9 19 11 21 13 23 4 25 22 27 19 29
REMARK Flexibility Score: inf
ROOT
ATOM      1  C   UNL     1      13.504  30.453  36.254  1.00  0.00     0.180 A 
ATOM      2  C   UNL     1      12.336  31.017  36.795  1.00  0.00     0.208 A 
ATOM      3  C   UNL     1      11.202  30.206  36.960  1.00  0.00     0.238 A 
ATOM      4  O   UNL     1      10.141  30.729  37.393  1.00  0.00    -0.285 OA
ATOM      5  C   UNL     1      11.256  28.838  36.598  1.00  0.00     0.111 A 
ATOM      6  C   UNL     1      10.180  27.914  36.760  1.00  0.00     0.134 A 
ATOM      7  C   UNL     1      10.300  26.617  36.247  1.00  0.00     0.093 A 
ATOM      8  C   UNL     1      11.480  26.190  35.638  1.00  0.00     0.123 A 
ATOM      9  C   UNL     1      12.560  27.067  35.528  1.00  0.00     0.094 A 
ATOM     10  C   UNL     1      12.457  28.378  35.997  1.00  0.00     0.146 A 
ATOM     11  O   UNL     1      13.503  29.185  35.864  1.00  0.00    -0.452 OA
ENDROOT
BRANCH   1  12
ATOM     12  C   UNL     1      14.747  31.239  36.073  1.00  0.00     0.029 A 
ATOM     13  C   UNL     1      14.718  32.541  35.546  1.00  0.00     0.062 A 
ATOM     14  C   UNL     1      15.902  33.278  35.404  1.00  0.00     0.162 A 
ATOM     15  C   UNL     1      15.973  30.698  36.489  1.00  0.00     0.062 A 
ATOM     16  C   UNL     1      17.124  32.723  35.800  1.00  0.00     0.200 A 
ATOM     17  C   UNL     1      17.161  31.429  36.348  1.00  0.00     0.162 A 
BRANCH  14  18
ATOM     18  O   UNL     1      15.870  34.567  34.875  1.00  0.00    -0.504 OA
ATOM     19  H   UNL     1      15.035  34.941  34.437  1.00  0.00     0.293 HD
ENDBRANCH  14  18
BRANCH  16  20
ATOM     20  O   UNL     1      18.293  33.469  35.647  1.00  0.00    -0.502 OA
ATOM     21  H   UNL     1      19.144  33.068  35.270  1.00  0.00     0.293 HD
ENDBRANCH  16  20
BRANCH  17  22
ATOM     22  O   UNL     1      18.375  30.875  36.750  1.00  0.00    -0.504 OA
ATOM     23  H   UNL     1      18.708  30.961  37.703  1.00  0.00     0.293 HD
ENDBRANCH  17  22
ENDBRANCH   1  12
BRANCH   2  24
ATOM     24  O   UNL     1      12.297  32.375  37.125  1.00  0.00    -0.502 OA
ATOM     25  H   UNL     1      12.696  32.738  37.982  1.00  0.00     0.293 HD
ENDBRANCH   2  24
BRANCH   6  26
ATOM     26  O   UNL     1       8.991  28.210  37.435  1.00  0.00    -0.507 OA
ATOM     27  H   UNL     1       8.756  29.115  37.813  1.00  0.00     0.293 HD
ENDBRANCH   6  26
BRANCH   8  28
ATOM     28  O   UNL     1      11.571  24.887  35.153  1.00  0.00    -0.508 OA
ATOM     29  H   UNL     1      11.774  24.106  35.767  1.00  0.00     0.293 HD
ENDBRANCH   8  28
TORSDOF 7
ENDMDL
MODEL 6
REMARK VINA RESULT:    -5.626      2.385      8.206
REMARK INTER + INTRA:          -7.009
REMARK INTER:                  -6.743
REMARK INTRA:                  -0.267
REMARK UNBOUND:                -0.067
REMARK SMILES O=c1c(O)c(-c2cc(O)c(O)c(O)c2)oc2cc(O)cc(O)c12
REMARK SMILES IDX 5 1 3 2 2 3 1 4 23 5 21 6 20 7 18 8 17 9 16 10 15 11 6 12
REMARK SMILES IDX 7 13 8 14 14 15 10 16 12 17 9 18 11 20 13 22 4 24 22 26
REMARK SMILES IDX 19 28
REMARK H PARENT 9 19 11 21 13 23 4 25 22 27 19 29
REMARK Flexibility Score: inf
ROOT
ATOM      1  C   UNL     1      16.448  33.817  36.631  1.00  0.00     0.180 A 
ATOM      2  C   UNL     1      16.617  32.639  37.380  1.00  0.00     0.208 A 
ATOM      3  C   UNL     1      15.557  31.721  37.452  1.00  0.00     0.238 A 
ATOM      4  O   UNL     1      15.693  30.695  38.169  1.00  0.00    -0.285 OA
ATOM      5  C   UNL     1      14.349  31.984  36.761  1.00  0.00     0.111 A 
ATOM      6  C   UNL     1      13.225  31.105  36.731  1.00  0.00     0.134 A 
ATOM      7  C   UNL     1      12.035  31.525  36.125  1.00  0.00     0.093 A 
ATOM      8  C   UNL     1      11.949  32.764  35.490  1.00  0.00     0.123 A 
ATOM      9  C   UNL     1      13.061  33.607  35.462  1.00  0.00     0.094 A 
ATOM     10  C   UNL     1      14.251  33.231  36.089  1.00  0.00     0.146 A 
ATOM     11  O   UNL     1      15.282  34.066  36.049  1.00  0.00    -0.452 OA
ENDROOT
BRANCH   1  12
ATOM     12  C   UNL     1      17.528  34.820  36.488  1.00  0.00     0.029 A 
ATOM     13  C   UNL     1      18.691  34.542  35.748  1.00  0.00     0.062 A 
ATOM     14  C   UNL     1      19.692  35.513  35.604  1.00  0.00     0.162 A 
ATOM     15  C   UNL     1      17.367  36.094  37.053  1.00  0.00     0.062 A 
ATOM     16  C   UNL     1      19.533  36.775  36.190  1.00  0.00     0.200 A 
ATOM     17  C   UNL     1      18.365  37.069  36.914  1.00  0.00     0.162 A 
BRANCH  14  18
ATOM     18  O   UNL     1      20.846  35.232  34.875  1.00  0.00    -0.504 OA
ATOM     19  H   UNL     1      21.328  35.950  34.346  1.00  0.00     0.293 HD
ENDBRANCH  14  18
BRANCH  16  20
ATOM     20  O   UNL     1      20.542  37.727  36.040  1.00  0.00    -0.502 OA
ATOM     21  H   UNL     1      20.967  37.926  35.142  1.00  0.00     0.293 HD
ENDBRANCH  16  20
BRANCH  17  22
ATOM     22  O   UNL     1      18.199  38.327  37.493  1.00  0.00    -0.504 OA
ATOM     23  H   UNL     1      18.992  38.881  37.794  1.00  0.00     0.293 HD
ENDBRANCH  17  22
ENDBRANCH   1  12
BRANCH   2  24
ATOM     24  O   UNL     1      17.809  32.409  38.072  1.00  0.00    -0.502 OA
ATOM     25  H   UNL     1      17.929  32.658  39.047  1.00  0.00     0.293 HD
ENDBRANCH   2  24
BRANCH   6  26
ATOM     26  O   UNL     1      13.233  29.808  37.255  1.00  0.00    -0.507 OA
ATOM     27  H   UNL     1      13.784  29.046  36.893  1.00  0.00     0.293 HD
ENDBRANCH   6  26
BRANCH   8  28
ATOM     28  O   UNL     1      10.755  33.144  34.882  1.00  0.00    -0.508 OA
ATOM     29  H   UNL     1      10.235  32.506  34.290  1.00  0.00     0.293 HD
ENDBRANCH   8  28
TORSDOF 7
ENDMDL
MODEL 7
REMARK VINA RESULT:    -5.539      1.421      7.056
REMARK INTER + INTRA:          -6.901
REMARK INTER:                  -6.938
REMARK INTRA:                   0.038
REMARK UNBOUND:                -0.067
REMARK SMILES O=c1c(O)c(-c2cc(O)c(O)c(O)c2)oc2cc(O)cc(O)c12
REMARK SMILES IDX 5 1 3 2 2 3 1 4 23 5 21 6 20 7 18 8 17 9 16 10 15 11 6 12
REMARK SMILES IDX 7 13 8 14 14 15 10 16 12 17 9 18 11 20 13 22 4 24 22 26
REMARK SMILES IDX 19 28
REMARK H PARENT 9 19 11 21 13 23 4 25 22 27 19 29
REMARK Flexibility Score: inf
ROOT
ATOM      1  C   UNL     1      13.571  30.275  36.337  1.00  0.00     0.180 A 
ATOM      2  C   UNL     1      12.400  30.883  36.821  1.00  0.00     0.208 A 
ATOM      3  C   UNL     1      11.225  30.119  36.913  1.00  0.00     0.238 A 
ATOM      4  O   UNL     1      10.165  30.682  37.295  1.00  0.00    -0.285 OA
ATOM      5  C   UNL     1      11.242  28.754  36.537  1.00  0.00     0.111 A 
ATOM      6  C   UNL     1      10.121  27.874  36.629  1.00  0.00     0.134 A 
ATOM      7  C   UNL     1      10.214  26.579  36.107  1.00  0.00     0.093 A 
ATOM      8  C   UNL     1      11.407  26.109  35.557  1.00  0.00     0.123 A 
ATOM      9  C   UNL     1      12.527  26.941  35.517  1.00  0.00     0.094 A 
ATOM     10  C   UNL     1      12.454  28.250  35.997  1.00  0.00     0.146 A 
ATOM     11  O   UNL     1      13.538  29.013  35.931  1.00  0.00    -0.452 OA
ENDROOT
BRANCH   1  12
ATOM     12  C   UNL     1      14.853  31.009  36.234  1.00  0.00     0.029 A 
ATOM     13  C   UNL     1      16.056  30.448  36.695  1.00  0.00     0.062 A 
ATOM     14  C   UNL     1      17.264  31.148  36.566  1.00  0.00     0.162 A 
ATOM     15  C   UNL     1      14.882  32.267  35.611  1.00  0.00     0.062 A 
ATOM     16  C   UNL     1      17.280  32.412  35.965  1.00  0.00     0.200 A 
ATOM     17  C   UNL     1      16.086  32.973  35.482  1.00  0.00     0.162 A 
BRANCH  14  18
ATOM     18  O   UNL     1      18.454  30.590  37.031  1.00  0.00    -0.504 OA
ATOM     19  H   UNL     1      18.863  29.772  36.593  1.00  0.00     0.293 HD
ENDBRANCH  14  18
BRANCH  16  20
ATOM     20  O   UNL     1      18.491  33.096  35.850  1.00  0.00    -0.502 OA
ATOM     21  H   UNL     1      19.104  32.976  35.052  1.00  0.00     0.293 HD
ENDBRANCH  16  20
BRANCH  17  22
ATOM     22  O   UNL     1      16.098  34.228  34.875  1.00  0.00    -0.504 OA
ATOM     23  H   UNL     1      16.905  34.838  34.934  1.00  0.00     0.293 HD
ENDBRANCH  17  22
ENDBRANCH   1  12
BRANCH   2  24
ATOM     24  O   UNL     1      12.400  32.238  37.166  1.00  0.00    -0.502 OA
ATOM     25  H   UNL     1      13.193  32.687  37.606  1.00  0.00     0.293 HD
ENDBRANCH   2  24
BRANCH   6  26
ATOM     26  O   UNL     1       8.910  28.214  37.242  1.00  0.00    -0.507 OA
ATOM     27  H   UNL     1       8.075  28.490  36.750  1.00  0.00     0.293 HD
ENDBRANCH   6  26
BRANCH   8  28
ATOM     28  O   UNL     1      11.470  24.809  35.062  1.00  0.00    -0.508 OA
ATOM     29  H   UNL     1      12.348  24.392  34.776  1.00  0.00     0.293 HD
ENDBRANCH   8  28
TORSDOF 7
ENDMDL
MODEL 8
REMARK VINA RESULT:    -5.443      1.723      2.656
REMARK INTER + INTRA:          -6.783
REMARK INTER:                  -6.912
REMARK INTRA:                   0.129
REMARK UNBOUND:                -0.067
REMARK SMILES O=c1c(O)c(-c2cc(O)c(O)c(O)c2)oc2cc(O)cc(O)c12
REMARK SMILES IDX 5 1 3 2 2 3 1 4 23 5 21 6 20 7 18 8 17 9 16 10 15 11 6 12
REMARK SMILES IDX 7 13 8 14 14 15 10 16 12 17 9 18 11 20 13 22 4 24 22 26
REMARK SMILES IDX 19 28
REMARK H PARENT 9 19 11 21 13 23 4 25 22 27 19 29
REMARK Flexibility Score: inf
ROOT
ATOM      1  C   UNL     1      15.666  32.753  36.147  1.00  0.00     0.180 A 
ATOM      2  C   UNL     1      15.729  33.998  35.498  1.00  0.00     0.208 A 
ATOM      3  C   UNL     1      16.935  34.716  35.519  1.00  0.00     0.238 A 
ATOM      4  O   UNL     1      16.971  35.855  34.983  1.00  0.00    -0.285 OA
ATOM      5  C   UNL     1      18.067  34.173  36.175  1.00  0.00     0.111 A 
ATOM      6  C   UNL     1      19.351  34.795  36.224  1.00  0.00     0.134 A 
ATOM      7  C   UNL     1      20.362  34.231  37.011  1.00  0.00     0.093 A 
ATOM      8  C   UNL     1      20.157  33.034  37.697  1.00  0.00     0.123 A 
ATOM      9  C   UNL     1      18.924  32.386  37.607  1.00  0.00     0.094 A 
ATOM     10  C   UNL     1      17.885  32.943  36.859  1.00  0.00     0.146 A 
ATOM     11  O   UNL     1      16.724  32.302  36.809  1.00  0.00    -0.452 OA
ENDROOT
BRANCH   1  12
ATOM     12  C   UNL     1      14.437  31.927  36.148  1.00  0.00     0.029 A 
ATOM     13  C   UNL     1      13.165  32.509  36.288  1.00  0.00     0.062 A 
ATOM     14  C   UNL     1      12.011  31.713  36.261  1.00  0.00     0.162 A 
ATOM     15  C   UNL     1      14.535  30.542  35.947  1.00  0.00     0.062 A 
ATOM     16  C   UNL     1      12.119  30.329  36.083  1.00  0.00     0.200 A 
ATOM     17  C   UNL     1      13.385  29.740  35.922  1.00  0.00     0.162 A 
BRANCH  14  18
ATOM     18  O   UNL     1      10.752  32.293  36.407  1.00  0.00    -0.504 OA
ATOM     19  H   UNL     1      10.276  32.312  37.302  1.00  0.00     0.293 HD
ENDBRANCH  14  18
BRANCH  16  20
ATOM     20  O   UNL     1      10.960  29.552  36.064  1.00  0.00    -0.502 OA
ATOM     21  H   UNL     1      10.200  29.701  36.717  1.00  0.00     0.293 HD
ENDBRANCH  16  20
BRANCH  17  22
ATOM     22  O   UNL     1      13.497  28.363  35.736  1.00  0.00    -0.504 OA
ATOM     23  H   UNL     1      12.705  27.799  35.451  1.00  0.00     0.293 HD
ENDBRANCH  17  22
ENDBRANCH   1  12
BRANCH   2  24
ATOM     24  O   UNL     1      14.594  34.526  34.875  1.00  0.00    -0.502 OA
ATOM     25  H   UNL     1      14.492  34.559  33.868  1.00  0.00     0.293 HD
ENDBRANCH   2  24
BRANCH   6  26
ATOM     26  O   UNL     1      19.690  35.944  35.502  1.00  0.00    -0.507 OA
ATOM     27  H   UNL     1      20.282  36.684  35.846  1.00  0.00     0.293 HD
ENDBRANCH   6  26
BRANCH   8  28
ATOM     28  O   UNL     1      21.191  32.492  38.457  1.00  0.00    -0.508 OA
ATOM     29  H   UNL     1      21.062  31.646  39.000  1.00  0.00     0.293 HD
ENDBRANCH   8  28
TORSDOF 7
ENDMDL
MODEL 9
REMARK VINA RESULT:    -5.310      1.663      7.326
REMARK INTER + INTRA:          -6.619
REMARK INTER:                  -6.965
REMARK INTRA:                   0.346
REMARK UNBOUND:                -0.067
REMARK SMILES O=c1c(O)c(-c2cc(O)c(O)c(O)c2)oc2cc(O)cc(O)c12
REMARK SMILES IDX 5 1 3 2 2 3 1 4 23 5 21 6 20 7 18 8 17 9 16 10 15 11 6 12
REMARK SMILES IDX 7 13 8 14 14 15 10 16 12 17 9 18 11 20 13 22 4 24 22 26
REMARK SMILES IDX 19 28
REMARK H PARENT 9 19 11 21 13 23 4 25 22 27 19 29
REMARK Flexibility Score: inf
ROOT
ATOM      1  C   UNL     1      16.177  33.091  36.043  1.00  0.00     0.180 A 
ATOM      2  C   UNL     1      15.298  34.073  35.555  1.00  0.00     0.208 A 
ATOM      3  C   UNL     1      13.947  33.742  35.364  1.00  0.00     0.238 A 
ATOM      4  O   UNL     1      13.174  34.609  34.875  1.00  0.00    -0.285 OA
ATOM      5  C   UNL     1      13.489  32.440  35.680  1.00  0.00     0.111 A 
ATOM      6  C   UNL     1      12.133  32.007  35.565  1.00  0.00     0.134 A 
ATOM      7  C   UNL     1      11.818  30.661  35.779  1.00  0.00     0.093 A 
ATOM      8  C   UNL     1      12.795  29.745  36.170  1.00  0.00     0.123 A 
ATOM      9  C   UNL     1      14.113  30.170  36.343  1.00  0.00     0.094 A 
ATOM     10  C   UNL     1      14.465  31.500  36.101  1.00  0.00     0.146 A 
ATOM     11  O   UNL     1      15.732  31.861  36.267  1.00  0.00    -0.452 OA
ENDROOT
BRANCH   1  12
ATOM     12  C   UNL     1      17.609  33.372  36.292  1.00  0.00     0.029 A 
ATOM     13  C   UNL     1      18.576  32.354  36.225  1.00  0.00     0.062 A 
ATOM     14  C   UNL     1      19.931  32.643  36.441  1.00  0.00     0.162 A 
ATOM     15  C   UNL     1      18.022  34.689  36.545  1.00  0.00     0.062 A 
ATOM     16  C   UNL     1      20.332  33.956  36.715  1.00  0.00     0.200 A 
ATOM     17  C   UNL     1      19.375  34.984  36.763  1.00  0.00     0.162 A 
BRANCH  14  18
ATOM     18  O   UNL     1      20.886  31.630  36.380  1.00  0.00    -0.504 OA
ATOM     19  H   UNL     1      20.625  30.664  36.215  1.00  0.00     0.293 HD
ENDBRANCH  14  18
BRANCH  16  20
ATOM     20  O   UNL     1      21.684  34.225  36.931  1.00  0.00    -0.502 OA
ATOM     21  H   UNL     1      22.377  33.488  36.993  1.00  0.00     0.293 HD
ENDBRANCH  16  20
BRANCH  17  22
ATOM     22  O   UNL     1      19.771  36.295  37.028  1.00  0.00    -0.504 OA
ATOM     23  H   UNL     1      19.119  37.069  36.965  1.00  0.00     0.293 HD
ENDBRANCH  17  22
ENDBRANCH   1  12
BRANCH   2  24
ATOM     24  O   UNL     1      15.774  35.346  35.229  1.00  0.00    -0.502 OA
ATOM     25  H   UNL     1      15.159  36.106  34.965  1.00  0.00     0.293 HD
ENDBRANCH   2  24
BRANCH   6  26
ATOM     26  O   UNL     1      11.064  32.860  35.270  1.00  0.00    -0.507 OA
ATOM     27  H   UNL     1      10.928  33.325  34.386  1.00  0.00     0.293 HD
ENDBRANCH   6  26
BRANCH   8  28
ATOM     28  O   UNL     1      12.442  28.416  36.391  1.00  0.00    -0.508 OA
ATOM     29  H   UNL     1      12.908  27.854  37.094  1.00  0.00     0.293 HD
ENDBRANCH   8  28
TORSDOF 7
ENDMDL
