MODEL 1
REMARK VINA RESULT:    -5.940      0.000      0.000
REMARK INTER + INTRA:          -6.789
REMARK INTER:                  -6.461
REMARK INTRA:                  -0.328
REMARK UNBOUND:                -0.328
REMARK SMILES C=C1C[C@]2(O)O[C@]3(C[C@@H]2C(C)C)[C@H](C)CC[C@@H]13
REMARK SMILES IDX 14 1 13 2 15 3 16 4 17 5 7 6 8 7 9 8 4 9 6 10 3 11 2 12 1 13
REMARK SMILES IDX 10 14 11 15 12 16 5 17
REMARK H PARENT 5 18
REMARK Flexibility Score: inf
ROOT
ATOM      1  C   UNL     1      -4.096  -4.136  17.506  1.00  0.00     0.011 C 
ATOM      2  C   UNL     1      -3.082  -5.286  17.631  1.00  0.00     0.019 C 
ATOM      3  C   UNL     1      -1.814  -5.030  16.773  1.00  0.00     0.007 C 
ATOM      4  C   UNL     1      -1.859  -6.000  15.575  1.00  0.00     0.011 C 
ATOM      5  C   UNL     1      -3.273  -6.555  15.606  1.00  0.00     0.047 C 
ATOM      6  C   UNL     1      -3.623  -6.624  17.095  1.00  0.00     0.081 C 
ATOM      7  C   UNL     1      -2.974  -7.830  17.828  1.00  0.00     0.046 C 
ATOM      8  C   UNL     1      -4.099  -8.857  17.850  1.00  0.00     0.054 C 
ATOM      9  C   UNL     1      -5.159  -8.215  16.932  1.00  0.00     0.173 C 
ATOM     10  O   UNL     1      -5.019  -6.821  17.183  1.00  0.00    -0.342 OA
ATOM     11  C   UNL     1      -4.933  -8.482  15.408  1.00  0.00     0.096 C 
ATOM     12  C   UNL     1      -3.620  -7.869  14.949  1.00  0.00    -0.066 C 
ATOM     13  C   UNL     1      -2.967  -8.335  13.877  1.00  0.00     0.008 C 
ENDROOT
BRANCH   8  14
ATOM     14  C   UNL     1      -3.675 -10.358  17.695  1.00  0.00    -0.009 C 
ATOM     15  C   UNL     1      -4.429 -11.414  18.533  1.00  0.00     0.008 C 
ATOM     16  C   UNL     1      -2.160 -10.530  17.869  1.00  0.00     0.008 C 
ENDBRANCH   8  14
BRANCH   9  17
ATOM     17  O   UNL     1      -6.442  -8.643  17.313  1.00  0.00    -0.365 OA
ATOM     18  H   UNL     1      -6.481  -9.622  17.160  1.00  0.00     0.214 HD
ENDBRANCH   9  17
TORSDOF 2
ENDMDL
MODEL 2
REMARK VINA RESULT:    -5.508      1.688      4.516
REMARK INTER + INTRA:          -6.319
REMARK INTER:                  -6.171
REMARK INTRA:                  -0.147
REMARK UNBOUND:                -0.328
REMARK SMILES C=C1C[C@]2(O)O[C@]3(C[C@@H]2C(C)C)[C@H](C)CC[C@@H]13
REMARK SMILES IDX 14 1 13 2 15 3 16 4 17 5 7 6 8 7 9 8 4 9 6 10 3 11 2 12 1 13
REMARK SMILES IDX 10 14 11 15 12 16 5 17
REMARK H PARENT 5 18
REMARK Flexibility Score: inf
ROOT
ATOM      1  C   UNL     1      -2.155 -11.283  18.224  1.00  0.00     0.011 C 
ATOM      2  C   UNL     1      -3.567 -10.737  17.949  1.00  0.00     0.019 C 
ATOM      3  C   UNL     1      -4.311 -11.581  16.879  1.00  0.00     0.007 C 
ATOM      4  C   UNL     1      -4.386 -10.737  15.591  1.00  0.00     0.011 C 
ATOM      5  C   UNL     1      -3.430  -9.584  15.851  1.00  0.00     0.047 C 
ATOM      6  C   UNL     1      -3.556  -9.318  17.354  1.00  0.00     0.081 C 
ATOM      7  C   UNL     1      -4.842  -8.534  17.738  1.00  0.00     0.046 C 
ATOM      8  C   UNL     1      -4.342  -7.100  17.856  1.00  0.00     0.054 C 
ATOM      9  C   UNL     1      -2.906  -7.198  17.302  1.00  0.00     0.173 C 
ATOM     10  O   UNL     1      -2.473  -8.488  17.719  1.00  0.00    -0.342 OA
ATOM     11  C   UNL     1      -2.814  -7.110  15.743  1.00  0.00     0.096 C 
ATOM     12  C   UNL     1      -3.543  -8.279  15.101  1.00  0.00    -0.066 C 
ATOM     13  C   UNL     1      -4.026  -8.203  13.854  1.00  0.00     0.008 C 
ENDROOT
BRANCH   8  14
ATOM     14  C   UNL     1      -5.330  -5.977  17.391  1.00  0.00    -0.009 C 
ATOM     15  C   UNL     1      -4.880  -4.508  17.541  1.00  0.00     0.008 C 
ATOM     16  C   UNL     1      -6.722  -6.167  18.009  1.00  0.00     0.008 C 
ENDBRANCH   8  14
BRANCH   9  17
ATOM     17  O   UNL     1      -2.099  -6.209  17.890  1.00  0.00    -0.365 OA
ATOM     18  H   UNL     1      -1.634  -5.735  17.153  1.00  0.00     0.214 HD
ENDBRANCH   9  17
TORSDOF 2
ENDMDL
MODEL 3
REMARK VINA RESULT:    -5.330      8.239      9.943
REMARK INTER + INTRA:          -6.125
REMARK INTER:                  -5.730
REMARK INTRA:                  -0.395
REMARK UNBOUND:                -0.328
REMARK SMILES C=C1C[C@]2(O)O[C@]3(C[C@@H]2C(C)C)[C@H](C)CC[C@@H]13
REMARK SMILES IDX 14 1 13 2 15 3 16 4 17 5 7 6 8 7 9 8 4 9 6 10 3 11 2 12 1 13
REMARK SMILES IDX 10 14 11 15 12 16 5 17
REMARK H PARENT 5 18
REMARK Flexibility Score: inf
ROOT
ATOM      1  C   UNL     1      -9.905  -8.370  18.160  1.00  0.00     0.011 C 
ATOM      2  C   UNL     1     -10.232  -9.820  18.552  1.00  0.00     0.019 C 
ATOM      3  C   UNL     1      -9.776 -10.827  17.462  1.00  0.00     0.007 C 
ATOM      4  C   UNL     1     -11.042 -11.364  16.766  1.00  0.00     0.011 C 
ATOM      5  C   UNL     1     -12.146 -10.439  17.248  1.00  0.00     0.047 C 
ATOM      6  C   UNL     1     -11.744 -10.080  18.682  1.00  0.00     0.081 C 
ATOM      7  C   UNL     1     -12.036 -11.210  19.708  1.00  0.00     0.046 C 
ATOM      8  C   UNL     1     -13.362 -10.776  20.319  1.00  0.00     0.054 C 
ATOM      9  C   UNL     1     -13.780  -9.597  19.416  1.00  0.00     0.173 C 
ATOM     10  O   UNL     1     -12.542  -8.983  19.073  1.00  0.00    -0.342 OA
ATOM     11  C   UNL     1     -14.515 -10.025  18.103  1.00  0.00     0.096 C 
ATOM     12  C   UNL     1     -13.596 -10.861  17.227  1.00  0.00    -0.066 C 
ATOM     13  C   UNL     1     -14.082 -11.728  16.330  1.00  0.00     0.008 C 
ENDROOT
BRANCH   8  14
ATOM     14  C   UNL     1     -14.364 -11.920  20.695  1.00  0.00    -0.009 C 
ATOM     15  C   UNL     1     -14.763 -12.076  22.179  1.00  0.00     0.008 C 
ATOM     16  C   UNL     1     -13.905 -13.271  20.129  1.00  0.00     0.008 C 
ENDBRANCH   8  14
BRANCH   9  17
ATOM     17  O   UNL     1     -14.575  -8.696  20.144  1.00  0.00    -0.365 OA
ATOM     18  H   UNL     1     -14.202  -7.790  19.994  1.00  0.00     0.214 HD
ENDBRANCH   9  17
TORSDOF 2
ENDMDL
MODEL 4
REMARK VINA RESULT:    -5.173      7.300      9.741
REMARK INTER + INTRA:          -5.954
REMARK INTER:                  -5.575
REMARK INTRA:                  -0.379
REMARK UNBOUND:                -0.328
REMARK SMILES C=C1C[C@]2(O)O[C@]3(C[C@@H]2C(C)C)[C@H](C)CC[C@@H]13
REMARK SMILES IDX 14 1 13 2 15 3 16 4 17 5 7 6 8 7 9 8 4 9 6 10 3 11 2 12 1 13
REMARK SMILES IDX 10 14 11 15 12 16 5 17
REMARK H PARENT 5 18
REMARK Flexibility Score: inf
ROOT
ATOM      1  C   UNL     1     -15.053 -11.184  16.259  1.00  0.00     0.011 C 
ATOM      2  C   UNL     1     -13.589 -11.642  16.152  1.00  0.00     0.019 C 
ATOM      3  C   UNL     1     -13.445 -13.169  16.391  1.00  0.00     0.007 C 
ATOM      4  C   UNL     1     -12.778 -13.364  17.766  1.00  0.00     0.011 C 
ATOM      5  C   UNL     1     -12.841 -11.986  18.404  1.00  0.00     0.047 C 
ATOM      6  C   UNL     1     -12.685 -11.016  17.229  1.00  0.00     0.081 C 
ATOM      7  C   UNL     1     -11.220 -10.881  16.728  1.00  0.00     0.046 C 
ATOM      8  C   UNL     1     -10.743  -9.609  17.418  1.00  0.00     0.054 C 
ATOM      9  C   UNL     1     -11.893  -9.307  18.400  1.00  0.00     0.173 C 
ATOM     10  O   UNL     1     -13.054  -9.736  17.698  1.00  0.00    -0.342 OA
ATOM     11  C   UNL     1     -11.801 -10.086  19.754  1.00  0.00     0.096 C 
ATOM     12  C   UNL     1     -11.899 -11.584  19.512  1.00  0.00    -0.066 C 
ATOM     13  C   UNL     1     -11.384 -12.467  20.378  1.00  0.00     0.008 C 
ENDROOT
BRANCH   8  14
ATOM     14  C   UNL     1      -9.243  -9.585  17.873  1.00  0.00    -0.009 C 
ATOM     15  C   UNL     1      -8.273  -8.649  17.119  1.00  0.00     0.008 C 
ATOM     16  C   UNL     1      -8.659 -11.002  17.946  1.00  0.00     0.008 C 
ENDBRANCH   8  14
BRANCH   9  17
ATOM     17  O   UNL     1     -11.963  -7.925  18.642  1.00  0.00    -0.365 OA
ATOM     18  H   UNL     1     -11.031  -7.591  18.702  1.00  0.00     0.214 HD
ENDBRANCH   9  17
TORSDOF 2
ENDMDL
MODEL 5
REMARK VINA RESULT:    -5.106      1.586      4.667
REMARK INTER + INTRA:          -5.881
REMARK INTER:                  -6.353
REMARK INTRA:                   0.472
REMARK UNBOUND:                -0.328
REMARK SMILES C=C1C[C@]2(O)O[C@]3(C[C@@H]2C(C)C)[C@H](C)CC[C@@H]13
REMARK SMILES IDX 14 1 13 2 15 3 16 4 17 5 7 6 8 7 9 8 4 9 6 10 3 11 2 12 1 13
REMARK SMILES IDX 10 14 11 15 12 16 5 17
REMARK H PARENT 5 18
REMARK Flexibility Score: inf
ROOT
ATOM      1  C   UNL     1      -2.461 -11.535  16.267  1.00  0.00     0.011 C 
ATOM      2  C   UNL     1      -2.751 -10.571  17.429  1.00  0.00     0.019 C 
ATOM      3  C   UNL     1      -3.812 -11.148  18.405  1.00  0.00     0.007 C 
ATOM      4  C   UNL     1      -5.113 -10.347  18.206  1.00  0.00     0.011 C 
ATOM      5  C   UNL     1      -4.867  -9.558  16.931  1.00  0.00     0.047 C 
ATOM      6  C   UNL     1      -3.369  -9.240  16.964  1.00  0.00     0.081 C 
ATOM      7  C   UNL     1      -3.004  -8.079  17.931  1.00  0.00     0.046 C 
ATOM      8  C   UNL     1      -2.906  -6.879  16.997  1.00  0.00     0.054 C 
ATOM      9  C   UNL     1      -3.452  -7.441  15.668  1.00  0.00     0.173 C 
ATOM     10  O   UNL     1      -3.013  -8.795  15.671  1.00  0.00    -0.342 OA
ATOM     11  C   UNL     1      -5.012  -7.415  15.554  1.00  0.00     0.096 C 
ATOM     12  C   UNL     1      -5.639  -8.298  16.620  1.00  0.00    -0.066 C 
ATOM     13  C   UNL     1      -6.889  -8.092  17.054  1.00  0.00     0.008 C 
ENDROOT
BRANCH   8  14
ATOM     14  C   UNL     1      -3.395  -5.507  17.573  1.00  0.00    -0.009 C 
ATOM     15  C   UNL     1      -4.880  -5.128  17.381  1.00  0.00     0.008 C 
ATOM     16  C   UNL     1      -2.493  -4.355  17.110  1.00  0.00     0.008 C 
ENDBRANCH   8  14
BRANCH   9  17
ATOM     17  O   UNL     1      -2.877  -6.754  14.586  1.00  0.00    -0.365 OA
ATOM     18  H   UNL     1      -2.353  -7.416  14.065  1.00  0.00     0.214 HD
ENDBRANCH   9  17
TORSDOF 2
ENDMDL
MODEL 6
REMARK VINA RESULT:    -5.065      2.132      3.654
REMARK INTER + INTRA:          -5.837
REMARK INTER:                  -5.703
REMARK INTRA:                  -0.134
REMARK UNBOUND:                -0.328
REMARK SMILES C=C1C[C@]2(O)O[C@]3(C[C@@H]2C(C)C)[C@H](C)CC[C@@H]13
REMARK SMILES IDX 14 1 13 2 15 3 16 4 17 5 7 6 8 7 9 8 4 9 6 10 3 11 2 12 1 13
REMARK SMILES IDX 10 14 11 15 12 16 5 17
REMARK H PARENT 5 18
REMARK Flexibility Score: inf
ROOT
ATOM      1  C   UNL     1      -3.026  -5.872  18.248  1.00  0.00     0.011 C 
ATOM      2  C   UNL     1      -3.858  -6.234  17.006  1.00  0.00     0.019 C 
ATOM      3  C   UNL     1      -5.335  -5.780  17.150  1.00  0.00     0.007 C 
ATOM      4  C   UNL     1      -6.193  -7.044  17.353  1.00  0.00     0.011 C 
ATOM      5  C   UNL     1      -5.176  -8.138  17.628  1.00  0.00     0.047 C 
ATOM      6  C   UNL     1      -3.963  -7.753  16.776  1.00  0.00     0.081 C 
ATOM      7  C   UNL     1      -4.135  -8.085  15.267  1.00  0.00     0.046 C 
ATOM      8  C   UNL     1      -3.401  -9.413  15.128  1.00  0.00     0.054 C 
ATOM      9  C   UNL     1      -3.108  -9.791  16.594  1.00  0.00     0.173 C 
ATOM     10  O   UNL     1      -2.876  -8.536  17.225  1.00  0.00    -0.342 OA
ATOM     11  C   UNL     1      -4.292 -10.512  17.319  1.00  0.00     0.096 C 
ATOM     12  C   UNL     1      -5.501  -9.595  17.404  1.00  0.00    -0.066 C 
ATOM     13  C   UNL     1      -6.743 -10.083  17.520  1.00  0.00     0.008 C 
ENDROOT
BRANCH   8  14
ATOM     14  C   UNL     1      -4.011 -10.443  14.118  1.00  0.00    -0.009 C 
ATOM     15  C   UNL     1      -3.310 -11.810  13.965  1.00  0.00     0.008 C 
ATOM     16  C   UNL     1      -4.233  -9.808  12.738  1.00  0.00     0.008 C 
ENDBRANCH   8  14
BRANCH   9  17
ATOM     17  O   UNL     1      -1.948 -10.581  16.661  1.00  0.00    -0.365 OA
ATOM     18  H   UNL     1      -2.237 -11.508  16.867  1.00  0.00     0.214 HD
ENDBRANCH   9  17
TORSDOF 2
ENDMDL
MODEL 7
REMARK VINA RESULT:    -4.851      9.320     11.592
REMARK INTER + INTRA:          -5.605
REMARK INTER:                  -5.236
REMARK INTRA:                  -0.368
REMARK UNBOUND:                -0.328
REMARK SMILES C=C1C[C@]2(O)O[C@]3(C[C@@H]2C(C)C)[C@H](C)CC[C@@H]13
REMARK SMILES IDX 14 1 13 2 15 3 16 4 17 5 7 6 8 7 9 8 4 9 6 10 3 11 2 12 1 13
REMARK SMILES IDX 10 14 11 15 12 16 5 17
REMARK H PARENT 5 18
REMARK Flexibility Score: inf
ROOT
ATOM      1  C   UNL     1     -13.051 -13.268  22.323  1.00  0.00     0.011 C 
ATOM      2  C   UNL     1     -12.776 -13.277  20.810  1.00  0.00     0.019 C 
ATOM      3  C   UNL     1     -11.263 -13.115  20.499  1.00  0.00     0.007 C 
ATOM      4  C   UNL     1     -11.055 -11.701  19.922  1.00  0.00     0.011 C 
ATOM      5  C   UNL     1     -12.370 -10.993  20.202  1.00  0.00     0.047 C 
ATOM      6  C   UNL     1     -13.429 -12.092  20.075  1.00  0.00     0.081 C 
ATOM      7  C   UNL     1     -13.768 -12.457  18.603  1.00  0.00     0.046 C 
ATOM      8  C   UNL     1     -15.036 -11.657  18.339  1.00  0.00     0.054 C 
ATOM      9  C   UNL     1     -15.135 -10.760  19.590  1.00  0.00     0.173 C 
ATOM     10  O   UNL     1     -14.622 -11.582  20.633  1.00  0.00    -0.342 OA
ATOM     11  C   UNL     1     -14.282  -9.452  19.510  1.00  0.00     0.096 C 
ATOM     12  C   UNL     1     -12.803  -9.786  19.405  1.00  0.00    -0.066 C 
ATOM     13  C   UNL     1     -11.929  -8.933  18.855  1.00  0.00     0.008 C 
ENDROOT
BRANCH   8  14
ATOM     14  C   UNL     1     -15.205 -11.076  16.894  1.00  0.00    -0.009 C 
ATOM     15  C   UNL     1     -16.538 -11.338  16.159  1.00  0.00     0.008 C 
ATOM     16  C   UNL     1     -14.023 -11.463  15.995  1.00  0.00     0.008 C 
ENDBRANCH   8  14
BRANCH   9  17
ATOM     17  O   UNL     1     -16.480 -10.445  19.847  1.00  0.00    -0.365 OA
ATOM     18  H   UNL     1     -16.565  -9.459  19.792  1.00  0.00     0.214 HD
ENDBRANCH   9  17
TORSDOF 2
ENDMDL
MODEL 8
REMARK VINA RESULT:    -4.845      7.167      9.422
REMARK INTER + INTRA:          -5.598
REMARK INTER:                  -5.202
REMARK INTRA:                  -0.396
REMARK UNBOUND:                -0.328
REMARK SMILES C=C1C[C@]2(O)O[C@]3(C[C@@H]2C(C)C)[C@H](C)CC[C@@H]13
REMARK SMILES IDX 14 1 13 2 15 3 16 4 17 5 7 6 8 7 9 8 4 9 6 10 3 11 2 12 1 13
REMARK SMILES IDX 10 14 11 15 12 16 5 17
REMARK H PARENT 5 18
REMARK Flexibility Score: inf
ROOT
ATOM      1  C   UNL     1     -12.982 -11.737  21.743  1.00  0.00     0.011 C 
ATOM      2  C   UNL     1     -12.746 -10.630  20.702  1.00  0.00     0.019 C 
ATOM      3  C   UNL     1     -14.073 -10.172  20.039  1.00  0.00     0.007 C 
ATOM      4  C   UNL     1     -14.077 -10.701  18.592  1.00  0.00     0.011 C 
ATOM      5  C   UNL     1     -12.925 -11.692  18.560  1.00  0.00     0.047 C 
ATOM      6  C   UNL     1     -11.886 -11.097  19.514  1.00  0.00     0.081 C 
ATOM      7  C   UNL     1     -11.084  -9.917  18.899  1.00  0.00     0.046 C 
ATOM      8  C   UNL     1      -9.797 -10.587  18.436  1.00  0.00     0.054 C 
ATOM      9  C   UNL     1     -10.111 -12.086  18.623  1.00  0.00     0.173 C 
ATOM     10  O   UNL     1     -10.940 -12.113  19.780  1.00  0.00    -0.342 OA
ATOM     11  C   UNL     1     -10.888 -12.731  17.428  1.00  0.00     0.096 C 
ATOM     12  C   UNL     1     -12.252 -12.079  17.266  1.00  0.00    -0.066 C 
ATOM     13  C   UNL     1     -12.895 -12.084  16.091  1.00  0.00     0.008 C 
ENDROOT
BRANCH   8  14
ATOM     14  C   UNL     1      -9.162 -10.038  17.113  1.00  0.00    -0.009 C 
ATOM     15  C   UNL     1      -7.757  -9.402  17.194  1.00  0.00     0.008 C 
ATOM     16  C   UNL     1     -10.126  -9.093  16.382  1.00  0.00     0.008 C 
ENDBRANCH   8  14
BRANCH   9  17
ATOM     17  O   UNL     1      -8.924 -12.796  18.868  1.00  0.00    -0.365 OA
ATOM     18  H   UNL     1      -8.699 -13.284  18.034  1.00  0.00     0.214 HD
ENDBRANCH   9  17
TORSDOF 2
ENDMDL
MODEL 9
REMARK VINA RESULT:    -4.845      2.165      4.052
REMARK INTER + INTRA:          -5.597
REMARK INTER:                  -5.258
REMARK INTRA:                  -0.340
REMARK UNBOUND:                -0.328
REMARK SMILES C=C1C[C@]2(O)O[C@]3(C[C@@H]2C(C)C)[C@H](C)CC[C@@H]13
REMARK SMILES IDX 14 1 13 2 15 3 16 4 17 5 7 6 8 7 9 8 4 9 6 10 3 11 2 12 1 13
REMARK SMILES IDX 10 14 11 15 12 16 5 17
REMARK H PARENT 5 18
REMARK Flexibility Score: inf
ROOT
ATOM      1  C   UNL     1      -1.826 -10.147  13.421  1.00  0.00     0.011 C 
ATOM      2  C   UNL     1      -3.315 -10.080  13.801  1.00  0.00     0.019 C 
ATOM      3  C   UNL     1      -4.056  -8.956  13.027  1.00  0.00     0.007 C 
ATOM      4  C   UNL     1      -4.367  -7.828  14.031  1.00  0.00     0.011 C 
ATOM      5  C   UNL     1      -3.540  -8.186  15.254  1.00  0.00     0.047 C 
ATOM      6  C   UNL     1      -3.541  -9.718  15.280  1.00  0.00     0.081 C 
ATOM      7  C   UNL     1      -4.868 -10.326  15.814  1.00  0.00     0.046 C 
ATOM      8  C   UNL     1      -4.539 -10.627  17.270  1.00  0.00     0.054 C 
ATOM      9  C   UNL     1      -3.167  -9.947  17.454  1.00  0.00     0.173 C 
ATOM     10  O   UNL     1      -2.537 -10.117  16.189  1.00  0.00    -0.342 OA
ATOM     11  C   UNL     1      -3.248  -8.418  17.778  1.00  0.00     0.096 C 
ATOM     12  C   UNL     1      -3.890  -7.663  16.626  1.00  0.00    -0.066 C 
ATOM     13  C   UNL     1      -4.505  -6.488  16.815  1.00  0.00     0.008 C 
ENDROOT
BRANCH   8  14
ATOM     14  C   UNL     1      -5.701 -10.428  18.302  1.00  0.00    -0.009 C 
ATOM     15  C   UNL     1      -5.881 -11.494  19.405  1.00  0.00     0.008 C 
ATOM     16  C   UNL     1      -7.039 -10.174  17.593  1.00  0.00     0.008 C 
ENDBRANCH   8  14
BRANCH   9  17
ATOM     17  O   UNL     1      -2.432 -10.613  18.448  1.00  0.00    -0.365 OA
ATOM     18  H   UNL     1      -2.623 -10.157  19.308  1.00  0.00     0.214 HD
ENDBRANCH   9  17
TORSDOF 2
ENDMDL
