MODEL 1
REMARK VINA RESULT:    -5.051      0.000      0.000
REMARK INTER + INTRA:          -9.791
REMARK INTER:                  -9.185
REMARK INTRA:                  -0.606
REMARK UNBOUND:                -0.606
REMARK SMILES CCCCCCCCCCCCCCCC(=O)[O-]
REMARK SMILES IDX 9 1 10 2 11 3 12 4 13 5 14 6 15 7 16 8 17 9 18 10 8 11 7 12
REMARK SMILES IDX 6 13 5 14 4 15 3 16 2 17 1 18
REMARK H PARENT
REMARK Flexibility Score: inf
ROOT
ATOM      1  C   UNL     1      -9.349   8.543 -10.842  1.00  0.00     0.000 C 
ENDROOT
BRANCH   1   2
ATOM      2  C   UNL     1      -8.584   8.274  -9.528  1.00  0.00     0.000 C 
BRANCH   2   3
ATOM      3  C   UNL     1      -7.264   7.501  -9.724  1.00  0.00     0.000 C 
BRANCH   3   4
ATOM      4  C   UNL     1      -6.091   8.337 -10.264  1.00  0.00     0.000 C 
BRANCH   4   5
ATOM      5  C   UNL     1      -5.559   7.817 -11.611  1.00  0.00     0.000 C 
BRANCH   5   6
ATOM      6  C   UNL     1      -4.023   7.722 -11.644  1.00  0.00     0.006 C 
BRANCH   6   7
ATOM      7  C   UNL     1      -3.409   7.842 -13.049  1.00  0.00     0.053 C 
BRANCH   7   8
ATOM      8  C   UNL     1      -2.216   8.748 -13.066  1.00  0.00     0.041 C 
ATOM      9  O   UNL     1      -2.005   9.499 -14.054  1.00  0.00    -0.550 OA
ATOM     10  O   UNL     1      -1.320   8.739 -12.004  1.00  0.00    -0.550 OA
ENDBRANCH   7   8
ENDBRANCH   6   7
ENDBRANCH   5   6
ENDBRANCH   4   5
ENDBRANCH   3   4
ENDBRANCH   2   3
ENDBRANCH   1   2
BRANCH   1  11
ATOM     11  C   UNL     1      -9.879   7.250 -11.481  1.00  0.00     0.000 C 
BRANCH  11  12
ATOM     12  C   UNL     1     -11.312   6.954 -11.020  1.00  0.00    -0.000 C 
BRANCH  12  13
ATOM     13  C   UNL     1     -11.349   5.722 -10.101  1.00  0.00    -0.000 C 
BRANCH  13  14
ATOM     14  C   UNL     1     -12.759   5.129  -9.959  1.00  0.00    -0.000 C 
BRANCH  14  15
ATOM     15  C   UNL     1     -12.807   3.630 -10.301  1.00  0.00    -0.000 C 
BRANCH  15  16
ATOM     16  C   UNL     1     -13.120   2.756  -9.077  1.00  0.00    -0.000 C 
BRANCH  16  17
ATOM     17  C   UNL     1     -12.865   1.263  -9.331  1.00  0.00    -0.003 C 
ATOM     18  C   UNL     1     -12.352   0.571  -8.072  1.00  0.00     0.004 C 
ENDBRANCH  16  17
ENDBRANCH  15  16
ENDBRANCH  14  15
ENDBRANCH  13  14
ENDBRANCH  12  13
ENDBRANCH  11  12
ENDBRANCH   1  11
TORSDOF 14
ENDMDL
MODEL 2
REMARK VINA RESULT:    -4.997     13.024     14.657
REMARK INTER + INTRA:          -9.692
REMARK INTER:                  -8.657
REMARK INTRA:                  -1.036
REMARK UNBOUND:                -0.606
REMARK SMILES CCCCCCCCCCCCCCCC(=O)[O-]
REMARK SMILES IDX 9 1 10 2 11 3 12 4 13 5 14 6 15 7 16 8 17 9 18 10 8 11 7 12
REMARK SMILES IDX 6 13 5 14 4 15 3 16 2 17 1 18
REMARK H PARENT
REMARK Flexibility Score: inf
ROOT
ATOM      1  C   UNL     1     -11.660  -0.526 -21.953  1.00  0.00     0.000 C 
ENDROOT
BRANCH   1   2
ATOM      2  C   UNL     1     -12.093  -2.001 -22.096  1.00  0.00     0.000 C 
BRANCH   2   3
ATOM      3  C   UNL     1     -12.860  -2.301 -23.400  1.00  0.00     0.000 C 
BRANCH   3   4
ATOM      4  C   UNL     1     -12.046  -3.030 -24.483  1.00  0.00     0.000 C 
BRANCH   4   5
ATOM      5  C   UNL     1     -12.586  -2.782 -25.902  1.00  0.00     0.000 C 
BRANCH   5   6
ATOM      6  C   UNL     1     -11.742  -1.761 -26.687  1.00  0.00     0.006 C 
BRANCH   6   7
ATOM      7  C   UNL     1     -12.191  -0.300 -26.517  1.00  0.00     0.053 C 
BRANCH   7   8
ATOM      8  C   UNL     1     -11.180   0.515 -25.771  1.00  0.00     0.041 C 
ATOM      9  O   UNL     1     -11.286   1.768 -25.724  1.00  0.00    -0.550 OA
ATOM     10  O   UNL     1     -10.101  -0.108 -25.154  1.00  0.00    -0.550 OA
ENDBRANCH   7   8
ENDBRANCH   6   7
ENDBRANCH   5   6
ENDBRANCH   4   5
ENDBRANCH   3   4
ENDBRANCH   2   3
ENDBRANCH   1   2
BRANCH   1  11
ATOM     11  C   UNL     1     -10.930  -0.260 -20.628  1.00  0.00     0.000 C 
BRANCH  11  12
ATOM     12  C   UNL     1     -11.924   0.064 -19.506  1.00  0.00    -0.000 C 
BRANCH  12  13
ATOM     13  C   UNL     1     -11.187   0.408 -18.202  1.00  0.00    -0.000 C 
BRANCH  13  14
ATOM     14  C   UNL     1      -9.670   0.551 -18.398  1.00  0.00    -0.000 C 
BRANCH  14  15
ATOM     15  C   UNL     1      -8.870   0.087 -17.168  1.00  0.00    -0.000 C 
BRANCH  15  16
ATOM     16  C   UNL     1      -9.733   0.010 -15.899  1.00  0.00    -0.000 C 
BRANCH  16  17
ATOM     17  C   UNL     1      -9.370   1.089 -14.867  1.00  0.00    -0.003 C 
ATOM     18  C   UNL     1      -8.152   1.890 -15.317  1.00  0.00     0.004 C 
ENDBRANCH  16  17
ENDBRANCH  15  16
ENDBRANCH  14  15
ENDBRANCH  13  14
ENDBRANCH  12  13
ENDBRANCH  11  12
ENDBRANCH   1  11
TORSDOF 14
ENDMDL
MODEL 3
REMARK VINA RESULT:    -4.997      4.618      7.209
REMARK INTER + INTRA:          -9.692
REMARK INTER:                  -7.392
REMARK INTRA:                  -2.300
REMARK UNBOUND:                -0.606
REMARK SMILES CCCCCCCCCCCCCCCC(=O)[O-]
REMARK SMILES IDX 9 1 10 2 11 3 12 4 13 5 14 6 15 7 16 8 17 9 18 10 8 11 7 12
REMARK SMILES IDX 6 13 5 14 4 15 3 16 2 17 1 18
REMARK H PARENT
REMARK Flexibility Score: inf
ROOT
ATOM      1  C   UNL     1     -12.717   2.412 -10.136  1.00  0.00     0.000 C 
ENDROOT
BRANCH   1   2
ATOM      2  C   UNL     1     -12.813   2.227 -11.665  1.00  0.00     0.000 C 
BRANCH   2   3
ATOM      3  C   UNL     1     -11.836   3.114 -12.462  1.00  0.00     0.000 C 
BRANCH   3   4
ATOM      4  C   UNL     1     -10.418   2.542 -12.627  1.00  0.00     0.000 C 
BRANCH   4   5
ATOM      5  C   UNL     1      -9.320   3.597 -12.410  1.00  0.00     0.000 C 
BRANCH   5   6
ATOM      6  C   UNL     1      -8.367   3.232 -11.257  1.00  0.00     0.006 C 
BRANCH   6   7
ATOM      7  C   UNL     1      -9.005   2.372 -10.153  1.00  0.00     0.053 C 
BRANCH   7   8
ATOM      8  C   UNL     1      -8.013   1.448  -9.517  1.00  0.00     0.041 C 
ATOM      9  O   UNL     1      -7.911   1.394  -8.263  1.00  0.00    -0.550 OA
ATOM     10  O   UNL     1      -7.177   0.671 -10.309  1.00  0.00    -0.550 OA
ENDBRANCH   7   8
ENDBRANCH   6   7
ENDBRANCH   5   6
ENDBRANCH   4   5
ENDBRANCH   3   4
ENDBRANCH   2   3
ENDBRANCH   1   2
BRANCH   1  11
ATOM     11  C   UNL     1     -13.033   3.851  -9.702  1.00  0.00     0.000 C 
BRANCH  11  12
ATOM     12  C   UNL     1     -11.846   4.478  -8.962  1.00  0.00    -0.000 C 
BRANCH  12  13
ATOM     13  C   UNL     1     -11.154   5.539  -9.833  1.00  0.00    -0.000 C 
BRANCH  13  14
ATOM     14  C   UNL     1     -12.134   6.285 -10.751  1.00  0.00    -0.000 C 
BRANCH  14  15
ATOM     15  C   UNL     1     -11.419   7.079 -11.859  1.00  0.00    -0.000 C 
BRANCH  15  16
ATOM     16  C   UNL     1      -9.891   7.067 -11.698  1.00  0.00    -0.000 C 
BRANCH  16  17
ATOM     17  C   UNL     1      -9.292   8.479 -11.604  1.00  0.00    -0.003 C 
ATOM     18  C   UNL     1      -9.091   8.893 -10.150  1.00  0.00     0.004 C 
ENDBRANCH  16  17
ENDBRANCH  15  16
ENDBRANCH  14  15
ENDBRANCH  13  14
ENDBRANCH  12  13
ENDBRANCH  11  12
ENDBRANCH   1  11
TORSDOF 14
ENDMDL
MODEL 4
REMARK VINA RESULT:    -4.927     14.743     18.826
REMARK INTER + INTRA:          -9.565
REMARK INTER:                  -8.665
REMARK INTRA:                  -0.900
REMARK UNBOUND:                -0.606
REMARK SMILES CCCCCCCCCCCCCCCC(=O)[O-]
REMARK SMILES IDX 9 1 10 2 11 3 12 4 13 5 14 6 15 7 16 8 17 9 18 10 8 11 7 12
REMARK SMILES IDX 6 13 5 14 4 15 3 16 2 17 1 18
REMARK H PARENT
REMARK Flexibility Score: inf
ROOT
ATOM      1  C   UNL     1       7.107   5.620 -22.509  1.00  0.00     0.000 C 
ENDROOT
BRANCH   1   2
ATOM      2  C   UNL     1       6.222   6.713 -23.145  1.00  0.00     0.000 C 
BRANCH   2   3
ATOM      3  C   UNL     1       6.917   7.496 -24.277  1.00  0.00     0.000 C 
BRANCH   3   4
ATOM      4  C   UNL     1       5.989   7.972 -25.408  1.00  0.00     0.000 C 
BRANCH   4   5
ATOM      5  C   UNL     1       6.497   7.571 -26.804  1.00  0.00     0.000 C 
BRANCH   5   6
ATOM      6  C   UNL     1       5.732   6.371 -27.390  1.00  0.00     0.006 C 
BRANCH   6   7
ATOM      7  C   UNL     1       6.332   5.000 -27.035  1.00  0.00     0.053 C 
BRANCH   7   8
ATOM      8  C   UNL     1       5.381   3.879 -27.321  1.00  0.00     0.041 C 
ATOM      9  O   UNL     1       4.230   3.879 -26.812  1.00  0.00    -0.550 OA
ATOM     10  O   UNL     1       5.778   2.817 -28.124  1.00  0.00    -0.550 OA
ENDBRANCH   7   8
ENDBRANCH   6   7
ENDBRANCH   5   6
ENDBRANCH   4   5
ENDBRANCH   3   4
ENDBRANCH   2   3
ENDBRANCH   1   2
BRANCH   1  11
ATOM     11  C   UNL     1       6.396   4.894 -21.356  1.00  0.00     0.000 C 
BRANCH  11  12
ATOM     12  C   UNL     1       5.373   5.811 -20.674  1.00  0.00    -0.000 C 
BRANCH  12  13
ATOM     13  C   UNL     1       5.294   5.518 -19.167  1.00  0.00    -0.000 C 
BRANCH  13  14
ATOM     14  C   UNL     1       3.853   5.309 -18.677  1.00  0.00    -0.000 C 
BRANCH  14  15
ATOM     15  C   UNL     1       2.821   5.422 -19.814  1.00  0.00    -0.000 C 
BRANCH  15  16
ATOM     16  C   UNL     1       1.656   6.359 -19.460  1.00  0.00    -0.000 C 
BRANCH  16  17
ATOM     17  C   UNL     1       1.126   7.134 -20.676  1.00  0.00    -0.003 C 
ATOM     18  C   UNL     1       0.906   6.205 -21.866  1.00  0.00     0.004 C 
ENDBRANCH  16  17
ENDBRANCH  15  16
ENDBRANCH  14  15
ENDBRANCH  13  14
ENDBRANCH  12  13
ENDBRANCH  11  12
ENDBRANCH   1  11
TORSDOF 14
ENDMDL
MODEL 5
REMARK VINA RESULT:    -4.924     14.036     15.185
REMARK INTER + INTRA:          -9.559
REMARK INTER:                  -7.656
REMARK INTRA:                  -1.904
REMARK UNBOUND:                -0.606
REMARK SMILES CCCCCCCCCCCCCCCC(=O)[O-]
REMARK SMILES IDX 9 1 10 2 11 3 12 4 13 5 14 6 15 7 16 8 17 9 18 10 8 11 7 12
REMARK SMILES IDX 6 13 5 14 4 15 3 16 2 17 1 18
REMARK H PARENT
REMARK Flexibility Score: inf
ROOT
ATOM      1  C   UNL     1     -11.964  -1.958 -26.680  1.00  0.00     0.000 C 
ENDROOT
BRANCH   1   2
ATOM      2  C   UNL     1     -12.193  -0.457 -26.402  1.00  0.00     0.000 C 
BRANCH   2   3
ATOM      3  C   UNL     1     -10.949   0.270 -25.853  1.00  0.00     0.000 C 
BRANCH   3   4
ATOM      4  C   UNL     1     -11.064   0.751 -24.396  1.00  0.00     0.000 C 
BRANCH   4   5
ATOM      5  C   UNL     1      -9.743   0.619 -23.619  1.00  0.00     0.000 C 
BRANCH   5   6
ATOM      6  C   UNL     1      -9.175  -0.812 -23.654  1.00  0.00     0.006 C 
BRANCH   6   7
ATOM      7  C   UNL     1      -7.640  -0.887 -23.630  1.00  0.00     0.053 C 
BRANCH   7   8
ATOM      8  C   UNL     1      -7.114  -1.204 -22.264  1.00  0.00     0.041 C 
ATOM      9  O   UNL     1      -6.257  -2.113 -22.110  1.00  0.00    -0.550 OA
ATOM     10  O   UNL     1      -7.596  -0.518 -21.156  1.00  0.00    -0.550 OA
ENDBRANCH   7   8
ENDBRANCH   6   7
ENDBRANCH   5   6
ENDBRANCH   4   5
ENDBRANCH   3   4
ENDBRANCH   2   3
ENDBRANCH   1   2
BRANCH   1  11
ATOM     11  C   UNL     1     -12.782  -2.855 -25.738  1.00  0.00     0.000 C 
BRANCH  11  12
ATOM     12  C   UNL     1     -12.101  -2.983 -24.370  1.00  0.00    -0.000 C 
BRANCH  12  13
ATOM     13  C   UNL     1     -12.918  -2.268 -23.282  1.00  0.00    -0.000 C 
BRANCH  13  14
ATOM     14  C   UNL     1     -12.125  -2.064 -21.982  1.00  0.00    -0.000 C 
BRANCH  14  15
ATOM     15  C   UNL     1     -12.431  -0.715 -21.308  1.00  0.00    -0.000 C 
BRANCH  15  16
ATOM     16  C   UNL     1     -11.327  -0.278 -20.334  1.00  0.00    -0.000 C 
BRANCH  16  17
ATOM     17  C   UNL     1     -11.881   0.403 -19.073  1.00  0.00    -0.003 C 
ATOM     18  C   UNL     1     -10.903   0.283 -17.909  1.00  0.00     0.004 C 
ENDBRANCH  16  17
ENDBRANCH  15  16
ENDBRANCH  14  15
ENDBRANCH  13  14
ENDBRANCH  12  13
ENDBRANCH  11  12
ENDBRANCH   1  11
TORSDOF 14
ENDMDL
MODEL 6
REMARK VINA RESULT:    -4.918      5.243      7.823
REMARK INTER + INTRA:          -9.549
REMARK INTER:                  -7.459
REMARK INTRA:                  -2.090
REMARK UNBOUND:                -0.606
REMARK SMILES CCCCCCCCCCCCCCCC(=O)[O-]
REMARK SMILES IDX 9 1 10 2 11 3 12 4 13 5 14 6 15 7 16 8 17 9 18 10 8 11 7 12
REMARK SMILES IDX 6 13 5 14 4 15 3 16 2 17 1 18
REMARK H PARENT
REMARK Flexibility Score: inf
ROOT
ATOM      1  C   UNL     1     -10.088   7.293 -11.888  1.00  0.00     0.000 C 
ENDROOT
BRANCH   1   2
ATOM      2  C   UNL     1     -10.925   6.921 -10.645  1.00  0.00     0.000 C 
BRANCH   2   3
ATOM      3  C   UNL     1     -11.943   5.792 -10.896  1.00  0.00     0.000 C 
BRANCH   3   4
ATOM      4  C   UNL     1     -12.178   5.439 -12.375  1.00  0.00     0.000 C 
BRANCH   4   5
ATOM      5  C   UNL     1     -11.619   4.056 -12.754  1.00  0.00     0.000 C 
BRANCH   5   6
ATOM      6  C   UNL     1     -11.540   3.099 -11.552  1.00  0.00     0.006 C 
BRANCH   6   7
ATOM      7  C   UNL     1     -12.819   2.282 -11.305  1.00  0.00     0.053 C 
BRANCH   7   8
ATOM      8  C   UNL     1     -12.991   1.930  -9.859  1.00  0.00     0.041 C 
ATOM      9  O   UNL     1     -13.125   2.838  -8.998  1.00  0.00    -0.550 OA
ATOM     10  O   UNL     1     -12.969   0.599  -9.459  1.00  0.00    -0.550 OA
ENDBRANCH   7   8
ENDBRANCH   6   7
ENDBRANCH   5   6
ENDBRANCH   4   5
ENDBRANCH   3   4
ENDBRANCH   2   3
ENDBRANCH   1   2
BRANCH   1  11
ATOM     11  C   UNL     1      -9.171   8.499 -11.633  1.00  0.00     0.000 C 
BRANCH  11  12
ATOM     12  C   UNL     1      -9.011   8.762 -10.130  1.00  0.00    -0.000 C 
BRANCH  12  13
ATOM     13  C   UNL     1      -7.692   8.170  -9.608  1.00  0.00    -0.000 C 
BRANCH  13  14
ATOM     14  C   UNL     1      -7.846   7.496  -8.236  1.00  0.00    -0.000 C 
BRANCH  14  15
ATOM     15  C   UNL     1      -7.524   5.991  -8.277  1.00  0.00    -0.000 C 
BRANCH  15  16
ATOM     16  C   UNL     1      -8.743   5.118  -7.943  1.00  0.00    -0.000 C 
BRANCH  16  17
ATOM     17  C   UNL     1      -9.123   4.165  -9.087  1.00  0.00    -0.003 C 
ATOM     18  C   UNL     1      -8.232   4.387 -10.305  1.00  0.00     0.004 C 
ENDBRANCH  16  17
ENDBRANCH  15  16
ENDBRANCH  14  15
ENDBRANCH  13  14
ENDBRANCH  12  13
ENDBRANCH  11  12
ENDBRANCH   1  11
TORSDOF 14
ENDMDL
MODEL 7
REMARK VINA RESULT:    -4.891     14.279     16.061
REMARK INTER + INTRA:          -9.501
REMARK INTER:                  -7.562
REMARK INTRA:                  -1.939
REMARK UNBOUND:                -0.606
REMARK SMILES CCCCCCCCCCCCCCCC(=O)[O-]
REMARK SMILES IDX 9 1 10 2 11 3 12 4 13 5 14 6 15 7 16 8 17 9 18 10 8 11 7 12
REMARK SMILES IDX 6 13 5 14 4 15 3 16 2 17 1 18
REMARK H PARENT
REMARK Flexibility Score: inf
ROOT
ATOM      1  C   UNL     1     -12.452  -2.778 -26.314  1.00  0.00     0.000 C 
ENDROOT
BRANCH   1   2
ATOM      2  C   UNL     1     -12.100  -3.171 -24.863  1.00  0.00     0.000 C 
BRANCH   2   3
ATOM      3  C   UNL     1     -13.114  -2.666 -23.818  1.00  0.00     0.000 C 
BRANCH   3   4
ATOM      4  C   UNL     1     -12.499  -2.150 -22.506  1.00  0.00     0.000 C 
BRANCH   4   5
ATOM      5  C   UNL     1     -12.906  -0.701 -22.186  1.00  0.00     0.000 C 
BRANCH   5   6
ATOM      6  C   UNL     1     -11.762   0.110 -21.552  1.00  0.00     0.006 C 
BRANCH   6   7
ATOM      7  C   UNL     1     -11.242  -0.456 -20.220  1.00  0.00     0.053 C 
BRANCH   7   8
ATOM      8  C   UNL     1     -11.639   0.396 -19.054  1.00  0.00     0.041 C 
ATOM      9  O   UNL     1     -10.901   0.461 -18.037  1.00  0.00    -0.550 OA
ATOM     10  O   UNL     1     -12.841   1.093 -19.078  1.00  0.00    -0.550 OA
ENDBRANCH   7   8
ENDBRANCH   6   7
ENDBRANCH   5   6
ENDBRANCH   4   5
ENDBRANCH   3   4
ENDBRANCH   2   3
ENDBRANCH   1   2
BRANCH   1  11
ATOM     11  C   UNL     1     -11.624  -1.583 -26.811  1.00  0.00     0.000 C 
BRANCH  11  12
ATOM     12  C   UNL     1     -12.173  -0.263 -26.257  1.00  0.00    -0.000 C 
BRANCH  12  13
ATOM     13  C   UNL     1     -11.154   0.406 -25.321  1.00  0.00    -0.000 C 
BRANCH  13  14
ATOM     14  C   UNL     1      -9.790  -0.302 -25.326  1.00  0.00    -0.000 C 
BRANCH  14  15
ATOM     15  C   UNL     1      -9.364  -0.773 -23.924  1.00  0.00    -0.000 C 
BRANCH  15  16
ATOM     16  C   UNL     1      -7.990  -0.224 -23.510  1.00  0.00    -0.000 C 
BRANCH  16  17
ATOM     17  C   UNL     1      -7.249  -1.152 -22.535  1.00  0.00    -0.003 C 
ATOM     18  C   UNL     1      -7.541  -0.772 -21.087  1.00  0.00     0.004 C 
ENDBRANCH  16  17
ENDBRANCH  15  16
ENDBRANCH  14  15
ENDBRANCH  13  14
ENDBRANCH  12  13
ENDBRANCH  11  12
ENDBRANCH   1  11
TORSDOF 14
ENDMDL
MODEL 8
REMARK VINA RESULT:    -4.843     13.740     15.301
REMARK INTER + INTRA:          -9.413
REMARK INTER:                  -8.096
REMARK INTRA:                  -1.318
REMARK UNBOUND:                -0.606
REMARK SMILES CCCCCCCCCCCCCCCC(=O)[O-]
REMARK SMILES IDX 9 1 10 2 11 3 12 4 13 5 14 6 15 7 16 8 17 9 18 10 8 11 7 12
REMARK SMILES IDX 6 13 5 14 4 15 3 16 2 17 1 18
REMARK H PARENT
REMARK Flexibility Score: inf
ROOT
ATOM      1  C   UNL     1     -12.386  -2.259 -22.504  1.00  0.00     0.000 C 
ENDROOT
BRANCH   1   2
ATOM      2  C   UNL     1     -12.029  -2.935 -23.845  1.00  0.00     0.000 C 
BRANCH   2   3
ATOM      3  C   UNL     1     -13.012  -2.609 -24.987  1.00  0.00     0.000 C 
BRANCH   3   4
ATOM      4  C   UNL     1     -12.439  -2.763 -26.407  1.00  0.00     0.000 C 
BRANCH   4   5
ATOM      5  C   UNL     1     -11.706  -1.501 -26.894  1.00  0.00     0.000 C 
BRANCH   5   6
ATOM      6  C   UNL     1     -12.383  -0.202 -26.421  1.00  0.00     0.006 C 
BRANCH   6   7
ATOM      7  C   UNL     1     -11.446   0.774 -25.690  1.00  0.00     0.053 C 
BRANCH   7   8
ATOM      8  C   UNL     1     -10.065   0.215 -25.533  1.00  0.00     0.041 C 
ATOM      9  O   UNL     1      -9.757  -0.430 -24.497  1.00  0.00    -0.550 OA
ATOM     10  O   UNL     1      -9.109   0.436 -26.516  1.00  0.00    -0.550 OA
ENDBRANCH   7   8
ENDBRANCH   6   7
ENDBRANCH   5   6
ENDBRANCH   4   5
ENDBRANCH   3   4
ENDBRANCH   2   3
ENDBRANCH   1   2
BRANCH   1  11
ATOM     11  C   UNL     1     -12.891  -0.821 -22.693  1.00  0.00     0.000 C 
BRANCH  11  12
ATOM     12  C   UNL     1     -12.368   0.098 -21.582  1.00  0.00    -0.000 C 
BRANCH  12  13
ATOM     13  C   UNL     1     -11.618  -0.708 -20.511  1.00  0.00    -0.000 C 
BRANCH  13  14
ATOM     14  C   UNL     1     -11.677  -0.050 -19.123  1.00  0.00    -0.000 C 
BRANCH  14  15
ATOM     15  C   UNL     1     -11.065   1.362 -19.112  1.00  0.00    -0.000 C 
BRANCH  15  16
ATOM     16  C   UNL     1     -10.133   1.591 -17.913  1.00  0.00    -0.000 C 
BRANCH  16  17
ATOM     17  C   UNL     1      -9.634   0.278 -17.289  1.00  0.00    -0.003 C 
ATOM     18  C   UNL     1      -9.871   0.262 -15.783  1.00  0.00     0.004 C 
ENDBRANCH  16  17
ENDBRANCH  15  16
ENDBRANCH  14  15
ENDBRANCH  13  14
ENDBRANCH  12  13
ENDBRANCH  11  12
ENDBRANCH   1  11
TORSDOF 14
ENDMDL
MODEL 9
REMARK VINA RESULT:    -4.831     14.286     15.300
REMARK INTER + INTRA:          -9.390
REMARK INTER:                  -7.314
REMARK INTRA:                  -2.076
REMARK UNBOUND:                -0.606
REMARK SMILES CCCCCCCCCCCCCCCC(=O)[O-]
REMARK SMILES IDX 9 1 10 2 11 3 12 4 13 5 14 6 15 7 16 8 17 9 18 10 8 11 7 12
REMARK SMILES IDX 6 13 5 14 4 15 3 16 2 17 1 18
REMARK H PARENT
REMARK Flexibility Score: inf
ROOT
ATOM      1  C   UNL     1     -12.383  -0.123 -26.562  1.00  0.00     0.000 C 
ENDROOT
BRANCH   1   2
ATOM      2  C   UNL     1     -11.957   0.761 -25.371  1.00  0.00     0.000 C 
BRANCH   2   3
ATOM      3  C   UNL     1     -10.431   0.918 -25.226  1.00  0.00     0.000 C 
BRANCH   3   4
ATOM      4  C   UNL     1      -9.865   0.559 -23.841  1.00  0.00     0.000 C 
BRANCH   4   5
ATOM      5  C   UNL     1      -9.150  -0.803 -23.824  1.00  0.00     0.000 C 
BRANCH   5   6
ATOM      6  C   UNL     1      -7.680  -0.695 -23.383  1.00  0.00     0.006 C 
BRANCH   6   7
ATOM      7  C   UNL     1      -7.412  -1.161 -21.942  1.00  0.00     0.053 C 
BRANCH   7   8
ATOM      8  C   UNL     1      -7.584  -0.052 -20.951  1.00  0.00     0.041 C 
ATOM      9  O   UNL     1      -8.202  -0.255 -19.873  1.00  0.00    -0.550 OA
ATOM     10  O   UNL     1      -7.093   1.217 -21.234  1.00  0.00    -0.550 OA
ENDBRANCH   7   8
ENDBRANCH   6   7
ENDBRANCH   5   6
ENDBRANCH   4   5
ENDBRANCH   3   4
ENDBRANCH   2   3
ENDBRANCH   1   2
BRANCH   1  11
ATOM     11  C   UNL     1     -11.519  -1.388 -26.686  1.00  0.00     0.000 C 
BRANCH  11  12
ATOM     12  C   UNL     1     -12.372  -2.655 -26.546  1.00  0.00    -0.000 C 
BRANCH  12  13
ATOM     13  C   UNL     1     -13.102  -2.678 -25.194  1.00  0.00    -0.000 C 
BRANCH  13  14
ATOM     14  C   UNL     1     -12.138  -2.719 -23.998  1.00  0.00    -0.000 C 
BRANCH  14  15
ATOM     15  C   UNL     1     -12.855  -2.506 -22.653  1.00  0.00    -0.000 C 
BRANCH  15  16
ATOM     16  C   UNL     1     -12.627  -1.099 -22.080  1.00  0.00    -0.000 C 
BRANCH  16  17
ATOM     17  C   UNL     1     -11.579  -1.077 -20.957  1.00  0.00    -0.003 C 
ATOM     18  C   UNL     1     -11.740   0.160 -20.080  1.00  0.00     0.004 C 
ENDBRANCH  16  17
ENDBRANCH  15  16
ENDBRANCH  14  15
ENDBRANCH  13  14
ENDBRANCH  12  13
ENDBRANCH  11  12
ENDBRANCH   1  11
TORSDOF 14
ENDMDL
