MODEL 1
REMARK VINA RESULT:    -2.971      0.000      0.000
REMARK INTER + INTRA:          -4.013
REMARK INTER:                  -3.926
REMARK INTRA:                  -0.087
REMARK UNBOUND:                -0.087
REMARK SMILES CCCCCCCO
REMARK SMILES IDX 5 1 4 2 3 3 2 4 1 5 6 6 7 7 8 8
REMARK H PARENT 8 9
REMARK Flexibility Score: inf
ROOT
ATOM      1  C   UNL     1      -2.140   5.978  -1.129  1.00  0.00     0.002 C 
ENDROOT
BRANCH   1   2
ATOM      2  C   UNL     1      -1.312   6.792  -0.123  1.00  0.00     0.000 C 
BRANCH   2   3
ATOM      3  C   UNL     1      -2.160   7.818   0.649  1.00  0.00    -0.000 C 
BRANCH   3   4
ATOM      4  C   UNL     1      -1.777   7.901   2.134  1.00  0.00    -0.003 C 
ATOM      5  C   UNL     1      -0.290   8.189   2.344  1.00  0.00     0.004 C 
ENDBRANCH   3   4
ENDBRANCH   2   3
ENDBRANCH   1   2
BRANCH   1   6
ATOM      6  C   UNL     1      -1.720   4.501  -1.180  1.00  0.00     0.028 C 
BRANCH   6   7
ATOM      7  C   UNL     1      -1.707   3.982  -2.617  1.00  0.00     0.156 C 
BRANCH   7   8
ATOM      8  O   UNL     1      -1.834   2.588  -2.611  1.00  0.00    -0.396 OA
ATOM      9  H   UNL     1      -1.714   2.296  -3.553  1.00  0.00     0.210 HD
ENDBRANCH   7   8
ENDBRANCH   6   7
ENDBRANCH   1   6
TORSDOF 6
ENDMDL
MODEL 2
REMARK VINA RESULT:    -2.804      8.395      8.952
REMARK INTER + INTRA:          -3.793
REMARK INTER:                  -3.624
REMARK INTRA:                  -0.169
REMARK UNBOUND:                -0.087
REMARK SMILES CCCCCCCO
REMARK SMILES IDX 5 1 4 2 3 3 2 4 1 5 6 6 7 7 8 8
REMARK H PARENT 8 9
REMARK Flexibility Score: inf
ROOT
ATOM      1  C   UNL     1       5.803   2.676  -2.030  1.00  0.00     0.002 C 
ENDROOT
BRANCH   1   2
ATOM      2  C   UNL     1       5.226   2.929  -0.629  1.00  0.00     0.000 C 
BRANCH   2   3
ATOM      3  C   UNL     1       6.309   3.304   0.398  1.00  0.00    -0.000 C 
BRANCH   3   4
ATOM      4  C   UNL     1       7.363   2.199   0.570  1.00  0.00    -0.003 C 
ATOM      5  C   UNL     1       7.684   1.914   2.038  1.00  0.00     0.004 C 
ENDBRANCH   3   4
ENDBRANCH   2   3
ENDBRANCH   1   2
BRANCH   1   6
ATOM      6  C   UNL     1       6.432   3.935  -2.646  1.00  0.00     0.028 C 
BRANCH   6   7
ATOM      7  C   UNL     1       5.366   4.983  -2.964  1.00  0.00     0.156 C 
BRANCH   7   8
ATOM      8  O   UNL     1       5.982   6.214  -3.217  1.00  0.00    -0.396 OA
ATOM      9  H   UNL     1       6.295   6.551  -2.336  1.00  0.00     0.210 HD
ENDBRANCH   7   8
ENDBRANCH   6   7
ENDBRANCH   1   6
TORSDOF 6
ENDMDL
MODEL 3
REMARK VINA RESULT:    -2.793      2.937      5.102
REMARK INTER + INTRA:          -3.778
REMARK INTER:                  -3.662
REMARK INTRA:                  -0.117
REMARK UNBOUND:                -0.087
REMARK SMILES CCCCCCCO
REMARK SMILES IDX 5 1 4 2 3 3 2 4 1 5 6 6 7 7 8 8
REMARK H PARENT 8 9
REMARK Flexibility Score: inf
ROOT
ATOM      1  C   UNL     1      -1.529   8.116   0.552  1.00  0.00     0.002 C 
ENDROOT
BRANCH   1   2
ATOM      2  C   UNL     1      -1.365   6.718  -0.064  1.00  0.00     0.000 C 
BRANCH   2   3
ATOM      3  C   UNL     1      -1.890   6.642  -1.508  1.00  0.00    -0.000 C 
BRANCH   3   4
ATOM      4  C   UNL     1      -2.290   5.215  -1.915  1.00  0.00    -0.003 C 
ATOM      5  C   UNL     1      -1.434   4.147  -1.233  1.00  0.00     0.004 C 
ENDBRANCH   3   4
ENDBRANCH   2   3
ENDBRANCH   1   2
BRANCH   1   6
ATOM      6  C   UNL     1      -0.183   8.808   0.813  1.00  0.00     0.028 C 
BRANCH   6   7
ATOM      7  C   UNL     1       0.030   9.050   2.307  1.00  0.00     0.156 C 
BRANCH   7   8
ATOM      8  O   UNL     1       0.000   7.827   2.987  1.00  0.00    -0.396 OA
ATOM      9  H   UNL     1      -0.841   7.377   2.709  1.00  0.00     0.210 HD
ENDBRANCH   7   8
ENDBRANCH   6   7
ENDBRANCH   1   6
TORSDOF 6
ENDMDL
MODEL 4
REMARK VINA RESULT:    -2.766      8.275      9.170
REMARK INTER + INTRA:          -3.743
REMARK INTER:                  -3.570
REMARK INTRA:                  -0.173
REMARK UNBOUND:                -0.087
REMARK SMILES CCCCCCCO
REMARK SMILES IDX 5 1 4 2 3 3 2 4 1 5 6 6 7 7 8 8
REMARK H PARENT 8 9
REMARK Flexibility Score: inf
ROOT
ATOM      1  C   UNL     1       5.285   2.673  -0.314  1.00  0.00     0.002 C 
ENDROOT
BRANCH   1   2
ATOM      2  C   UNL     1       5.711   2.344  -1.753  1.00  0.00     0.000 C 
BRANCH   2   3
ATOM      3  C   UNL     1       6.178   3.587  -2.530  1.00  0.00    -0.000 C 
BRANCH   3   4
ATOM      4  C   UNL     1       5.011   4.350  -3.177  1.00  0.00    -0.003 C 
ATOM      5  C   UNL     1       5.319   5.833  -3.384  1.00  0.00     0.004 C 
ENDBRANCH   3   4
ENDBRANCH   2   3
ENDBRANCH   1   2
BRANCH   1   6
ATOM      6  C   UNL     1       6.414   3.323   0.501  1.00  0.00     0.028 C 
BRANCH   6   7
ATOM      7  C   UNL     1       7.250   2.267   1.222  1.00  0.00     0.156 C 
BRANCH   7   8
ATOM      8  O   UNL     1       7.376   2.613   2.573  1.00  0.00    -0.396 OA
ATOM      9  H   UNL     1       7.044   1.832   3.089  1.00  0.00     0.210 HD
ENDBRANCH   7   8
ENDBRANCH   6   7
ENDBRANCH   1   6
TORSDOF 6
ENDMDL
MODEL 5
REMARK VINA RESULT:    -2.648      9.064      9.544
REMARK INTER + INTRA:          -3.586
REMARK INTER:                  -3.308
REMARK INTRA:                  -0.278
REMARK UNBOUND:                -0.087
REMARK SMILES CCCCCCCO
REMARK SMILES IDX 5 1 4 2 3 3 2 4 1 5 6 6 7 7 8 8
REMARK H PARENT 8 9
REMARK Flexibility Score: inf
ROOT
ATOM      1  C   UNL     1       5.326   2.448  -0.392  1.00  0.00     0.002 C 
ENDROOT
BRANCH   1   2
ATOM      2  C   UNL     1       6.370   3.249   0.400  1.00  0.00     0.000 C 
BRANCH   2   3
ATOM      3  C   UNL     1       7.636   2.430   0.707  1.00  0.00    -0.000 C 
BRANCH   3   4
ATOM      4  C   UNL     1       7.650   1.884   2.144  1.00  0.00    -0.003 C 
ATOM      5  C   UNL     1       8.648   0.741   2.331  1.00  0.00     0.004 C 
ENDBRANCH   3   4
ENDBRANCH   2   3
ENDBRANCH   1   2
BRANCH   1   6
ATOM      6  C   UNL     1       5.964   1.499  -1.418  1.00  0.00     0.028 C 
BRANCH   6   7
ATOM      7  C   UNL     1       5.515   0.057  -1.187  1.00  0.00     0.156 C 
BRANCH   7   8
ATOM      8  O   UNL     1       5.231  -0.132   0.171  1.00  0.00    -0.396 OA
ATOM      9  H   UNL     1       5.642  -1.001   0.420  1.00  0.00     0.210 HD
ENDBRANCH   7   8
ENDBRANCH   6   7
ENDBRANCH   1   6
TORSDOF 6
ENDMDL
MODEL 6
REMARK VINA RESULT:    -2.636      9.085      9.959
REMARK INTER + INTRA:          -3.571
REMARK INTER:                  -3.168
REMARK INTRA:                  -0.404
REMARK UNBOUND:                -0.087
REMARK SMILES CCCCCCCO
REMARK SMILES IDX 5 1 4 2 3 3 2 4 1 5 6 6 7 7 8 8
REMARK H PARENT 8 9
REMARK Flexibility Score: inf
ROOT
ATOM      1  C   UNL     1       7.171   2.374   1.283  1.00  0.00     0.002 C 
ENDROOT
BRANCH   1   2
ATOM      2  C   UNL     1       6.411   3.414   0.445  1.00  0.00     0.000 C 
BRANCH   2   3
ATOM      3  C   UNL     1       5.308   2.783  -0.422  1.00  0.00    -0.000 C 
BRANCH   3   4
ATOM      4  C   UNL     1       5.651   2.806  -1.920  1.00  0.00    -0.003 C 
ATOM      5  C   UNL     1       5.943   1.414  -2.479  1.00  0.00     0.004 C 
ENDBRANCH   3   4
ENDBRANCH   2   3
ENDBRANCH   1   2
BRANCH   1   6
ATOM      6  C   UNL     1       8.371   1.776   0.533  1.00  0.00     0.028 C 
BRANCH   6   7
ATOM      7  C   UNL     1       8.189   0.275   0.312  1.00  0.00     0.156 C 
BRANCH   7   8
ATOM      8  O   UNL     1       6.947  -0.125   0.820  1.00  0.00    -0.396 OA
ATOM      9  H   UNL     1       6.292   0.015   0.086  1.00  0.00     0.210 HD
ENDBRANCH   7   8
ENDBRANCH   6   7
ENDBRANCH   1   6
TORSDOF 6
ENDMDL
MODEL 7
REMARK VINA RESULT:    -2.634      9.189      9.891
REMARK INTER + INTRA:          -3.569
REMARK INTER:                  -3.171
REMARK INTRA:                  -0.398
REMARK UNBOUND:                -0.087
REMARK SMILES CCCCCCCO
REMARK SMILES IDX 5 1 4 2 3 3 2 4 1 5 6 6 7 7 8 8
REMARK H PARENT 8 9
REMARK Flexibility Score: inf
ROOT
ATOM      1  C   UNL     1       6.336   3.386   0.379  1.00  0.00     0.002 C 
ENDROOT
BRANCH   1   2
ATOM      2  C   UNL     1       7.215   2.357   1.106  1.00  0.00     0.000 C 
BRANCH   2   3
ATOM      3  C   UNL     1       8.314   1.773   0.200  1.00  0.00    -0.000 C 
BRANCH   3   4
ATOM      4  C   UNL     1       8.974   2.840  -0.687  1.00  0.00    -0.003 C 
ATOM      5  C   UNL     1       9.063   2.417  -2.153  1.00  0.00     0.004 C 
ENDBRANCH   3   4
ENDBRANCH   2   3
ENDBRANCH   1   2
BRANCH   1   6
ATOM      6  C   UNL     1       5.314   2.729  -0.561  1.00  0.00     0.028 C 
BRANCH   6   7
ATOM      7  C   UNL     1       5.413   3.308  -1.972  1.00  0.00     0.156 C 
BRANCH   7   8
ATOM      8  O   UNL     1       6.066   4.546  -1.923  1.00  0.00    -0.396 OA
ATOM      9  H   UNL     1       6.867   4.412  -1.351  1.00  0.00     0.210 HD
ENDBRANCH   7   8
ENDBRANCH   6   7
ENDBRANCH   1   6
TORSDOF 6
ENDMDL
MODEL 8
REMARK VINA RESULT:    -2.620     10.979     12.412
REMARK INTER + INTRA:          -3.550
REMARK INTER:                  -3.425
REMARK INTRA:                  -0.125
REMARK UNBOUND:                -0.087
REMARK SMILES CCCCCCCO
REMARK SMILES IDX 5 1 4 2 3 3 2 4 1 5 6 6 7 7 8 8
REMARK H PARENT 8 9
REMARK Flexibility Score: inf
ROOT
ATOM      1  C   UNL     1      -2.132  -5.190  -5.638  1.00  0.00     0.002 C 
ENDROOT
BRANCH   1   2
ATOM      2  C   UNL     1      -1.745  -3.746  -5.283  1.00  0.00     0.000 C 
BRANCH   2   3
ATOM      3  C   UNL     1      -2.958  -2.800  -5.248  1.00  0.00    -0.000 C 
BRANCH   3   4
ATOM      4  C   UNL     1      -3.865  -2.961  -6.477  1.00  0.00    -0.003 C 
ATOM      5  C   UNL     1      -5.247  -2.338  -6.276  1.00  0.00     0.004 C 
ENDBRANCH   3   4
ENDBRANCH   2   3
ENDBRANCH   1   2
BRANCH   1   6
ATOM      6  C   UNL     1      -1.011  -6.194  -5.328  1.00  0.00     0.028 C 
BRANCH   6   7
ATOM      7  C   UNL     1      -1.307  -7.558  -5.951  1.00  0.00     0.156 C 
BRANCH   7   8
ATOM      8  O   UNL     1      -2.668  -7.642  -6.267  1.00  0.00    -0.396 OA
ATOM      9  H   UNL     1      -2.725  -8.185  -7.097  1.00  0.00     0.210 HD
ENDBRANCH   7   8
ENDBRANCH   6   7
ENDBRANCH   1   6
TORSDOF 6
ENDMDL
MODEL 9
REMARK VINA RESULT:    -2.608      8.605      9.539
REMARK INTER + INTRA:          -3.534
REMARK INTER:                  -3.206
REMARK INTRA:                  -0.328
REMARK UNBOUND:                -0.087
REMARK SMILES CCCCCCCO
REMARK SMILES IDX 5 1 4 2 3 3 2 4 1 5 6 6 7 7 8 8
REMARK H PARENT 8 9
REMARK Flexibility Score: inf
ROOT
ATOM      1  C   UNL     1       5.418   2.947  -0.048  1.00  0.00     0.002 C 
ENDROOT
BRANCH   1   2
ATOM      2  C   UNL     1       5.696   3.637  -1.392  1.00  0.00     0.000 C 
BRANCH   2   3
ATOM      3  C   UNL     1       5.926   2.634  -2.536  1.00  0.00    -0.000 C 
BRANCH   3   4
ATOM      4  C   UNL     1       7.198   2.942  -3.342  1.00  0.00    -0.003 C 
ATOM      5  C   UNL     1       8.184   3.823  -2.573  1.00  0.00     0.004 C 
ENDBRANCH   3   4
ENDBRANCH   2   3
ENDBRANCH   1   2
BRANCH   1   6
ATOM      6  C   UNL     1       6.701   2.667   0.749  1.00  0.00     0.028 C 
BRANCH   6   7
ATOM      7  C   UNL     1       7.037   1.176   0.747  1.00  0.00     0.156 C 
BRANCH   7   8
ATOM      8  O   UNL     1       5.883   0.439   0.456  1.00  0.00    -0.396 OA
ATOM      9  H   UNL     1       5.171   1.105   0.265  1.00  0.00     0.210 HD
ENDBRANCH   7   8
ENDBRANCH   6   7
ENDBRANCH   1   6
TORSDOF 6
ENDMDL
