MODEL 1
REMARK VINA RESULT:    -3.274      0.000      0.000
REMARK INTER + INTRA:          -4.667
REMARK INTER:                  -4.614
REMARK INTRA:                  -0.054
REMARK UNBOUND:                -0.054
REMARK SMILES CC1=CCC(=C(C)C)C(=O)CC(C)=CCC1
REMARK SMILES IDX 12 1 14 2 13 3 15 4 16 5 2 6 1 7 3 8 11 10 9 11 10 12 5 13
REMARK SMILES IDX 6 14 7 15 8 16 4 17
REMARK H PARENT
REMARK Flexibility Score: 60.00
ROOT
ATOM      1  C   UNL     1      27.428 -41.850 -22.897  1.00  0.00    -0.070 C 
ATOM      2  C   UNL     1      27.920 -43.110 -22.902  1.00  0.00    -0.027 C 
ATOM      3  C   UNL     1      26.704 -41.366 -24.128  1.00  0.00     0.039 C 
ENDROOT
BRANCH   2   4
ATOM      4  C   UNL     1      28.791 -43.702 -21.823  1.00  0.00     0.032 C 
BRANCH   4   5
ATOM      5  C   UNL     1      27.966 -44.661 -20.956  1.00  0.00     0.034 C 
BRANCH   5   6
ATOM      6  C   UNL     1      28.150 -44.404 -19.473  1.00  0.00    -0.077 C 
ATOM      7  C   UNL     1      29.322 -45.041 -18.769  1.00  0.00     0.039 C 
ATOM      8  C   UNL     1      27.357 -43.572 -18.752  1.00  0.00    -0.023 CG0
ATOM      9  G   UNL     1      26.096 -42.867 -19.215  1.00  0.00     0.000 G0
ENDBRANCH   5   6
ENDBRANCH   4   5
ENDBRANCH   2   4
BRANCH   1  10
ATOM     10  C   UNL     1      27.550 -40.912 -21.713  1.00  0.00     0.111 C 
BRANCH  10  11
ATOM     11  C   UNL     1      26.292 -40.889 -20.879  1.00  0.00     0.163 C 
ATOM     12  O   UNL     1      25.242 -40.466 -21.436  1.00  0.00    -0.294 OA
BRANCH  11  13
ATOM     13  C   UNL     1      26.226 -41.355 -19.454  1.00  0.00    -0.002 C 
ATOM     14  C   UNL     1      26.117 -40.451 -18.431  1.00  0.00    -0.069 C 
ATOM     15  C   UNL     1      26.344 -38.973 -18.656  1.00  0.00     0.039 C 
ATOM     16  C   UNL     1      25.815 -40.880 -17.013  1.00  0.00     0.039 C 
BRANCH  13  17
ATOM     17  C   UNL     1      26.100 -42.854 -19.200  1.00  0.00     0.066 CG0
ATOM     18  G   UNL     1      27.361 -43.573 -18.760  1.00  0.00     0.000 G0
ENDBRANCH  13  17
ENDBRANCH  11  13
ENDBRANCH  10  11
ENDBRANCH   1  10
TORSDOF 0
ENDMDL
MODEL 2
REMARK VINA RESULT:    -3.234      9.727     12.145
REMARK INTER + INTRA:          -4.611
REMARK INTER:                  -4.488
REMARK INTRA:                  -0.123
REMARK UNBOUND:                -0.054
REMARK SMILES CC1=CCC(=C(C)C)C(=O)CC(C)=CCC1
REMARK SMILES IDX 12 1 14 2 13 3 15 4 16 5 2 6 1 7 3 8 11 10 9 11 10 12 5 13
REMARK SMILES IDX 6 14 7 15 8 16 4 17
REMARK H PARENT
REMARK Flexibility Score: 60.00
ROOT
ATOM      1  C   UNL     1      27.777 -32.000 -10.834  1.00  0.00    -0.070 C 
ATOM      2  C   UNL     1      28.463 -33.011 -10.253  1.00  0.00    -0.027 C 
ATOM      3  C   UNL     1      27.825 -30.643 -10.181  1.00  0.00     0.039 C 
ENDROOT
BRANCH   2   4
ATOM      4  C   UNL     1      28.407 -34.455 -10.684  1.00  0.00     0.032 C 
BRANCH   4   5
ATOM      5  C   UNL     1      29.734 -34.853 -11.340  1.00  0.00     0.034 C 
BRANCH   5   6
ATOM      6  C   UNL     1      29.534 -35.628 -12.627  1.00  0.00    -0.077 C 
ATOM      7  C   UNL     1      29.414 -37.130 -12.555  1.00  0.00     0.039 C 
ATOM      8  C   UNL     1      29.383 -35.041 -13.841  1.00  0.00    -0.023 CG0
ATOM      9  G   UNL     1      29.519 -33.567 -14.177  1.00  0.00     0.000 G0
ENDBRANCH   5   6
ENDBRANCH   4   5
ENDBRANCH   2   4
BRANCH   1  10
ATOM     10  C   UNL     1      26.983 -32.161 -12.115  1.00  0.00     0.111 C 
BRANCH  10  11
ATOM     11  C   UNL     1      27.799 -31.801 -13.333  1.00  0.00     0.163 C 
ATOM     12  O   UNL     1      28.171 -30.602 -13.442  1.00  0.00    -0.294 OA
BRANCH  11  13
ATOM     13  C   UNL     1      28.199 -32.789 -14.391  1.00  0.00    -0.002 C 
ATOM     14  C   UNL     1      27.498 -32.874 -15.564  1.00  0.00    -0.069 C 
ATOM     15  C   UNL     1      26.153 -32.205 -15.730  1.00  0.00     0.039 C 
ATOM     16  C   UNL     1      28.000 -33.681 -16.740  1.00  0.00     0.039 C 
BRANCH  13  17
ATOM     17  C   UNL     1      29.505 -33.553 -14.194  1.00  0.00     0.066 CG0
ATOM     18  G   UNL     1      29.381 -35.028 -13.860  1.00  0.00     0.000 G0
ENDBRANCH  13  17
ENDBRANCH  11  13
ENDBRANCH  10  11
ENDBRANCH   1  10
TORSDOF 0
ENDMDL
MODEL 3
REMARK VINA RESULT:    -3.164      9.460     12.015
REMARK INTER + INTRA:          -4.513
REMARK INTER:                  -4.365
REMARK INTRA:                  -0.147
REMARK UNBOUND:                -0.054
REMARK SMILES CC1=CCC(=C(C)C)C(=O)CC(C)=CCC1
REMARK SMILES IDX 12 1 14 2 13 3 15 4 16 5 2 6 1 7 3 8 11 10 9 11 10 12 5 13
REMARK SMILES IDX 6 14 7 15 8 16 4 17
REMARK H PARENT
REMARK Flexibility Score: 60.00
ROOT
ATOM      1  C   UNL     1      28.382 -30.779 -14.545  1.00  0.00    -0.070 C 
ATOM      2  C   UNL     1      28.472 -31.673 -15.556  1.00  0.00    -0.027 C 
ATOM      3  C   UNL     1      27.987 -29.364 -14.882  1.00  0.00     0.039 C 
ENDROOT
BRANCH   2   4
ATOM      4  C   UNL     1      28.992 -33.082 -15.421  1.00  0.00     0.032 C 
BRANCH   4   5
ATOM      5  C   UNL     1      27.827 -34.043 -15.156  1.00  0.00     0.034 C 
BRANCH   5   6
ATOM      6  C   UNL     1      28.175 -35.108 -14.135  1.00  0.00    -0.077 C 
ATOM      7  C   UNL     1      29.124 -36.210 -14.535  1.00  0.00     0.039 C 
ATOM      8  C   UNL     1      27.738 -35.088 -12.851  1.00  0.00    -0.023 CG0
ATOM      9  G   UNL     1      26.742 -34.125 -12.230  1.00  0.00     0.000 G0
ENDBRANCH   5   6
ENDBRANCH   4   5
ENDBRANCH   2   4
BRANCH   1  10
ATOM     10  C   UNL     1      28.639 -31.133 -13.094  1.00  0.00     0.111 C 
BRANCH  10  11
ATOM     11  C   UNL     1      27.388 -31.619 -12.403  1.00  0.00     0.163 C 
ATOM     12  O   UNL     1      26.341 -30.935 -12.560  1.00  0.00    -0.294 OA
BRANCH  11  13
ATOM     13  C   UNL     1      27.326 -32.867 -11.570  1.00  0.00    -0.002 C 
ATOM     14  C   UNL     1      27.623 -32.826 -10.233  1.00  0.00    -0.069 C 
ATOM     15  C   UNL     1      28.288 -31.621  -9.609  1.00  0.00     0.039 C 
ATOM     16  C   UNL     1      27.350 -33.997  -9.317  1.00  0.00     0.039 C 
BRANCH  13  17
ATOM     17  C   UNL     1      26.751 -34.125 -12.212  1.00  0.00     0.066 CG0
ATOM     18  G   UNL     1      27.748 -35.068 -12.862  1.00  0.00     0.000 G0
ENDBRANCH  13  17
ENDBRANCH  11  13
ENDBRANCH  10  11
ENDBRANCH   1  10
TORSDOF 0
ENDMDL
MODEL 4
REMARK VINA RESULT:    -3.135      2.306      3.829
REMARK INTER + INTRA:          -4.472
REMARK INTER:                  -4.718
REMARK INTRA:                   0.246
REMARK UNBOUND:                -0.054
REMARK SMILES CC1=CCC(=C(C)C)C(=O)CC(C)=CCC1
REMARK SMILES IDX 12 1 14 2 13 3 15 4 16 5 2 6 1 7 3 8 11 10 9 11 10 12 5 13
REMARK SMILES IDX 6 14 7 15 8 16 4 17
REMARK H PARENT
REMARK Flexibility Score: 60.00
ROOT
ATOM      1  C   UNL     1      26.418 -44.004 -19.225  1.00  0.00    -0.070 C 
ATOM      2  C   UNL     1      26.696 -44.308 -20.514  1.00  0.00    -0.027 C 
ATOM      3  C   UNL     1      25.123 -43.294 -18.926  1.00  0.00     0.039 C 
ENDROOT
BRANCH   2   4
ATOM      4  C   UNL     1      28.001 -44.880 -21.006  1.00  0.00     0.032 C 
BRANCH   4   5
ATOM      5  C   UNL     1      28.840 -43.775 -21.659  1.00  0.00     0.034 C 
BRANCH   5   6
ATOM      6  C   UNL     1      28.080 -42.469 -21.783  1.00  0.00    -0.077 C 
ATOM      7  C   UNL     1      27.184 -42.266 -22.979  1.00  0.00     0.039 C 
ATOM      8  C   UNL     1      28.104 -41.495 -20.840  1.00  0.00    -0.023 CG0
ATOM      9  G   UNL     1      28.962 -41.441 -19.589  1.00  0.00     0.000 G0
ENDBRANCH   5   6
ENDBRANCH   4   5
ENDBRANCH   2   4
BRANCH   1  10
ATOM     10  C   UNL     1      27.333 -44.360 -18.070  1.00  0.00     0.111 C 
BRANCH  10  11
ATOM     11  C   UNL     1      28.447 -43.355 -17.902  1.00  0.00     0.163 C 
ATOM     12  O   UNL     1      29.540 -43.780 -17.440  1.00  0.00    -0.294 OA
BRANCH  11  13
ATOM     13  C   UNL     1      28.326 -41.905 -18.273  1.00  0.00    -0.002 C 
ATOM     14  C   UNL     1      27.806 -41.001 -17.384  1.00  0.00    -0.069 C 
ATOM     15  C   UNL     1      27.082 -41.449 -16.136  1.00  0.00     0.039 C 
ATOM     16  C   UNL     1      27.881 -39.510 -17.624  1.00  0.00     0.039 C 
BRANCH  13  17
ATOM     17  C   UNL     1      28.962 -41.449 -19.582  1.00  0.00     0.066 CG0
ATOM     18  G   UNL     1      28.083 -41.508 -20.818  1.00  0.00     0.000 G0
ENDBRANCH  13  17
ENDBRANCH  11  13
ENDBRANCH  10  11
ENDBRANCH   1  10
TORSDOF 0
ENDMDL
MODEL 5
REMARK VINA RESULT:    -3.056      9.076     12.099
REMARK INTER + INTRA:          -4.360
REMARK INTER:                  -4.706
REMARK INTRA:                   0.346
REMARK UNBOUND:                -0.054
REMARK SMILES CC1=CCC(=C(C)C)C(=O)CC(C)=CCC1
REMARK SMILES IDX 12 1 14 2 13 3 15 4 16 5 2 6 1 7 3 8 11 10 9 11 10 12 5 13
REMARK SMILES IDX 6 14 7 15 8 16 4 17
REMARK H PARENT
REMARK Flexibility Score: 60.00
ROOT
ATOM      1  C   UNL     1      27.366 -32.527 -11.955  1.00  0.00    -0.070 C 
ATOM      2  C   UNL     1      28.525 -33.224 -11.979  1.00  0.00    -0.027 C 
ATOM      3  C   UNL     1      27.252 -31.371 -10.994  1.00  0.00     0.039 C 
ENDROOT
BRANCH   2   4
ATOM      4  C   UNL     1      28.757 -34.489 -12.766  1.00  0.00     0.032 C 
BRANCH   4   5
ATOM      5  C   UNL     1      29.921 -34.287 -13.743  1.00  0.00     0.034 C 
BRANCH   5   6
ATOM      6  C   UNL     1      29.469 -34.289 -15.190  1.00  0.00    -0.077 C 
ATOM      7  C   UNL     1      29.556 -35.575 -15.973  1.00  0.00     0.039 C 
ATOM      8  C   UNL     1      28.919 -33.212 -15.806  1.00  0.00    -0.023 CG0
ATOM      9  G   UNL     1      28.777 -31.806 -15.253  1.00  0.00     0.000 G0
ENDBRANCH   5   6
ENDBRANCH   4   5
ENDBRANCH   2   4
BRANCH   1  10
ATOM     10  C   UNL     1      26.189 -32.837 -12.858  1.00  0.00     0.111 C 
BRANCH  10  11
ATOM     11  C   UNL     1      26.474 -32.486 -14.298  1.00  0.00     0.163 C 
ATOM     12  O   UNL     1      25.866 -33.149 -15.182  1.00  0.00    -0.294 OA
BRANCH  11  13
ATOM     13  C   UNL     1      27.413 -31.394 -14.721  1.00  0.00    -0.002 C 
ATOM     14  C   UNL     1      27.113 -30.082 -14.465  1.00  0.00    -0.069 C 
ATOM     15  C   UNL     1      25.732 -29.660 -14.019  1.00  0.00     0.039 C 
ATOM     16  C   UNL     1      28.127 -28.977 -14.661  1.00  0.00     0.039 C 
BRANCH  13  17
ATOM     17  C   UNL     1      28.776 -31.799 -15.271  1.00  0.00     0.066 CG0
ATOM     18  G   UNL     1      28.898 -33.218 -15.798  1.00  0.00     0.000 G0
ENDBRANCH  13  17
ENDBRANCH  11  13
ENDBRANCH  10  11
ENDBRANCH   1  10
TORSDOF 0
ENDMDL
MODEL 6
REMARK VINA RESULT:    -2.960     12.065     14.474
REMARK INTER + INTRA:          -4.224
REMARK INTER:                  -4.438
REMARK INTRA:                   0.214
REMARK UNBOUND:                -0.054
REMARK SMILES CC1=CCC(=C(C)C)C(=O)CC(C)=CCC1
REMARK SMILES IDX 12 1 14 2 13 3 15 4 16 5 2 6 1 7 3 8 11 10 9 11 10 12 5 13
REMARK SMILES IDX 6 14 7 15 8 16 4 17
REMARK H PARENT
REMARK Flexibility Score: 60.00
ROOT
ATOM      1  C   UNL     1      19.436 -45.306 -10.670  1.00  0.00    -0.070 C 
ATOM      2  C   UNL     1      18.088 -45.374 -10.766  1.00  0.00    -0.027 C 
ATOM      3  C   UNL     1      20.215 -44.909 -11.897  1.00  0.00     0.039 C 
ENDROOT
BRANCH   2   4
ATOM      4  C   UNL     1      17.170 -45.892  -9.687  1.00  0.00     0.032 C 
BRANCH   4   5
ATOM      5  C   UNL     1      16.182 -44.795  -9.274  1.00  0.00     0.034 C 
BRANCH   5   6
ATOM      6  C   UNL     1      16.485 -44.230  -7.900  1.00  0.00    -0.077 C 
ATOM      7  C   UNL     1      15.729 -44.774  -6.713  1.00  0.00     0.039 C 
ATOM      8  C   UNL     1      17.453 -43.310  -7.664  1.00  0.00    -0.023 CG0
ATOM      9  G   UNL     1      18.300 -42.578  -8.689  1.00  0.00     0.000 G0
ENDBRANCH   5   6
ENDBRANCH   4   5
ENDBRANCH   2   4
BRANCH   1  10
ATOM     10  C   UNL     1      20.195 -45.587  -9.389  1.00  0.00     0.111 C 
BRANCH  10  11
ATOM     11  C   UNL     1      20.100 -44.439  -8.413  1.00  0.00     0.163 C 
ATOM     12  O   UNL     1      20.335 -44.694  -7.201  1.00  0.00    -0.294 OA
BRANCH  11  13
ATOM     13  C   UNL     1      19.766 -43.031  -8.811  1.00  0.00    -0.002 C 
ATOM     14  C   UNL     1      20.702 -42.240  -9.422  1.00  0.00    -0.069 C 
ATOM     15  C   UNL     1      22.161 -42.632  -9.463  1.00  0.00     0.039 C 
ATOM     16  C   UNL     1      20.343 -40.910 -10.045  1.00  0.00     0.039 C 
BRANCH  13  17
ATOM     17  C   UNL     1      18.315 -42.579  -8.681  1.00  0.00     0.066 CG0
ATOM     18  G   UNL     1      17.464 -43.321  -7.666  1.00  0.00     0.000 G0
ENDBRANCH  13  17
ENDBRANCH  11  13
ENDBRANCH  10  11
ENDBRANCH   1  10
TORSDOF 0
ENDMDL
MODEL 7
REMARK VINA RESULT:    -2.937     11.867     13.408
REMARK INTER + INTRA:          -4.193
REMARK INTER:                  -4.073
REMARK INTRA:                  -0.120
REMARK UNBOUND:                -0.054
REMARK SMILES CC1=CCC(=C(C)C)C(=O)CC(C)=CCC1
REMARK SMILES IDX 12 1 14 2 13 3 15 4 16 5 2 6 1 7 3 8 11 10 9 11 10 12 5 13
REMARK SMILES IDX 6 14 7 15 8 16 4 17
REMARK H PARENT
REMARK Flexibility Score: 60.00
ROOT
ATOM      1  C   UNL     1      26.310 -27.749 -16.643  1.00  0.00    -0.070 C 
ATOM      2  C   UNL     1      27.500 -27.865 -16.010  1.00  0.00    -0.027 C 
ATOM      3  C   UNL     1      26.266 -26.970 -17.933  1.00  0.00     0.039 C 
ENDROOT
BRANCH   2   4
ATOM      4  C   UNL     1      27.698 -28.477 -14.646  1.00  0.00     0.032 C 
BRANCH   4   5
ATOM      5  C   UNL     1      28.007 -29.972 -14.788  1.00  0.00     0.034 C 
BRANCH   5   6
ATOM      6  C   UNL     1      27.244 -30.819 -13.788  1.00  0.00    -0.077 C 
ATOM      7  C   UNL     1      27.640 -30.753 -12.334  1.00  0.00     0.039 C 
ATOM      8  C   UNL     1      26.172 -31.583 -14.116  1.00  0.00    -0.023 CG0
ATOM      9  G   UNL     1      25.622 -31.855 -15.504  1.00  0.00     0.000 G0
ENDBRANCH   5   6
ENDBRANCH   4   5
ENDBRANCH   2   4
BRANCH   1  10
ATOM     10  C   UNL     1      25.030 -28.377 -16.132  1.00  0.00     0.111 C 
BRANCH  10  11
ATOM     11  C   UNL     1      24.781 -29.733 -16.749  1.00  0.00     0.163 C 
ATOM     12  O   UNL     1      24.876 -29.819 -18.003  1.00  0.00    -0.294 OA
BRANCH  11  13
ATOM     13  C   UNL     1      24.454 -30.964 -15.954  1.00  0.00    -0.002 C 
ATOM     14  C   UNL     1      23.153 -31.361 -15.791  1.00  0.00    -0.069 C 
ATOM     15  C   UNL     1      22.000 -30.450 -16.144  1.00  0.00     0.039 C 
ATOM     16  C   UNL     1      22.795 -32.707 -15.204  1.00  0.00     0.039 C 
BRANCH  13  17
ATOM     17  C   UNL     1      25.611 -31.846 -15.499  1.00  0.00     0.066 CG0
ATOM     18  G   UNL     1      26.167 -31.570 -14.114  1.00  0.00     0.000 G0
ENDBRANCH  13  17
ENDBRANCH  11  13
ENDBRANCH  10  11
ENDBRANCH   1  10
TORSDOF 0
ENDMDL
MODEL 8
REMARK VINA RESULT:    -2.856      2.149      4.000
REMARK INTER + INTRA:          -4.078
REMARK INTER:                  -4.493
REMARK INTRA:                   0.415
REMARK UNBOUND:                -0.054
REMARK SMILES CC1=CCC(=C(C)C)C(=O)CC(C)=CCC1
REMARK SMILES IDX 12 1 14 2 13 3 15 4 16 5 2 6 1 7 3 8 11 10 9 11 10 12 5 13
REMARK SMILES IDX 6 14 7 15 8 16 4 17
REMARK H PARENT
REMARK Flexibility Score: 60.00
ROOT
ATOM      1  C   UNL     1      24.735 -43.219 -21.003  1.00  0.00    -0.070 C 
ATOM      2  C   UNL     1      25.289 -43.211 -22.238  1.00  0.00    -0.027 C 
ATOM      3  C   UNL     1      23.520 -42.359 -20.765  1.00  0.00     0.039 C 
ENDROOT
BRANCH   2   4
ATOM      4  C   UNL     1      26.583 -43.890 -22.610  1.00  0.00     0.032 C 
BRANCH   4   5
ATOM      5  C   UNL     1      27.586 -42.851 -23.125  1.00  0.00     0.034 C 
BRANCH   5   6
ATOM      6  C   UNL     1      27.791 -41.710 -22.149  1.00  0.00    -0.077 C 
ATOM      7  C   UNL     1      27.463 -40.308 -22.598  1.00  0.00     0.039 C 
ATOM      8  C   UNL     1      28.187 -41.884 -20.864  1.00  0.00    -0.023 CG0
ATOM      9  G   UNL     1      28.625 -43.177 -20.200  1.00  0.00     0.000 G0
ENDBRANCH   5   6
ENDBRANCH   4   5
ENDBRANCH   2   4
BRANCH   1  10
ATOM     10  C   UNL     1      25.263 -44.060 -19.859  1.00  0.00     0.111 C 
BRANCH  10  11
ATOM     11  C   UNL     1      26.304 -43.324 -19.050  1.00  0.00     0.163 C 
ATOM     12  O   UNL     1      25.904 -42.367 -18.335  1.00  0.00    -0.294 OA
BRANCH  11  13
ATOM     13  C   UNL     1      27.761 -43.684 -19.041  1.00  0.00    -0.002 C 
ATOM     14  C   UNL     1      28.252 -44.573 -18.121  1.00  0.00    -0.069 C 
ATOM     15  C   UNL     1      27.436 -45.000 -16.923  1.00  0.00     0.039 C 
ATOM     16  C   UNL     1      29.651 -45.137 -18.221  1.00  0.00     0.039 C 
BRANCH  13  17
ATOM     17  C   UNL     1      28.628 -43.176 -20.188  1.00  0.00     0.066 CG0
ATOM     18  G   UNL     1      28.174 -41.894 -20.862  1.00  0.00     0.000 G0
ENDBRANCH  13  17
ENDBRANCH  11  13
ENDBRANCH  10  11
ENDBRANCH   1  10
TORSDOF 0
ENDMDL
MODEL 9
REMARK VINA RESULT:    -2.798      2.412      3.465
REMARK INTER + INTRA:          -3.996
REMARK INTER:                  -4.100
REMARK INTRA:                   0.104
REMARK UNBOUND:                -0.054
REMARK SMILES CC1=CCC(=C(C)C)C(=O)CC(C)=CCC1
REMARK SMILES IDX 12 1 14 2 13 3 15 4 16 5 2 6 1 7 3 8 11 10 9 11 10 12 5 13
REMARK SMILES IDX 6 14 7 15 8 16 4 17
REMARK H PARENT
REMARK Flexibility Score: 60.00
ROOT
ATOM      1  C   UNL     1      26.760 -40.936 -18.870  1.00  0.00    -0.070 C 
ATOM      2  C   UNL     1      27.980 -40.993 -18.287  1.00  0.00    -0.027 C 
ATOM      3  C   UNL     1      25.787 -39.895 -18.379  1.00  0.00     0.039 C 
ENDROOT
BRANCH   2   4
ATOM      4  C   UNL     1      29.014 -42.058 -18.550  1.00  0.00     0.032 C 
BRANCH   4   5
ATOM      5  C   UNL     1      29.077 -43.026 -17.363  1.00  0.00     0.034 C 
BRANCH   5   6
ATOM      6  C   UNL     1      28.506 -44.389 -17.696  1.00  0.00    -0.077 C 
ATOM      7  C   UNL     1      29.436 -45.453 -18.224  1.00  0.00     0.039 C 
ATOM      8  C   UNL     1      27.212 -44.735 -17.478  1.00  0.00    -0.023 CG0
ATOM      9  G   UNL     1      26.083 -43.834 -17.012  1.00  0.00     0.000 G0
ENDBRANCH   5   6
ENDBRANCH   4   5
ENDBRANCH   2   4
BRANCH   1  10
ATOM     10  C   UNL     1      26.333 -41.851 -20.000  1.00  0.00     0.111 C 
BRANCH  10  11
ATOM     11  C   UNL     1      25.730 -43.137 -19.488  1.00  0.00     0.163 C 
ATOM     12  O   UNL     1      25.735 -44.125 -20.271  1.00  0.00    -0.294 OA
BRANCH  11  13
ATOM     13  C   UNL     1      25.157 -43.300 -18.110  1.00  0.00    -0.002 C 
ATOM     14  C   UNL     1      23.817 -43.121 -17.889  1.00  0.00    -0.069 C 
ATOM     15  C   UNL     1      22.923 -42.486 -18.930  1.00  0.00     0.039 C 
ATOM     16  C   UNL     1      23.165 -43.499 -16.579  1.00  0.00     0.039 C 
BRANCH  13  17
ATOM     17  C   UNL     1      26.072 -43.844 -17.018  1.00  0.00     0.066 CG0
ATOM     18  G   UNL     1      27.216 -44.731 -17.473  1.00  0.00     0.000 G0
ENDBRANCH  13  17
ENDBRANCH  11  13
ENDBRANCH  10  11
ENDBRANCH   1  10
TORSDOF 0
ENDMDL
