MODEL 1
REMARK VINA RESULT:    -3.361      0.000      0.000
REMARK INTER + INTRA:          -4.758
REMARK INTER:                  -4.343
REMARK INTRA:                  -0.415
REMARK UNBOUND:                -0.415
REMARK SMILES CCCCCCC(=O)[O-]
REMARK SMILES IDX 5 1 6 2 7 3 8 4 9 5 4 6 3 7 2 8 1 9
REMARK H PARENT
REMARK Flexibility Score: inf
ROOT
ATOM      1  C   UNL     1      29.901  52.550  38.779  1.00  0.00     0.006 C 
ENDROOT
BRANCH   1   2
ATOM      2  C   UNL     1      30.482  51.154  38.517  1.00  0.00     0.053 C 
BRANCH   2   3
ATOM      3  C   UNL     1      30.124  50.187  39.604  1.00  0.00     0.041 C 
ATOM      4  O   UNL     1      30.900  50.016  40.581  1.00  0.00    -0.550 OA
ATOM      5  O   UNL     1      28.918  49.499  39.553  1.00  0.00    -0.550 OA
ENDBRANCH   2   3
ENDBRANCH   1   2
BRANCH   1   6
ATOM      6  C   UNL     1      28.625  52.810  37.960  1.00  0.00     0.000 C 
BRANCH   6   7
ATOM      7  C   UNL     1      27.344  52.632  38.790  1.00  0.00    -0.000 C 
BRANCH   7   8
ATOM      8  C   UNL     1      27.580  52.828  40.295  1.00  0.00    -0.003 C 
ATOM      9  C   UNL     1      26.723  51.870  41.116  1.00  0.00     0.004 C 
ENDBRANCH   7   8
ENDBRANCH   6   7
ENDBRANCH   1   6
TORSDOF 5
ENDMDL
MODEL 2
REMARK VINA RESULT:    -3.316      0.926      1.702
REMARK INTER + INTRA:          -4.700
REMARK INTER:                  -4.314
REMARK INTRA:                  -0.386
REMARK UNBOUND:                -0.415
REMARK SMILES CCCCCCC(=O)[O-]
REMARK SMILES IDX 5 1 6 2 7 3 8 4 9 5 4 6 3 7 2 8 1 9
REMARK H PARENT
REMARK Flexibility Score: inf
ROOT
ATOM      1  C   UNL     1      30.484  51.155  38.497  1.00  0.00     0.006 C 
ENDROOT
BRANCH   1   2
ATOM      2  C   UNL     1      30.689  50.343  39.783  1.00  0.00     0.053 C 
BRANCH   2   3
ATOM      3  C   UNL     1      29.672  49.252  39.924  1.00  0.00     0.041 C 
ATOM      4  O   UNL     1      28.502  49.417  39.489  1.00  0.00    -0.550 OA
ATOM      5  O   UNL     1      30.026  48.042  40.507  1.00  0.00    -0.550 OA
ENDBRANCH   2   3
ENDBRANCH   1   2
BRANCH   1   6
ATOM      6  C   UNL     1      29.859  52.533  38.775  1.00  0.00     0.000 C 
BRANCH   6   7
ATOM      7  C   UNL     1      28.548  52.754  38.004  1.00  0.00    -0.000 C 
BRANCH   7   8
ATOM      8  C   UNL     1      27.323  52.834  38.927  1.00  0.00    -0.003 C 
ATOM      9  C   UNL     1      27.737  52.787  40.395  1.00  0.00     0.004 C 
ENDBRANCH   7   8
ENDBRANCH   6   7
ENDBRANCH   1   6
TORSDOF 5
ENDMDL
MODEL 3
REMARK VINA RESULT:    -3.276     15.578     16.412
REMARK INTER + INTRA:          -4.648
REMARK INTER:                  -4.405
REMARK INTRA:                  -0.243
REMARK UNBOUND:                -0.415
REMARK SMILES CCCCCCC(=O)[O-]
REMARK SMILES IDX 5 1 6 2 7 3 8 4 9 5 4 6 3 7 2 8 1 9
REMARK H PARENT
REMARK Flexibility Score: inf
ROOT
ATOM      1  C   UNL     1      27.850  42.441  27.107  1.00  0.00     0.006 C 
ENDROOT
BRANCH   1   2
ATOM      2  C   UNL     1      28.522  43.239  25.981  1.00  0.00     0.053 C 
BRANCH   2   3
ATOM      3  C   UNL     1      30.006  43.324  26.167  1.00  0.00     0.041 C 
ATOM      4  O   UNL     1      30.627  42.395  26.747  1.00  0.00    -0.550 OA
ATOM      5  O   UNL     1      30.708  44.417  25.673  1.00  0.00    -0.550 OA
ENDBRANCH   2   3
ENDBRANCH   1   2
BRANCH   1   6
ATOM      6  C   UNL     1      26.316  42.569  27.071  1.00  0.00     0.000 C 
BRANCH   6   7
ATOM      7  C   UNL     1      25.609  41.206  27.134  1.00  0.00    -0.000 C 
BRANCH   7   8
ATOM      8  C   UNL     1      26.041  40.260  26.003  1.00  0.00    -0.003 C 
ATOM      9  C   UNL     1      25.532  40.752  24.652  1.00  0.00     0.004 C 
ENDBRANCH   7   8
ENDBRANCH   6   7
ENDBRANCH   1   6
TORSDOF 5
ENDMDL
MODEL 4
REMARK VINA RESULT:    -3.153      1.513      2.402
REMARK INTER + INTRA:          -4.490
REMARK INTER:                  -4.237
REMARK INTRA:                  -0.253
REMARK UNBOUND:                -0.415
REMARK SMILES CCCCCCC(=O)[O-]
REMARK SMILES IDX 5 1 6 2 7 3 8 4 9 5 4 6 3 7 2 8 1 9
REMARK H PARENT
REMARK Flexibility Score: inf
ROOT
ATOM      1  C   UNL     1      30.536  50.370  39.759  1.00  0.00     0.006 C 
ENDROOT
BRANCH   1   2
ATOM      2  C   UNL     1      29.422  49.320  39.855  1.00  0.00     0.053 C 
BRANCH   2   3
ATOM      3  C   UNL     1      29.822  48.158  40.712  1.00  0.00     0.041 C 
ATOM      4  O   UNL     1      30.193  48.346  41.901  1.00  0.00    -0.550 OA
ATOM      5  O   UNL     1      29.756  46.865  40.207  1.00  0.00    -0.550 OA
ENDBRANCH   2   3
ENDBRANCH   1   2
BRANCH   1   6
ATOM      6  C   UNL     1      30.436  51.207  38.471  1.00  0.00     0.000 C 
BRANCH   6   7
ATOM      7  C   UNL     1      29.812  52.591  38.712  1.00  0.00    -0.000 C 
BRANCH   7   8
ATOM      8  C   UNL     1      28.361  52.682  38.220  1.00  0.00    -0.003 C 
ATOM      9  C   UNL     1      27.377  52.475  39.368  1.00  0.00     0.004 C 
ENDBRANCH   7   8
ENDBRANCH   6   7
ENDBRANCH   1   6
TORSDOF 5
ENDMDL
MODEL 5
REMARK VINA RESULT:    -3.140      1.681      3.456
REMARK INTER + INTRA:          -4.473
REMARK INTER:                  -4.127
REMARK INTRA:                  -0.346
REMARK UNBOUND:                -0.415
REMARK SMILES CCCCCCC(=O)[O-]
REMARK SMILES IDX 5 1 6 2 7 3 8 4 9 5 4 6 3 7 2 8 1 9
REMARK H PARENT
REMARK Flexibility Score: inf
ROOT
ATOM      1  C   UNL     1      27.346  52.793  38.861  1.00  0.00     0.006 C 
ENDROOT
BRANCH   1   2
ATOM      2  C   UNL     1      27.675  52.750  40.359  1.00  0.00     0.053 C 
BRANCH   2   3
ATOM      3  C   UNL     1      26.996  51.605  41.047  1.00  0.00     0.041 C 
ATOM      4  O   UNL     1      27.602  50.513  41.207  1.00  0.00    -0.550 OA
ATOM      5  O   UNL     1      25.705  51.756  41.538  1.00  0.00    -0.550 OA
ENDBRANCH   2   3
ENDBRANCH   1   2
BRANCH   1   6
ATOM      6  C   UNL     1      28.612  52.746  37.988  1.00  0.00     0.000 C 
BRANCH   6   7
ATOM      7  C   UNL     1      29.888  52.501  38.809  1.00  0.00    -0.000 C 
BRANCH   7   8
ATOM      8  C   UNL     1      30.587  51.184  38.442  1.00  0.00    -0.003 C 
ATOM      9  C   UNL     1      30.718  50.273  39.658  1.00  0.00     0.004 C 
ENDBRANCH   7   8
ENDBRANCH   6   7
ENDBRANCH   1   6
TORSDOF 5
ENDMDL
MODEL 6
REMARK VINA RESULT:    -3.109     16.155     16.818
REMARK INTER + INTRA:          -4.433
REMARK INTER:                  -4.244
REMARK INTRA:                  -0.189
REMARK UNBOUND:                -0.415
REMARK SMILES CCCCCCC(=O)[O-]
REMARK SMILES IDX 5 1 6 2 7 3 8 4 9 5 4 6 3 7 2 8 1 9
REMARK H PARENT
REMARK Flexibility Score: inf
ROOT
ATOM      1  C   UNL     1      26.349  42.758  26.840  1.00  0.00     0.006 C 
ENDROOT
BRANCH   1   2
ATOM      2  C   UNL     1      26.292  41.227  26.918  1.00  0.00     0.053 C 
BRANCH   2   3
ATOM      3  C   UNL     1      25.563  40.635  25.750  1.00  0.00     0.041 C 
ATOM      4  O   UNL     1      24.877  39.590  25.895  1.00  0.00    -0.550 OA
ATOM      5  O   UNL     1      25.618  41.257  24.509  1.00  0.00    -0.550 OA
ENDBRANCH   2   3
ENDBRANCH   1   2
BRANCH   1   6
ATOM      6  C   UNL     1      27.738  43.265  26.412  1.00  0.00     0.000 C 
BRANCH   6   7
ATOM      7  C   UNL     1      28.882  42.457  27.043  1.00  0.00    -0.000 C 
BRANCH   7   8
ATOM      8  C   UNL     1      30.226  42.677  26.334  1.00  0.00    -0.003 C 
ATOM      9  C   UNL     1      30.470  44.159  26.067  1.00  0.00     0.004 C 
ENDBRANCH   7   8
ENDBRANCH   6   7
ENDBRANCH   1   6
TORSDOF 5
ENDMDL
MODEL 7
REMARK VINA RESULT:    -2.964     15.384     16.131
REMARK INTER + INTRA:          -4.246
REMARK INTER:                  -4.053
REMARK INTRA:                  -0.193
REMARK UNBOUND:                -0.415
REMARK SMILES CCCCCCC(=O)[O-]
REMARK SMILES IDX 5 1 6 2 7 3 8 4 9 5 4 6 3 7 2 8 1 9
REMARK H PARENT
REMARK Flexibility Score: inf
ROOT
ATOM      1  C   UNL     1      27.333  42.856  25.591  1.00  0.00     0.006 C 
ENDROOT
BRANCH   1   2
ATOM      2  C   UNL     1      28.136  42.876  26.899  1.00  0.00     0.053 C 
BRANCH   2   3
ATOM      3  C   UNL     1      29.598  43.096  26.653  1.00  0.00     0.041 C 
ATOM      4  O   UNL     1      30.345  42.124  26.366  1.00  0.00    -0.550 OA
ATOM      5  O   UNL     1      30.127  44.379  26.711  1.00  0.00    -0.550 OA
ENDBRANCH   2   3
ENDBRANCH   1   2
BRANCH   1   6
ATOM      6  C   UNL     1      26.274  41.740  25.577  1.00  0.00     0.000 C 
BRANCH   6   7
ATOM      7  C   UNL     1      26.330  40.857  26.834  1.00  0.00    -0.000 C 
BRANCH   7   8
ATOM      8  C   UNL     1      24.947  40.633  27.464  1.00  0.00    -0.003 C 
ATOM      9  C   UNL     1      25.060  39.884  28.787  1.00  0.00     0.004 C 
ENDBRANCH   7   8
ENDBRANCH   6   7
ENDBRANCH   1   6
TORSDOF 5
ENDMDL
MODEL 8
REMARK VINA RESULT:    -2.940      1.284      2.441
REMARK INTER + INTRA:          -4.214
REMARK INTER:                  -3.845
REMARK INTRA:                  -0.369
REMARK UNBOUND:                -0.415
REMARK SMILES CCCCCCC(=O)[O-]
REMARK SMILES IDX 5 1 6 2 7 3 8 4 9 5 4 6 3 7 2 8 1 9
REMARK H PARENT
REMARK Flexibility Score: inf
ROOT
ATOM      1  C   UNL     1      28.204  50.244  40.866  1.00  0.00     0.006 C 
ENDROOT
BRANCH   1   2
ATOM      2  C   UNL     1      29.097  49.531  39.842  1.00  0.00     0.053 C 
BRANCH   2   3
ATOM      3  C   UNL     1      30.495  50.069  39.850  1.00  0.00     0.041 C 
ATOM      4  O   UNL     1      31.210  49.959  40.880  1.00  0.00    -0.550 OA
ATOM      5  O   UNL     1      31.018  50.665  38.709  1.00  0.00    -0.550 OA
ENDBRANCH   2   3
ENDBRANCH   1   2
BRANCH   1   6
ATOM      6  C   UNL     1      28.260  51.775  40.718  1.00  0.00     0.000 C 
BRANCH   6   7
ATOM      7  C   UNL     1      27.106  52.329  39.867  1.00  0.00    -0.000 C 
BRANCH   7   8
ATOM      8  C   UNL     1      27.533  52.654  38.428  1.00  0.00    -0.003 C 
ATOM      9  C   UNL     1      28.904  53.322  38.399  1.00  0.00     0.004 C 
ENDBRANCH   7   8
ENDBRANCH   6   7
ENDBRANCH   1   6
TORSDOF 5
ENDMDL
MODEL 9
REMARK VINA RESULT:    -2.919     15.994     17.019
REMARK INTER + INTRA:          -4.188
REMARK INTER:                  -3.958
REMARK INTRA:                  -0.230
REMARK UNBOUND:                -0.415
REMARK SMILES CCCCCCC(=O)[O-]
REMARK SMILES IDX 5 1 6 2 7 3 8 4 9 5 4 6 3 7 2 8 1 9
REMARK H PARENT
REMARK Flexibility Score: inf
ROOT
ATOM      1  C   UNL     1      26.213  41.872  27.007  1.00  0.00     0.006 C 
ENDROOT
BRANCH   1   2
ATOM      2  C   UNL     1      26.177  41.302  25.582  1.00  0.00     0.053 C 
BRANCH   2   3
ATOM      3  C   UNL     1      26.120  39.805  25.581  1.00  0.00     0.041 C 
ATOM      4  O   UNL     1      25.982  39.177  24.499  1.00  0.00    -0.550 OA
ATOM      5  O   UNL     1      26.250  39.103  26.773  1.00  0.00    -0.550 OA
ENDBRANCH   2   3
ENDBRANCH   1   2
BRANCH   1   6
ATOM      6  C   UNL     1      27.575  42.503  27.345  1.00  0.00     0.000 C 
BRANCH   6   7
ATOM      7  C   UNL     1      28.137  43.349  26.191  1.00  0.00    -0.000 C 
BRANCH   7   8
ATOM      8  C   UNL     1      29.640  43.627  26.337  1.00  0.00    -0.003 C 
ATOM      9  C   UNL     1      30.391  42.374  26.777  1.00  0.00     0.004 C 
ENDBRANCH   7   8
ENDBRANCH   6   7
ENDBRANCH   1   6
TORSDOF 5
ENDMDL
