MODEL 1
REMARK VINA RESULT:    -6.301      0.000      0.000
REMARK INTER + INTRA:         -10.816
REMARK INTER:                  -8.511
REMARK INTRA:                  -2.306
REMARK UNBOUND:                -2.306
REMARK SMILES CC[C@@H](CC[C@H](C)[C@H]1CC[C@H]2[C@@H]3CC(=O)C4=CC(=O)CC[C@]4(C)[C@H]3CC[C@@]12C)C(C)C
REMARK SMILES IDX 4 1 3 2 2 3 1 4 29 5 30 6 31 7 5 8 6 9 7 10 8 11 9 12 27 13
REMARK SMILES IDX 10 14 11 15 26 16 28 17 12 18 25 19 24 20 13 21 22 22 14 23
REMARK SMILES IDX 16 24 21 25 23 26 15 27 17 28 20 29 18 30 19 31
REMARK H PARENT
REMARK Flexibility Score: inf
ROOT
ATOM      1  C   UNL     1       4.689 -23.040   5.978  1.00  0.00     0.004 C 
ENDROOT
BRANCH   1   2
ATOM      2  C   UNL     1       4.505 -24.539   6.336  1.00  0.00    -0.009 C 
BRANCH   2   3
ATOM      3  C   UNL     1       3.070 -25.084   6.048  1.00  0.00     0.000 C 
ATOM      4  C   UNL     1       2.910 -26.610   6.040  1.00  0.00     0.004 C 
ENDBRANCH   2   3
BRANCH   2   5
ATOM      5  C   UNL     1       5.055 -24.863   7.766  1.00  0.00    -0.014 C 
ATOM      6  C   UNL     1       6.233 -25.846   7.783  1.00  0.00     0.007 C 
ATOM      7  C   UNL     1       5.416 -23.592   8.553  1.00  0.00     0.007 C 
ENDBRANCH   2   5
ENDBRANCH   1   2
BRANCH   1   8
ATOM      8  C   UNL     1       5.608 -22.834   4.755  1.00  0.00     0.004 C 
BRANCH   8   9
ATOM      9  C   UNL     1       6.768 -23.863   4.671  1.00  0.00    -0.011 C 
ATOM     10  C   UNL     1       8.080 -23.230   5.184  1.00  0.00     0.008 C 
BRANCH   9  11
ATOM     11  C   UNL     1       6.862 -24.449   3.215  1.00  0.00    -0.002 C 
ATOM     12  C   UNL     1       8.262 -24.770   2.709  1.00  0.00     0.005 C 
ATOM     13  C   UNL     1       6.006 -25.706   2.873  1.00  0.00    -0.026 C 
ATOM     14  C   UNL     1       8.026 -25.537   1.418  1.00  0.00     0.005 C 
ATOM     15  C   UNL     1       6.660 -26.251   1.561  1.00  0.00    -0.001 C 
ATOM     16  C   UNL     1       6.063 -26.790   3.978  1.00  0.00     0.007 C 
ATOM     17  C   UNL     1       4.534 -25.277   2.628  1.00  0.00     0.012 C 
ATOM     18  C   UNL     1       6.825 -27.809   1.487  1.00  0.00     0.004 C 
ATOM     19  C   UNL     1       5.321 -28.073   3.582  1.00  0.00     0.005 C 
ATOM     20  C   UNL     1       5.620 -28.562   2.129  1.00  0.00     0.003 C 
ATOM     21  C   UNL     1       7.012 -28.221   0.009  1.00  0.00     0.085 C 
ATOM     22  C   UNL     1       5.736 -30.137   2.025  1.00  0.00    -0.000 C 
ATOM     23  C   UNL     1       6.999 -29.700  -0.188  1.00  0.00     0.159 C 
ATOM     24  C   UNL     1       6.062 -30.539   0.586  1.00  0.00     0.005 C 
ATOM     25  C   UNL     1       4.369 -30.764   2.446  1.00  0.00     0.020 C 
ATOM     26  C   UNL     1       6.873 -30.708   2.921  1.00  0.00     0.017 C 
ATOM     27  O   UNL     1       7.728 -30.210  -1.082  1.00  0.00    -0.295 OA
ATOM     28  C   UNL     1       5.628 -31.701   0.062  1.00  0.00     0.055 C 
ATOM     29  C   UNL     1       4.301 -32.275   2.197  1.00  0.00     0.081 C 
ATOM     30  C   UNL     1       4.733 -32.603   0.802  1.00  0.00     0.156 C 
ATOM     31  O   UNL     1       4.361 -33.683   0.272  1.00  0.00    -0.295 OA
ENDBRANCH   9  11
ENDBRANCH   8   9
ENDBRANCH   1   8
TORSDOF 6
ENDMDL
MODEL 2
REMARK VINA RESULT:    -5.686      3.072      7.183
REMARK INTER + INTRA:          -9.986
REMARK INTER:                  -8.232
REMARK INTRA:                  -1.753
REMARK UNBOUND:                -2.306
REMARK SMILES CC[C@@H](CC[C@H](C)[C@H]1CC[C@H]2[C@@H]3CC(=O)C4=CC(=O)CC[C@]4(C)[C@H]3CC[C@@]12C)C(C)C
REMARK SMILES IDX 4 1 3 2 2 3 1 4 29 5 30 6 31 7 5 8 6 9 7 10 8 11 9 12 27 13
REMARK SMILES IDX 10 14 11 15 26 16 28 17 12 18 25 19 24 20 13 21 22 22 14 23
REMARK SMILES IDX 16 24 21 25 23 26 15 27 17 28 20 29 18 30 19 31
REMARK H PARENT
REMARK Flexibility Score: inf
ROOT
ATOM      1  C   UNL     1       3.051 -32.575   4.451  1.00  0.00     0.004 C 
ENDROOT
BRANCH   1   2
ATOM      2  C   UNL     1       3.167 -31.573   5.631  1.00  0.00    -0.009 C 
BRANCH   2   3
ATOM      3  C   UNL     1       3.511 -32.248   6.997  1.00  0.00     0.000 C 
ATOM      4  C   UNL     1       3.407 -33.778   7.045  1.00  0.00     0.004 C 
ENDBRANCH   2   3
BRANCH   2   5
ATOM      5  C   UNL     1       1.951 -30.588   5.673  1.00  0.00    -0.014 C 
ATOM      6  C   UNL     1       2.266 -29.219   6.290  1.00  0.00     0.007 C 
ATOM      7  C   UNL     1       1.298 -30.407   4.292  1.00  0.00     0.007 C 
ENDBRANCH   2   5
ENDBRANCH   1   2
BRANCH   1   8
ATOM      8  C   UNL     1       4.248 -32.484   3.481  1.00  0.00     0.004 C 
BRANCH   8   9
ATOM      9  C   UNL     1       4.040 -31.458   2.334  1.00  0.00    -0.011 C 
ATOM     10  C   UNL     1       3.495 -32.167   1.075  1.00  0.00     0.008 C 
BRANCH   9  11
ATOM     11  C   UNL     1       5.366 -30.646   2.092  1.00  0.00    -0.002 C 
ATOM     12  C   UNL     1       5.578 -30.110   0.682  1.00  0.00     0.005 C 
ATOM     13  C   UNL     1       5.673 -29.445   3.036  1.00  0.00    -0.026 C 
ATOM     14  C   UNL     1       6.773 -29.181   0.812  1.00  0.00     0.005 C 
ATOM     15  C   UNL     1       6.768 -28.640   2.263  1.00  0.00    -0.001 C 
ATOM     16  C   UNL     1       4.437 -28.545   3.285  1.00  0.00     0.007 C 
ATOM     17  C   UNL     1       6.220 -29.978   4.387  1.00  0.00     0.012 C 
ATOM     18  C   UNL     1       6.600 -27.080   2.285  1.00  0.00     0.004 C 
ATOM     19  C   UNL     1       4.775 -27.298   4.113  1.00  0.00     0.005 C 
ATOM     20  C   UNL     1       6.075 -26.563   3.659  1.00  0.00     0.003 C 
ATOM     21  C   UNL     1       7.955 -26.428   1.926  1.00  0.00     0.085 C 
ATOM     22  C   UNL     1       5.942 -24.987   3.726  1.00  0.00    -0.000 C 
ATOM     23  C   UNL     1       7.947 -24.945   2.094  1.00  0.00     0.159 C 
ATOM     24  C   UNL     1       7.236 -24.336   3.237  1.00  0.00     0.005 C 
ATOM     25  C   UNL     1       5.677 -24.575   5.209  1.00  0.00     0.020 C 
ATOM     26  C   UNL     1       4.797 -24.450   2.820  1.00  0.00     0.017 C 
ATOM     27  O   UNL     1       8.626 -24.232   1.307  1.00  0.00    -0.295 OA
ATOM     28  C   UNL     1       7.663 -23.157   3.727  1.00  0.00     0.055 C 
ATOM     29  C   UNL     1       5.726 -23.058   5.427  1.00  0.00     0.081 C 
ATOM     30  C   UNL     1       6.969 -22.476   4.831  1.00  0.00     0.156 C 
ATOM     31  O   UNL     1       7.402 -21.370   5.249  1.00  0.00    -0.295 OA
ENDBRANCH   9  11
ENDBRANCH   8   9
ENDBRANCH   1   8
TORSDOF 6
ENDMDL
MODEL 3
REMARK VINA RESULT:    -5.635      3.895      6.207
REMARK INTER + INTRA:          -9.917
REMARK INTER:                  -7.968
REMARK INTRA:                  -1.949
REMARK UNBOUND:                -2.306
REMARK SMILES CC[C@@H](CC[C@H](C)[C@H]1CC[C@H]2[C@@H]3CC(=O)C4=CC(=O)CC[C@]4(C)[C@H]3CC[C@@]12C)C(C)C
REMARK SMILES IDX 4 1 3 2 2 3 1 4 29 5 30 6 31 7 5 8 6 9 7 10 8 11 9 12 27 13
REMARK SMILES IDX 10 14 11 15 26 16 28 17 12 18 25 19 24 20 13 21 22 22 14 23
REMARK SMILES IDX 16 24 21 25 23 26 15 27 17 28 20 29 18 30 19 31
REMARK H PARENT
REMARK Flexibility Score: inf
ROOT
ATOM      1  C   UNL     1       7.330 -24.371   4.071  1.00  0.00     0.004 C 
ENDROOT
BRANCH   1   2
ATOM      2  C   UNL     1       7.499 -22.846   4.307  1.00  0.00    -0.009 C 
BRANCH   2   3
ATOM      3  C   UNL     1       8.939 -22.319   4.012  1.00  0.00     0.000 C 
ATOM      4  C   UNL     1       9.106 -21.473   2.743  1.00  0.00     0.004 C 
ENDBRANCH   2   3
BRANCH   2   5
ATOM      5  C   UNL     1       6.910 -22.408   5.691  1.00  0.00    -0.014 C 
ATOM      6  C   UNL     1       5.546 -21.710   5.606  1.00  0.00     0.007 C 
ATOM      7  C   UNL     1       6.847 -23.573   6.692  1.00  0.00     0.007 C 
ENDBRANCH   2   5
ENDBRANCH   1   2
BRANCH   1   8
ATOM      8  C   UNL     1       6.551 -24.684   2.775  1.00  0.00     0.004 C 
BRANCH   8   9
ATOM      9  C   UNL     1       5.025 -24.867   2.998  1.00  0.00    -0.011 C 
ATOM     10  C   UNL     1       4.264 -23.601   2.547  1.00  0.00     0.008 C 
BRANCH   9  11
ATOM     11  C   UNL     1       4.747 -25.288   4.488  1.00  0.00    -0.002 C 
ATOM     12  C   UNL     1       3.665 -24.504   5.218  1.00  0.00     0.005 C 
ATOM     13  C   UNL     1       4.431 -26.787   4.779  1.00  0.00    -0.026 C 
ATOM     14  C   UNL     1       3.447 -25.279   6.506  1.00  0.00     0.005 C 
ATOM     15  C   UNL     1       3.795 -26.758   6.208  1.00  0.00    -0.001 C 
ATOM     16  C   UNL     1       3.428 -27.397   3.769  1.00  0.00     0.007 C 
ATOM     17  C   UNL     1       5.752 -27.603   4.771  1.00  0.00     0.012 C 
ATOM     18  C   UNL     1       2.546 -27.686   6.408  1.00  0.00     0.004 C 
ATOM     19  C   UNL     1       3.026 -28.832   4.133  1.00  0.00     0.005 C 
ATOM     20  C   UNL     1       2.686 -29.037   5.643  1.00  0.00     0.003 C 
ATOM     21  C   UNL     1       2.339 -27.923   7.921  1.00  0.00     0.085 C 
ATOM     22  C   UNL     1       1.461 -30.014   5.866  1.00  0.00    -0.000 C 
ATOM     23  C   UNL     1       1.284 -28.938   8.211  1.00  0.00     0.159 C 
ATOM     24  C   UNL     1       1.164 -30.140   7.361  1.00  0.00     0.005 C 
ATOM     25  C   UNL     1       1.833 -31.416   5.287  1.00  0.00     0.020 C 
ATOM     26  C   UNL     1       0.159 -29.496   5.191  1.00  0.00     0.017 C 
ATOM     27  O   UNL     1       0.561 -28.801   9.235  1.00  0.00    -0.295 OA
ATOM     28  C   UNL     1       0.669 -31.275   7.890  1.00  0.00     0.055 C 
ATOM     29  C   UNL     1       0.798 -32.497   5.622  1.00  0.00     0.081 C 
ATOM     30  C   UNL     1       0.480 -32.491   7.084  1.00  0.00     0.156 C 
ATOM     31  O   UNL     1       0.005 -33.526   7.622  1.00  0.00    -0.295 OA
ENDBRANCH   9  11
ENDBRANCH   8   9
ENDBRANCH   1   8
TORSDOF 6
ENDMDL
MODEL 4
REMARK VINA RESULT:    -5.603      3.752      6.103
REMARK INTER + INTRA:          -9.874
REMARK INTER:                  -7.624
REMARK INTRA:                  -2.251
REMARK UNBOUND:                -2.306
REMARK SMILES CC[C@@H](CC[C@H](C)[C@H]1CC[C@H]2[C@@H]3CC(=O)C4=CC(=O)CC[C@]4(C)[C@H]3CC[C@@]12C)C(C)C
REMARK SMILES IDX 4 1 3 2 2 3 1 4 29 5 30 6 31 7 5 8 6 9 7 10 8 11 9 12 27 13
REMARK SMILES IDX 10 14 11 15 26 16 28 17 12 18 25 19 24 20 13 21 22 22 14 23
REMARK SMILES IDX 16 24 21 25 23 26 15 27 17 28 20 29 18 30 19 31
REMARK H PARENT
REMARK Flexibility Score: inf
ROOT
ATOM      1  C   UNL     1       4.582 -23.132   5.235  1.00  0.00     0.004 C 
ENDROOT
BRANCH   1   2
ATOM      2  C   UNL     1       5.808 -22.889   4.313  1.00  0.00    -0.009 C 
BRANCH   2   3
ATOM      3  C   UNL     1       5.976 -23.966   3.195  1.00  0.00     0.000 C 
ATOM      4  C   UNL     1       4.683 -24.574   2.636  1.00  0.00     0.004 C 
ENDBRANCH   2   3
BRANCH   2   5
ATOM      5  C   UNL     1       7.103 -22.594   5.141  1.00  0.00    -0.014 C 
ATOM      6  C   UNL     1       8.239 -23.602   4.920  1.00  0.00     0.007 C 
ATOM      7  C   UNL     1       7.618 -21.161   4.927  1.00  0.00     0.007 C 
ENDBRANCH   2   5
ENDBRANCH   1   2
BRANCH   1   8
ATOM      8  C   UNL     1       4.974 -23.226   6.725  1.00  0.00     0.004 C 
BRANCH   8   9
ATOM      9  C   UNL     1       4.876 -24.664   7.303  1.00  0.00    -0.011 C 
ATOM     10  C   UNL     1       6.236 -25.097   7.893  1.00  0.00     0.008 C 
BRANCH   9  11
ATOM     11  C   UNL     1       4.307 -25.643   6.212  1.00  0.00    -0.002 C 
ATOM     12  C   UNL     1       5.281 -26.678   5.664  1.00  0.00     0.005 C 
ATOM     13  C   UNL     1       3.009 -26.440   6.546  1.00  0.00    -0.026 C 
ATOM     14  C   UNL     1       4.407 -27.616   4.846  1.00  0.00     0.005 C 
ATOM     15  C   UNL     1       2.995 -27.584   5.479  1.00  0.00    -0.001 C 
ATOM     16  C   UNL     1       3.029 -27.050   7.970  1.00  0.00     0.007 C 
ATOM     17  C   UNL     1       1.777 -25.510   6.385  1.00  0.00     0.012 C 
ATOM     18  C   UNL     1       2.582 -28.999   6.015  1.00  0.00     0.004 C 
ATOM     19  C   UNL     1       1.807 -27.934   8.248  1.00  0.00     0.005 C 
ATOM     20  C   UNL     1       1.454 -28.918   7.088  1.00  0.00     0.003 C 
ATOM     21  C   UNL     1       2.149 -29.877   4.819  1.00  0.00     0.085 C 
ATOM     22  C   UNL     1       0.983 -30.336   7.611  1.00  0.00    -0.000 C 
ATOM     23  C   UNL     1       1.567 -31.186   5.240  1.00  0.00     0.159 C 
ATOM     24  C   UNL     1       0.687 -31.255   6.424  1.00  0.00     0.005 C 
ATOM     25  C   UNL     1      -0.315 -30.145   8.460  1.00  0.00     0.020 C 
ATOM     26  C   UNL     1       2.071 -31.043   8.468  1.00  0.00     0.017 C 
ATOM     27  O   UNL     1       1.761 -32.206   4.525  1.00  0.00    -0.295 OA
ATOM     28  C   UNL     1      -0.260 -32.210   6.489  1.00  0.00     0.055 C 
ATOM     29  C   UNL     1      -0.973 -31.472   8.855  1.00  0.00     0.081 C 
ATOM     30  C   UNL     1      -1.134 -32.361   7.662  1.00  0.00     0.156 C 
ATOM     31  O   UNL     1      -1.999 -33.275   7.679  1.00  0.00    -0.295 OA
ENDBRANCH   9  11
ENDBRANCH   8   9
ENDBRANCH   1   8
TORSDOF 6
ENDMDL
MODEL 5
REMARK VINA RESULT:    -5.597      2.051      3.249
REMARK INTER + INTRA:          -9.866
REMARK INTER:                  -7.794
REMARK INTRA:                  -2.072
REMARK UNBOUND:                -2.306
REMARK SMILES CC[C@@H](CC[C@H](C)[C@H]1CC[C@H]2[C@@H]3CC(=O)C4=CC(=O)CC[C@]4(C)[C@H]3CC[C@@]12C)C(C)C
REMARK SMILES IDX 4 1 3 2 2 3 1 4 29 5 30 6 31 7 5 8 6 9 7 10 8 11 9 12 27 13
REMARK SMILES IDX 10 14 11 15 26 16 28 17 12 18 25 19 24 20 13 21 22 22 14 23
REMARK SMILES IDX 16 24 21 25 23 26 15 27 17 28 20 29 18 30 19 31
REMARK H PARENT
REMARK Flexibility Score: inf
ROOT
ATOM      1  C   UNL     1       1.541 -26.575   6.828  1.00  0.00     0.004 C 
ENDROOT
BRANCH   1   2
ATOM      2  C   UNL     1       2.399 -27.725   7.420  1.00  0.00    -0.009 C 
BRANCH   2   3
ATOM      3  C   UNL     1       2.223 -29.088   6.678  1.00  0.00     0.000 C 
ATOM      4  C   UNL     1       0.833 -29.367   6.091  1.00  0.00     0.004 C 
ENDBRANCH   2   3
BRANCH   2   5
ATOM      5  C   UNL     1       2.263 -27.803   8.978  1.00  0.00    -0.014 C 
ATOM      6  C   UNL     1       3.319 -26.997   9.747  1.00  0.00     0.007 C 
ATOM      7  C   UNL     1       0.853 -27.423   9.460  1.00  0.00     0.007 C 
ENDBRANCH   2   5
ENDBRANCH   1   2
BRANCH   1   8
ATOM      8  C   UNL     1       2.398 -25.373   6.374  1.00  0.00     0.004 C 
BRANCH   8   9
ATOM      9  C   UNL     1       3.920 -25.677   6.338  1.00  0.00    -0.011 C 
ATOM     10  C   UNL     1       4.673 -24.745   7.313  1.00  0.00     0.008 C 
BRANCH   9  11
ATOM     11  C   UNL     1       4.445 -25.617   4.856  1.00  0.00    -0.002 C 
ATOM     12  C   UNL     1       5.720 -24.817   4.626  1.00  0.00     0.005 C 
ATOM     13  C   UNL     1       4.665 -26.962   4.101  1.00  0.00    -0.026 C 
ATOM     14  C   UNL     1       6.112 -25.143   3.195  1.00  0.00     0.005 C 
ATOM     15  C   UNL     1       5.570 -26.561   2.890  1.00  0.00    -0.001 C 
ATOM     16  C   UNL     1       5.386 -28.026   4.966  1.00  0.00     0.007 C 
ATOM     17  C   UNL     1       3.296 -27.512   3.617  1.00  0.00     0.012 C 
ATOM     18  C   UNL     1       6.739 -27.556   2.564  1.00  0.00     0.004 C 
ATOM     19  C   UNL     1       5.710 -29.302   4.180  1.00  0.00     0.005 C 
ATOM     20  C   UNL     1       6.321 -29.044   2.766  1.00  0.00     0.003 C 
ATOM     21  C   UNL     1       7.216 -27.305   1.115  1.00  0.00     0.085 C 
ATOM     22  C   UNL     1       7.465 -30.073   2.397  1.00  0.00    -0.000 C 
ATOM     23  C   UNL     1       8.205 -28.320   0.646  1.00  0.00     0.159 C 
ATOM     24  C   UNL     1       8.037 -29.739   1.018  1.00  0.00     0.005 C 
ATOM     25  C   UNL     1       6.852 -31.510   2.375  1.00  0.00     0.020 C 
ATOM     26  C   UNL     1       8.652 -30.025   3.401  1.00  0.00     0.017 C 
ATOM     27  O   UNL     1       9.125 -27.967  -0.141  1.00  0.00    -0.295 OA
ATOM     28  C   UNL     1       8.515 -30.697   0.201  1.00  0.00     0.055 C 
ATOM     29  C   UNL     1       7.823 -32.567   1.837  1.00  0.00     0.081 C 
ATOM     30  C   UNL     1       8.423 -32.125   0.539  1.00  0.00     0.156 C 
ATOM     31  O   UNL     1       8.892 -32.984  -0.254  1.00  0.00    -0.295 OA
ENDBRANCH   9  11
ENDBRANCH   8   9
ENDBRANCH   1   8
TORSDOF 6
ENDMDL
MODEL 6
REMARK VINA RESULT:    -5.497      3.931      7.821
REMARK INTER + INTRA:          -9.730
REMARK INTER:                  -7.685
REMARK INTRA:                  -2.045
REMARK UNBOUND:                -2.306
REMARK SMILES CC[C@@H](CC[C@H](C)[C@H]1CC[C@H]2[C@@H]3CC(=O)C4=CC(=O)CC[C@]4(C)[C@H]3CC[C@@]12C)C(C)C
REMARK SMILES IDX 4 1 3 2 2 3 1 4 29 5 30 6 31 7 5 8 6 9 7 10 8 11 9 12 27 13
REMARK SMILES IDX 10 14 11 15 26 16 28 17 12 18 25 19 24 20 13 21 22 22 14 23
REMARK SMILES IDX 16 24 21 25 23 26 15 27 17 28 20 29 18 30 19 31
REMARK H PARENT
REMARK Flexibility Score: inf
ROOT
ATOM      1  C   UNL     1      -1.103 -30.391   6.741  1.00  0.00     0.004 C 
ENDROOT
BRANCH   1   2
ATOM      2  C   UNL     1      -0.097 -30.517   5.565  1.00  0.00    -0.009 C 
BRANCH   2   3
ATOM      3  C   UNL     1      -0.668 -30.033   4.195  1.00  0.00     0.000 C 
ATOM      4  C   UNL     1       0.080 -28.877   3.516  1.00  0.00     0.004 C 
ENDBRANCH   2   3
BRANCH   2   5
ATOM      5  C   UNL     1       0.580 -31.928   5.533  1.00  0.00    -0.014 C 
ATOM      6  C   UNL     1       2.112 -31.897   5.622  1.00  0.00     0.007 C 
ATOM      7  C   UNL     1       0.008 -32.874   6.603  1.00  0.00     0.007 C 
ENDBRANCH   2   5
ENDBRANCH   1   2
BRANCH   1   8
ATOM      8  C   UNL     1      -0.645 -29.369   7.803  1.00  0.00     0.004 C 
BRANCH   8   9
ATOM      9  C   UNL     1       0.818 -29.583   8.279  1.00  0.00    -0.011 C 
ATOM     10  C   UNL     1       0.846 -30.494   9.525  1.00  0.00     0.008 C 
BRANCH   9  11
ATOM     11  C   UNL     1       1.526 -28.193   8.481  1.00  0.00    -0.002 C 
ATOM     12  C   UNL     1       2.754 -28.190   9.382  1.00  0.00     0.005 C 
ATOM     13  C   UNL     1       1.948 -27.392   7.212  1.00  0.00    -0.026 C 
ATOM     14  C   UNL     1       3.355 -26.807   9.187  1.00  0.00     0.005 C 
ATOM     15  C   UNL     1       2.970 -26.344   7.761  1.00  0.00    -0.001 C 
ATOM     16  C   UNL     1       2.630 -28.280   6.141  1.00  0.00     0.007 C 
ATOM     17  C   UNL     1       0.701 -26.694   6.606  1.00  0.00     0.012 C 
ATOM     18  C   UNL     1       4.245 -26.118   6.876  1.00  0.00     0.004 C 
ATOM     19  C   UNL     1       3.153 -27.467   4.950  1.00  0.00     0.005 C 
ATOM     20  C   UNL     1       3.922 -26.169   5.351  1.00  0.00     0.003 C 
ATOM     21  C   UNL     1       4.888 -24.767   7.262  1.00  0.00     0.085 C 
ATOM     22  C   UNL     1       5.181 -25.895   4.433  1.00  0.00    -0.000 C 
ATOM     23  C   UNL     1       6.005 -24.374   6.354  1.00  0.00     0.159 C 
ATOM     24  C   UNL     1       5.902 -24.631   4.904  1.00  0.00     0.005 C 
ATOM     25  C   UNL     1       4.690 -25.700   2.963  1.00  0.00     0.020 C 
ATOM     26  C   UNL     1       6.219 -27.052   4.490  1.00  0.00     0.017 C 
ATOM     27  O   UNL     1       6.990 -23.743   6.826  1.00  0.00    -0.295 OA
ATOM     28  C   UNL     1       6.556 -23.828   4.043  1.00  0.00     0.055 C 
ATOM     29  C   UNL     1       5.803 -25.235   2.016  1.00  0.00     0.081 C 
ATOM     30  C   UNL     1       6.531 -24.061   2.591  1.00  0.00     0.156 C 
ATOM     31  O   UNL     1       7.166 -23.287   1.826  1.00  0.00    -0.295 OA
ENDBRANCH   9  11
ENDBRANCH   8   9
ENDBRANCH   1   8
TORSDOF 6
ENDMDL
MODEL 7
REMARK VINA RESULT:    -5.404      3.314      6.063
REMARK INTER + INTRA:          -9.605
REMARK INTER:                  -7.300
REMARK INTRA:                  -2.305
REMARK UNBOUND:                -2.306
REMARK SMILES CC[C@@H](CC[C@H](C)[C@H]1CC[C@H]2[C@@H]3CC(=O)C4=CC(=O)CC[C@]4(C)[C@H]3CC[C@@]12C)C(C)C
REMARK SMILES IDX 4 1 3 2 2 3 1 4 29 5 30 6 31 7 5 8 6 9 7 10 8 11 9 12 27 13
REMARK SMILES IDX 10 14 11 15 26 16 28 17 12 18 25 19 24 20 13 21 22 22 14 23
REMARK SMILES IDX 16 24 21 25 23 26 15 27 17 28 20 29 18 30 19 31
REMARK H PARENT
REMARK Flexibility Score: inf
ROOT
ATOM      1  C   UNL     1      -0.520 -30.148   7.314  1.00  0.00     0.004 C 
ENDROOT
BRANCH   1   2
ATOM      2  C   UNL     1       0.626 -31.102   6.883  1.00  0.00    -0.009 C 
BRANCH   2   3
ATOM      3  C   UNL     1       0.524 -31.578   5.399  1.00  0.00     0.000 C 
ATOM      4  C   UNL     1       1.741 -32.326   4.839  1.00  0.00     0.004 C 
ENDBRANCH   2   3
BRANCH   2   5
ATOM      5  C   UNL     1       0.846 -32.248   7.926  1.00  0.00    -0.014 C 
ATOM      6  C   UNL     1       2.249 -32.276   8.549  1.00  0.00     0.007 C 
ATOM      7  C   UNL     1      -0.223 -32.243   9.032  1.00  0.00     0.007 C 
ENDBRANCH   2   5
ENDBRANCH   1   2
BRANCH   1   8
ATOM      8  C   UNL     1       0.000 -28.766   7.764  1.00  0.00     0.004 C 
BRANCH   8   9
ATOM      9  C   UNL     1       1.547 -28.693   7.875  1.00  0.00    -0.011 C 
ATOM     10  C   UNL     1       1.971 -28.587   9.357  1.00  0.00     0.008 C 
BRANCH   9  11
ATOM     11  C   UNL     1       2.099 -27.536   6.964  1.00  0.00    -0.002 C 
ATOM     12  C   UNL     1       3.194 -26.667   7.568  1.00  0.00     0.005 C 
ATOM     13  C   UNL     1       2.610 -27.905   5.538  1.00  0.00    -0.026 C 
ATOM     14  C   UNL     1       3.691 -25.829   6.402  1.00  0.00     0.005 C 
ATOM     15  C   UNL     1       3.457 -26.659   5.117  1.00  0.00    -0.001 C 
ATOM     16  C   UNL     1       3.501 -29.173   5.530  1.00  0.00     0.007 C 
ATOM     17  C   UNL     1       1.397 -28.104   4.591  1.00  0.00     0.012 C 
ATOM     18  C   UNL     1       4.811 -26.978   4.393  1.00  0.00     0.004 C 
ATOM     19  C   UNL     1       4.102 -29.460   4.148  1.00  0.00     0.005 C 
ATOM     20  C   UNL     1       4.695 -28.203   3.436  1.00  0.00     0.003 C 
ATOM     21  C   UNL     1       5.277 -25.718   3.629  1.00  0.00     0.085 C 
ATOM     22  C   UNL     1       6.035 -28.518   2.654  1.00  0.00    -0.000 C 
ATOM     23  C   UNL     1       6.465 -25.971   2.761  1.00  0.00     0.159 C 
ATOM     24  C   UNL     1       6.574 -27.239   2.012  1.00  0.00     0.005 C 
ATOM     25  C   UNL     1       5.725 -29.571   1.542  1.00  0.00     0.020 C 
ATOM     26  C   UNL     1       7.154 -29.059   3.590  1.00  0.00     0.017 C 
ATOM     27  O   UNL     1       7.320 -25.058   2.606  1.00  0.00    -0.295 OA
ATOM     28  C   UNL     1       7.262 -27.265   0.855  1.00  0.00     0.055 C 
ATOM     29  C   UNL     1       6.906 -29.806   0.594  1.00  0.00     0.081 C 
ATOM     30  C   UNL     1       7.448 -28.506   0.088  1.00  0.00     0.156 C 
ATOM     31  O   UNL     1       8.107 -28.481  -0.985  1.00  0.00    -0.295 OA
ENDBRANCH   9  11
ENDBRANCH   8   9
ENDBRANCH   1   8
TORSDOF 6
ENDMDL
MODEL 8
REMARK VINA RESULT:    -5.321      3.064      8.581
REMARK INTER + INTRA:          -9.493
REMARK INTER:                  -7.566
REMARK INTRA:                  -1.927
REMARK UNBOUND:                -2.306
REMARK SMILES CC[C@@H](CC[C@H](C)[C@H]1CC[C@H]2[C@@H]3CC(=O)C4=CC(=O)CC[C@]4(C)[C@H]3CC[C@@]12C)C(C)C
REMARK SMILES IDX 4 1 3 2 2 3 1 4 29 5 30 6 31 7 5 8 6 9 7 10 8 11 9 12 27 13
REMARK SMILES IDX 10 14 11 15 26 16 28 17 12 18 25 19 24 20 13 21 22 22 14 23
REMARK SMILES IDX 16 24 21 25 23 26 15 27 17 28 20 29 18 30 19 31
REMARK H PARENT
REMARK Flexibility Score: inf
ROOT
ATOM      1  C   UNL     1       6.034 -33.343  -0.498  1.00  0.00     0.004 C 
ENDROOT
BRANCH   1   2
ATOM      2  C   UNL     1       7.353 -33.207  -1.306  1.00  0.00    -0.009 C 
BRANCH   2   3
ATOM      3  C   UNL     1       8.562 -32.703  -0.455  1.00  0.00     0.000 C 
ATOM      4  C   UNL     1       9.077 -31.293  -0.775  1.00  0.00     0.004 C 
ENDBRANCH   2   3
BRANCH   2   5
ATOM      5  C   UNL     1       7.129 -32.437  -2.650  1.00  0.00    -0.014 C 
ATOM      6  C   UNL     1       7.030 -33.340  -3.888  1.00  0.00     0.007 C 
ATOM      7  C   UNL     1       5.917 -31.493  -2.587  1.00  0.00     0.007 C 
ENDBRANCH   2   5
ENDBRANCH   1   2
BRANCH   1   8
ATOM      8  C   UNL     1       6.243 -33.115   1.015  1.00  0.00     0.004 C 
BRANCH   8   9
ATOM      9  C   UNL     1       5.434 -31.914   1.577  1.00  0.00    -0.011 C 
ATOM     10  C   UNL     1       4.054 -31.831   0.889  1.00  0.00     0.008 C 
BRANCH   9  11
ATOM     11  C   UNL     1       6.286 -30.596   1.472  1.00  0.00    -0.002 C 
ATOM     12  C   UNL     1       5.870 -29.612   0.387  1.00  0.00     0.005 C 
ATOM     13  C   UNL     1       6.466 -29.734   2.758  1.00  0.00    -0.026 C 
ATOM     14  C   UNL     1       6.682 -28.362   0.685  1.00  0.00     0.005 C 
ATOM     15  C   UNL     1       6.950 -28.351   2.210  1.00  0.00    -0.001 C 
ATOM     16  C   UNL     1       5.146 -29.552   3.548  1.00  0.00     0.007 C 
ATOM     17  C   UNL     1       7.543 -30.383   3.667  1.00  0.00     0.012 C 
ATOM     18  C   UNL     1       6.305 -27.093   2.889  1.00  0.00     0.004 C 
ATOM     19  C   UNL     1       5.302 -28.603   4.743  1.00  0.00     0.005 C 
ATOM     20  C   UNL     1       6.091 -27.294   4.421  1.00  0.00     0.003 C 
ATOM     21  C   UNL     1       7.198 -25.863   2.610  1.00  0.00     0.085 C 
ATOM     22  C   UNL     1       5.486 -26.022   5.142  1.00  0.00    -0.000 C 
ATOM     23  C   UNL     1       6.766 -24.649   3.364  1.00  0.00     0.159 C 
ATOM     24  C   UNL     1       6.285 -24.777   4.754  1.00  0.00     0.005 C 
ATOM     25  C   UNL     1       5.573 -26.239   6.686  1.00  0.00     0.020 C 
ATOM     26  C   UNL     1       4.009 -25.755   4.732  1.00  0.00     0.017 C 
ATOM     27  O   UNL     1       6.902 -23.513   2.834  1.00  0.00    -0.295 OA
ATOM     28  C   UNL     1       6.439 -23.744   5.604  1.00  0.00     0.055 C 
ATOM     29  C   UNL     1       5.196 -24.989   7.489  1.00  0.00     0.081 C 
ATOM     30  C   UNL     1       5.938 -23.791   6.986  1.00  0.00     0.156 C 
ATOM     31  O   UNL     1       6.099 -22.796   7.740  1.00  0.00    -0.295 OA
ENDBRANCH   9  11
ENDBRANCH   8   9
ENDBRANCH   1   8
TORSDOF 6
ENDMDL
MODEL 9
REMARK VINA RESULT:    -5.249      3.506      6.730
REMARK INTER + INTRA:          -9.396
REMARK INTER:                  -7.532
REMARK INTRA:                  -1.865
REMARK UNBOUND:                -2.306
REMARK SMILES CC[C@@H](CC[C@H](C)[C@H]1CC[C@H]2[C@@H]3CC(=O)C4=CC(=O)CC[C@]4(C)[C@H]3CC[C@@]12C)C(C)C
REMARK SMILES IDX 4 1 3 2 2 3 1 4 29 5 30 6 31 7 5 8 6 9 7 10 8 11 9 12 27 13
REMARK SMILES IDX 10 14 11 15 26 16 28 17 12 18 25 19 24 20 13 21 22 22 14 23
REMARK SMILES IDX 16 24 21 25 23 26 15 27 17 28 20 29 18 30 19 31
REMARK H PARENT
REMARK Flexibility Score: inf
ROOT
ATOM      1  C   UNL     1       8.409 -26.214   2.121  1.00  0.00     0.004 C 
ENDROOT
BRANCH   1   2
ATOM      2  C   UNL     1       7.776 -26.897   0.878  1.00  0.00    -0.009 C 
BRANCH   2   3
ATOM      3  C   UNL     1       7.024 -28.226   1.207  1.00  0.00     0.000 C 
ATOM      4  C   UNL     1       7.738 -29.195   2.158  1.00  0.00     0.004 C 
ENDBRANCH   2   3
BRANCH   2   5
ATOM      5  C   UNL     1       8.794 -26.995  -0.307  1.00  0.00    -0.014 C 
ATOM      6  C   UNL     1       8.437 -28.049  -1.363  1.00  0.00     0.007 C 
ATOM      7  C   UNL     1       9.038 -25.634  -0.980  1.00  0.00     0.007 C 
ENDBRANCH   2   5
ENDBRANCH   1   2
BRANCH   1   8
ATOM      8  C   UNL     1       7.734 -24.867   2.460  1.00  0.00     0.004 C 
BRANCH   8   9
ATOM      9  C   UNL     1       6.185 -24.907   2.359  1.00  0.00    -0.011 C 
ATOM     10  C   UNL     1       5.678 -23.750   1.470  1.00  0.00     0.008 C 
BRANCH   9  11
ATOM     11  C   UNL     1       5.553 -24.936   3.799  1.00  0.00    -0.002 C 
ATOM     12  C   UNL     1       4.450 -23.922   4.070  1.00  0.00     0.005 C 
ATOM     13  C   UNL     1       5.000 -26.293   4.330  1.00  0.00    -0.026 C 
ATOM     14  C   UNL     1       3.874 -24.346   5.411  1.00  0.00     0.005 C 
ATOM     15  C   UNL     1       4.090 -25.875   5.531  1.00  0.00    -0.001 C 
ATOM     16  C   UNL     1       4.160 -27.053   3.274  1.00  0.00     0.007 C 
ATOM     17  C   UNL     1       6.182 -27.180   4.807  1.00  0.00     0.012 C 
ATOM     18  C   UNL     1       2.721 -26.633   5.636  1.00  0.00     0.004 C 
ATOM     19  C   UNL     1       3.516 -28.326   3.840  1.00  0.00     0.005 C 
ATOM     20  C   UNL     1       2.847 -28.135   5.238  1.00  0.00     0.003 C 
ATOM     21  C   UNL     1       2.177 -26.483   7.074  1.00  0.00     0.085 C 
ATOM     22  C   UNL     1       1.490 -28.938   5.381  1.00  0.00    -0.000 C 
ATOM     23  C   UNL     1       0.966 -27.319   7.327  1.00  0.00     0.159 C 
ATOM     24  C   UNL     1       0.876 -28.678   6.757  1.00  0.00     0.005 C 
ATOM     25  C   UNL     1       1.797 -30.462   5.224  1.00  0.00     0.020 C 
ATOM     26  C   UNL     1       0.431 -28.505   4.327  1.00  0.00     0.017 C 
ATOM     27  O   UNL     1       0.069 -26.887   8.102  1.00  0.00    -0.295 OA
ATOM     28  C   UNL     1       0.144 -29.614   7.392  1.00  0.00     0.055 C 
ATOM     29  C   UNL     1       0.589 -31.351   5.539  1.00  0.00     0.081 C 
ATOM     30  C   UNL     1      -0.023 -30.970   6.851  1.00  0.00     0.156 C 
ATOM     31  O   UNL     1      -0.725 -31.808   7.477  1.00  0.00    -0.295 OA
ENDBRANCH   9  11
ENDBRANCH   8   9
ENDBRANCH   1   8
TORSDOF 6
ENDMDL
