MODEL 1
REMARK VINA RESULT:    -5.043      0.000      0.000
REMARK INTER + INTRA:         -10.477
REMARK INTER:                  -8.875
REMARK INTRA:                  -1.602
REMARK UNBOUND:                -1.602
REMARK SMILES CCCCCCCCCCCCCCC(=O)[O-]
REMARK SMILES IDX 9 1 10 2 11 3 12 4 13 5 14 6 15 7 16 8 17 9 8 10 7 11 6 12
REMARK SMILES IDX 5 13 4 14 3 15 2 16 1 17
REMARK H PARENT
REMARK Flexibility Score: inf
ROOT
ATOM      1  C   UNL     1       8.063  -2.265 -37.141  1.00  0.00     0.000 C 
ENDROOT
BRANCH   1   2
ATOM      2  C   UNL     1       7.964  -1.127 -38.171  1.00  0.00     0.000 C 
BRANCH   2   3
ATOM      3  C   UNL     1       8.838   0.085 -37.801  1.00  0.00     0.000 C 
BRANCH   3   4
ATOM      4  C   UNL     1       8.010   1.353 -37.538  1.00  0.00     0.000 C 
BRANCH   4   5
ATOM      5  C   UNL     1       8.312   1.982 -36.168  1.00  0.00     0.006 C 
BRANCH   5   6
ATOM      6  C   UNL     1       9.093   1.028 -35.252  1.00  0.00     0.053 C 
BRANCH   6   7
ATOM      7  C   UNL     1      10.428   1.590 -34.871  1.00  0.00     0.041 C 
ATOM      8  O   UNL     1      10.905   1.366 -33.727  1.00  0.00    -0.550 OA
ATOM      9  O   UNL     1      11.158   2.336 -35.787  1.00  0.00    -0.550 OA
ENDBRANCH   6   7
ENDBRANCH   5   6
ENDBRANCH   4   5
ENDBRANCH   3   4
ENDBRANCH   2   3
ENDBRANCH   1   2
BRANCH   1  10
ATOM     10  C   UNL     1       6.722  -2.991 -36.935  1.00  0.00     0.000 C 
BRANCH  10  11
ATOM     11  C   UNL     1       6.305  -3.065 -35.455  1.00  0.00    -0.000 C 
BRANCH  11  12
ATOM     12  C   UNL     1       5.243  -2.033 -35.021  1.00  0.00    -0.000 C 
BRANCH  12  13
ATOM     13  C   UNL     1       5.777  -0.608 -34.779  1.00  0.00    -0.000 C 
BRANCH  13  14
ATOM     14  C   UNL     1       5.117   0.145 -33.607  1.00  0.00    -0.000 C 
BRANCH  14  15
ATOM     15  C   UNL     1       5.883   1.388 -33.119  1.00  0.00    -0.000 C 
BRANCH  15  16
ATOM     16  C   UNL     1       6.506   1.197 -31.728  1.00  0.00    -0.003 C 
ATOM     17  C   UNL     1       7.985   1.569 -31.733  1.00  0.00     0.004 C 
ENDBRANCH  15  16
ENDBRANCH  14  15
ENDBRANCH  13  14
ENDBRANCH  12  13
ENDBRANCH  11  12
ENDBRANCH  10  11
ENDBRANCH   1  10
TORSDOF 13
ENDMDL
MODEL 2
REMARK VINA RESULT:    -4.832      3.842      7.388
REMARK INTER + INTRA:         -10.105
REMARK INTER:                  -9.348
REMARK INTRA:                  -0.757
REMARK UNBOUND:                -1.602
REMARK SMILES CCCCCCCCCCCCCCC(=O)[O-]
REMARK SMILES IDX 9 1 10 2 11 3 12 4 13 5 14 6 15 7 16 8 17 9 8 10 7 11 6 12
REMARK SMILES IDX 5 13 4 14 3 15 2 16 1 17
REMARK H PARENT
REMARK Flexibility Score: inf
ROOT
ATOM      1  C   UNL     1      10.577   2.183 -31.849  1.00  0.00     0.000 C 
ENDROOT
BRANCH   1   2
ATOM      2  C   UNL     1      10.876   1.897 -30.368  1.00  0.00     0.000 C 
BRANCH   2   3
ATOM      3  C   UNL     1       9.736   1.133 -29.669  1.00  0.00     0.000 C 
BRANCH   3   4
ATOM      4  C   UNL     1       8.379   1.330 -30.363  1.00  0.00     0.000 C 
BRANCH   4   5
ATOM      5  C   UNL     1       7.227   1.522 -29.363  1.00  0.00     0.006 C 
BRANCH   5   6
ATOM      6  C   UNL     1       7.356   0.596 -28.146  1.00  0.00     0.053 C 
BRANCH   6   7
ATOM      7  C   UNL     1       6.248  -0.410 -28.090  1.00  0.00     0.041 C 
ATOM      8  O   UNL     1       5.807  -0.926 -29.150  1.00  0.00    -0.550 OA
ATOM      9  O   UNL     1       5.722  -0.800 -26.865  1.00  0.00    -0.550 OA
ENDBRANCH   6   7
ENDBRANCH   5   6
ENDBRANCH   4   5
ENDBRANCH   3   4
ENDBRANCH   2   3
ENDBRANCH   1   2
BRANCH   1  10
ATOM     10  C   UNL     1      11.855   2.393 -32.678  1.00  0.00     0.000 C 
BRANCH  10  11
ATOM     11  C   UNL     1      11.749   1.808 -34.099  1.00  0.00    -0.000 C 
BRANCH  11  12
ATOM     12  C   UNL     1      10.319   1.455 -34.557  1.00  0.00    -0.000 C 
BRANCH  12  13
ATOM     13  C   UNL     1       9.982   1.851 -36.008  1.00  0.00    -0.000 C 
BRANCH  13  14
ATOM     14  C   UNL     1       8.494   2.152 -36.273  1.00  0.00    -0.000 C 
BRANCH  14  15
ATOM     15  C   UNL     1       7.860   1.342 -37.418  1.00  0.00    -0.000 C 
BRANCH  15  16
ATOM     16  C   UNL     1       8.894   0.544 -38.226  1.00  0.00    -0.003 C 
ATOM     17  C   UNL     1       8.479  -0.918 -38.356  1.00  0.00     0.004 C 
ENDBRANCH  15  16
ENDBRANCH  14  15
ENDBRANCH  13  14
ENDBRANCH  12  13
ENDBRANCH  11  12
ENDBRANCH  10  11
ENDBRANCH   1  10
TORSDOF 13
ENDMDL
MODEL 3
REMARK VINA RESULT:    -4.746      9.685     12.009
REMARK INTER + INTRA:          -9.954
REMARK INTER:                  -7.527
REMARK INTRA:                  -2.427
REMARK UNBOUND:                -1.602
REMARK SMILES CCCCCCCCCCCCCCC(=O)[O-]
REMARK SMILES IDX 9 1 10 2 11 3 12 4 13 5 14 6 15 7 16 8 17 9 8 10 7 11 6 12
REMARK SMILES IDX 5 13 4 14 3 15 2 16 1 17
REMARK H PARENT
REMARK Flexibility Score: inf
ROOT
ATOM      1  C   UNL     1       8.387  -7.165 -29.296  1.00  0.00     0.000 C 
ENDROOT
BRANCH   1   2
ATOM      2  C   UNL     1       9.128  -7.626 -28.030  1.00  0.00     0.000 C 
BRANCH   2   3
ATOM      3  C   UNL     1       9.779  -9.011 -28.194  1.00  0.00     0.000 C 
BRANCH   3   4
ATOM      4  C   UNL     1       9.820  -9.476 -29.658  1.00  0.00     0.000 C 
BRANCH   4   5
ATOM      5  C   UNL     1       9.270 -10.900 -29.842  1.00  0.00     0.006 C 
BRANCH   5   6
ATOM      6  C   UNL     1       8.511 -11.392 -28.601  1.00  0.00     0.053 C 
BRANCH   6   7
ATOM      7  C   UNL     1       9.137 -12.621 -28.016  1.00  0.00     0.041 C 
ATOM      8  O   UNL     1       8.831 -12.995 -26.854  1.00  0.00    -0.550 OA
ATOM      9  O   UNL     1      10.036 -13.369 -28.765  1.00  0.00    -0.550 OA
ENDBRANCH   6   7
ENDBRANCH   5   6
ENDBRANCH   4   5
ENDBRANCH   3   4
ENDBRANCH   2   3
ENDBRANCH   1   2
BRANCH   1  10
ATOM     10  C   UNL     1       7.068  -6.442 -28.977  1.00  0.00     0.000 C 
BRANCH  10  11
ATOM     11  C   UNL     1       5.826  -7.260 -29.379  1.00  0.00    -0.000 C 
BRANCH  11  12
ATOM     12  C   UNL     1       5.982  -8.790 -29.256  1.00  0.00    -0.000 C 
BRANCH  12  13
ATOM     13  C   UNL     1       5.817  -9.570 -30.574  1.00  0.00    -0.000 C 
BRANCH  13  14
ATOM     14  C   UNL     1       6.080  -8.752 -31.854  1.00  0.00    -0.000 C 
BRANCH  14  15
ATOM     15  C   UNL     1       7.466  -8.964 -32.488  1.00  0.00    -0.000 C 
BRANCH  15  16
ATOM     16  C   UNL     1       8.106  -7.654 -32.973  1.00  0.00    -0.003 C 
ATOM     17  C   UNL     1       7.162  -6.474 -32.772  1.00  0.00     0.004 C 
ENDBRANCH  15  16
ENDBRANCH  14  15
ENDBRANCH  13  14
ENDBRANCH  12  13
ENDBRANCH  11  12
ENDBRANCH  10  11
ENDBRANCH   1  10
TORSDOF 13
ENDMDL
MODEL 4
REMARK VINA RESULT:    -4.725      3.846      6.774
REMARK INTER + INTRA:          -9.918
REMARK INTER:                  -8.982
REMARK INTRA:                  -0.936
REMARK UNBOUND:                -1.602
REMARK SMILES CCCCCCCCCCCCCCC(=O)[O-]
REMARK SMILES IDX 9 1 10 2 11 3 12 4 13 5 14 6 15 7 16 8 17 9 8 10 7 11 6 12
REMARK SMILES IDX 5 13 4 14 3 15 2 16 1 17
REMARK H PARENT
REMARK Flexibility Score: inf
ROOT
ATOM      1  C   UNL     1       6.457   1.758 -33.510  1.00  0.00     0.000 C 
ENDROOT
BRANCH   1   2
ATOM      2  C   UNL     1       7.088   1.833 -32.110  1.00  0.00     0.000 C 
BRANCH   2   3
ATOM      3  C   UNL     1       6.321   0.999 -31.067  1.00  0.00     0.000 C 
BRANCH   3   4
ATOM      4  C   UNL     1       7.149   0.727 -29.802  1.00  0.00     0.000 C 
BRANCH   4   5
ATOM      5  C   UNL     1       6.385  -0.114 -28.765  1.00  0.00     0.006 C 
BRANCH   5   6
ATOM      6  C   UNL     1       7.115  -1.423 -28.430  1.00  0.00     0.053 C 
BRANCH   6   7
ATOM      7  C   UNL     1       7.046  -1.740 -26.967  1.00  0.00     0.041 C 
ATOM      8  O   UNL     1       8.026  -2.281 -26.391  1.00  0.00    -0.550 OA
ATOM      9  O   UNL     1       5.912  -1.413 -26.236  1.00  0.00    -0.550 OA
ENDBRANCH   6   7
ENDBRANCH   5   6
ENDBRANCH   4   5
ENDBRANCH   3   4
ENDBRANCH   2   3
ENDBRANCH   1   2
BRANCH   1  10
ATOM     10  C   UNL     1       6.143   0.314 -33.938  1.00  0.00     0.000 C 
BRANCH  10  11
ATOM     11  C   UNL     1       6.625  -0.004 -35.366  1.00  0.00    -0.000 C 
BRANCH  11  12
ATOM     12  C   UNL     1       7.306   1.168 -36.104  1.00  0.00    -0.000 C 
BRANCH  12  13
ATOM     13  C   UNL     1       8.751   0.898 -36.563  1.00  0.00    -0.000 C 
BRANCH  13  14
ATOM     14  C   UNL     1       9.819   1.808 -35.923  1.00  0.00    -0.000 C 
BRANCH  14  15
ATOM     15  C   UNL     1      10.203   1.443 -34.478  1.00  0.00    -0.000 C 
BRANCH  15  16
ATOM     16  C   UNL     1      11.653   1.814 -34.134  1.00  0.00    -0.003 C 
ATOM     17  C   UNL     1      12.348   2.472 -35.322  1.00  0.00     0.004 C 
ENDBRANCH  15  16
ENDBRANCH  14  15
ENDBRANCH  13  14
ENDBRANCH  12  13
ENDBRANCH  11  12
ENDBRANCH  10  11
ENDBRANCH   1  10
TORSDOF 13
ENDMDL
MODEL 5
REMARK VINA RESULT:    -4.719      3.069      6.152
REMARK INTER + INTRA:          -9.908
REMARK INTER:                  -8.894
REMARK INTRA:                  -1.013
REMARK UNBOUND:                -1.602
REMARK SMILES CCCCCCCCCCCCCCC(=O)[O-]
REMARK SMILES IDX 9 1 10 2 11 3 12 4 13 5 14 6 15 7 16 8 17 9 8 10 7 11 6 12
REMARK SMILES IDX 5 13 4 14 3 15 2 16 1 17
REMARK H PARENT
REMARK Flexibility Score: inf
ROOT
ATOM      1  C   UNL     1       6.705   1.328 -34.771  1.00  0.00     0.000 C 
ENDROOT
BRANCH   1   2
ATOM      2  C   UNL     1       6.467   0.431 -33.545  1.00  0.00     0.000 C 
BRANCH   2   3
ATOM      3  C   UNL     1       5.897   1.206 -32.343  1.00  0.00     0.000 C 
BRANCH   3   4
ATOM      4  C   UNL     1       6.979   1.978 -31.571  1.00  0.00     0.000 C 
BRANCH   4   5
ATOM      5  C   UNL     1       7.482   1.213 -30.336  1.00  0.00     0.006 C 
BRANCH   5   6
ATOM      6  C   UNL     1       6.423   0.250 -29.780  1.00  0.00     0.053 C 
BRANCH   6   7
ATOM      7  C   UNL     1       6.884  -0.418 -28.520  1.00  0.00     0.041 C 
ATOM      8  O   UNL     1       6.907  -1.674 -28.443  1.00  0.00    -0.550 OA
ATOM      9  O   UNL     1       7.314   0.346 -27.444  1.00  0.00    -0.550 OA
ENDBRANCH   6   7
ENDBRANCH   5   6
ENDBRANCH   4   5
ENDBRANCH   3   4
ENDBRANCH   2   3
ENDBRANCH   1   2
BRANCH   1  10
ATOM     10  C   UNL     1       8.200   1.555 -35.053  1.00  0.00     0.000 C 
BRANCH  10  11
ATOM     11  C   UNL     1       8.462   2.134 -36.456  1.00  0.00    -0.000 C 
BRANCH  11  12
ATOM     12  C   UNL     1       7.915   1.290 -37.625  1.00  0.00    -0.000 C 
BRANCH  12  13
ATOM     13  C   UNL     1       8.927   0.313 -38.254  1.00  0.00    -0.000 C 
BRANCH  13  14
ATOM     14  C   UNL     1       8.740  -1.165 -37.857  1.00  0.00    -0.000 C 
BRANCH  14  15
ATOM     15  C   UNL     1       7.570  -1.436 -36.894  1.00  0.00    -0.000 C 
BRANCH  15  16
ATOM     16  C   UNL     1       7.298  -2.935 -36.694  1.00  0.00    -0.003 C 
ATOM     17  C   UNL     1       6.144  -3.159 -35.723  1.00  0.00     0.004 C 
ENDBRANCH  15  16
ENDBRANCH  14  15
ENDBRANCH  13  14
ENDBRANCH  12  13
ENDBRANCH  11  12
ENDBRANCH  10  11
ENDBRANCH   1  10
TORSDOF 13
ENDMDL
MODEL 6
REMARK VINA RESULT:    -4.667      4.059      7.704
REMARK INTER + INTRA:          -9.816
REMARK INTER:                  -9.023
REMARK INTRA:                  -0.793
REMARK UNBOUND:                -1.602
REMARK SMILES CCCCCCCCCCCCCCC(=O)[O-]
REMARK SMILES IDX 9 1 10 2 11 3 12 4 13 5 14 6 15 7 16 8 17 9 8 10 7 11 6 12
REMARK SMILES IDX 5 13 4 14 3 15 2 16 1 17
REMARK H PARENT
REMARK Flexibility Score: inf
ROOT
ATOM      1  C   UNL     1       6.228   1.213 -31.253  1.00  0.00     0.000 C 
ENDROOT
BRANCH   1   2
ATOM      2  C   UNL     1       7.024   1.876 -30.116  1.00  0.00     0.000 C 
BRANCH   2   3
ATOM      3  C   UNL     1       7.513   0.863 -29.065  1.00  0.00     0.000 C 
BRANCH   3   4
ATOM      4  C   UNL     1       6.717  -0.451 -29.095  1.00  0.00     0.000 C 
BRANCH   4   5
ATOM      5  C   UNL     1       5.666  -0.531 -27.975  1.00  0.00     0.006 C 
BRANCH   5   6
ATOM      6  C   UNL     1       6.264  -1.032 -26.653  1.00  0.00     0.053 C 
BRANCH   6   7
ATOM      7  C   UNL     1       6.773  -2.436 -26.768  1.00  0.00     0.041 C 
ATOM      8  O   UNL     1       5.966  -3.391 -26.922  1.00  0.00    -0.550 OA
ATOM      9  O   UNL     1       8.138  -2.687 -26.735  1.00  0.00    -0.550 OA
ENDBRANCH   6   7
ENDBRANCH   5   6
ENDBRANCH   4   5
ENDBRANCH   3   4
ENDBRANCH   2   3
ENDBRANCH   1   2
BRANCH   1  10
ATOM     10  C   UNL     1       6.880   1.424 -32.630  1.00  0.00     0.000 C 
BRANCH  10  11
ATOM     11  C   UNL     1       8.418   1.460 -32.563  1.00  0.00    -0.000 C 
BRANCH  11  12
ATOM     12  C   UNL     1       9.134   1.447 -33.930  1.00  0.00    -0.000 C 
BRANCH  12  13
ATOM     13  C   UNL     1       8.201   1.479 -35.155  1.00  0.00    -0.000 C 
BRANCH  13  14
ATOM     14  C   UNL     1       8.887   1.835 -36.489  1.00  0.00    -0.000 C 
BRANCH  14  15
ATOM     15  C   UNL     1       8.159   1.335 -37.749  1.00  0.00    -0.000 C 
BRANCH  15  16
ATOM     16  C   UNL     1       8.865   0.142 -38.411  1.00  0.00    -0.003 C 
ATOM     17  C   UNL     1       8.442  -1.173 -37.765  1.00  0.00     0.004 C 
ENDBRANCH  15  16
ENDBRANCH  14  15
ENDBRANCH  13  14
ENDBRANCH  12  13
ENDBRANCH  11  12
ENDBRANCH  10  11
ENDBRANCH   1  10
TORSDOF 13
ENDMDL
MODEL 7
REMARK VINA RESULT:    -4.643      8.382     10.626
REMARK INTER + INTRA:          -9.773
REMARK INTER:                  -7.264
REMARK INTRA:                  -2.509
REMARK UNBOUND:                -1.602
REMARK SMILES CCCCCCCCCCCCCCC(=O)[O-]
REMARK SMILES IDX 9 1 10 2 11 3 12 4 13 5 14 6 15 7 16 8 17 9 8 10 7 11 6 12
REMARK SMILES IDX 5 13 4 14 3 15 2 16 1 17
REMARK H PARENT
REMARK Flexibility Score: inf
ROOT
ATOM      1  C   UNL     1       4.762  -8.231 -31.172  1.00  0.00     0.000 C 
ENDROOT
BRANCH   1   2
ATOM      2  C   UNL     1       5.450  -9.289 -30.294  1.00  0.00     0.000 C 
BRANCH   2   3
ATOM      3  C   UNL     1       6.188  -8.673 -29.091  1.00  0.00     0.000 C 
BRANCH   3   4
ATOM      4  C   UNL     1       6.246  -7.139 -29.155  1.00  0.00     0.000 C 
BRANCH   4   5
ATOM      5  C   UNL     1       7.674  -6.594 -28.984  1.00  0.00     0.006 C 
BRANCH   5   6
ATOM      6  C   UNL     1       8.674  -7.697 -28.608  1.00  0.00     0.053 C 
BRANCH   6   7
ATOM      7  C   UNL     1       9.621  -7.249 -27.537  1.00  0.00     0.041 C 
ATOM      8  O   UNL     1       9.613  -6.053 -27.146  1.00  0.00    -0.550 OA
ATOM      9  O   UNL     1      10.491  -8.160 -26.952  1.00  0.00    -0.550 OA
ENDBRANCH   6   7
ENDBRANCH   5   6
ENDBRANCH   4   5
ENDBRANCH   3   4
ENDBRANCH   2   3
ENDBRANCH   1   2
BRANCH   1  10
ATOM     10  C   UNL     1       4.648  -8.669 -32.642  1.00  0.00     0.000 C 
BRANCH  10  11
ATOM     11  C   UNL     1       5.710  -8.014 -33.545  1.00  0.00    -0.000 C 
BRANCH  11  12
ATOM     12  C   UNL     1       6.648  -7.016 -32.835  1.00  0.00    -0.000 C 
BRANCH  12  13
ATOM     13  C   UNL     1       8.105  -7.491 -32.673  1.00  0.00    -0.000 C 
BRANCH  13  14
ATOM     14  C   UNL     1       8.336  -8.990 -32.947  1.00  0.00    -0.000 C 
BRANCH  14  15
ATOM     15  C   UNL     1       8.846  -9.801 -31.742  1.00  0.00    -0.000 C 
BRANCH  15  16
ATOM     16  C   UNL     1       8.256 -11.218 -31.683  1.00  0.00    -0.003 C 
ATOM     17  C   UNL     1       7.225 -11.430 -32.788  1.00  0.00     0.004 C 
ENDBRANCH  15  16
ENDBRANCH  14  15
ENDBRANCH  13  14
ENDBRANCH  12  13
ENDBRANCH  11  12
ENDBRANCH  10  11
ENDBRANCH   1  10
TORSDOF 13
ENDMDL
MODEL 8
REMARK VINA RESULT:    -4.642      3.437      6.409
REMARK INTER + INTRA:          -9.771
REMARK INTER:                  -8.662
REMARK INTRA:                  -1.109
REMARK UNBOUND:                -1.602
REMARK SMILES CCCCCCCCCCCCCCC(=O)[O-]
REMARK SMILES IDX 9 1 10 2 11 3 12 4 13 5 14 6 15 7 16 8 17 9 8 10 7 11 6 12
REMARK SMILES IDX 5 13 4 14 3 15 2 16 1 17
REMARK H PARENT
REMARK Flexibility Score: inf
ROOT
ATOM      1  C   UNL     1      10.592   1.155 -32.735  1.00  0.00     0.000 C 
ENDROOT
BRANCH   1   2
ATOM      2  C   UNL     1       9.648   1.899 -31.775  1.00  0.00     0.000 C 
BRANCH   2   3
ATOM      3  C   UNL     1       8.164   1.586 -32.039  1.00  0.00     0.000 C 
BRANCH   3   4
ATOM      4  C   UNL     1       7.265   1.928 -30.841  1.00  0.00     0.000 C 
BRANCH   4   5
ATOM      5  C   UNL     1       7.764   1.299 -29.529  1.00  0.00     0.006 C 
BRANCH   5   6
ATOM      6  C   UNL     1       6.684   0.445 -28.849  1.00  0.00     0.053 C 
BRANCH   6   7
ATOM      7  C   UNL     1       7.116  -0.023 -27.493  1.00  0.00     0.041 C 
ATOM      8  O   UNL     1       7.713   0.764 -26.713  1.00  0.00    -0.550 OA
ATOM      9  O   UNL     1       6.832  -1.319 -27.081  1.00  0.00    -0.550 OA
ENDBRANCH   6   7
ENDBRANCH   5   6
ENDBRANCH   4   5
ENDBRANCH   3   4
ENDBRANCH   2   3
ENDBRANCH   1   2
BRANCH   1  10
ATOM     10  C   UNL     1      11.335   2.108 -33.687  1.00  0.00     0.000 C 
BRANCH  10  11
ATOM     11  C   UNL     1      10.950   1.898 -35.163  1.00  0.00    -0.000 C 
BRANCH  11  12
ATOM     12  C   UNL     1       9.440   1.727 -35.428  1.00  0.00    -0.000 C 
BRANCH  12  13
ATOM     13  C   UNL     1       9.082   0.727 -36.544  1.00  0.00    -0.000 C 
BRANCH  13  14
ATOM     14  C   UNL     1       7.656   0.147 -36.468  1.00  0.00    -0.000 C 
BRANCH  14  15
ATOM     15  C   UNL     1       6.858   0.546 -35.214  1.00  0.00    -0.000 C 
BRANCH  15  16
ATOM     16  C   UNL     1       5.902  -0.559 -34.739  1.00  0.00    -0.003 C 
ATOM     17  C   UNL     1       5.223  -0.172 -33.429  1.00  0.00     0.004 C 
ENDBRANCH  15  16
ENDBRANCH  14  15
ENDBRANCH  13  14
ENDBRANCH  12  13
ENDBRANCH  11  12
ENDBRANCH  10  11
ENDBRANCH   1  10
TORSDOF 13
ENDMDL
MODEL 9
REMARK VINA RESULT:    -4.587      9.426     11.356
REMARK INTER + INTRA:          -9.676
REMARK INTER:                  -7.329
REMARK INTRA:                  -2.347
REMARK UNBOUND:                -1.602
REMARK SMILES CCCCCCCCCCCCCCC(=O)[O-]
REMARK SMILES IDX 9 1 10 2 11 3 12 4 13 5 14 6 15 7 16 8 17 9 8 10 7 11 6 12
REMARK SMILES IDX 5 13 4 14 3 15 2 16 1 17
REMARK H PARENT
REMARK Flexibility Score: inf
ROOT
ATOM      1  C   UNL     1       8.499  -9.556 -33.579  1.00  0.00     0.000 C 
ENDROOT
BRANCH   1   2
ATOM      2  C   UNL     1       9.052  -8.758 -32.387  1.00  0.00     0.000 C 
BRANCH   2   3
ATOM      3  C   UNL     1       9.234  -9.622 -31.126  1.00  0.00     0.000 C 
BRANCH   3   4
ATOM      4  C   UNL     1       8.495 -10.966 -31.219  1.00  0.00     0.000 C 
BRANCH   4   5
ATOM      5  C   UNL     1       7.707 -11.297 -29.940  1.00  0.00     0.006 C 
BRANCH   5   6
ATOM      6  C   UNL     1       8.539 -11.064 -28.671  1.00  0.00     0.053 C 
BRANCH   6   7
ATOM      7  C   UNL     1       9.147 -12.336 -28.162  1.00  0.00     0.041 C 
ATOM      8  O   UNL     1       8.427 -13.195 -27.588  1.00  0.00    -0.550 OA
ATOM      9  O   UNL     1      10.501 -12.583 -28.346  1.00  0.00    -0.550 OA
ENDBRANCH   6   7
ENDBRANCH   5   6
ENDBRANCH   4   5
ENDBRANCH   3   4
ENDBRANCH   2   3
ENDBRANCH   1   2
BRANCH   1  10
ATOM     10  C   UNL     1       7.267  -8.890 -34.214  1.00  0.00     0.000 C 
BRANCH  10  11
ATOM     11  C   UNL     1       6.500  -7.989 -33.228  1.00  0.00    -0.000 C 
BRANCH  11  12
ATOM     12  C   UNL     1       5.137  -8.541 -32.762  1.00  0.00    -0.000 C 
BRANCH  12  13
ATOM     13  C   UNL     1       5.064  -8.926 -31.271  1.00  0.00    -0.000 C 
BRANCH  13  14
ATOM     14  C   UNL     1       5.312  -7.767 -30.285  1.00  0.00    -0.000 C 
BRANCH  14  15
ATOM     15  C   UNL     1       6.234  -8.107 -29.101  1.00  0.00    -0.000 C 
BRANCH  15  16
ATOM     16  C   UNL     1       7.456  -7.180 -29.012  1.00  0.00    -0.003 C 
ATOM     17  C   UNL     1       7.464  -6.171 -30.155  1.00  0.00     0.004 C 
ENDBRANCH  15  16
ENDBRANCH  14  15
ENDBRANCH  13  14
ENDBRANCH  12  13
ENDBRANCH  11  12
ENDBRANCH  10  11
ENDBRANCH   1  10
TORSDOF 13
ENDMDL
