MODEL 1
REMARK VINA RESULT:    -6.374      0.000      0.000
REMARK INTER + INTRA:         -14.043
REMARK INTER:                 -11.591
REMARK INTRA:                  -2.451
REMARK UNBOUND:                -2.451
REMARK SMILES CCCCCC=CCC=CCCCCCCCC(=O)[O-]
REMARK SMILES IDX 11 1 12 2 13 3 14 4 15 5 16 6 17 7 18 8 19 9 20 10 10 11
REMARK SMILES IDX 9 12 8 13 7 14 6 15 5 16 4 17 3 18 2 19 1 20
REMARK H PARENT
REMARK Flexibility Score: inf
ROOT
ATOM      1  C   UNL     1       8.535 -10.551  -2.358  1.00  0.00     0.027 C 
ENDROOT
BRANCH   1   2
ATOM      2  C   UNL     1       7.020 -10.633  -2.134  1.00  0.00     0.004 C 
BRANCH   2   3
ATOM      3  C   UNL     1       6.661 -11.398  -0.848  1.00  0.00     0.000 C 
BRANCH   3   4
ATOM      4  C   UNL     1       6.124 -12.816  -1.138  1.00  0.00     0.000 C 
BRANCH   4   5
ATOM      5  C   UNL     1       7.225 -13.891  -1.220  1.00  0.00     0.000 C 
BRANCH   5   6
ATOM      6  C   UNL     1       8.214 -13.898  -0.039  1.00  0.00     0.006 C 
BRANCH   6   7
ATOM      7  C   UNL     1       9.679 -13.656  -0.439  1.00  0.00     0.053 C 
BRANCH   7   8
ATOM      8  C   UNL     1      10.344 -12.651   0.450  1.00  0.00     0.041 C 
ATOM      9  O   UNL     1      10.086 -12.626   1.681  1.00  0.00    -0.550 OA
ATOM     10  O   UNL     1      11.221 -11.719  -0.089  1.00  0.00    -0.550 OA
ENDBRANCH   7   8
ENDBRANCH   6   7
ENDBRANCH   5   6
ENDBRANCH   4   5
ENDBRANCH   3   4
ENDBRANCH   2   3
ENDBRANCH   1   2
BRANCH   1  11
ATOM     11  C   UNL     1       9.014 -11.634  -3.287  1.00  0.00    -0.031 C 
ATOM     12  C   UNL     1       8.378 -11.909  -4.436  1.00  0.00    -0.027 C 
BRANCH  12  13
ATOM     13  C   UNL     1       8.895 -12.953  -5.384  1.00  0.00     0.054 C 
BRANCH  13  14
ATOM     14  C   UNL     1       8.968 -12.396  -6.783  1.00  0.00    -0.027 C 
ATOM     15  C   UNL     1      10.101 -12.220  -7.489  1.00  0.00    -0.031 C 
BRANCH  15  16
ATOM     16  C   UNL     1      11.491 -12.512  -6.979  1.00  0.00     0.027 C 
BRANCH  16  17
ATOM     17  C   UNL     1      12.124 -11.313  -6.249  1.00  0.00     0.004 C 
BRANCH  17  18
ATOM     18  C   UNL     1      12.822 -11.685  -4.929  1.00  0.00     0.000 C 
BRANCH  18  19
ATOM     19  C   UNL     1      12.331 -13.016  -4.344  1.00  0.00    -0.003 C 
ATOM     20  C   UNL     1      12.938 -13.271  -2.968  1.00  0.00     0.004 C 
ENDBRANCH  18  19
ENDBRANCH  17  18
ENDBRANCH  16  17
ENDBRANCH  15  16
ENDBRANCH  13  14
ENDBRANCH  12  13
ENDBRANCH   1  11
TORSDOF 14
ENDMDL
MODEL 2
REMARK VINA RESULT:    -6.089      2.948      3.417
REMARK INTER + INTRA:         -13.524
REMARK INTER:                 -10.964
REMARK INTRA:                  -2.559
REMARK UNBOUND:                -2.451
REMARK SMILES CCCCCC=CCC=CCCCCCCCC(=O)[O-]
REMARK SMILES IDX 11 1 12 2 13 3 14 4 15 5 16 6 17 7 18 8 19 9 20 10 10 11
REMARK SMILES IDX 9 12 8 13 7 14 6 15 5 16 4 17 3 18 2 19 1 20
REMARK H PARENT
REMARK Flexibility Score: inf
ROOT
ATOM      1  C   UNL     1       8.575 -11.663  -2.366  1.00  0.00     0.027 C 
ENDROOT
BRANCH   1   2
ATOM      2  C   UNL     1       8.182 -12.412  -1.086  1.00  0.00     0.004 C 
BRANCH   2   3
ATOM      3  C   UNL     1       7.266 -13.614  -1.373  1.00  0.00     0.000 C 
BRANCH   3   4
ATOM      4  C   UNL     1       7.771 -14.910  -0.704  1.00  0.00     0.000 C 
BRANCH   4   5
ATOM      5  C   UNL     1       9.226 -15.267  -1.065  1.00  0.00     0.000 C 
BRANCH   5   6
ATOM      6  C   UNL     1       9.386 -16.506  -1.967  1.00  0.00     0.006 C 
BRANCH   6   7
ATOM      7  C   UNL     1       8.650 -16.408  -3.314  1.00  0.00     0.053 C 
BRANCH   7   8
ATOM      8  C   UNL     1       9.389 -17.115  -4.408  1.00  0.00     0.041 C 
ATOM      9  O   UNL     1       9.436 -16.619  -5.563  1.00  0.00    -0.550 OA
ATOM     10  O   UNL     1       9.996 -18.339  -4.159  1.00  0.00    -0.550 OA
ENDBRANCH   7   8
ENDBRANCH   6   7
ENDBRANCH   5   6
ENDBRANCH   4   5
ENDBRANCH   3   4
ENDBRANCH   2   3
ENDBRANCH   1   2
BRANCH   1  11
ATOM     11  C   UNL     1       8.749 -12.607  -3.526  1.00  0.00    -0.031 C 
ATOM     12  C   UNL     1       8.684 -12.181  -4.797  1.00  0.00    -0.027 C 
BRANCH  12  13
ATOM     13  C   UNL     1       8.913 -13.119  -5.947  1.00  0.00     0.054 C 
BRANCH  13  14
ATOM     14  C   UNL     1       9.200 -12.338  -7.205  1.00  0.00    -0.027 C 
ATOM     15  C   UNL     1      10.428 -12.047  -7.672  1.00  0.00    -0.031 C 
BRANCH  15  16
ATOM     16  C   UNL     1      11.722 -12.417  -6.991  1.00  0.00     0.027 C 
BRANCH  16  17
ATOM     17  C   UNL     1      12.143 -11.398  -5.914  1.00  0.00     0.004 C 
BRANCH  17  18
ATOM     18  C   UNL     1      12.635 -12.042  -4.606  1.00  0.00     0.000 C 
BRANCH  18  19
ATOM     19  C   UNL     1      12.226 -13.515  -4.471  1.00  0.00    -0.003 C 
ATOM     20  C   UNL     1      12.170 -13.940  -3.007  1.00  0.00     0.004 C 
ENDBRANCH  18  19
ENDBRANCH  17  18
ENDBRANCH  16  17
ENDBRANCH  15  16
ENDBRANCH  13  14
ENDBRANCH  12  13
ENDBRANCH   1  11
TORSDOF 14
ENDMDL
MODEL 3
REMARK VINA RESULT:    -6.022      1.932      5.638
REMARK INTER + INTRA:         -13.401
REMARK INTER:                 -10.623
REMARK INTRA:                  -2.778
REMARK UNBOUND:                -2.451
REMARK SMILES CCCCCC=CCC=CCCCCCCCC(=O)[O-]
REMARK SMILES IDX 11 1 12 2 13 3 14 4 15 5 16 6 17 7 18 8 19 9 20 10 10 11
REMARK SMILES IDX 9 12 8 13 7 14 6 15 5 16 4 17 3 18 2 19 1 20
REMARK H PARENT
REMARK Flexibility Score: inf
ROOT
ATOM      1  C   UNL     1       9.173 -13.147  -5.841  1.00  0.00     0.027 C 
ENDROOT
BRANCH   1   2
ATOM      2  C   UNL     1       9.915 -12.335  -6.911  1.00  0.00     0.004 C 
BRANCH   2   3
ATOM      3  C   UNL     1      11.440 -12.517  -6.826  1.00  0.00     0.000 C 
BRANCH   3   4
ATOM      4  C   UNL     1      12.115 -11.434  -5.957  1.00  0.00     0.000 C 
BRANCH   4   5
ATOM      5  C   UNL     1      12.851 -11.997  -4.727  1.00  0.00     0.000 C 
BRANCH   5   6
ATOM      6  C   UNL     1      12.501 -13.455  -4.371  1.00  0.00     0.006 C 
BRANCH   6   7
ATOM      7  C   UNL     1      12.333 -13.716  -2.865  1.00  0.00     0.053 C 
BRANCH   7   8
ATOM      8  C   UNL     1      13.370 -14.661  -2.342  1.00  0.00     0.041 C 
ATOM      9  O   UNL     1      13.024 -15.712  -1.742  1.00  0.00    -0.550 OA
ATOM     10  O   UNL     1      14.719 -14.363  -2.487  1.00  0.00    -0.550 OA
ENDBRANCH   7   8
ENDBRANCH   6   7
ENDBRANCH   5   6
ENDBRANCH   4   5
ENDBRANCH   3   4
ENDBRANCH   2   3
ENDBRANCH   1   2
BRANCH   1  11
ATOM     11  C   UNL     1       8.562 -12.253  -4.795  1.00  0.00    -0.031 C 
ATOM     12  C   UNL     1       9.176 -12.014  -3.627  1.00  0.00    -0.027 C 
BRANCH  12  13
ATOM     13  C   UNL     1       8.586 -11.078  -2.611  1.00  0.00     0.054 C 
BRANCH  13  14
ATOM     14  C   UNL     1       7.101 -11.315  -2.488  1.00  0.00    -0.027 C 
ATOM     15  C   UNL     1       6.519 -12.118  -1.578  1.00  0.00    -0.031 C 
BRANCH  15  16
ATOM     16  C   UNL     1       7.259 -12.950  -0.559  1.00  0.00     0.027 C 
BRANCH  16  17
ATOM     17  C   UNL     1       7.571 -14.372  -1.061  1.00  0.00     0.004 C 
BRANCH  17  18
ATOM     18  C   UNL     1       9.068 -14.728  -1.031  1.00  0.00     0.000 C 
BRANCH  18  19
ATOM     19  C   UNL     1       9.424 -15.901  -1.955  1.00  0.00    -0.003 C 
ATOM     20  C   UNL     1       8.724 -15.772  -3.305  1.00  0.00     0.004 C 
ENDBRANCH  18  19
ENDBRANCH  17  18
ENDBRANCH  16  17
ENDBRANCH  15  16
ENDBRANCH  13  14
ENDBRANCH  12  13
ENDBRANCH   1  11
TORSDOF 14
ENDMDL
MODEL 4
REMARK VINA RESULT:    -5.969      1.711      5.327
REMARK INTER + INTRA:         -13.305
REMARK INTER:                 -10.890
REMARK INTRA:                  -2.415
REMARK UNBOUND:                -2.451
REMARK SMILES CCCCCC=CCC=CCCCCCCCC(=O)[O-]
REMARK SMILES IDX 11 1 12 2 13 3 14 4 15 5 16 6 17 7 18 8 19 9 20 10 10 11
REMARK SMILES IDX 9 12 8 13 7 14 6 15 5 16 4 17 3 18 2 19 1 20
REMARK H PARENT
REMARK Flexibility Score: inf
ROOT
ATOM      1  C   UNL     1       8.940 -12.987  -6.147  1.00  0.00     0.027 C 
ENDROOT
BRANCH   1   2
ATOM      2  C   UNL     1       9.884 -12.329  -7.161  1.00  0.00     0.004 C 
BRANCH   2   3
ATOM      3  C   UNL     1      11.298 -12.121  -6.592  1.00  0.00     0.000 C 
BRANCH   3   4
ATOM      4  C   UNL     1      11.750 -13.295  -5.697  1.00  0.00     0.000 C 
BRANCH   4   5
ATOM      5  C   UNL     1      12.410 -12.849  -4.378  1.00  0.00     0.000 C 
BRANCH   5   6
ATOM      6  C   UNL     1      11.992 -13.659  -3.136  1.00  0.00     0.006 C 
BRANCH   6   7
ATOM      7  C   UNL     1      11.812 -12.817  -1.862  1.00  0.00     0.053 C 
BRANCH   7   8
ATOM      8  C   UNL     1      13.124 -12.485  -1.220  1.00  0.00     0.041 C 
ATOM      9  O   UNL     1      13.229 -11.474  -0.478  1.00  0.00    -0.550 OA
ATOM     10  O   UNL     1      14.239 -13.274  -1.471  1.00  0.00    -0.550 OA
ENDBRANCH   7   8
ENDBRANCH   6   7
ENDBRANCH   5   6
ENDBRANCH   4   5
ENDBRANCH   3   4
ENDBRANCH   2   3
ENDBRANCH   1   2
BRANCH   1  11
ATOM     11  C   UNL     1       8.473 -12.003  -5.108  1.00  0.00    -0.031 C 
ATOM     12  C   UNL     1       8.738 -12.176  -3.804  1.00  0.00    -0.027 C 
BRANCH  12  13
ATOM     13  C   UNL     1       8.316 -11.161  -2.781  1.00  0.00     0.054 C 
BRANCH  13  14
ATOM     14  C   UNL     1       6.901 -11.432  -2.333  1.00  0.00    -0.027 C 
ATOM     15  C   UNL     1       6.543 -12.336  -1.402  1.00  0.00    -0.031 C 
BRANCH  15  16
ATOM     16  C   UNL     1       7.495 -13.259  -0.683  1.00  0.00     0.027 C 
BRANCH  16  17
ATOM     17  C   UNL     1       7.586 -14.651  -1.336  1.00  0.00     0.004 C 
BRANCH  17  18
ATOM     18  C   UNL     1       8.893 -15.401  -1.025  1.00  0.00     0.000 C 
BRANCH  18  19
ATOM     19  C   UNL     1       9.320 -16.354  -2.150  1.00  0.00    -0.003 C 
ATOM     20  C   UNL     1       8.899 -15.820  -3.515  1.00  0.00     0.004 C 
ENDBRANCH  18  19
ENDBRANCH  17  18
ENDBRANCH  16  17
ENDBRANCH  15  16
ENDBRANCH  13  14
ENDBRANCH  12  13
ENDBRANCH   1  11
TORSDOF 14
ENDMDL
MODEL 5
REMARK VINA RESULT:    -5.961      1.425      5.097
REMARK INTER + INTRA:         -13.291
REMARK INTER:                 -10.595
REMARK INTRA:                  -2.696
REMARK UNBOUND:                -2.451
REMARK SMILES CCCCCC=CCC=CCCCCCCCC(=O)[O-]
REMARK SMILES IDX 11 1 12 2 13 3 14 4 15 5 16 6 17 7 18 8 19 9 20 10 10 11
REMARK SMILES IDX 9 12 8 13 7 14 6 15 5 16 4 17 3 18 2 19 1 20
REMARK H PARENT
REMARK Flexibility Score: inf
ROOT
ATOM      1  C   UNL     1      10.275 -13.052  -5.727  1.00  0.00     0.027 C 
ENDROOT
BRANCH   1   2
ATOM      2  C   UNL     1      11.357 -12.000  -5.998  1.00  0.00     0.004 C 
BRANCH   2   3
ATOM      3  C   UNL     1      12.505 -12.070  -4.977  1.00  0.00     0.000 C 
BRANCH   3   4
ATOM      4  C   UNL     1      12.340 -13.240  -3.985  1.00  0.00     0.000 C 
BRANCH   4   5
ATOM      5  C   UNL     1      12.530 -12.834  -2.510  1.00  0.00     0.000 C 
BRANCH   5   6
ATOM      6  C   UNL     1      11.390 -13.260  -1.567  1.00  0.00     0.006 C 
BRANCH   6   7
ATOM      7  C   UNL     1      11.058 -12.235  -0.470  1.00  0.00     0.053 C 
BRANCH   7   8
ATOM      8  C   UNL     1      10.977 -12.870   0.884  1.00  0.00     0.041 C 
ATOM      9  O   UNL     1      11.859 -13.687   1.254  1.00  0.00    -0.550 OA
ATOM     10  O   UNL     1       9.906 -12.586   1.722  1.00  0.00    -0.550 OA
ENDBRANCH   7   8
ENDBRANCH   6   7
ENDBRANCH   5   6
ENDBRANCH   4   5
ENDBRANCH   3   4
ENDBRANCH   2   3
ENDBRANCH   1   2
BRANCH   1  11
ATOM     11  C   UNL     1       9.002 -12.420  -5.232  1.00  0.00    -0.031 C 
ATOM     12  C   UNL     1       8.909 -11.897  -4.000  1.00  0.00    -0.027 C 
BRANCH  12  13
ATOM     13  C   UNL     1       7.652 -11.219  -3.533  1.00  0.00     0.054 C 
BRANCH  13  14
ATOM     14  C   UNL     1       7.792 -10.800  -2.090  1.00  0.00    -0.027 C 
ATOM     15  C   UNL     1       7.427 -11.544  -1.030  1.00  0.00    -0.031 C 
BRANCH  15  16
ATOM     16  C   UNL     1       6.776 -12.903  -1.110  1.00  0.00     0.027 C 
BRANCH  16  17
ATOM     17  C   UNL     1       7.709 -14.041  -0.655  1.00  0.00     0.004 C 
BRANCH  17  18
ATOM     18  C   UNL     1       7.509 -15.357  -1.427  1.00  0.00     0.000 C 
BRANCH  18  19
ATOM     19  C   UNL     1       8.813 -15.912  -2.015  1.00  0.00    -0.003 C 
ATOM     20  C   UNL     1       8.866 -15.710  -3.527  1.00  0.00     0.004 C 
ENDBRANCH  18  19
ENDBRANCH  17  18
ENDBRANCH  16  17
ENDBRANCH  15  16
ENDBRANCH  13  14
ENDBRANCH  12  13
ENDBRANCH   1  11
TORSDOF 14
ENDMDL
MODEL 6
REMARK VINA RESULT:    -5.916      1.966      4.530
REMARK INTER + INTRA:         -13.208
REMARK INTER:                 -11.349
REMARK INTRA:                  -1.860
REMARK UNBOUND:                -2.451
REMARK SMILES CCCCCC=CCC=CCCCCCCCC(=O)[O-]
REMARK SMILES IDX 11 1 12 2 13 3 14 4 15 5 16 6 17 7 18 8 19 9 20 10 10 11
REMARK SMILES IDX 9 12 8 13 7 14 6 15 5 16 4 17 3 18 2 19 1 20
REMARK H PARENT
REMARK Flexibility Score: inf
ROOT
ATOM      1  C   UNL     1      10.291 -12.093  -7.603  1.00  0.00     0.027 C 
ENDROOT
BRANCH   1   2
ATOM      2  C   UNL     1       8.867 -12.529  -7.237  1.00  0.00     0.004 C 
BRANCH   2   3
ATOM      3  C   UNL     1       8.751 -12.966  -5.767  1.00  0.00     0.000 C 
BRANCH   3   4
ATOM      4  C   UNL     1       8.223 -11.835  -4.858  1.00  0.00     0.000 C 
BRANCH   4   5
ATOM      5  C   UNL     1       8.929 -11.760  -3.490  1.00  0.00     0.000 C 
BRANCH   5   6
ATOM      6  C   UNL     1       8.425 -12.771  -2.443  1.00  0.00     0.006 C 
BRANCH   6   7
ATOM      7  C   UNL     1       7.102 -12.375  -1.766  1.00  0.00     0.053 C 
BRANCH   7   8
ATOM      8  C   UNL     1       7.320 -11.834  -0.386  1.00  0.00     0.041 C 
ATOM      9  O   UNL     1       8.447 -11.935   0.163  1.00  0.00    -0.550 OA
ATOM     10  O   UNL     1       6.266 -11.251   0.306  1.00  0.00    -0.550 OA
ENDBRANCH   7   8
ENDBRANCH   6   7
ENDBRANCH   5   6
ENDBRANCH   4   5
ENDBRANCH   3   4
ENDBRANCH   2   3
ENDBRANCH   1   2
BRANCH   1  11
ATOM     11  C   UNL     1      11.273 -12.446  -6.518  1.00  0.00    -0.031 C 
ATOM     12  C   UNL     1      12.010 -11.509  -5.903  1.00  0.00    -0.027 C 
BRANCH  12  13
ATOM     13  C   UNL     1      12.947 -11.863  -4.784  1.00  0.00     0.054 C 
BRANCH  13  14
ATOM     14  C   UNL     1      12.628 -13.240  -4.255  1.00  0.00    -0.027 C 
ATOM     15  C   UNL     1      12.270 -13.518  -2.987  1.00  0.00    -0.031 C 
BRANCH  15  16
ATOM     16  C   UNL     1      12.170 -12.503  -1.875  1.00  0.00     0.027 C 
BRANCH  16  17
ATOM     17  C   UNL     1      13.443 -12.436  -1.011  1.00  0.00     0.004 C 
BRANCH  17  18
ATOM     18  C   UNL     1      14.086 -13.808  -0.742  1.00  0.00     0.000 C 
BRANCH  18  19
ATOM     19  C   UNL     1      15.549 -13.707  -0.289  1.00  0.00    -0.003 C 
ATOM     20  C   UNL     1      16.376 -14.868  -0.834  1.00  0.00     0.004 C 
ENDBRANCH  18  19
ENDBRANCH  17  18
ENDBRANCH  16  17
ENDBRANCH  15  16
ENDBRANCH  13  14
ENDBRANCH  12  13
ENDBRANCH   1  11
TORSDOF 14
ENDMDL
MODEL 7
REMARK VINA RESULT:    -5.888      2.643      6.005
REMARK INTER + INTRA:         -13.159
REMARK INTER:                 -10.668
REMARK INTRA:                  -2.490
REMARK UNBOUND:                -2.451
REMARK SMILES CCCCCC=CCC=CCCCCCCCC(=O)[O-]
REMARK SMILES IDX 11 1 12 2 13 3 14 4 15 5 16 6 17 7 18 8 19 9 20 10 10 11
REMARK SMILES IDX 9 12 8 13 7 14 6 15 5 16 4 17 3 18 2 19 1 20
REMARK H PARENT
REMARK Flexibility Score: inf
ROOT
ATOM      1  C   UNL     1       8.392 -12.201  -5.652  1.00  0.00     0.027 C 
ENDROOT
BRANCH   1   2
ATOM      2  C   UNL     1       9.615 -13.008  -6.107  1.00  0.00     0.004 C 
BRANCH   2   3
ATOM      3  C   UNL     1      10.732 -12.109  -6.663  1.00  0.00     0.000 C 
BRANCH   3   4
ATOM      4  C   UNL     1      12.091 -12.368  -5.978  1.00  0.00     0.000 C 
BRANCH   4   5
ATOM      5  C   UNL     1      11.974 -12.700  -4.477  1.00  0.00     0.000 C 
BRANCH   5   6
ATOM      6  C   UNL     1      12.591 -14.048  -4.060  1.00  0.00     0.006 C 
BRANCH   6   7
ATOM      7  C   UNL     1      11.568 -15.180  -3.868  1.00  0.00     0.053 C 
BRANCH   7   8
ATOM      8  C   UNL     1      11.409 -16.008  -5.106  1.00  0.00     0.041 C 
ATOM      9  O   UNL     1      12.409 -16.275  -5.821  1.00  0.00    -0.550 OA
ATOM     10  O   UNL     1      10.150 -16.453  -5.487  1.00  0.00    -0.550 OA
ENDBRANCH   7   8
ENDBRANCH   6   7
ENDBRANCH   5   6
ENDBRANCH   4   5
ENDBRANCH   3   4
ENDBRANCH   2   3
ENDBRANCH   1   2
BRANCH   1  11
ATOM     11  C   UNL     1       8.591 -11.628  -4.275  1.00  0.00    -0.031 C 
ATOM     12  C   UNL     1       7.581 -11.069  -3.591  1.00  0.00    -0.027 C 
BRANCH  12  13
ATOM     13  C   UNL     1       7.776 -10.549  -2.196  1.00  0.00     0.054 C 
BRANCH  13  14
ATOM     14  C   UNL     1       6.487 -10.649  -1.419  1.00  0.00    -0.027 C 
ATOM     15  C   UNL     1       6.214 -11.583  -0.489  1.00  0.00    -0.031 C 
BRANCH  15  16
ATOM     16  C   UNL     1       7.137 -12.712  -0.101  1.00  0.00     0.027 C 
BRANCH  16  17
ATOM     17  C   UNL     1       7.207 -13.820  -1.169  1.00  0.00     0.004 C 
BRANCH  17  18
ATOM     18  C   UNL     1       8.640 -14.170  -1.610  1.00  0.00     0.000 C 
BRANCH  18  19
ATOM     19  C   UNL     1       9.702 -13.755  -0.583  1.00  0.00    -0.003 C 
ATOM     20  C   UNL     1      10.627 -12.681  -1.149  1.00  0.00     0.004 C 
ENDBRANCH  18  19
ENDBRANCH  17  18
ENDBRANCH  16  17
ENDBRANCH  15  16
ENDBRANCH  13  14
ENDBRANCH  12  13
ENDBRANCH   1  11
TORSDOF 14
ENDMDL
MODEL 8
REMARK VINA RESULT:    -5.871      1.642      5.933
REMARK INTER + INTRA:         -13.128
REMARK INTER:                 -10.800
REMARK INTRA:                  -2.328
REMARK UNBOUND:                -2.451
REMARK SMILES CCCCCC=CCC=CCCCCCCCC(=O)[O-]
REMARK SMILES IDX 11 1 12 2 13 3 14 4 15 5 16 6 17 7 18 8 19 9 20 10 10 11
REMARK SMILES IDX 9 12 8 13 7 14 6 15 5 16 4 17 3 18 2 19 1 20
REMARK H PARENT
REMARK Flexibility Score: inf
ROOT
ATOM      1  C   UNL     1       8.674 -12.218  -5.472  1.00  0.00     0.027 C 
ENDROOT
BRANCH   1   2
ATOM      2  C   UNL     1       9.104 -12.906  -6.774  1.00  0.00     0.004 C 
BRANCH   2   3
ATOM      3  C   UNL     1      10.202 -12.121  -7.512  1.00  0.00     0.000 C 
BRANCH   3   4
ATOM      4  C   UNL     1      11.612 -12.424  -6.963  1.00  0.00     0.000 C 
BRANCH   4   5
ATOM      5  C   UNL     1      12.174 -11.314  -6.054  1.00  0.00     0.000 C 
BRANCH   5   6
ATOM      6  C   UNL     1      12.935 -11.815  -4.811  1.00  0.00     0.006 C 
BRANCH   6   7
ATOM      7  C   UNL     1      12.605 -13.262  -4.408  1.00  0.00     0.053 C 
BRANCH   7   8
ATOM      8  C   UNL     1      13.035 -13.563  -3.005  1.00  0.00     0.041 C 
ATOM      9  O   UNL     1      13.060 -14.751  -2.592  1.00  0.00    -0.550 OA
ATOM     10  O   UNL     1      13.373 -12.527  -2.144  1.00  0.00    -0.550 OA
ENDBRANCH   7   8
ENDBRANCH   6   7
ENDBRANCH   5   6
ENDBRANCH   4   5
ENDBRANCH   3   4
ENDBRANCH   2   3
ENDBRANCH   1   2
BRANCH   1  11
ATOM     11  C   UNL     1       9.117 -12.999  -4.264  1.00  0.00    -0.031 C 
ATOM     12  C   UNL     1       9.021 -14.336  -4.215  1.00  0.00    -0.027 C 
BRANCH  12  13
ATOM     13  C   UNL     1       9.515 -15.111  -3.027  1.00  0.00     0.054 C 
BRANCH  13  14
ATOM     14  C   UNL     1       8.350 -15.657  -2.240  1.00  0.00    -0.027 C 
ATOM     15  C   UNL     1       7.920 -15.175  -1.059  1.00  0.00    -0.031 C 
BRANCH  15  16
ATOM     16  C   UNL     1       8.561 -14.035  -0.306  1.00  0.00     0.027 C 
BRANCH  16  17
ATOM     17  C   UNL     1       7.625 -12.822  -0.148  1.00  0.00     0.004 C 
BRANCH  17  18
ATOM     18  C   UNL     1       6.783 -12.517  -1.400  1.00  0.00     0.000 C 
BRANCH  18  19
ATOM     19  C   UNL     1       6.610 -11.014  -1.655  1.00  0.00    -0.003 C 
ATOM     20  C   UNL     1       7.914 -10.382  -2.132  1.00  0.00     0.004 C 
ENDBRANCH  18  19
ENDBRANCH  17  18
ENDBRANCH  16  17
ENDBRANCH  15  16
ENDBRANCH  13  14
ENDBRANCH  12  13
ENDBRANCH   1  11
TORSDOF 14
ENDMDL
MODEL 9
REMARK VINA RESULT:    -5.852      2.555      4.336
REMARK INTER + INTRA:         -13.092
REMARK INTER:                 -10.714
REMARK INTRA:                  -2.378
REMARK UNBOUND:                -2.451
REMARK SMILES CCCCCC=CCC=CCCCCCCCC(=O)[O-]
REMARK SMILES IDX 11 1 12 2 13 3 14 4 15 5 16 6 17 7 18 8 19 9 20 10 10 11
REMARK SMILES IDX 9 12 8 13 7 14 6 15 5 16 4 17 3 18 2 19 1 20
REMARK H PARENT
REMARK Flexibility Score: inf
ROOT
ATOM      1  C   UNL     1       9.075 -18.084  -3.631  1.00  0.00     0.027 C 
ENDROOT
BRANCH   1   2
ATOM      2  C   UNL     1      10.382 -18.186  -2.836  1.00  0.00     0.004 C 
BRANCH   2   3
ATOM      3  C   UNL     1      10.269 -17.545  -1.442  1.00  0.00     0.000 C 
BRANCH   3   4
ATOM      4  C   UNL     1      11.229 -16.349  -1.265  1.00  0.00     0.000 C 
BRANCH   4   5
ATOM      5  C   UNL     1      10.511 -15.016  -0.979  1.00  0.00     0.000 C 
BRANCH   5   6
ATOM      6  C   UNL     1       9.004 -15.139  -0.686  1.00  0.00     0.006 C 
BRANCH   6   7
ATOM      7  C   UNL     1       8.342 -13.835  -0.213  1.00  0.00     0.053 C 
BRANCH   7   8
ATOM      8  C   UNL     1       8.551 -13.600   1.251  1.00  0.00     0.041 C 
ATOM      9  O   UNL     1       7.654 -13.911   2.077  1.00  0.00    -0.550 OA
ATOM     10  O   UNL     1       9.723 -13.005   1.700  1.00  0.00    -0.550 OA
ENDBRANCH   7   8
ENDBRANCH   6   7
ENDBRANCH   5   6
ENDBRANCH   4   5
ENDBRANCH   3   4
ENDBRANCH   2   3
ENDBRANCH   1   2
BRANCH   1  11
ATOM     11  C   UNL     1       8.847 -16.686  -4.141  1.00  0.00    -0.031 C 
ATOM     12  C   UNL     1       9.799 -16.015  -4.806  1.00  0.00    -0.027 C 
BRANCH  12  13
ATOM     13  C   UNL     1       9.545 -14.642  -5.359  1.00  0.00     0.054 C 
BRANCH  13  14
ATOM     14  C   UNL     1       9.587 -13.619  -4.251  1.00  0.00    -0.027 C 
ATOM     15  C   UNL     1      10.696 -12.984  -3.826  1.00  0.00    -0.031 C 
BRANCH  15  16
ATOM     16  C   UNL     1      12.087 -13.223  -4.359  1.00  0.00     0.027 C 
BRANCH  16  17
ATOM     17  C   UNL     1      12.777 -11.929  -4.830  1.00  0.00     0.004 C 
BRANCH  17  18
ATOM     18  C   UNL     1      12.106 -11.273  -6.049  1.00  0.00     0.000 C 
BRANCH  18  19
ATOM     19  C   UNL     1      11.712 -12.285  -7.134  1.00  0.00    -0.003 C 
ATOM     20  C   UNL     1      10.290 -12.037  -7.629  1.00  0.00     0.004 C 
ENDBRANCH  18  19
ENDBRANCH  17  18
ENDBRANCH  16  17
ENDBRANCH  15  16
ENDBRANCH  13  14
ENDBRANCH  12  13
ENDBRANCH   1  11
TORSDOF 14
ENDMDL
