MODEL 1
REMARK VINA RESULT:    20.418      0.000      0.000
REMARK INTER + INTRA:          24.260
REMARK INTER:                  23.999
REMARK INTRA:                   0.261
REMARK UNBOUND:                 0.261
REMARK SMILES Oc1ccc(-c2[o+]c3cc(O)cc(O)c3cc2O)cc1
REMARK SMILES IDX 6 1 7 2 8 3 9 4 10 5 12 6 13 7 15 8 16 9 17 10 5 11 4 12
REMARK SMILES IDX 3 13 2 14 19 15 20 16 1 17 18 19 11 21 14 23
REMARK H PARENT 1 18 18 20 11 22 14 24
REMARK Flexibility Score: inf
ROOT
ATOM      1  C   UNL     1      -5.423  -2.415  12.926  1.00  0.00     0.401 A 
ATOM      2  O   UNL     1      -5.992  -2.928  14.015  1.00  0.00    -0.202 OA
ATOM      3  C   UNL     1      -7.309  -2.972  14.196  1.00  0.00     0.368 A 
ATOM      4  C   UNL     1      -7.828  -3.523  15.372  1.00  0.00     0.162 A 
ATOM      5  C   UNL     1      -9.212  -3.572  15.576  1.00  0.00     0.128 A 
ATOM      6  C   UNL     1     -10.080  -3.069  14.600  1.00  0.00     0.093 A 
ATOM      7  C   UNL     1      -9.574  -2.515  13.415  1.00  0.00     0.136 A 
ATOM      8  C   UNL     1      -8.182  -2.466  13.210  1.00  0.00     0.125 A 
ATOM      9  C   UNL     1      -7.621  -1.931  12.045  1.00  0.00     0.078 A 
ATOM     10  C   UNL     1      -6.232  -1.912  11.887  1.00  0.00     0.223 A 
ENDROOT
BRANCH   1  11
ATOM     11  C   UNL     1      -3.945  -2.414  12.844  1.00  0.00     0.084 A 
ATOM     12  C   UNL     1      -3.208  -3.337  13.605  1.00  0.00     0.022 A 
ATOM     13  C   UNL     1      -1.811  -3.340  13.559  1.00  0.00     0.047 A 
ATOM     14  C   UNL     1      -1.132  -2.409  12.762  1.00  0.00     0.115 A 
ATOM     15  C   UNL     1      -3.254  -1.469  12.061  1.00  0.00     0.022 A 
ATOM     16  C   UNL     1      -1.856  -1.473  12.018  1.00  0.00     0.047 A 
BRANCH  14  17
ATOM     17  O   UNL     1       0.260  -2.402  12.708  1.00  0.00    -0.508 OA
ATOM     18  H   UNL     1       0.781  -1.545  12.561  1.00  0.00     0.293 HD
ENDBRANCH  14  17
ENDBRANCH   1  11
BRANCH  10  19
ATOM     19  O   UNL     1      -5.669  -1.427  10.706  1.00  0.00    -0.500 OA
ATOM     20  H   UNL     1      -5.765  -0.456  10.431  1.00  0.00     0.294 HD
ENDBRANCH  10  19
BRANCH   5  21
ATOM     21  O   UNL     1      -9.738  -4.119  16.745  1.00  0.00    -0.507 OA
ATOM     22  H   UNL     1     -10.719  -4.365  16.819  1.00  0.00     0.293 HD
ENDBRANCH   5  21
BRANCH   7  23
ATOM     23  O   UNL     1     -10.450  -2.018  12.449  1.00  0.00    -0.507 OA
ATOM     24  H   UNL     1     -10.115  -1.671  11.558  1.00  0.00     0.293 HD
ENDBRANCH   7  23
TORSDOF 5
ENDMDL
MODEL 2
REMARK VINA RESULT:    23.178     13.132     14.939
REMARK INTER + INTRA:          27.504
REMARK INTER:                  27.195
REMARK INTRA:                   0.309
REMARK UNBOUND:                 0.261
REMARK SMILES Oc1ccc(-c2[o+]c3cc(O)cc(O)c3cc2O)cc1
REMARK SMILES IDX 6 1 7 2 8 3 9 4 10 5 12 6 13 7 15 8 16 9 17 10 5 11 4 12
REMARK SMILES IDX 3 13 2 14 19 15 20 16 1 17 18 19 11 21 14 23
REMARK H PARENT 1 18 18 20 11 22 14 24
REMARK Flexibility Score: inf
ROOT
ATOM      1  C   UNL     1     -10.383   8.351  19.429  1.00  0.00     0.401 A 
ATOM      2  O   UNL     1     -11.064   9.299  18.788  1.00  0.00    -0.202 OA
ATOM      3  C   UNL     1     -10.506  10.421  18.342  1.00  0.00     0.368 A 
ATOM      4  C   UNL     1     -11.292  11.370  17.681  1.00  0.00     0.162 A 
ATOM      5  C   UNL     1     -10.717  12.557  17.210  1.00  0.00     0.128 A 
ATOM      6  C   UNL     1      -9.351  12.793  17.400  1.00  0.00     0.093 A 
ATOM      7  C   UNL     1      -8.549  11.849  18.058  1.00  0.00     0.136 A 
ATOM      8  C   UNL     1      -9.128  10.657  18.532  1.00  0.00     0.125 A 
ATOM      9  C   UNL     1      -8.376   9.677  19.190  1.00  0.00     0.078 A 
ATOM     10  C   UNL     1      -8.998   8.506  19.635  1.00  0.00     0.223 A 
ENDROOT
BRANCH   1  11
ATOM     11  C   UNL     1     -11.118   7.150  19.886  1.00  0.00     0.084 A 
ATOM     12  C   UNL     1     -10.643   6.426  20.992  1.00  0.00     0.022 A 
ATOM     13  C   UNL     1     -11.310   5.278  21.428  1.00  0.00     0.047 A 
ATOM     14  C   UNL     1     -12.452   4.828  20.752  1.00  0.00     0.115 A 
ATOM     15  C   UNL     1     -12.255   6.681  19.200  1.00  0.00     0.022 A 
ATOM     16  C   UNL     1     -12.919   5.530  19.637  1.00  0.00     0.047 A 
BRANCH  14  17
ATOM     17  O   UNL     1     -13.125   3.684  21.177  1.00  0.00    -0.508 OA
ATOM     18  H   UNL     1     -13.704   3.689  22.008  1.00  0.00     0.293 HD
ENDBRANCH  14  17
ENDBRANCH   1  11
BRANCH  10  19
ATOM     19  O   UNL     1      -8.244   7.503  20.246  1.00  0.00    -0.500 OA
ATOM     20  H   UNL     1      -7.256   7.389  20.053  1.00  0.00     0.294 HD
ENDBRANCH  10  19
BRANCH   5  21
ATOM     21  O   UNL     1     -11.493  13.508  16.551  1.00  0.00    -0.507 OA
ATOM     22  H   UNL     1     -11.207  13.899  15.660  1.00  0.00     0.293 HD
ENDBRANCH   5  21
BRANCH   7  23
ATOM     23  O   UNL     1      -7.188  12.096  18.239  1.00  0.00    -0.507 OA
ATOM     24  H   UNL     1      -6.856  12.960  18.651  1.00  0.00     0.293 HD
ENDBRANCH   7  23
TORSDOF 5
ENDMDL
