MODEL 1
REMARK VINA RESULT:    -3.975      0.000      0.000
REMARK INTER + INTRA:          -5.857
REMARK INTER:                  -5.370
REMARK INTRA:                  -0.487
REMARK UNBOUND:                -0.487
REMARK SMILES O=c1c(-c2ccc(O)cc2)coc2c([C@@H]3O[C@@H](CO)[C@H](O)[C@H](O)[C@H]3O)c(O)ccc12
REMARK SMILES IDX 3 1 11 2 12 3 13 4 30 5 2 6 1 7 29 8 28 9 26 10 14 11 4 12
REMARK SMILES IDX 5 13 6 14 7 15 10 16 9 17 8 18 15 20 24 21 16 22 22 23 17 24
REMARK SMILES IDX 20 25 25 26 23 28 18 30 19 31 21 33 27 35
REMARK H PARENT 8 19 25 27 23 29 19 32 21 34 27 36
REMARK Flexibility Score: inf
ROOT
ATOM      1  C   UNL     1       2.387   5.485  11.662  1.00  0.00     0.065 A 
ATOM      2  C   UNL     1       2.904   6.245  12.718  1.00  0.00     0.208 A 
ATOM      3  O   UNL     1       4.178   6.615  12.730  1.00  0.00    -0.463 OA
ATOM      4  C   UNL     1       5.049   6.304  11.778  1.00  0.00     0.147 A 
ATOM      5  C   UNL     1       4.599   5.556  10.659  1.00  0.00     0.066 A 
ATOM      6  C   UNL     1       3.257   5.131  10.618  1.00  0.00     0.200 A 
ATOM      7  O   UNL     1       2.840   4.427   9.657  1.00  0.00    -0.288 OA
ATOM      8  C   UNL     1       5.483   5.266   9.613  1.00  0.00     0.020 A 
ATOM      9  C   UNL     1       6.779   5.761   9.640  1.00  0.00     0.047 A 
ATOM     10  C   UNL     1       7.236   6.510  10.729  1.00  0.00     0.125 A 
ATOM     11  C   UNL     1       6.409   6.722  11.866  1.00  0.00     0.069 A 
ENDROOT
BRANCH   1  12
ATOM     12  C   UNL     1       0.957   5.087  11.667  1.00  0.00    -0.011 A 
ATOM     13  C   UNL     1       0.546   3.932  12.356  1.00  0.00     0.013 A 
ATOM     14  C   UNL     1      -0.802   3.559  12.371  1.00  0.00     0.047 A 
ATOM     15  C   UNL     1      -1.756   4.337  11.707  1.00  0.00     0.115 A 
ATOM     16  C   UNL     1      -0.008   5.868  11.005  1.00  0.00     0.013 A 
ATOM     17  C   UNL     1      -1.354   5.493  11.022  1.00  0.00     0.047 A 
BRANCH  15  18
ATOM     18  O   UNL     1      -3.095   3.955  11.732  1.00  0.00    -0.508 OA
ATOM     19  H   UNL     1      -3.635   3.855  10.881  1.00  0.00     0.293 HD
ENDBRANCH  15  18
ENDBRANCH   1  12
BRANCH  11  20
ATOM     20  C   UNL     1       7.003   7.517  13.059  1.00  0.00     0.188 C 
ATOM     21  C   UNL     1       6.299   7.497  14.451  1.00  0.00     0.179 C 
ATOM     22  O   UNL     1       8.384   7.226  13.248  1.00  0.00    -0.362 OA
ATOM     23  C   UNL     1       6.503   6.140  15.152  1.00  0.00     0.177 C 
ATOM     24  C   UNL     1       8.589   5.911  13.753  1.00  0.00     0.176 C 
ATOM     25  C   UNL     1       7.993   5.774  15.172  1.00  0.00     0.177 C 
BRANCH  21  26
ATOM     26  O   UNL     1       6.871   8.494  15.263  1.00  0.00    -0.387 OA
ATOM     27  H   UNL     1       6.566   8.326  16.193  1.00  0.00     0.211 HD
ENDBRANCH  21  26
BRANCH  23  28
ATOM     28  O   UNL     1       5.773   5.130  14.503  1.00  0.00    -0.387 OA
ATOM     29  H   UNL     1       6.333   4.309  14.522  1.00  0.00     0.211 HD
ENDBRANCH  23  28
BRANCH  24  30
ATOM     30  C   UNL     1      10.100   5.629  13.768  1.00  0.00     0.191 C 
BRANCH  30  31
ATOM     31  O   UNL     1      10.593   5.666  15.080  1.00  0.00    -0.394 OA
ATOM     32  H   UNL     1      10.120   4.951  15.582  1.00  0.00     0.210 HD
ENDBRANCH  30  31
ENDBRANCH  24  30
BRANCH  25  33
ATOM     33  O   UNL     1       8.135   4.455  15.640  1.00  0.00    -0.388 OA
ATOM     34  H   UNL     1       8.610   3.942  14.935  1.00  0.00     0.211 HD
ENDBRANCH  25  33
ENDBRANCH  11  20
BRANCH  10  35
ATOM     35  O   UNL     1       8.517   7.059  10.669  1.00  0.00    -0.507 OA
ATOM     36  H   UNL     1       8.748   7.813  10.033  1.00  0.00     0.293 HD
ENDBRANCH  10  35
TORSDOF 9
ENDMDL
MODEL 2
REMARK VINA RESULT:    -3.827      7.793      9.529
REMARK INTER + INTRA:          -5.656
REMARK INTER:                  -5.172
REMARK INTRA:                  -0.485
REMARK UNBOUND:                -0.487
REMARK SMILES O=c1c(-c2ccc(O)cc2)coc2c([C@@H]3O[C@@H](CO)[C@H](O)[C@H](O)[C@H]3O)c(O)ccc12
REMARK SMILES IDX 3 1 11 2 12 3 13 4 30 5 2 6 1 7 29 8 28 9 26 10 14 11 4 12
REMARK SMILES IDX 5 13 6 14 7 15 10 16 9 17 8 18 15 20 24 21 16 22 22 23 17 24
REMARK SMILES IDX 20 25 25 26 23 28 18 30 19 31 21 33 27 35
REMARK H PARENT 8 19 25 27 23 29 19 32 21 34 27 36
REMARK Flexibility Score: inf
ROOT
ATOM      1  C   UNL     1       1.013  -1.548  14.633  1.00  0.00     0.065 A 
ATOM      2  C   UNL     1       1.734  -2.349  13.741  1.00  0.00     0.208 A 
ATOM      3  O   UNL     1       2.780  -3.055  14.152  1.00  0.00    -0.463 OA
ATOM      4  C   UNL     1       3.224  -3.060  15.404  1.00  0.00     0.147 A 
ATOM      5  C   UNL     1       2.533  -2.292  16.377  1.00  0.00     0.066 A 
ATOM      6  C   UNL     1       1.427  -1.518  15.975  1.00  0.00     0.200 A 
ATOM      7  O   UNL     1       0.821  -0.791  16.809  1.00  0.00    -0.288 OA
ATOM      8  C   UNL     1       2.944  -2.329  17.714  1.00  0.00     0.020 A 
ATOM      9  C   UNL     1       3.987  -3.158  18.099  1.00  0.00     0.047 A 
ATOM     10  C   UNL     1       4.672  -3.931  17.156  1.00  0.00     0.125 A 
ATOM     11  C   UNL     1       4.366  -3.830  15.771  1.00  0.00     0.069 A 
ENDROOT
BRANCH   1  12
ATOM     12  C   UNL     1      -0.157  -0.771  14.151  1.00  0.00    -0.011 A 
ATOM     13  C   UNL     1      -1.427  -1.371  14.085  1.00  0.00     0.013 A 
ATOM     14  C   UNL     1      -2.533  -0.638  13.642  1.00  0.00     0.047 A 
ATOM     15  C   UNL     1      -2.388   0.701  13.267  1.00  0.00     0.115 A 
ATOM     16  C   UNL     1      -0.018   0.579  13.779  1.00  0.00     0.013 A 
ATOM     17  C   UNL     1      -1.125   1.308  13.337  1.00  0.00     0.047 A 
BRANCH  15  18
ATOM     18  O   UNL     1      -3.499   1.418  12.830  1.00  0.00    -0.508 OA
ATOM     19  H   UNL     1      -3.944   2.115  13.416  1.00  0.00     0.293 HD
ENDBRANCH  15  18
ENDBRANCH   1  12
BRANCH  11  20
ATOM     20  C   UNL     1       5.205  -4.678  14.778  1.00  0.00     0.188 C 
ATOM     21  C   UNL     1       5.149  -4.385  13.247  1.00  0.00     0.179 C 
ATOM     22  O   UNL     1       6.571  -4.751  15.173  1.00  0.00    -0.362 OA
ATOM     23  C   UNL     1       5.909  -3.089  12.905  1.00  0.00     0.177 C 
ATOM     24  C   UNL     1       7.243  -3.508  15.005  1.00  0.00     0.176 C 
ATOM     25  C   UNL     1       7.320  -3.129  13.508  1.00  0.00     0.177 C 
BRANCH  21  26
ATOM     26  O   UNL     1       5.770  -5.445  12.560  1.00  0.00    -0.387 OA
ATOM     27  H   UNL     1       6.229  -6.006  13.239  1.00  0.00     0.211 HD
ENDBRANCH  21  26
BRANCH  23  28
ATOM     28  O   UNL     1       5.217  -1.964  13.387  1.00  0.00    -0.387 OA
ATOM     29  H   UNL     1       5.298  -1.976  14.377  1.00  0.00     0.211 HD
ENDBRANCH  23  28
BRANCH  24  30
ATOM     30  C   UNL     1       8.651  -3.635  15.606  1.00  0.00     0.191 C 
BRANCH  30  31
ATOM     31  O   UNL     1       9.128  -2.378  16.008  1.00  0.00    -0.394 OA
ATOM     32  H   UNL     1       9.716  -2.535  16.795  1.00  0.00     0.210 HD
ENDBRANCH  30  31
ENDBRANCH  24  30
BRANCH  25  33
ATOM     33  O   UNL     1       7.923  -1.868  13.350  1.00  0.00    -0.388 OA
ATOM     34  H   UNL     1       7.241  -1.185  13.585  1.00  0.00     0.211 HD
ENDBRANCH  25  33
ENDBRANCH  11  20
BRANCH  10  35
ATOM     35  O   UNL     1       5.654  -4.815  17.606  1.00  0.00    -0.507 OA
ATOM     36  H   UNL     1       6.573  -4.497  17.886  1.00  0.00     0.293 HD
ENDBRANCH  10  35
TORSDOF 9
ENDMDL
MODEL 3
REMARK VINA RESULT:    -3.819      8.580     10.323
REMARK INTER + INTRA:          -5.645
REMARK INTER:                  -5.158
REMARK INTRA:                  -0.487
REMARK UNBOUND:                -0.487
REMARK SMILES O=c1c(-c2ccc(O)cc2)coc2c([C@@H]3O[C@@H](CO)[C@H](O)[C@H](O)[C@H]3O)c(O)ccc12
REMARK SMILES IDX 3 1 11 2 12 3 13 4 30 5 2 6 1 7 29 8 28 9 26 10 14 11 4 12
REMARK SMILES IDX 5 13 6 14 7 15 10 16 9 17 8 18 15 20 24 21 16 22 22 23 17 24
REMARK SMILES IDX 20 25 25 26 23 28 18 30 19 31 21 33 27 35
REMARK H PARENT 8 19 25 27 23 29 19 32 21 34 27 36
REMARK Flexibility Score: inf
ROOT
ATOM      1  C   UNL     1       3.150  -2.781  15.434  1.00  0.00     0.065 A 
ATOM      2  C   UNL     1       4.096  -3.701  14.967  1.00  0.00     0.208 A 
ATOM      3  O   UNL     1       5.152  -4.023  15.702  1.00  0.00    -0.463 OA
ATOM      4  C   UNL     1       5.401  -3.515  16.903  1.00  0.00     0.147 A 
ATOM      5  C   UNL     1       4.478  -2.593  17.460  1.00  0.00     0.066 A 
ATOM      6  C   UNL     1       3.351  -2.215  16.703  1.00  0.00     0.200 A 
ATOM      7  O   UNL     1       2.537  -1.363  17.154  1.00  0.00    -0.288 OA
ATOM      8  C   UNL     1       4.687  -2.090  18.750  1.00  0.00     0.020 A 
ATOM      9  C   UNL     1       5.761  -2.536  19.505  1.00  0.00     0.047 A 
ATOM     10  C   UNL     1       6.675  -3.453  18.977  1.00  0.00     0.125 A 
ATOM     11  C   UNL     1       6.568  -3.895  17.630  1.00  0.00     0.069 A 
ENDROOT
BRANCH   1  12
ATOM     12  C   UNL     1       1.972  -2.440  14.596  1.00  0.00    -0.011 A 
ATOM     13  C   UNL     1       2.019  -1.337  13.726  1.00  0.00     0.013 A 
ATOM     14  C   UNL     1       0.915  -1.018  12.928  1.00  0.00     0.047 A 
ATOM     15  C   UNL     1      -0.243  -1.799  12.982  1.00  0.00     0.115 A 
ATOM     16  C   UNL     1       0.806  -3.225  14.643  1.00  0.00     0.013 A 
ATOM     17  C   UNL     1      -0.295  -2.904  13.844  1.00  0.00     0.047 A 
BRANCH  15  18
ATOM     18  O   UNL     1      -1.333  -1.471  12.180  1.00  0.00    -0.508 OA
ATOM     19  H   UNL     1      -1.840  -2.177  11.660  1.00  0.00     0.293 HD
ENDBRANCH  15  18
ENDBRANCH   1  12
BRANCH  11  20
ATOM     20  C   UNL     1       7.650  -4.871  17.097  1.00  0.00     0.188 C 
ATOM     21  C   UNL     1       7.771  -5.159  15.569  1.00  0.00     0.179 C 
ATOM     22  O   UNL     1       8.943  -4.547  17.598  1.00  0.00    -0.362 OA
ATOM     23  C   UNL     1       8.381  -3.954  14.827  1.00  0.00     0.177 C 
ATOM     24  C   UNL     1       9.450  -3.345  17.030  1.00  0.00     0.176 C 
ATOM     25  C   UNL     1       9.684  -3.517  15.512  1.00  0.00     0.177 C 
BRANCH  21  26
ATOM     26  O   UNL     1       8.626  -6.261  15.381  1.00  0.00    -0.387 OA
ATOM     27  H   UNL     1       9.246  -6.287  16.157  1.00  0.00     0.211 HD
ENDBRANCH  21  26
BRANCH  23  28
ATOM     28  O   UNL     1       7.476  -2.879  14.796  1.00  0.00    -0.387 OA
ATOM     29  H   UNL     1       6.994  -2.880  15.664  1.00  0.00     0.211 HD
ENDBRANCH  23  28
BRANCH  24  30
ATOM     30  C   UNL     1      10.762  -2.988  17.745  1.00  0.00     0.191 C 
BRANCH  30  31
ATOM     31  O   UNL     1      11.022  -1.614  17.637  1.00  0.00    -0.394 OA
ATOM     32  H   UNL     1      10.140  -1.163  17.562  1.00  0.00     0.210 HD
ENDBRANCH  30  31
ENDBRANCH  24  30
BRANCH  25  33
ATOM     33  O   UNL     1      10.119  -2.308  14.940  1.00  0.00    -0.388 OA
ATOM     34  H   UNL     1      10.642  -2.537  14.128  1.00  0.00     0.211 HD
ENDBRANCH  25  33
ENDBRANCH  11  20
BRANCH  10  35
ATOM     35  O   UNL     1       7.687  -3.938  19.807  1.00  0.00    -0.507 OA
ATOM     36  H   UNL     1       8.383  -4.595  19.476  1.00  0.00     0.293 HD
ENDBRANCH  10  35
TORSDOF 9
ENDMDL
MODEL 4
REMARK VINA RESULT:    -3.790      8.980     10.716
REMARK INTER + INTRA:          -5.607
REMARK INTER:                  -5.217
REMARK INTRA:                  -0.390
REMARK UNBOUND:                -0.487
REMARK SMILES O=c1c(-c2ccc(O)cc2)coc2c([C@@H]3O[C@@H](CO)[C@H](O)[C@H](O)[C@H]3O)c(O)ccc12
REMARK SMILES IDX 3 1 11 2 12 3 13 4 30 5 2 6 1 7 29 8 28 9 26 10 14 11 4 12
REMARK SMILES IDX 5 13 6 14 7 15 10 16 9 17 8 18 15 20 24 21 16 22 22 23 17 24
REMARK SMILES IDX 20 25 25 26 23 28 18 30 19 31 21 33 27 35
REMARK H PARENT 8 19 25 27 23 29 19 32 21 34 27 36
REMARK Flexibility Score: inf
ROOT
ATOM      1  C   UNL     1       5.227  -3.343  12.619  1.00  0.00     0.065 A 
ATOM      2  C   UNL     1       6.213  -4.177  13.159  1.00  0.00     0.208 A 
ATOM      3  O   UNL     1       6.345  -4.312  14.472  1.00  0.00    -0.463 OA
ATOM      4  C   UNL     1       5.584  -3.687  15.362  1.00  0.00     0.147 A 
ATOM      5  C   UNL     1       4.544  -2.841  14.896  1.00  0.00     0.066 A 
ATOM      6  C   UNL     1       4.382  -2.660  13.509  1.00  0.00     0.200 A 
ATOM      7  O   UNL     1       3.494  -1.879  13.067  1.00  0.00    -0.288 OA
ATOM      8  C   UNL     1       3.689  -2.218  15.814  1.00  0.00     0.020 A 
ATOM      9  C   UNL     1       3.820  -2.473  17.171  1.00  0.00     0.047 A 
ATOM     10  C   UNL     1       4.832  -3.313  17.647  1.00  0.00     0.125 A 
ATOM     11  C   UNL     1       5.795  -3.867  16.760  1.00  0.00     0.069 A 
ENDROOT
BRANCH   1  12
ATOM     12  C   UNL     1       5.093  -3.210  11.146  1.00  0.00    -0.011 A 
ATOM     13  C   UNL     1       6.011  -2.432  10.420  1.00  0.00     0.013 A 
ATOM     14  C   UNL     1       5.895  -2.313   9.031  1.00  0.00     0.047 A 
ATOM     15  C   UNL     1       4.869  -2.974   8.351  1.00  0.00     0.115 A 
ATOM     16  C   UNL     1       4.066  -3.878  10.455  1.00  0.00     0.013 A 
ATOM     17  C   UNL     1       3.952  -3.758   9.068  1.00  0.00     0.047 A 
BRANCH  15  18
ATOM     18  O   UNL     1       4.766  -2.849   6.967  1.00  0.00    -0.508 OA
ATOM     19  H   UNL     1       5.121  -3.563   6.342  1.00  0.00     0.293 HD
ENDBRANCH  15  18
ENDBRANCH   1  12
BRANCH  11  20
ATOM     20  C   UNL     1       6.920  -4.746  17.368  1.00  0.00     0.188 C 
ATOM     21  C   UNL     1       8.225  -5.029  16.560  1.00  0.00     0.179 C 
ATOM     22  O   UNL     1       7.285  -4.305  18.672  1.00  0.00    -0.362 OA
ATOM     23  C   UNL     1       9.123  -3.778  16.507  1.00  0.00     0.177 C 
ATOM     24  C   UNL     1       7.983  -3.066  18.642  1.00  0.00     0.176 C 
ATOM     25  C   UNL     1       9.341  -3.223  17.922  1.00  0.00     0.177 C 
BRANCH  21  26
ATOM     26  O   UNL     1       8.945  -6.052  17.206  1.00  0.00    -0.387 OA
ATOM     27  H   UNL     1       9.375  -5.648  18.006  1.00  0.00     0.211 HD
ENDBRANCH  21  26
BRANCH  23  28
ATOM     28  O   UNL     1       8.549  -2.788  15.691  1.00  0.00    -0.387 OA
ATOM     29  H   UNL     1       7.658  -2.576  16.076  1.00  0.00     0.211 HD
ENDBRANCH  23  28
BRANCH  24  30
ATOM     30  C   UNL     1       8.187  -2.591  20.089  1.00  0.00     0.191 C 
BRANCH  30  31
ATOM     31  O   UNL     1       9.521  -2.773  20.482  1.00  0.00    -0.394 OA
ATOM     32  H   UNL     1       9.799  -3.665  20.143  1.00  0.00     0.210 HD
ENDBRANCH  30  31
ENDBRANCH  24  30
BRANCH  25  33
ATOM     33  O   UNL     1       9.998  -1.983  17.832  1.00  0.00    -0.388 OA
ATOM     34  H   UNL     1      10.866  -2.142  17.376  1.00  0.00     0.211 HD
ENDBRANCH  25  33
ENDBRANCH  11  20
BRANCH  10  35
ATOM     35  O   UNL     1       4.866  -3.607  19.010  1.00  0.00    -0.507 OA
ATOM     36  H   UNL     1       5.715  -3.910  19.472  1.00  0.00     0.293 HD
ENDBRANCH  10  35
TORSDOF 9
ENDMDL
MODEL 5
REMARK VINA RESULT:    -3.729      9.092     10.972
REMARK INTER + INTRA:          -5.524
REMARK INTER:                  -5.079
REMARK INTRA:                  -0.445
REMARK UNBOUND:                -0.487
REMARK SMILES O=c1c(-c2ccc(O)cc2)coc2c([C@@H]3O[C@@H](CO)[C@H](O)[C@H](O)[C@H]3O)c(O)ccc12
REMARK SMILES IDX 3 1 11 2 12 3 13 4 30 5 2 6 1 7 29 8 28 9 26 10 14 11 4 12
REMARK SMILES IDX 5 13 6 14 7 15 10 16 9 17 8 18 15 20 24 21 16 22 22 23 17 24
REMARK SMILES IDX 20 25 25 26 23 28 18 30 19 31 21 33 27 35
REMARK H PARENT 8 19 25 27 23 29 19 32 21 34 27 36
REMARK Flexibility Score: inf
ROOT
ATOM      1  C   UNL     1       2.819  -2.752  16.276  1.00  0.00     0.065 A 
ATOM      2  C   UNL     1       3.886  -3.647  16.138  1.00  0.00     0.208 A 
ATOM      3  O   UNL     1       4.664  -3.943  17.170  1.00  0.00    -0.463 OA
ATOM      4  C   UNL     1       4.509  -3.430  18.385  1.00  0.00     0.147 A 
ATOM      5  C   UNL     1       3.435  -2.532  18.616  1.00  0.00     0.066 A 
ATOM      6  C   UNL     1       2.596  -2.182  17.540  1.00  0.00     0.200 A 
ATOM      7  O   UNL     1       1.660  -1.352  17.705  1.00  0.00    -0.288 OA
ATOM      8  C   UNL     1       3.214  -2.025  19.902  1.00  0.00     0.020 A 
ATOM      9  C   UNL     1       4.005  -2.445  20.961  1.00  0.00     0.047 A 
ATOM     10  C   UNL     1       5.061  -3.338  20.755  1.00  0.00     0.125 A 
ATOM     11  C   UNL     1       5.396  -3.781  19.445  1.00  0.00     0.069 A 
ENDROOT
BRANCH   1  12
ATOM     12  C   UNL     1       1.958  -2.439  15.107  1.00  0.00    -0.011 A 
ATOM     13  C   UNL     1       0.786  -3.180  14.873  1.00  0.00     0.013 A 
ATOM     14  C   UNL     1      -0.033  -2.882  13.779  1.00  0.00     0.047 A 
ATOM     15  C   UNL     1       0.302  -1.838  12.912  1.00  0.00     0.115 A 
ATOM     16  C   UNL     1       2.287  -1.386  14.234  1.00  0.00     0.013 A 
ATOM     17  C   UNL     1       1.466  -1.090  13.143  1.00  0.00     0.047 A 
BRANCH  15  18
ATOM     18  O   UNL     1      -0.524  -1.550  11.828  1.00  0.00    -0.508 OA
ATOM     19  H   UNL     1      -0.419  -2.025  10.940  1.00  0.00     0.293 HD
ENDBRANCH  15  18
ENDBRANCH   1  12
BRANCH  11  20
ATOM     20  C   UNL     1       6.614  -4.729  19.289  1.00  0.00     0.188 C 
ATOM     21  C   UNL     1       7.298  -4.913  17.898  1.00  0.00     0.179 C 
ATOM     22  O   UNL     1       7.623  -4.452  20.254  1.00  0.00    -0.362 OA
ATOM     23  C   UNL     1       8.120  -3.666  17.519  1.00  0.00     0.177 C 
ATOM     24  C   UNL     1       8.285  -3.219  19.997  1.00  0.00     0.176 C 
ATOM     25  C   UNL     1       9.068  -3.289  18.666  1.00  0.00     0.177 C 
BRANCH  21  26
ATOM     26  O   UNL     1       8.179  -6.008  17.968  1.00  0.00    -0.387 OA
ATOM     27  H   UNL     1       8.162  -6.455  17.081  1.00  0.00     0.211 HD
ENDBRANCH  21  26
BRANCH  23  28
ATOM     28  O   UNL     1       7.274  -2.582  17.226  1.00  0.00    -0.387 OA
ATOM     29  H   UNL     1       7.825  -1.903  16.756  1.00  0.00     0.211 HD
ENDBRANCH  23  28
BRANCH  24  30
ATOM     30  C   UNL     1       9.233  -2.925  21.170  1.00  0.00     0.191 C 
BRANCH  30  31
ATOM     31  O   UNL     1      10.555  -3.237  20.823  1.00  0.00    -0.394 OA
ATOM     32  H   UNL     1      11.139  -2.786  21.490  1.00  0.00     0.210 HD
ENDBRANCH  30  31
ENDBRANCH  24  30
BRANCH  25  33
ATOM     33  O   UNL     1       9.664  -2.048  18.379  1.00  0.00    -0.388 OA
ATOM     34  H   UNL     1      10.378  -2.212  17.709  1.00  0.00     0.211 HD
ENDBRANCH  25  33
ENDBRANCH  11  20
BRANCH  10  35
ATOM     35  O   UNL     1       5.771  -3.797  21.865  1.00  0.00    -0.507 OA
ATOM     36  H   UNL     1       5.760  -4.771  22.142  1.00  0.00     0.293 HD
ENDBRANCH  10  35
TORSDOF 9
ENDMDL
MODEL 6
REMARK VINA RESULT:    -3.713      7.223      9.142
REMARK INTER + INTRA:          -5.503
REMARK INTER:                  -5.048
REMARK INTRA:                  -0.455
REMARK UNBOUND:                -0.487
REMARK SMILES O=c1c(-c2ccc(O)cc2)coc2c([C@@H]3O[C@@H](CO)[C@H](O)[C@H](O)[C@H]3O)c(O)ccc12
REMARK SMILES IDX 3 1 11 2 12 3 13 4 30 5 2 6 1 7 29 8 28 9 26 10 14 11 4 12
REMARK SMILES IDX 5 13 6 14 7 15 10 16 9 17 8 18 15 20 24 21 16 22 22 23 17 24
REMARK SMILES IDX 20 25 25 26 23 28 18 30 19 31 21 33 27 35
REMARK H PARENT 8 19 25 27 23 29 19 32 21 34 27 36
REMARK Flexibility Score: inf
ROOT
ATOM      1  C   UNL     1      -1.197   1.489  13.989  1.00  0.00     0.065 A 
ATOM      2  C   UNL     1      -0.799   0.340  13.297  1.00  0.00     0.208 A 
ATOM      3  O   UNL     1      -0.232  -0.677  13.934  1.00  0.00    -0.463 OA
ATOM      4  C   UNL     1       0.006  -0.692  15.240  1.00  0.00     0.147 A 
ATOM      5  C   UNL     1      -0.390   0.426  16.019  1.00  0.00     0.066 A 
ATOM      6  C   UNL     1      -0.981   1.531  15.376  1.00  0.00     0.200 A 
ATOM      7  O   UNL     1      -1.302   2.557  16.037  1.00  0.00    -0.288 OA
ATOM      8  C   UNL     1      -0.205   0.409  17.407  1.00  0.00     0.020 A 
ATOM      9  C   UNL     1       0.309  -0.721  18.027  1.00  0.00     0.047 A 
ATOM     10  C   UNL     1       0.693  -1.836  17.276  1.00  0.00     0.125 A 
ATOM     11  C   UNL     1       0.636  -1.813  15.855  1.00  0.00     0.069 A 
ENDROOT
BRANCH   1  12
ATOM     12  C   UNL     1      -1.835   2.612  13.256  1.00  0.00    -0.011 A 
ATOM     13  C   UNL     1      -1.052   3.490  12.487  1.00  0.00     0.013 A 
ATOM     14  C   UNL     1      -1.650   4.543  11.786  1.00  0.00     0.047 A 
ATOM     15  C   UNL     1      -3.035   4.727  11.839  1.00  0.00     0.115 A 
ATOM     16  C   UNL     1      -3.228   2.798  13.300  1.00  0.00     0.013 A 
ATOM     17  C   UNL     1      -3.823   3.851  12.599  1.00  0.00     0.047 A 
BRANCH  15  18
ATOM     18  O   UNL     1      -3.617   5.778  11.134  1.00  0.00    -0.508 OA
ATOM     19  H   UNL     1      -4.577   5.733  10.813  1.00  0.00     0.293 HD
ENDBRANCH  15  18
ENDBRANCH   1  12
BRANCH  11  20
ATOM     20  C   UNL     1       1.131  -3.068  15.088  1.00  0.00     0.188 C 
ATOM     21  C   UNL     1       1.401  -3.000  13.553  1.00  0.00     0.179 C 
ATOM     22  O   UNL     1       2.263  -3.657  15.719  1.00  0.00    -0.362 OA
ATOM     23  C   UNL     1       2.691  -2.212  13.255  1.00  0.00     0.177 C 
ATOM     24  C   UNL     1       3.430  -2.856  15.580  1.00  0.00     0.176 C 
ATOM     25  C   UNL     1       3.852  -2.762  14.096  1.00  0.00     0.177 C 
BRANCH  21  26
ATOM     26  O   UNL     1       1.569  -4.308  13.064  1.00  0.00    -0.387 OA
ATOM     27  H   UNL     1       2.207  -4.258  12.304  1.00  0.00     0.211 HD
ENDBRANCH  21  26
BRANCH  23  28
ATOM     28  O   UNL     1       2.514  -0.844  13.526  1.00  0.00    -0.387 OA
ATOM     29  H   UNL     1       1.543  -0.654  13.436  1.00  0.00     0.211 HD
ENDBRANCH  23  28
BRANCH  24  30
ATOM     30  C   UNL     1       4.550  -3.482  16.425  1.00  0.00     0.191 C 
BRANCH  30  31
ATOM     31  O   UNL     1       5.423  -2.490  16.896  1.00  0.00    -0.394 OA
ATOM     32  H   UNL     1       5.024  -2.134  17.734  1.00  0.00     0.210 HD
ENDBRANCH  30  31
ENDBRANCH  24  30
BRANCH  25  33
ATOM     33  O   UNL     1       4.964  -1.913  13.953  1.00  0.00    -0.388 OA
ATOM     34  H   UNL     1       4.657  -0.989  14.152  1.00  0.00     0.211 HD
ENDBRANCH  25  33
ENDBRANCH  11  20
BRANCH  10  35
ATOM     35  O   UNL     1       1.120  -2.979  17.953  1.00  0.00    -0.507 OA
ATOM     36  H   UNL     1       1.403  -2.952  18.925  1.00  0.00     0.293 HD
ENDBRANCH  10  35
TORSDOF 9
ENDMDL
MODEL 7
REMARK VINA RESULT:    -3.644      9.354     12.190
REMARK INTER + INTRA:          -5.409
REMARK INTER:                  -5.369
REMARK INTRA:                  -0.040
REMARK UNBOUND:                -0.487
REMARK SMILES O=c1c(-c2ccc(O)cc2)coc2c([C@@H]3O[C@@H](CO)[C@H](O)[C@H](O)[C@H]3O)c(O)ccc12
REMARK SMILES IDX 3 1 11 2 12 3 13 4 30 5 2 6 1 7 29 8 28 9 26 10 14 11 4 12
REMARK SMILES IDX 5 13 6 14 7 15 10 16 9 17 8 18 15 20 24 21 16 22 22 23 17 24
REMARK SMILES IDX 20 25 25 26 23 28 18 30 19 31 21 33 27 35
REMARK H PARENT 8 19 25 27 23 29 19 32 21 34 27 36
REMARK Flexibility Score: inf
ROOT
ATOM      1  C   UNL     1       7.965  -3.316  18.087  1.00  0.00     0.065 A 
ATOM      2  C   UNL     1       6.956  -4.062  17.470  1.00  0.00     0.208 A 
ATOM      3  O   UNL     1       6.943  -4.234  16.154  1.00  0.00    -0.463 OA
ATOM      4  C   UNL     1       7.854  -3.725  15.333  1.00  0.00     0.147 A 
ATOM      5  C   UNL     1       8.926  -2.976  15.881  1.00  0.00     0.066 A 
ATOM      6  C   UNL     1       8.965  -2.759  17.273  1.00  0.00     0.200 A 
ATOM      7  O   UNL     1       9.882  -2.059  17.784  1.00  0.00    -0.288 OA
ATOM      8  C   UNL     1       9.932  -2.480  15.042  1.00  0.00     0.020 A 
ATOM      9  C   UNL     1       9.914  -2.772  13.687  1.00  0.00     0.047 A 
ATOM     10  C   UNL     1       8.871  -3.519  13.130  1.00  0.00     0.125 A 
ATOM     11  C   UNL     1       7.768  -3.936  13.925  1.00  0.00     0.069 A 
ENDROOT
BRANCH   1  12
ATOM     12  C   UNL     1       7.962  -3.142  19.561  1.00  0.00    -0.011 A 
ATOM     13  C   UNL     1       6.754  -2.918  20.245  1.00  0.00     0.013 A 
ATOM     14  C   UNL     1       6.745  -2.763  21.635  1.00  0.00     0.047 A 
ATOM     15  C   UNL     1       7.938  -2.838  22.359  1.00  0.00     0.115 A 
ATOM     16  C   UNL     1       9.159  -3.222  20.297  1.00  0.00     0.013 A 
ATOM     17  C   UNL     1       9.147  -3.068  21.686  1.00  0.00     0.047 A 
BRANCH  15  18
ATOM     18  O   UNL     1       7.914  -2.686  23.744  1.00  0.00    -0.508 OA
ATOM     19  H   UNL     1       7.422  -3.338  24.341  1.00  0.00     0.293 HD
ENDBRANCH  15  18
ENDBRANCH   1  12
BRANCH  11  20
ATOM     20  C   UNL     1       6.622  -4.715  13.226  1.00  0.00     0.188 C 
ATOM     21  C   UNL     1       5.249  -4.911  13.941  1.00  0.00     0.179 C 
ATOM     22  O   UNL     1       6.380  -4.226  11.911  1.00  0.00    -0.362 OA
ATOM     23  C   UNL     1       4.447  -3.595  13.963  1.00  0.00     0.177 C 
ATOM     24  C   UNL     1       5.777  -2.938  11.923  1.00  0.00     0.176 C 
ATOM     25  C   UNL     1       4.366  -3.002  12.550  1.00  0.00     0.177 C 
BRANCH  21  26
ATOM     26  O   UNL     1       4.498  -5.864  13.228  1.00  0.00    -0.387 OA
ATOM     27  H   UNL     1       3.675  -5.410  12.908  1.00  0.00     0.211 HD
ENDBRANCH  21  26
BRANCH  23  28
ATOM     28  O   UNL     1       5.039  -2.666  14.836  1.00  0.00    -0.387 OA
ATOM     29  H   UNL     1       4.806  -1.761  14.497  1.00  0.00     0.211 HD
ENDBRANCH  23  28
BRANCH  24  30
ATOM     30  C   UNL     1       5.707  -2.424  10.476  1.00  0.00     0.191 C 
BRANCH  30  31
ATOM     31  O   UNL     1       4.486  -2.784   9.887  1.00  0.00    -0.394 OA
ATOM     32  H   UNL     1       3.908  -3.131  10.617  1.00  0.00     0.210 HD
ENDBRANCH  30  31
ENDBRANCH  24  30
BRANCH  25  33
ATOM     33  O   UNL     1       3.801  -1.716  12.623  1.00  0.00    -0.388 OA
ATOM     34  H   UNL     1       4.158  -1.193  11.858  1.00  0.00     0.211 HD
ENDBRANCH  25  33
ENDBRANCH  11  20
BRANCH  10  35
ATOM     35  O   UNL     1       8.944  -3.860  11.779  1.00  0.00    -0.507 OA
ATOM     36  H   UNL     1       8.131  -4.169  11.260  1.00  0.00     0.293 HD
ENDBRANCH  10  35
TORSDOF 9
ENDMDL
MODEL 8
REMARK VINA RESULT:    -3.521      8.818     12.072
REMARK INTER + INTRA:          -5.243
REMARK INTER:                  -4.715
REMARK INTRA:                  -0.528
REMARK UNBOUND:                -0.487
REMARK SMILES O=c1c(-c2ccc(O)cc2)coc2c([C@@H]3O[C@@H](CO)[C@H](O)[C@H](O)[C@H]3O)c(O)ccc12
REMARK SMILES IDX 3 1 11 2 12 3 13 4 30 5 2 6 1 7 29 8 28 9 26 10 14 11 4 12
REMARK SMILES IDX 5 13 6 14 7 15 10 16 9 17 8 18 15 20 24 21 16 22 22 23 17 24
REMARK SMILES IDX 20 25 25 26 23 28 18 30 19 31 21 33 27 35
REMARK H PARENT 8 19 25 27 23 29 19 32 21 34 27 36
REMARK Flexibility Score: inf
ROOT
ATOM      1  C   UNL     1       3.416  -2.336  17.277  1.00  0.00     0.065 A 
ATOM      2  C   UNL     1       3.567  -2.616  15.914  1.00  0.00     0.208 A 
ATOM      3  O   UNL     1       2.644  -2.245  15.036  1.00  0.00    -0.463 OA
ATOM      4  C   UNL     1       1.530  -1.601  15.361  1.00  0.00     0.147 A 
ATOM      5  C   UNL     1       1.311  -1.257  16.720  1.00  0.00     0.066 A 
ATOM      6  C   UNL     1       2.261  -1.647  17.684  1.00  0.00     0.200 A 
ATOM      7  O   UNL     1       2.072  -1.394  18.906  1.00  0.00    -0.288 OA
ATOM      8  C   UNL     1       0.173  -0.525  17.080  1.00  0.00     0.020 A 
ATOM      9  C   UNL     1      -0.709  -0.085  16.103  1.00  0.00     0.047 A 
ATOM     10  C   UNL     1      -0.503  -0.405  14.757  1.00  0.00     0.125 A 
ATOM     11  C   UNL     1       0.572  -1.249  14.365  1.00  0.00     0.069 A 
ENDROOT
BRANCH   1  12
ATOM     12  C   UNL     1       4.464  -2.756  18.241  1.00  0.00    -0.011 A 
ATOM     13  C   UNL     1       4.419  -4.035  18.823  1.00  0.00     0.013 A 
ATOM     14  C   UNL     1       5.410  -4.438  19.723  1.00  0.00     0.047 A 
ATOM     15  C   UNL     1       6.461  -3.575  20.047  1.00  0.00     0.115 A 
ATOM     16  C   UNL     1       5.527  -1.894  18.567  1.00  0.00     0.013 A 
ATOM     17  C   UNL     1       6.517  -2.300  19.466  1.00  0.00     0.047 A 
BRANCH  15  18
ATOM     18  O   UNL     1       7.443  -3.991  20.944  1.00  0.00    -0.508 OA
ATOM     19  H   UNL     1       7.420  -3.719  21.919  1.00  0.00     0.293 HD
ENDBRANCH  15  18
ENDBRANCH   1  12
BRANCH  11  20
ATOM     20  C   UNL     1       0.705  -1.604  12.860  1.00  0.00     0.188 C 
ATOM     21  C   UNL     1       1.629  -2.776  12.404  1.00  0.00     0.179 C 
ATOM     22  O   UNL     1      -0.568  -1.768  12.245  1.00  0.00    -0.362 OA
ATOM     23  C   UNL     1       1.002  -4.139  12.751  1.00  0.00     0.177 C 
ATOM     24  C   UNL     1      -1.224  -2.953  12.681  1.00  0.00     0.176 C 
ATOM     25  C   UNL     1      -0.440  -4.207  12.229  1.00  0.00     0.177 C 
BRANCH  21  26
ATOM     26  O   UNL     1       1.783  -2.713  11.007  1.00  0.00    -0.387 OA
ATOM     27  H   UNL     1       1.400  -1.847  10.707  1.00  0.00     0.211 HD
ENDBRANCH  21  26
BRANCH  23  28
ATOM     28  O   UNL     1       1.014  -4.354  14.140  1.00  0.00    -0.387 OA
ATOM     29  H   UNL     1       0.504  -3.609  14.554  1.00  0.00     0.211 HD
ENDBRANCH  23  28
BRANCH  24  30
ATOM     30  C   UNL     1      -2.646  -2.962  12.098  1.00  0.00     0.191 C 
BRANCH  30  31
ATOM     31  O   UNL     1      -3.189  -1.669  12.110  1.00  0.00    -0.394 OA
ATOM     32  H   UNL     1      -4.165  -1.771  12.272  1.00  0.00     0.210 HD
ENDBRANCH  30  31
ENDBRANCH  24  30
BRANCH  25  33
ATOM     33  O   UNL     1      -1.052  -5.374  12.720  1.00  0.00    -0.388 OA
ATOM     34  H   UNL     1      -1.089  -5.293  13.709  1.00  0.00     0.211 HD
ENDBRANCH  25  33
ENDBRANCH  11  20
BRANCH  10  35
ATOM     35  O   UNL     1      -1.368   0.134  13.805  1.00  0.00    -0.507 OA
ATOM     36  H   UNL     1      -1.027   0.595  12.970  1.00  0.00     0.293 HD
ENDBRANCH  10  35
TORSDOF 9
ENDMDL
