MODEL 1
REMARK VINA RESULT:    -4.387      0.000      0.000
REMARK INTER + INTRA:         -10.097
REMARK INTER:                  -7.977
REMARK INTRA:                  -2.120
REMARK UNBOUND:                -2.120
REMARK SMILES CCCCCCCCCCCCCC[C@@H](C)C(=O)[O-]
REMARK SMILES IDX 9 1 10 2 11 3 12 4 13 5 14 6 15 7 16 8 17 9 18 10 19 11 8 12
REMARK SMILES IDX 7 13 6 14 5 15 4 16 3 17 2 18 1 19
REMARK H PARENT
REMARK Flexibility Score: inf
ROOT
ATOM      1  C   UNL     1      14.064  24.968  51.739  1.00  0.00     0.000 C 
ENDROOT
BRANCH   1   2
ATOM      2  C   UNL     1      14.215  25.820  50.466  1.00  0.00     0.000 C 
BRANCH   2   3
ATOM      3  C   UNL     1      15.684  26.173  50.173  1.00  0.00     0.000 C 
BRANCH   3   4
ATOM      4  C   UNL     1      15.975  27.673  50.347  1.00  0.00     0.000 C 
BRANCH   4   5
ATOM      5  C   UNL     1      14.765  28.454  50.895  1.00  0.00     0.001 C 
BRANCH   5   6
ATOM      6  C   UNL     1      15.111  29.770  51.629  1.00  0.00     0.009 C 
BRANCH   6   7
ATOM      7  C   UNL     1      15.129  31.034  50.736  1.00  0.00     0.032 C 
ATOM      8  C   UNL     1      14.599  30.756  49.324  1.00  0.00     0.014 C 
BRANCH   7   9
ATOM      9  C   UNL     1      14.307  32.119  51.375  1.00  0.00     0.044 C 
ATOM     10  O   UNL     1      14.866  33.114  51.910  1.00  0.00    -0.550 OA
ATOM     11  O   UNL     1      12.924  32.021  51.387  1.00  0.00    -0.550 OA
ENDBRANCH   7   9
ENDBRANCH   6   7
ENDBRANCH   5   6
ENDBRANCH   4   5
ENDBRANCH   3   4
ENDBRANCH   2   3
ENDBRANCH   1   2
BRANCH   1  12
ATOM     12  C   UNL     1      15.383  24.302  52.171  1.00  0.00     0.000 C 
BRANCH  12  13
ATOM     13  C   UNL     1      15.766  24.626  53.623  1.00  0.00    -0.000 C 
BRANCH  13  14
ATOM     14  C   UNL     1      17.049  25.469  53.677  1.00  0.00    -0.000 C 
BRANCH  14  15
ATOM     15  C   UNL     1      16.760  26.971  53.844  1.00  0.00    -0.000 C 
BRANCH  15  16
ATOM     16  C   UNL     1      15.622  27.242  54.842  1.00  0.00    -0.000 C 
BRANCH  16  17
ATOM     17  C   UNL     1      15.783  28.618  55.502  1.00  0.00    -0.000 C 
BRANCH  17  18
ATOM     18  C   UNL     1      16.927  29.405  54.854  1.00  0.00    -0.003 C 
ATOM     19  C   UNL     1      16.577  30.886  54.729  1.00  0.00     0.004 C 
ENDBRANCH  17  18
ENDBRANCH  16  17
ENDBRANCH  15  16
ENDBRANCH  14  15
ENDBRANCH  13  14
ENDBRANCH  12  13
ENDBRANCH   1  12
TORSDOF 14
ENDMDL
MODEL 2
REMARK VINA RESULT:    -4.286      1.726      3.311
REMARK INTER + INTRA:          -9.914
REMARK INTER:                  -7.669
REMARK INTRA:                  -2.245
REMARK UNBOUND:                -2.120
REMARK SMILES CCCCCCCCCCCCCC[C@@H](C)C(=O)[O-]
REMARK SMILES IDX 9 1 10 2 11 3 12 4 13 5 14 6 15 7 16 8 17 9 18 10 19 11 8 12
REMARK SMILES IDX 7 13 6 14 5 15 4 16 3 17 2 18 1 19
REMARK H PARENT
REMARK Flexibility Score: inf
ROOT
ATOM      1  C   UNL     1      16.449  25.629  53.877  1.00  0.00     0.000 C 
ENDROOT
BRANCH   1   2
ATOM      2  C   UNL     1      15.880  24.401  53.142  1.00  0.00     0.000 C 
BRANCH   2   3
ATOM      3  C   UNL     1      14.559  24.715  52.421  1.00  0.00     0.000 C 
BRANCH   3   4
ATOM      4  C   UNL     1      14.627  24.420  50.912  1.00  0.00     0.000 C 
BRANCH   4   5
ATOM      5  C   UNL     1      14.704  25.701  50.059  1.00  0.00     0.001 C 
BRANCH   5   6
ATOM      6  C   UNL     1      14.378  27.011  50.812  1.00  0.00     0.009 C 
BRANCH   6   7
ATOM      7  C   UNL     1      15.556  28.008  50.935  1.00  0.00     0.032 C 
ATOM      8  C   UNL     1      16.897  27.375  50.543  1.00  0.00     0.014 C 
BRANCH   7   9
ATOM      9  C   UNL     1      15.298  29.209  50.068  1.00  0.00     0.044 C 
ATOM     10  O   UNL     1      15.050  29.071  48.841  1.00  0.00    -0.550 OA
ATOM     11  O   UNL     1      15.344  30.481  50.619  1.00  0.00    -0.550 OA
ENDBRANCH   7   9
ENDBRANCH   6   7
ENDBRANCH   5   6
ENDBRANCH   4   5
ENDBRANCH   3   4
ENDBRANCH   2   3
ENDBRANCH   1   2
BRANCH   1  12
ATOM     12  C   UNL     1      15.354  26.498  54.519  1.00  0.00     0.000 C 
BRANCH  12  13
ATOM     13  C   UNL     1      15.826  27.931  54.811  1.00  0.00    -0.000 C 
BRANCH  13  14
ATOM     14  C   UNL     1      17.204  28.193  54.186  1.00  0.00    -0.000 C 
BRANCH  14  15
ATOM     15  C   UNL     1      17.381  29.655  53.741  1.00  0.00    -0.000 C 
BRANCH  15  16
ATOM     16  C   UNL     1      16.642  30.641  54.661  1.00  0.00    -0.000 C 
BRANCH  16  17
ATOM     17  C   UNL     1      17.437  30.896  55.949  1.00  0.00    -0.000 C 
BRANCH  17  18
ATOM     18  C   UNL     1      16.507  30.951  57.165  1.00  0.00    -0.003 C 
ATOM     19  C   UNL     1      15.325  31.886  56.915  1.00  0.00     0.004 C 
ENDBRANCH  17  18
ENDBRANCH  16  17
ENDBRANCH  15  16
ENDBRANCH  14  15
ENDBRANCH  13  14
ENDBRANCH  12  13
ENDBRANCH   1  12
TORSDOF 14
ENDMDL
MODEL 3
REMARK VINA RESULT:    -4.275      2.545      5.643
REMARK INTER + INTRA:          -9.893
REMARK INTER:                  -7.605
REMARK INTRA:                  -2.287
REMARK UNBOUND:                -2.120
REMARK SMILES CCCCCCCCCCCCCC[C@@H](C)C(=O)[O-]
REMARK SMILES IDX 9 1 10 2 11 3 12 4 13 5 14 6 15 7 16 8 17 9 18 10 19 11 8 12
REMARK SMILES IDX 7 13 6 14 5 15 4 16 3 17 2 18 1 19
REMARK H PARENT
REMARK Flexibility Score: inf
ROOT
ATOM      1  C   UNL     1      16.105  28.811  55.079  1.00  0.00     0.000 C 
ENDROOT
BRANCH   1   2
ATOM      2  C   UNL     1      15.521  27.433  54.716  1.00  0.00     0.000 C 
BRANCH   2   3
ATOM      3  C   UNL     1      16.603  26.343  54.646  1.00  0.00     0.000 C 
BRANCH   3   4
ATOM      4  C   UNL     1      16.576  25.572  53.315  1.00  0.00     0.000 C 
BRANCH   4   5
ATOM      5  C   UNL     1      15.329  24.681  53.169  1.00  0.00     0.001 C 
BRANCH   5   6
ATOM      6  C   UNL     1      15.108  24.087  51.758  1.00  0.00     0.009 C 
BRANCH   6   7
ATOM      7  C   UNL     1      13.960  24.734  50.946  1.00  0.00     0.032 C 
ATOM      8  C   UNL     1      13.290  25.887  51.704  1.00  0.00     0.014 C 
BRANCH   7   9
ATOM      9  C   UNL     1      14.490  25.239  49.632  1.00  0.00     0.044 C 
ATOM     10  O   UNL     1      15.586  24.814  49.179  1.00  0.00    -0.550 OA
ATOM     11  O   UNL     1      13.774  26.188  48.918  1.00  0.00    -0.550 OA
ENDBRANCH   7   9
ENDBRANCH   6   7
ENDBRANCH   5   6
ENDBRANCH   4   5
ENDBRANCH   3   4
ENDBRANCH   2   3
ENDBRANCH   1   2
BRANCH   1  12
ATOM     12  C   UNL     1      17.288  29.212  54.180  1.00  0.00     0.000 C 
BRANCH  12  13
ATOM     13  C   UNL     1      17.584  30.719  54.223  1.00  0.00    -0.000 C 
BRANCH  13  14
ATOM     14  C   UNL     1      17.164  31.398  52.910  1.00  0.00    -0.000 C 
BRANCH  14  15
ATOM     15  C   UNL     1      15.648  31.648  52.835  1.00  0.00    -0.000 C 
BRANCH  15  16
ATOM     16  C   UNL     1      15.057  31.263  51.469  1.00  0.00    -0.000 C 
BRANCH  16  17
ATOM     17  C   UNL     1      14.661  29.781  51.437  1.00  0.00    -0.000 C 
BRANCH  17  18
ATOM     18  C   UNL     1      15.377  29.047  50.298  1.00  0.00    -0.003 C 
ATOM     19  C   UNL     1      16.442  28.095  50.837  1.00  0.00     0.004 C 
ENDBRANCH  17  18
ENDBRANCH  16  17
ENDBRANCH  15  16
ENDBRANCH  14  15
ENDBRANCH  13  14
ENDBRANCH  12  13
ENDBRANCH   1  12
TORSDOF 14
ENDMDL
MODEL 4
REMARK VINA RESULT:    -4.270      1.859      4.322
REMARK INTER + INTRA:          -9.885
REMARK INTER:                  -7.348
REMARK INTRA:                  -2.537
REMARK UNBOUND:                -2.120
REMARK SMILES CCCCCCCCCCCCCC[C@@H](C)C(=O)[O-]
REMARK SMILES IDX 9 1 10 2 11 3 12 4 13 5 14 6 15 7 16 8 17 9 18 10 19 11 8 12
REMARK SMILES IDX 7 13 6 14 5 15 4 16 3 17 2 18 1 19
REMARK H PARENT
REMARK Flexibility Score: inf
ROOT
ATOM      1  C   UNL     1      13.544  25.721  50.673  1.00  0.00     0.000 C 
ENDROOT
BRANCH   1   2
ATOM      2  C   UNL     1      13.709  25.334  52.155  1.00  0.00     0.000 C 
BRANCH   2   3
ATOM      3  C   UNL     1      14.985  24.513  52.403  1.00  0.00     0.000 C 
BRANCH   3   4
ATOM      4  C   UNL     1      15.829  25.072  53.561  1.00  0.00     0.000 C 
BRANCH   4   5
ATOM      5  C   UNL     1      15.322  26.437  54.062  1.00  0.00     0.001 C 
BRANCH   5   6
ATOM      6  C   UNL     1      16.390  27.327  54.738  1.00  0.00     0.009 C 
BRANCH   6   7
ATOM      7  C   UNL     1      16.180  28.851  54.564  1.00  0.00     0.032 C 
ATOM      8  C   UNL     1      15.882  29.553  55.895  1.00  0.00     0.014 C 
BRANCH   7   9
ATOM      9  C   UNL     1      17.401  29.464  53.937  1.00  0.00     0.044 C 
ATOM     10  O   UNL     1      17.424  30.690  53.646  1.00  0.00    -0.550 OA
ATOM     11  O   UNL     1      18.509  28.674  53.666  1.00  0.00    -0.550 OA
ENDBRANCH   7   9
ENDBRANCH   6   7
ENDBRANCH   5   6
ENDBRANCH   4   5
ENDBRANCH   3   4
ENDBRANCH   2   3
ENDBRANCH   1   2
BRANCH   1  12
ATOM     12  C   UNL     1      14.624  25.098  49.771  1.00  0.00     0.000 C 
BRANCH  12  13
ATOM     13  C   UNL     1      15.453  26.152  49.021  1.00  0.00    -0.000 C 
BRANCH  13  14
ATOM     14  C   UNL     1      16.775  26.432  49.752  1.00  0.00    -0.000 C 
BRANCH  14  15
ATOM     15  C   UNL     1      16.650  27.569  50.781  1.00  0.00    -0.000 C 
BRANCH  15  16
ATOM     16  C   UNL     1      15.716  28.693  50.302  1.00  0.00    -0.000 C 
BRANCH  16  17
ATOM     17  C   UNL     1      14.684  29.050  51.380  1.00  0.00    -0.000 C 
BRANCH  17  18
ATOM     18  C   UNL     1      14.500  30.568  51.481  1.00  0.00    -0.003 C 
ATOM     19  C   UNL     1      14.980  31.268  50.212  1.00  0.00     0.004 C 
ENDBRANCH  17  18
ENDBRANCH  16  17
ENDBRANCH  15  16
ENDBRANCH  14  15
ENDBRANCH  13  14
ENDBRANCH  12  13
ENDBRANCH   1  12
TORSDOF 14
ENDMDL
MODEL 5
REMARK VINA RESULT:    -4.251      2.145      4.668
REMARK INTER + INTRA:          -9.851
REMARK INTER:                  -7.402
REMARK INTRA:                  -2.449
REMARK UNBOUND:                -2.120
REMARK SMILES CCCCCCCCCCCCCC[C@@H](C)C(=O)[O-]
REMARK SMILES IDX 9 1 10 2 11 3 12 4 13 5 14 6 15 7 16 8 17 9 18 10 19 11 8 12
REMARK SMILES IDX 7 13 6 14 5 15 4 16 3 17 2 18 1 19
REMARK H PARENT
REMARK Flexibility Score: inf
ROOT
ATOM      1  C   UNL     1      18.416  26.086  52.210  1.00  0.00     0.000 C 
ENDROOT
BRANCH   1   2
ATOM      2  C   UNL     1      17.921  25.863  53.651  1.00  0.00     0.000 C 
BRANCH   2   3
ATOM      3  C   UNL     1      16.510  25.253  53.694  1.00  0.00     0.000 C 
BRANCH   3   4
ATOM      4  C   UNL     1      15.500  26.155  54.423  1.00  0.00     0.000 C 
BRANCH   4   5
ATOM      5  C   UNL     1      16.178  27.289  55.215  1.00  0.00     0.001 C 
BRANCH   5   6
ATOM      6  C   UNL     1      15.775  28.719  54.789  1.00  0.00     0.009 C 
BRANCH   6   7
ATOM      7  C   UNL     1      16.842  29.809  55.056  1.00  0.00     0.032 C 
ATOM      8  C   UNL     1      17.192  30.602  53.790  1.00  0.00     0.014 C 
BRANCH   7   9
ATOM      9  C   UNL     1      16.350  30.753  56.118  1.00  0.00     0.044 C 
ATOM     10  O   UNL     1      16.677  30.586  57.323  1.00  0.00    -0.550 OA
ATOM     11  O   UNL     1      15.519  31.808  55.773  1.00  0.00    -0.550 OA
ENDBRANCH   7   9
ENDBRANCH   6   7
ENDBRANCH   5   6
ENDBRANCH   4   5
ENDBRANCH   3   4
ENDBRANCH   2   3
ENDBRANCH   1   2
BRANCH   1  12
ATOM     12  C   UNL     1      17.909  25.010  51.234  1.00  0.00     0.000 C 
BRANCH  12  13
ATOM     13  C   UNL     1      17.590  25.574  49.841  1.00  0.00    -0.000 C 
BRANCH  13  14
ATOM     14  C   UNL     1      16.271  24.998  49.304  1.00  0.00    -0.000 C 
BRANCH  14  15
ATOM     15  C   UNL     1      15.139  25.052  50.344  1.00  0.00    -0.000 C 
BRANCH  15  16
ATOM     16  C   UNL     1      14.213  26.264  50.142  1.00  0.00    -0.000 C 
BRANCH  16  17
ATOM     17  C   UNL     1      14.312  27.236  51.325  1.00  0.00    -0.000 C 
BRANCH  17  18
ATOM     18  C   UNL     1      15.436  28.254  51.105  1.00  0.00    -0.003 C 
ATOM     19  C   UNL     1      15.373  28.852  49.701  1.00  0.00     0.004 C 
ENDBRANCH  17  18
ENDBRANCH  16  17
ENDBRANCH  15  16
ENDBRANCH  14  15
ENDBRANCH  13  14
ENDBRANCH  12  13
ENDBRANCH   1  12
TORSDOF 14
ENDMDL
MODEL 6
REMARK VINA RESULT:    -4.241      1.250      4.043
REMARK INTER + INTRA:          -9.831
REMARK INTER:                  -7.378
REMARK INTRA:                  -2.453
REMARK UNBOUND:                -2.120
REMARK SMILES CCCCCCCCCCCCCC[C@@H](C)C(=O)[O-]
REMARK SMILES IDX 9 1 10 2 11 3 12 4 13 5 14 6 15 7 16 8 17 9 18 10 19 11 8 12
REMARK SMILES IDX 7 13 6 14 5 15 4 16 3 17 2 18 1 19
REMARK H PARENT
REMARK Flexibility Score: inf
ROOT
ATOM      1  C   UNL     1      15.347  25.955  53.616  1.00  0.00     0.000 C 
ENDROOT
BRANCH   1   2
ATOM      2  C   UNL     1      16.453  26.683  54.404  1.00  0.00     0.000 C 
BRANCH   2   3
ATOM      3  C   UNL     1      15.880  27.609  55.490  1.00  0.00     0.000 C 
BRANCH   3   4
ATOM      4  C   UNL     1      16.250  29.085  55.260  1.00  0.00     0.000 C 
BRANCH   4   5
ATOM      5  C   UNL     1      16.910  29.326  53.890  1.00  0.00     0.001 C 
BRANCH   5   6
ATOM      6  C   UNL     1      16.314  30.493  53.069  1.00  0.00     0.009 C 
BRANCH   6   7
ATOM      7  C   UNL     1      15.774  30.104  51.672  1.00  0.00     0.032 C 
ATOM      8  C   UNL     1      14.703  29.008  51.746  1.00  0.00     0.014 C 
BRANCH   7   9
ATOM      9  C   UNL     1      15.202  31.318  50.992  1.00  0.00     0.044 C 
ATOM     10  O   UNL     1      15.034  32.389  51.633  1.00  0.00    -0.550 OA
ATOM     11  O   UNL     1      14.845  31.256  49.654  1.00  0.00    -0.550 OA
ENDBRANCH   7   9
ENDBRANCH   6   7
ENDBRANCH   5   6
ENDBRANCH   4   5
ENDBRANCH   3   4
ENDBRANCH   2   3
ENDBRANCH   1   2
BRANCH   1  12
ATOM     12  C   UNL     1      15.686  24.481  53.338  1.00  0.00     0.000 C 
BRANCH  12  13
ATOM     13  C   UNL     1      14.834  23.876  52.212  1.00  0.00    -0.000 C 
BRANCH  13  14
ATOM     14  C   UNL     1      13.953  24.949  51.554  1.00  0.00    -0.000 C 
BRANCH  14  15
ATOM     15  C   UNL     1      14.233  25.097  50.048  1.00  0.00    -0.000 C 
BRANCH  15  16
ATOM     16  C   UNL     1      15.393  26.064  49.759  1.00  0.00    -0.000 C 
BRANCH  16  17
ATOM     17  C   UNL     1      16.660  25.300  49.355  1.00  0.00    -0.000 C 
BRANCH  17  18
ATOM     18  C   UNL     1      17.784  25.525  50.373  1.00  0.00    -0.003 C 
ATOM     19  C   UNL     1      17.739  26.942  50.940  1.00  0.00     0.004 C 
ENDBRANCH  17  18
ENDBRANCH  16  17
ENDBRANCH  15  16
ENDBRANCH  14  15
ENDBRANCH  13  14
ENDBRANCH  12  13
ENDBRANCH   1  12
TORSDOF 14
ENDMDL
MODEL 7
REMARK VINA RESULT:    -4.225      1.980      4.698
REMARK INTER + INTRA:          -9.802
REMARK INTER:                  -7.799
REMARK INTRA:                  -2.003
REMARK UNBOUND:                -2.120
REMARK SMILES CCCCCCCCCCCCCC[C@@H](C)C(=O)[O-]
REMARK SMILES IDX 9 1 10 2 11 3 12 4 13 5 14 6 15 7 16 8 17 9 18 10 19 11 8 12
REMARK SMILES IDX 7 13 6 14 5 15 4 16 3 17 2 18 1 19
REMARK H PARENT
REMARK Flexibility Score: inf
ROOT
ATOM      1  C   UNL     1      15.741  24.578  53.578  1.00  0.00     0.000 C 
ENDROOT
BRANCH   1   2
ATOM      2  C   UNL     1      17.079  25.342  53.586  1.00  0.00     0.000 C 
BRANCH   2   3
ATOM      3  C   UNL     1      16.890  26.843  53.862  1.00  0.00     0.000 C 
BRANCH   3   4
ATOM      4  C   UNL     1      15.676  27.128  54.764  1.00  0.00     0.000 C 
BRANCH   4   5
ATOM      5  C   UNL     1      15.817  28.443  55.553  1.00  0.00     0.001 C 
BRANCH   5   6
ATOM      6  C   UNL     1      16.170  29.685  54.701  1.00  0.00     0.009 C 
BRANCH   6   7
ATOM      7  C   UNL     1      16.819  30.853  55.482  1.00  0.00     0.032 C 
ATOM      8  C   UNL     1      16.723  30.662  57.001  1.00  0.00     0.014 C 
BRANCH   7   9
ATOM      9  C   UNL     1      18.264  30.988  55.085  1.00  0.00     0.044 C 
ATOM     10  O   UNL     1      19.156  31.145  55.960  1.00  0.00    -0.550 OA
ATOM     11  O   UNL     1      18.617  30.952  53.744  1.00  0.00    -0.550 OA
ENDBRANCH   7   9
ENDBRANCH   6   7
ENDBRANCH   5   6
ENDBRANCH   4   5
ENDBRANCH   3   4
ENDBRANCH   2   3
ENDBRANCH   1   2
BRANCH   1  12
ATOM     12  C   UNL     1      15.415  23.964  52.206  1.00  0.00     0.000 C 
BRANCH  12  13
ATOM     13  C   UNL     1      14.119  24.521  51.597  1.00  0.00    -0.000 C 
BRANCH  13  14
ATOM     14  C   UNL     1      14.402  25.239  50.269  1.00  0.00    -0.000 C 
BRANCH  14  15
ATOM     15  C   UNL     1      15.905  25.475  50.035  1.00  0.00    -0.000 C 
BRANCH  15  16
ATOM     16  C   UNL     1      16.290  26.959  50.153  1.00  0.00    -0.000 C 
BRANCH  16  17
ATOM     17  C   UNL     1      15.049  27.858  50.091  1.00  0.00    -0.000 C 
BRANCH  17  18
ATOM     18  C   UNL     1      14.939  28.728  51.348  1.00  0.00    -0.003 C 
ATOM     19  C   UNL     1      15.205  30.197  51.028  1.00  0.00     0.004 C 
ENDBRANCH  17  18
ENDBRANCH  16  17
ENDBRANCH  15  16
ENDBRANCH  14  15
ENDBRANCH  13  14
ENDBRANCH  12  13
ENDBRANCH   1  12
TORSDOF 14
ENDMDL
MODEL 8
REMARK VINA RESULT:    -4.203      2.576      4.818
REMARK INTER + INTRA:          -9.762
REMARK INTER:                  -7.032
REMARK INTRA:                  -2.730
REMARK UNBOUND:                -2.120
REMARK SMILES CCCCCCCCCCCCCC[C@@H](C)C(=O)[O-]
REMARK SMILES IDX 9 1 10 2 11 3 12 4 13 5 14 6 15 7 16 8 17 9 18 10 19 11 8 12
REMARK SMILES IDX 7 13 6 14 5 15 4 16 3 17 2 18 1 19
REMARK H PARENT
REMARK Flexibility Score: inf
ROOT
ATOM      1  C   UNL     1      17.031  26.119  53.999  1.00  0.00     0.000 C 
ENDROOT
BRANCH   1   2
ATOM      2  C   UNL     1      15.550  26.372  54.337  1.00  0.00     0.000 C 
BRANCH   2   3
ATOM      3  C   UNL     1      15.368  27.544  55.316  1.00  0.00     0.000 C 
BRANCH   3   4
ATOM      4  C   UNL     1      16.462  28.615  55.161  1.00  0.00     0.000 C 
BRANCH   4   5
ATOM      5  C   UNL     1      16.160  29.613  54.027  1.00  0.00     0.001 C 
BRANCH   5   6
ATOM      6  C   UNL     1      17.391  30.069  53.209  1.00  0.00     0.009 C 
BRANCH   6   7
ATOM      7  C   UNL     1      18.724  29.380  53.591  1.00  0.00     0.032 C 
ATOM      8  C   UNL     1      19.409  28.728  52.384  1.00  0.00     0.014 C 
BRANCH   7   9
ATOM      9  C   UNL     1      19.655  30.385  54.213  1.00  0.00     0.044 C 
ATOM     10  O   UNL     1      20.753  30.666  53.662  1.00  0.00    -0.550 OA
ATOM     11  O   UNL     1      19.309  31.000  55.407  1.00  0.00    -0.550 OA
ENDBRANCH   7   9
ENDBRANCH   6   7
ENDBRANCH   5   6
ENDBRANCH   4   5
ENDBRANCH   3   4
ENDBRANCH   2   3
ENDBRANCH   1   2
BRANCH   1  12
ATOM     12  C   UNL     1      17.241  25.667  52.543  1.00  0.00     0.000 C 
BRANCH  12  13
ATOM     13  C   UNL     1      16.057  26.025  51.633  1.00  0.00    -0.000 C 
BRANCH  13  14
ATOM     14  C   UNL     1      16.296  27.366  50.923  1.00  0.00    -0.000 C 
BRANCH  14  15
ATOM     15  C   UNL     1      15.030  28.239  50.870  1.00  0.00    -0.000 C 
BRANCH  15  16
ATOM     16  C   UNL     1      15.245  29.538  50.075  1.00  0.00    -0.000 C 
BRANCH  16  17
ATOM     17  C   UNL     1      14.437  30.694  50.679  1.00  0.00    -0.000 C 
BRANCH  17  18
ATOM     18  C   UNL     1      15.279  31.973  50.750  1.00  0.00    -0.003 C 
ATOM     19  C   UNL     1      15.015  32.736  52.046  1.00  0.00     0.004 C 
ENDBRANCH  17  18
ENDBRANCH  16  17
ENDBRANCH  15  16
ENDBRANCH  14  15
ENDBRANCH  13  14
ENDBRANCH  12  13
ENDBRANCH   1  12
TORSDOF 14
ENDMDL
MODEL 9
REMARK VINA RESULT:    -4.184      1.347      2.485
REMARK INTER + INTRA:          -9.729
REMARK INTER:                  -7.649
REMARK INTRA:                  -2.079
REMARK UNBOUND:                -2.120
REMARK SMILES CCCCCCCCCCCCCC[C@@H](C)C(=O)[O-]
REMARK SMILES IDX 9 1 10 2 11 3 12 4 13 5 14 6 15 7 16 8 17 9 18 10 19 11 8 12
REMARK SMILES IDX 7 13 6 14 5 15 4 16 3 17 2 18 1 19
REMARK H PARENT
REMARK Flexibility Score: inf
ROOT
ATOM      1  C   UNL     1      13.773  25.511  51.290  1.00  0.00     0.000 C 
ENDROOT
BRANCH   1   2
ATOM      2  C   UNL     1      14.300  25.957  49.913  1.00  0.00     0.000 C 
BRANCH   2   3
ATOM      3  C   UNL     1      15.545  26.853  50.030  1.00  0.00     0.000 C 
BRANCH   3   4
ATOM      4  C   UNL     1      15.257  28.314  49.644  1.00  0.00     0.000 C 
BRANCH   4   5
ATOM      5  C   UNL     1      15.111  29.235  50.869  1.00  0.00     0.001 C 
BRANCH   5   6
ATOM      6  C   UNL     1      15.202  30.749  50.568  1.00  0.00     0.009 C 
BRANCH   6   7
ATOM      7  C   UNL     1      15.254  31.664  51.815  1.00  0.00     0.032 C 
ATOM      8  C   UNL     1      16.447  31.343  52.723  1.00  0.00     0.014 C 
BRANCH   7   9
ATOM      9  C   UNL     1      15.324  33.104  51.386  1.00  0.00     0.044 C 
ATOM     10  O   UNL     1      16.268  33.508  50.655  1.00  0.00    -0.550 OA
ATOM     11  O   UNL     1      14.351  33.998  51.805  1.00  0.00    -0.550 OA
ENDBRANCH   7   9
ENDBRANCH   6   7
ENDBRANCH   5   6
ENDBRANCH   4   5
ENDBRANCH   3   4
ENDBRANCH   2   3
ENDBRANCH   1   2
BRANCH   1  12
ATOM     12  C   UNL     1      14.448  24.225  51.798  1.00  0.00     0.000 C 
BRANCH  12  13
ATOM     13  C   UNL     1      15.389  24.476  52.986  1.00  0.00    -0.000 C 
BRANCH  13  14
ATOM     14  C   UNL     1      15.176  25.881  53.568  1.00  0.00    -0.000 C 
BRANCH  14  15
ATOM     15  C   UNL     1      16.391  26.376  54.372  1.00  0.00    -0.000 C 
BRANCH  15  16
ATOM     16  C   UNL     1      16.907  27.737  53.875  1.00  0.00    -0.000 C 
BRANCH  16  17
ATOM     17  C   UNL     1      17.928  27.560  52.743  1.00  0.00    -0.000 C 
BRANCH  17  18
ATOM     18  C   UNL     1      18.716  26.257  52.917  1.00  0.00    -0.003 C 
ATOM     19  C   UNL     1      18.727  25.442  51.625  1.00  0.00     0.004 C 
ENDBRANCH  17  18
ENDBRANCH  16  17
ENDBRANCH  15  16
ENDBRANCH  14  15
ENDBRANCH  13  14
ENDBRANCH  12  13
ENDBRANCH   1  12
TORSDOF 14
ENDMDL
