MODEL 1
REMARK VINA RESULT:    -6.256      0.000      0.000
REMARK INTER + INTRA:         -10.654
REMARK INTER:                  -9.364
REMARK INTRA:                  -1.290
REMARK UNBOUND:                -1.290
REMARK SMILES C=C(CC[C@@H](C(=O)[O-])[C@@H]1[C@H](O)C[C@]2(C)C3=C(CC[C@@]12C)[C@@]1(C)CC[C@H](OC(C)=O)C(C)(C)[C@H]1CC3)C(C)C
REMARK SMILES IDX 4 1 5 2 6 3 7 4 8 5 9 6 10 7 19 8 12 9 13 10 18 11 20 12
REMARK SMILES IDX 14 13 15 14 17 15 16 16 35 17 21 18 34 19 33 20 23 21 22 22
REMARK SMILES IDX 30 23 24 24 25 25 31 26 32 27 11 28 26 30 27 31 29 32 28 33
REMARK SMILES IDX 3 34 2 35 1 36 36 37 37 38 38 39
REMARK H PARENT 11 29
REMARK Flexibility Score: inf
ROOT
ATOM      1  C   UNL     1      -2.527  35.354  60.316  1.00  0.00     0.014 C 
ENDROOT
BRANCH   1   2
ATOM      2  C   UNL     1      -1.447  34.267  60.570  1.00  0.00     0.042 C 
BRANCH   2   3
ATOM      3  C   UNL     1      -0.876  34.433  61.965  1.00  0.00     0.045 C 
ATOM      4  O   UNL     1      -1.640  34.433  62.965  1.00  0.00    -0.550 OA
ATOM      5  O   UNL     1       0.497  34.484  62.171  1.00  0.00    -0.550 OA
ENDBRANCH   2   3
BRANCH   2   6
ATOM      6  C   UNL     1      -2.003  32.837  60.202  1.00  0.00     0.033 C 
ATOM      7  C   UNL     1      -1.262  31.563  60.718  1.00  0.00     0.119 C 
ATOM      8  C   UNL     1      -2.320  32.518  58.716  1.00  0.00    -0.017 C 
ATOM      9  C   UNL     1      -1.499  30.465  59.652  1.00  0.00     0.043 C 
ATOM     10  C   UNL     1      -2.642  30.994  58.766  1.00  0.00    -0.003 C 
ATOM     11  C   UNL     1      -3.539  33.239  58.123  1.00  0.00     0.012 C 
ATOM     12  C   UNL     1      -1.070  32.845  57.830  1.00  0.00     0.013 C 
ATOM     13  C   UNL     1      -3.988  30.607  59.466  1.00  0.00     0.017 C 
ATOM     14  C   UNL     1      -2.751  30.456  57.343  1.00  0.00    -0.064 C 
ATOM     15  C   UNL     1      -3.987  32.600  56.776  1.00  0.00     0.032 C 
ATOM     16  C   UNL     1      -3.438  31.190  56.407  1.00  0.00    -0.064 C 
ATOM     17  C   UNL     1      -2.378  29.023  57.090  1.00  0.00     0.032 C 
ATOM     18  C   UNL     1      -3.639  30.684  54.939  1.00  0.00    -0.008 C 
ATOM     19  C   UNL     1      -2.087  28.765  55.627  1.00  0.00     0.009 C 
ATOM     20  C   UNL     1      -3.311  29.135  54.752  1.00  0.00     0.009 C 
ATOM     21  C   UNL     1      -2.700  31.532  54.034  1.00  0.00     0.015 C 
ATOM     22  C   UNL     1      -5.125  30.959  54.581  1.00  0.00     0.016 C 
ATOM     23  C   UNL     1      -3.131  28.637  53.237  1.00  0.00     0.005 C 
ATOM     24  C   UNL     1      -2.667  31.076  52.576  1.00  0.00     0.047 C 
ATOM     25  C   UNL     1      -2.211  29.619  52.450  1.00  0.00     0.182 C 
ATOM     26  C   UNL     1      -4.507  28.471  52.512  1.00  0.00     0.015 C 
ATOM     27  C   UNL     1      -2.478  27.223  53.190  1.00  0.00     0.015 C 
BRANCH   7  28
ATOM     28  O   UNL     1       0.114  31.760  60.883  1.00  0.00    -0.393 OA
ATOM     29  H   UNL     1       0.242  32.147  61.790  1.00  0.00     0.210 HD
ENDBRANCH   7  28
BRANCH  25  30
ATOM     30  O   UNL     1      -2.175  29.281  51.058  1.00  0.00    -0.462 OA
BRANCH  30  31
ATOM     31  C   UNL     1      -1.121  29.607  50.197  1.00  0.00     0.302 C 
ATOM     32  O   UNL     1      -1.285  29.619  48.945  1.00  0.00    -0.253 OA
ATOM     33  C   UNL     1       0.198  29.986  50.770  1.00  0.00     0.139 C 
ENDBRANCH  30  31
ENDBRANCH  25  30
ENDBRANCH   2   6
ENDBRANCH   1   2
BRANCH   1  34
ATOM     34  C   UNL     1      -2.087  36.388  59.259  1.00  0.00     0.031 C 
BRANCH  34  35
ATOM     35  C   UNL     1      -3.233  37.297  58.859  1.00  0.00    -0.075 C 
ATOM     36  C   UNL     1      -4.466  36.769  58.737  1.00  0.00     0.008 C 
BRANCH  35  37
ATOM     37  C   UNL     1      -3.009  38.777  58.582  1.00  0.00     0.008 C 
ATOM     38  C   UNL     1      -2.973  39.584  59.886  1.00  0.00     0.012 C 
ATOM     39  C   UNL     1      -1.732  39.006  57.761  1.00  0.00     0.012 C 
ENDBRANCH  35  37
ENDBRANCH  34  35
ENDBRANCH   1  34
TORSDOF 9
ENDMDL
MODEL 2
REMARK VINA RESULT:    -5.982      2.148      9.492
REMARK INTER + INTRA:         -10.245
REMARK INTER:                  -9.016
REMARK INTRA:                  -1.229
REMARK UNBOUND:                -1.290
REMARK SMILES C=C(CC[C@@H](C(=O)[O-])[C@@H]1[C@H](O)C[C@]2(C)C3=C(CC[C@@]12C)[C@@]1(C)CC[C@H](OC(C)=O)C(C)(C)[C@H]1CC3)C(C)C
REMARK SMILES IDX 4 1 5 2 6 3 7 4 8 5 9 6 10 7 19 8 12 9 13 10 18 11 20 12
REMARK SMILES IDX 14 13 15 14 17 15 16 16 35 17 21 18 34 19 33 20 23 21 22 22
REMARK SMILES IDX 30 23 24 24 25 25 31 26 32 27 11 28 26 30 27 31 29 32 28 33
REMARK SMILES IDX 3 34 2 35 1 36 36 37 37 38 38 39
REMARK H PARENT 11 29
REMARK Flexibility Score: inf
ROOT
ATOM      1  C   UNL     1      -0.858  26.632  53.490  1.00  0.00     0.014 C 
ENDROOT
BRANCH   1   2
ATOM      2  C   UNL     1      -1.486  27.686  52.537  1.00  0.00     0.042 C 
BRANCH   2   3
ATOM      3  C   UNL     1      -1.697  27.073  51.166  1.00  0.00     0.045 C 
ATOM      4  O   UNL     1      -1.650  27.796  50.137  1.00  0.00    -0.550 OA
ATOM      5  O   UNL     1      -1.840  25.700  51.015  1.00  0.00    -0.550 OA
ENDBRANCH   2   3
BRANCH   2   6
ATOM      6  C   UNL     1      -2.745  28.360  53.209  1.00  0.00     0.033 C 
ATOM      7  C   UNL     1      -3.665  29.295  52.364  1.00  0.00     0.119 C 
ATOM      8  C   UNL     1      -2.559  29.120  54.551  1.00  0.00    -0.017 C 
ATOM      9  C   UNL     1      -4.244  30.338  53.351  1.00  0.00     0.043 C 
ATOM     10  C   UNL     1      -3.957  29.776  54.756  1.00  0.00    -0.003 C 
ATOM     11  C   UNL     1      -2.264  28.245  55.779  1.00  0.00     0.012 C 
ATOM     12  C   UNL     1      -1.409  30.173  54.404  1.00  0.00     0.013 C 
ATOM     13  C   UNL     1      -5.124  28.793  55.108  1.00  0.00     0.017 C 
ATOM     14  C   UNL     1      -3.885  30.760  55.919  1.00  0.00    -0.064 C 
ATOM     15  C   UNL     1      -2.449  29.036  57.107  1.00  0.00     0.032 C 
ATOM     16  C   UNL     1      -3.217  30.391  57.060  1.00  0.00    -0.064 C 
ATOM     17  C   UNL     1      -4.793  31.957  55.899  1.00  0.00     0.032 C 
ATOM     18  C   UNL     1      -3.140  31.322  58.316  1.00  0.00    -0.008 C 
ATOM     19  C   UNL     1      -4.305  33.050  56.827  1.00  0.00     0.009 C 
ATOM     20  C   UNL     1      -4.187  32.524  58.279  1.00  0.00     0.009 C 
ATOM     21  C   UNL     1      -1.693  31.889  58.374  1.00  0.00     0.015 C 
ATOM     22  C   UNL     1      -3.414  30.418  59.549  1.00  0.00     0.016 C 
ATOM     23  C   UNL     1      -3.923  33.714  59.323  1.00  0.00     0.005 C 
ATOM     24  C   UNL     1      -1.480  32.932  59.470  1.00  0.00     0.047 C 
ATOM     25  C   UNL     1      -2.420  34.130  59.301  1.00  0.00     0.182 C 
ATOM     26  C   UNL     1      -4.365  33.325  60.771  1.00  0.00     0.015 C 
ATOM     27  C   UNL     1      -4.775  34.968  58.964  1.00  0.00     0.015 C 
BRANCH   7  28
ATOM     28  O   UNL     1      -2.978  29.957  51.339  1.00  0.00    -0.393 OA
ATOM     29  H   UNL     1      -2.382  29.285  50.913  1.00  0.00     0.210 HD
ENDBRANCH   7  28
BRANCH  25  30
ATOM     30  O   UNL     1      -2.136  35.072  60.342  1.00  0.00    -0.462 OA
BRANCH  30  31
ATOM     31  C   UNL     1      -1.092  34.932  61.265  1.00  0.00     0.302 C 
ATOM     32  O   UNL     1       0.104  35.157  60.931  1.00  0.00    -0.253 OA
ATOM     33  C   UNL     1      -1.406  34.554  62.669  1.00  0.00     0.139 C 
ENDBRANCH  30  31
ENDBRANCH  25  30
ENDBRANCH   2   6
ENDBRANCH   1   2
BRANCH   1  34
ATOM     34  C   UNL     1       0.626  26.921  53.795  1.00  0.00     0.031 C 
BRANCH  34  35
ATOM     35  C   UNL     1       0.998  26.491  55.200  1.00  0.00    -0.075 C 
ATOM     36  C   UNL     1       2.139  26.960  55.741  1.00  0.00     0.008 C 
BRANCH  35  37
ATOM     37  C   UNL     1       0.118  25.535  55.994  1.00  0.00     0.008 C 
ATOM     38  C   UNL     1       0.809  24.178  56.185  1.00  0.00     0.012 C 
ATOM     39  C   UNL     1      -0.289  26.138  57.345  1.00  0.00     0.012 C 
ENDBRANCH  35  37
ENDBRANCH  34  35
ENDBRANCH   1  34
TORSDOF 9
ENDMDL
MODEL 3
REMARK VINA RESULT:    -5.909      2.011      9.737
REMARK INTER + INTRA:         -10.136
REMARK INTER:                  -8.803
REMARK INTRA:                  -1.334
REMARK UNBOUND:                -1.290
REMARK SMILES C=C(CC[C@@H](C(=O)[O-])[C@@H]1[C@H](O)C[C@]2(C)C3=C(CC[C@@]12C)[C@@]1(C)CC[C@H](OC(C)=O)C(C)(C)[C@H]1CC3)C(C)C
REMARK SMILES IDX 4 1 5 2 6 3 7 4 8 5 9 6 10 7 19 8 12 9 13 10 18 11 20 12
REMARK SMILES IDX 14 13 15 14 17 15 16 16 35 17 21 18 34 19 33 20 23 21 22 22
REMARK SMILES IDX 30 23 24 24 25 25 31 26 32 27 11 28 26 30 27 31 29 32 28 33
REMARK SMILES IDX 3 34 2 35 1 36 36 37 37 38 38 39
REMARK H PARENT 11 29
REMARK Flexibility Score: inf
ROOT
ATOM      1  C   UNL     1      -1.183  28.716  51.026  1.00  0.00     0.014 C 
ENDROOT
BRANCH   1   2
ATOM      2  C   UNL     1      -2.093  29.946  50.754  1.00  0.00     0.042 C 
BRANCH   2   3
ATOM      3  C   UNL     1      -2.546  29.935  49.307  1.00  0.00     0.045 C 
ATOM      4  O   UNL     1      -1.731  30.207  48.387  1.00  0.00    -0.550 OA
ATOM      5  O   UNL     1      -3.829  29.526  48.966  1.00  0.00    -0.550 OA
ENDBRANCH   2   3
BRANCH   2   6
ATOM      6  C   UNL     1      -3.226  30.050  51.847  1.00  0.00     0.033 C 
ATOM      7  C   UNL     1      -4.505  30.897  51.557  1.00  0.00     0.119 C 
ATOM      8  C   UNL     1      -2.833  30.439  53.298  1.00  0.00    -0.017 C 
ATOM      9  C   UNL     1      -4.984  31.439  52.926  1.00  0.00     0.043 C 
ATOM     10  C   UNL     1      -4.222  30.615  53.982  1.00  0.00    -0.003 C 
ATOM     11  C   UNL     1      -2.051  29.377  54.086  1.00  0.00     0.012 C 
ATOM     12  C   UNL     1      -1.993  31.761  53.278  1.00  0.00     0.013 C 
ATOM     13  C   UNL     1      -5.036  29.298  54.217  1.00  0.00     0.017 C 
ATOM     14  C   UNL     1      -4.027  31.230  55.364  1.00  0.00    -0.064 C 
ATOM     15  C   UNL     1      -2.017  29.699  55.608  1.00  0.00     0.032 C 
ATOM     16  C   UNL     1      -3.015  30.759  56.163  1.00  0.00    -0.064 C 
ATOM     17  C   UNL     1      -5.120  32.099  55.919  1.00  0.00     0.032 C 
ATOM     18  C   UNL     1      -2.781  31.300  57.613  1.00  0.00    -0.008 C 
ATOM     19  C   UNL     1      -4.619  32.989  57.037  1.00  0.00     0.009 C 
ATOM     20  C   UNL     1      -4.011  32.141  58.182  1.00  0.00     0.009 C 
ATOM     21  C   UNL     1      -1.511  32.197  57.564  1.00  0.00     0.015 C 
ATOM     22  C   UNL     1      -2.528  30.057  58.509  1.00  0.00     0.016 C 
ATOM     23  C   UNL     1      -3.707  33.030  59.483  1.00  0.00     0.005 C 
ATOM     24  C   UNL     1      -1.214  32.922  58.875  1.00  0.00     0.047 C 
ATOM     25  C   UNL     1      -2.377  33.823  59.300  1.00  0.00     0.182 C 
ATOM     26  C   UNL     1      -3.654  32.160  60.782  1.00  0.00     0.015 C 
ATOM     27  C   UNL     1      -4.851  34.058  59.734  1.00  0.00     0.015 C 
BRANCH   7  28
ATOM     28  O   UNL     1      -4.265  31.970  50.691  1.00  0.00    -0.393 OA
ATOM     29  H   UNL     1      -4.996  32.627  50.839  1.00  0.00     0.210 HD
ENDBRANCH   7  28
BRANCH  25  30
ATOM     30  O   UNL     1      -2.008  34.489  60.513  1.00  0.00    -0.462 OA
BRANCH  30  31
ATOM     31  C   UNL     1      -0.734  35.011  60.766  1.00  0.00     0.302 C 
ATOM     32  O   UNL     1      -0.100  34.696  61.812  1.00  0.00    -0.253 OA
ATOM     33  C   UNL     1      -0.104  35.915  59.767  1.00  0.00     0.139 C 
ENDBRANCH  30  31
ENDBRANCH  25  30
ENDBRANCH   2   6
ENDBRANCH   1   2
BRANCH   1  34
ATOM     34  C   UNL     1      -1.848  27.387  50.613  1.00  0.00     0.031 C 
BRANCH  34  35
ATOM     35  C   UNL     1      -2.101  26.496  51.813  1.00  0.00    -0.075 C 
ATOM     36  C   UNL     1      -1.073  26.204  52.632  1.00  0.00     0.008 C 
BRANCH  35  37
ATOM     37  C   UNL     1      -3.483  25.919  52.092  1.00  0.00     0.008 C 
ATOM     38  C   UNL     1      -4.585  26.852  51.574  1.00  0.00     0.012 C 
ATOM     39  C   UNL     1      -3.633  24.512  51.499  1.00  0.00     0.012 C 
ENDBRANCH  35  37
ENDBRANCH  34  35
ENDBRANCH   1  34
TORSDOF 9
ENDMDL
MODEL 4
REMARK VINA RESULT:    -5.897      1.597      2.735
REMARK INTER + INTRA:         -10.118
REMARK INTER:                  -8.515
REMARK INTRA:                  -1.603
REMARK UNBOUND:                -1.290
REMARK SMILES C=C(CC[C@@H](C(=O)[O-])[C@@H]1[C@H](O)C[C@]2(C)C3=C(CC[C@@]12C)[C@@]1(C)CC[C@H](OC(C)=O)C(C)(C)[C@H]1CC3)C(C)C
REMARK SMILES IDX 4 1 5 2 6 3 7 4 8 5 9 6 10 7 19 8 12 9 13 10 18 11 20 12
REMARK SMILES IDX 14 13 15 14 17 15 16 16 35 17 21 18 34 19 33 20 23 21 22 22
REMARK SMILES IDX 30 23 24 24 25 25 31 26 32 27 11 28 26 30 27 31 29 32 28 33
REMARK SMILES IDX 3 34 2 35 1 36 36 37 37 38 38 39
REMARK H PARENT 11 29
REMARK Flexibility Score: inf
ROOT
ATOM      1  C   UNL     1      -2.638  35.278  60.980  1.00  0.00     0.014 C 
ENDROOT
BRANCH   1   2
ATOM      2  C   UNL     1      -1.451  34.321  60.680  1.00  0.00     0.042 C 
BRANCH   2   3
ATOM      3  C   UNL     1      -0.446  34.383  61.814  1.00  0.00     0.045 C 
ATOM      4  O   UNL     1      -0.772  34.000  62.968  1.00  0.00    -0.550 OA
ATOM      5  O   UNL     1       0.869  34.762  61.579  1.00  0.00    -0.550 OA
ENDBRANCH   2   3
BRANCH   2   6
ATOM      6  C   UNL     1      -1.982  32.887  60.286  1.00  0.00     0.033 C 
ATOM      7  C   UNL     1      -1.249  31.617  60.821  1.00  0.00     0.119 C 
ATOM      8  C   UNL     1      -2.245  32.573  58.788  1.00  0.00    -0.017 C 
ATOM      9  C   UNL     1      -1.440  30.522  59.743  1.00  0.00     0.043 C 
ATOM     10  C   UNL     1      -2.556  31.046  58.820  1.00  0.00    -0.003 C 
ATOM     11  C   UNL     1      -3.450  33.286  58.157  1.00  0.00     0.012 C 
ATOM     12  C   UNL     1      -0.968  32.915  57.947  1.00  0.00     0.013 C 
ATOM     13  C   UNL     1      -3.922  30.645  59.472  1.00  0.00     0.017 C 
ATOM     14  C   UNL     1      -2.612  30.515  57.392  1.00  0.00    -0.064 C 
ATOM     15  C   UNL     1      -3.846  32.651  56.793  1.00  0.00     0.032 C 
ATOM     16  C   UNL     1      -3.272  31.247  56.436  1.00  0.00    -0.064 C 
ATOM     17  C   UNL     1      -2.218  29.086  57.146  1.00  0.00     0.032 C 
ATOM     18  C   UNL     1      -3.418  30.746  54.960  1.00  0.00    -0.008 C 
ATOM     19  C   UNL     1      -1.875  28.837  55.692  1.00  0.00     0.009 C 
ATOM     20  C   UNL     1      -3.071  29.201  54.777  1.00  0.00     0.009 C 
ATOM     21  C   UNL     1      -2.455  31.606  54.091  1.00  0.00     0.015 C 
ATOM     22  C   UNL     1      -4.893  31.011  54.552  1.00  0.00     0.016 C 
ATOM     23  C   UNL     1      -2.834  28.712  53.267  1.00  0.00     0.005 C 
ATOM     24  C   UNL     1      -2.369  31.157  52.634  1.00  0.00     0.047 C 
ATOM     25  C   UNL     1      -1.896  29.705  52.516  1.00  0.00     0.182 C 
ATOM     26  C   UNL     1      -4.183  28.538  52.495  1.00  0.00     0.015 C 
ATOM     27  C   UNL     1      -2.168  27.303  53.237  1.00  0.00     0.015 C 
BRANCH   7  28
ATOM     28  O   UNL     1       0.119  31.825  61.035  1.00  0.00    -0.393 OA
ATOM     29  H   UNL     1       0.198  32.451  61.802  1.00  0.00     0.210 HD
ENDBRANCH   7  28
BRANCH  25  30
ATOM     30  O   UNL     1      -1.810  29.374  51.125  1.00  0.00    -0.462 OA
BRANCH  30  31
ATOM     31  C   UNL     1      -0.707  29.668  50.315  1.00  0.00     0.302 C 
ATOM     32  O   UNL     1       0.410  29.967  50.822  1.00  0.00    -0.253 OA
ATOM     33  C   UNL     1      -0.846  29.585  48.836  1.00  0.00     0.139 C 
ENDBRANCH  30  31
ENDBRANCH  25  30
ENDBRANCH   2   6
ENDBRANCH   1   2
BRANCH   1  34
ATOM     34  C   UNL     1      -3.882  34.531  61.503  1.00  0.00     0.031 C 
BRANCH  34  35
ATOM     35  C   UNL     1      -4.084  34.761  62.988  1.00  0.00    -0.075 C 
ATOM     36  C   UNL     1      -4.018  36.018  63.464  1.00  0.00     0.008 C 
BRANCH  35  37
ATOM     37  C   UNL     1      -4.343  33.600  63.940  1.00  0.00     0.008 C 
ATOM     38  C   UNL     1      -4.092  32.254  63.249  1.00  0.00     0.012 C 
ATOM     39  C   UNL     1      -3.504  33.726  65.218  1.00  0.00     0.012 C 
ENDBRANCH  35  37
ENDBRANCH  34  35
ENDBRANCH   1  34
TORSDOF 9
ENDMDL
MODEL 5
REMARK VINA RESULT:    -5.454      2.966      9.995
REMARK INTER + INTRA:          -9.454
REMARK INTER:                  -8.908
REMARK INTRA:                  -0.547
REMARK UNBOUND:                -1.290
REMARK SMILES C=C(CC[C@@H](C(=O)[O-])[C@@H]1[C@H](O)C[C@]2(C)C3=C(CC[C@@]12C)[C@@]1(C)CC[C@H](OC(C)=O)C(C)(C)[C@H]1CC3)C(C)C
REMARK SMILES IDX 4 1 5 2 6 3 7 4 8 5 9 6 10 7 19 8 12 9 13 10 18 11 20 12
REMARK SMILES IDX 14 13 15 14 17 15 16 16 35 17 21 18 34 19 33 20 23 21 22 22
REMARK SMILES IDX 30 23 24 24 25 25 31 26 32 27 11 28 26 30 27 31 29 32 28 33
REMARK SMILES IDX 3 34 2 35 1 36 36 37 37 38 38 39
REMARK H PARENT 11 29
REMARK Flexibility Score: inf
ROOT
ATOM      1  C   UNL     1      -1.897  30.738  54.682  1.00  0.00     0.014 C 
ENDROOT
BRANCH   1   2
ATOM      2  C   UNL     1      -2.902  31.410  55.659  1.00  0.00     0.042 C 
BRANCH   2   3
ATOM      3  C   UNL     1      -4.305  31.315  55.092  1.00  0.00     0.045 C 
ATOM      4  O   UNL     1      -5.124  32.254  55.272  1.00  0.00    -0.550 OA
ATOM      5  O   UNL     1      -4.676  30.247  54.285  1.00  0.00    -0.550 OA
ENDBRANCH   2   3
BRANCH   2   6
ATOM      6  C   UNL     1      -2.695  30.866  57.126  1.00  0.00     0.033 C 
ATOM      7  C   UNL     1      -3.690  29.813  57.707  1.00  0.00     0.119 C 
ATOM      8  C   UNL     1      -2.502  31.886  58.281  1.00  0.00    -0.017 C 
ATOM      9  C   UNL     1      -3.739  30.062  59.235  1.00  0.00     0.043 C 
ATOM     10  C   UNL     1      -2.532  30.969  59.541  1.00  0.00    -0.003 C 
ATOM     11  C   UNL     1      -1.169  32.648  58.284  1.00  0.00     0.012 C 
ATOM     12  C   UNL     1      -3.671  32.930  58.262  1.00  0.00     0.013 C 
ATOM     13  C   UNL     1      -1.289  30.036  59.731  1.00  0.00     0.017 C 
ATOM     14  C   UNL     1      -2.589  31.837  60.793  1.00  0.00    -0.064 C 
ATOM     15  C   UNL     1      -0.917  33.362  59.643  1.00  0.00     0.032 C 
ATOM     16  C   UNL     1      -1.782  32.945  60.871  1.00  0.00    -0.064 C 
ATOM     17  C   UNL     1      -3.285  31.292  62.008  1.00  0.00     0.032 C 
ATOM     18  C   UNL     1      -1.744  33.858  62.141  1.00  0.00    -0.008 C 
ATOM     19  C   UNL     1      -3.669  32.390  62.978  1.00  0.00     0.009 C 
ATOM     20  C   UNL     1      -2.419  33.191  63.422  1.00  0.00     0.009 C 
ATOM     21  C   UNL     1      -2.492  35.173  61.779  1.00  0.00     0.015 C 
ATOM     22  C   UNL     1      -0.245  34.152  62.424  1.00  0.00     0.016 C 
ATOM     23  C   UNL     1      -2.752  34.187  64.636  1.00  0.00     0.005 C 
ATOM     24  C   UNL     1      -2.670  36.129  62.956  1.00  0.00     0.047 C 
ATOM     25  C   UNL     1      -3.448  35.477  64.103  1.00  0.00     0.182 C 
ATOM     26  C   UNL     1      -1.471  34.552  65.455  1.00  0.00     0.015 C 
ATOM     27  C   UNL     1      -3.709  33.512  65.663  1.00  0.00     0.015 C 
BRANCH   7  28
ATOM     28  O   UNL     1      -4.980  29.928  57.176  1.00  0.00    -0.393 OA
ATOM     29  H   UNL     1      -5.038  30.826  56.755  1.00  0.00     0.210 HD
ENDBRANCH   7  28
BRANCH  25  30
ATOM     30  O   UNL     1      -3.599  36.444  65.149  1.00  0.00    -0.462 OA
BRANCH  30  31
ATOM     31  C   UNL     1      -3.708  37.823  64.933  1.00  0.00     0.302 C 
ATOM     32  O   UNL     1      -4.754  38.321  64.432  1.00  0.00    -0.253 OA
ATOM     33  C   UNL     1      -2.590  38.715  65.342  1.00  0.00     0.139 C 
ENDBRANCH  30  31
ENDBRANCH  25  30
ENDBRANCH   2   6
ENDBRANCH   1   2
BRANCH   1  34
ATOM     34  C   UNL     1      -1.753  29.223  54.933  1.00  0.00     0.031 C 
BRANCH  34  35
ATOM     35  C   UNL     1      -0.712  28.605  54.020  1.00  0.00    -0.075 C 
ATOM     36  C   UNL     1      -0.348  29.271  52.909  1.00  0.00     0.008 C 
BRANCH  35  37
ATOM     37  C   UNL     1      -0.093  27.249  54.332  1.00  0.00     0.008 C 
ATOM     38  C   UNL     1      -0.381  26.241  53.212  1.00  0.00     0.012 C 
ATOM     39  C   UNL     1       1.415  27.368  54.588  1.00  0.00     0.012 C 
ENDBRANCH  35  37
ENDBRANCH  34  35
ENDBRANCH   1  34
TORSDOF 9
ENDMDL
MODEL 6
REMARK VINA RESULT:    -5.128      1.967      2.891
REMARK INTER + INTRA:          -8.967
REMARK INTER:                  -8.624
REMARK INTRA:                  -0.342
REMARK UNBOUND:                -1.290
REMARK SMILES C=C(CC[C@@H](C(=O)[O-])[C@@H]1[C@H](O)C[C@]2(C)C3=C(CC[C@@]12C)[C@@]1(C)CC[C@H](OC(C)=O)C(C)(C)[C@H]1CC3)C(C)C
REMARK SMILES IDX 4 1 5 2 6 3 7 4 8 5 9 6 10 7 19 8 12 9 13 10 18 11 20 12
REMARK SMILES IDX 14 13 15 14 17 15 16 16 35 17 21 18 34 19 33 20 23 21 22 22
REMARK SMILES IDX 30 23 24 24 25 25 31 26 32 27 11 28 26 30 27 31 29 32 28 33
REMARK SMILES IDX 3 34 2 35 1 36 36 37 37 38 38 39
REMARK H PARENT 11 29
REMARK Flexibility Score: inf
ROOT
ATOM      1  C   UNL     1      -1.626  34.168  59.437  1.00  0.00     0.014 C 
ENDROOT
BRANCH   1   2
ATOM      2  C   UNL     1      -3.080  33.781  59.827  1.00  0.00     0.042 C 
BRANCH   2   3
ATOM      3  C   UNL     1      -4.041  34.845  59.333  1.00  0.00     0.045 C 
ATOM      4  O   UNL     1      -5.078  35.115  59.993  1.00  0.00    -0.550 OA
ATOM      5  O   UNL     1      -3.744  35.606  58.210  1.00  0.00    -0.550 OA
ENDBRANCH   2   3
BRANCH   2   6
ATOM      6  C   UNL     1      -3.392  32.295  59.395  1.00  0.00     0.033 C 
ATOM      7  C   UNL     1      -2.665  31.113  60.112  1.00  0.00     0.119 C 
ATOM      8  C   UNL     1      -3.328  31.925  57.889  1.00  0.00    -0.017 C 
ATOM      9  C   UNL     1      -2.543  29.982  59.061  1.00  0.00     0.043 C 
ATOM     10  C   UNL     1      -3.500  30.376  57.921  1.00  0.00    -0.003 C 
ATOM     11  C   UNL     1      -4.445  32.505  57.010  1.00  0.00     0.012 C 
ATOM     12  C   UNL     1      -1.948  32.370  57.296  1.00  0.00     0.013 C 
ATOM     13  C   UNL     1      -4.925  29.859  58.313  1.00  0.00     0.017 C 
ATOM     14  C   UNL     1      -3.227  29.811  56.531  1.00  0.00    -0.064 C 
ATOM     15  C   UNL     1      -4.508  31.805  55.621  1.00  0.00     0.032 C 
ATOM     16  C   UNL     1      -3.751  30.455  55.438  1.00  0.00    -0.064 C 
ATOM     17  C   UNL     1      -2.665  28.422  56.422  1.00  0.00     0.032 C 
ATOM     18  C   UNL     1      -3.561  29.912  53.983  1.00  0.00    -0.008 C 
ATOM     19  C   UNL     1      -2.024  28.177  55.073  1.00  0.00     0.009 C 
ATOM     20  C   UNL     1      -3.046  28.404  53.931  1.00  0.00     0.009 C 
ATOM     21  C   UNL     1      -2.529  30.842  53.281  1.00  0.00     0.015 C 
ATOM     22  C   UNL     1      -4.946  30.024  53.288  1.00  0.00     0.016 C 
ATOM     23  C   UNL     1      -2.476  27.907  52.515  1.00  0.00     0.005 C 
ATOM     24  C   UNL     1      -2.119  30.372  51.887  1.00  0.00     0.047 C 
ATOM     25  C   UNL     1      -1.503  28.970  51.920  1.00  0.00     0.182 C 
ATOM     26  C   UNL     1      -3.627  27.588  51.506  1.00  0.00     0.015 C 
ATOM     27  C   UNL     1      -1.692  26.569  52.669  1.00  0.00     0.015 C 
BRANCH   7  28
ATOM     28  O   UNL     1      -1.390  31.456  60.576  1.00  0.00    -0.393 OA
ATOM     29  H   UNL     1      -1.329  31.133  61.514  1.00  0.00     0.210 HD
ENDBRANCH   7  28
BRANCH  25  30
ATOM     30  O   UNL     1      -1.118  28.619  50.586  1.00  0.00    -0.462 OA
BRANCH  30  31
ATOM     31  C   UNL     1      -0.688  29.541  49.624  1.00  0.00     0.302 C 
ATOM     32  O   UNL     1       0.513  29.928  49.587  1.00  0.00    -0.253 OA
ATOM     33  C   UNL     1      -1.653  30.037  48.606  1.00  0.00     0.139 C 
ENDBRANCH  30  31
ENDBRANCH  25  30
ENDBRANCH   2   6
ENDBRANCH   1   2
BRANCH   1  34
ATOM     34  C   UNL     1      -1.052  35.284  60.333  1.00  0.00     0.031 C 
BRANCH  34  35
ATOM     35  C   UNL     1      -0.658  34.754  61.697  1.00  0.00    -0.075 C 
ATOM     36  C   UNL     1       0.524  34.124  61.831  1.00  0.00     0.008 C 
BRANCH  35  37
ATOM     37  C   UNL     1      -1.577  34.909  62.901  1.00  0.00     0.008 C 
ATOM     38  C   UNL     1      -2.649  35.976  62.644  1.00  0.00     0.012 C 
ATOM     39  C   UNL     1      -2.219  33.571  63.291  1.00  0.00     0.012 C 
ENDBRANCH  35  37
ENDBRANCH  34  35
ENDBRANCH   1  34
TORSDOF 9
ENDMDL
MODEL 7
REMARK VINA RESULT:    -5.113      1.868      2.686
REMARK INTER + INTRA:          -8.944
REMARK INTER:                  -7.616
REMARK INTRA:                  -1.328
REMARK UNBOUND:                -1.290
REMARK SMILES C=C(CC[C@@H](C(=O)[O-])[C@@H]1[C@H](O)C[C@]2(C)C3=C(CC[C@@]12C)[C@@]1(C)CC[C@H](OC(C)=O)C(C)(C)[C@H]1CC3)C(C)C
REMARK SMILES IDX 4 1 5 2 6 3 7 4 8 5 9 6 10 7 19 8 12 9 13 10 18 11 20 12
REMARK SMILES IDX 14 13 15 14 17 15 16 16 35 17 21 18 34 19 33 20 23 21 22 22
REMARK SMILES IDX 30 23 24 24 25 25 31 26 32 27 11 28 26 30 27 31 29 32 28 33
REMARK SMILES IDX 3 34 2 35 1 36 36 37 37 38 38 39
REMARK H PARENT 11 29
REMARK Flexibility Score: inf
ROOT
ATOM      1  C   UNL     1      -0.673  33.411  60.819  1.00  0.00     0.014 C 
ENDROOT
BRANCH   1   2
ATOM      2  C   UNL     1      -1.569  32.376  61.554  1.00  0.00     0.042 C 
BRANCH   2   3
ATOM      3  C   UNL     1      -1.832  32.845  62.972  1.00  0.00     0.045 C 
ATOM      4  O   UNL     1      -0.879  32.959  63.786  1.00  0.00    -0.550 OA
ATOM      5  O   UNL     1      -3.101  33.253  63.362  1.00  0.00    -0.550 OA
ENDBRANCH   2   3
BRANCH   2   6
ATOM      6  C   UNL     1      -2.836  32.022  60.682  1.00  0.00     0.033 C 
ATOM      7  C   UNL     1      -3.879  30.990  61.217  1.00  0.00     0.119 C 
ATOM      8  C   UNL     1      -2.633  31.622  59.195  1.00  0.00    -0.017 C 
ATOM      9  C   UNL     1      -4.481  30.299  59.969  1.00  0.00     0.043 C 
ATOM     10  C   UNL     1      -4.066  31.177  58.773  1.00  0.00    -0.003 C 
ATOM     11  C   UNL     1      -2.194  32.753  58.253  1.00  0.00     0.012 C 
ATOM     12  C   UNL     1      -1.584  30.462  59.101  1.00  0.00     0.013 C 
ATOM     13  C   UNL     1      -5.125  32.323  58.651  1.00  0.00     0.017 C 
ATOM     14  C   UNL     1      -4.004  30.526  57.395  1.00  0.00    -0.064 C 
ATOM     15  C   UNL     1      -2.363  32.356  56.758  1.00  0.00     0.032 C 
ATOM     16  C   UNL     1      -3.241  31.113  56.417  1.00  0.00    -0.064 C 
ATOM     17  C   UNL     1      -5.006  29.456  57.066  1.00  0.00     0.032 C 
ATOM     18  C   UNL     1      -3.165  30.537  54.964  1.00  0.00    -0.008 C 
ATOM     19  C   UNL     1      -4.555  28.600  55.901  1.00  0.00     0.009 C 
ATOM     20  C   UNL     1      -4.307  29.472  54.644  1.00  0.00     0.009 C 
ATOM     21  C   UNL     1      -1.768  29.870  54.811  1.00  0.00     0.015 C 
ATOM     22  C   UNL     1      -3.290  31.753  54.004  1.00  0.00     0.016 C 
ATOM     23  C   UNL     1      -4.078  28.574  53.334  1.00  0.00     0.005 C 
ATOM     24  C   UNL     1      -1.576  29.132  53.488  1.00  0.00     0.047 C 
ATOM     25  C   UNL     1      -2.619  28.026  53.300  1.00  0.00     0.182 C 
ATOM     26  C   UNL     1      -4.399  29.365  52.024  1.00  0.00     0.015 C 
ATOM     27  C   UNL     1      -5.050  27.356  53.317  1.00  0.00     0.015 C 
BRANCH   7  28
ATOM     28  O   UNL     1      -3.312  30.024  62.055  1.00  0.00    -0.393 OA
ATOM     29  H   UNL     1      -2.441  29.768  61.649  1.00  0.00     0.210 HD
ENDBRANCH   7  28
BRANCH  25  30
ATOM     30  O   UNL     1      -2.350  27.364  52.059  1.00  0.00    -0.462 OA
BRANCH  30  31
ATOM     31  C   UNL     1      -1.551  26.221  51.935  1.00  0.00     0.302 C 
ATOM     32  O   UNL     1      -1.762  25.377  51.020  1.00  0.00    -0.253 OA
ATOM     33  C   UNL     1      -0.412  26.023  52.871  1.00  0.00     0.139 C 
ENDBRANCH  30  31
ENDBRANCH  25  30
ENDBRANCH   2   6
ENDBRANCH   1   2
BRANCH   1  34
ATOM     34  C   UNL     1      -1.000  34.864  61.219  1.00  0.00     0.031 C 
BRANCH  34  35
ATOM     35  C   UNL     1      -1.489  35.671  60.033  1.00  0.00    -0.075 C 
ATOM     36  C   UNL     1      -0.651  35.875  58.998  1.00  0.00     0.008 C 
BRANCH  35  37
ATOM     37  C   UNL     1      -2.893  36.260  60.002  1.00  0.00     0.008 C 
ATOM     38  C   UNL     1      -3.517  36.128  58.607  1.00  0.00     0.012 C 
ATOM     39  C   UNL     1      -3.792  35.619  61.067  1.00  0.00     0.012 C 
ENDBRANCH  35  37
ENDBRANCH  34  35
ENDBRANCH   1  34
TORSDOF 9
ENDMDL
MODEL 8
REMARK VINA RESULT:    -5.035      2.032      9.338
REMARK INTER + INTRA:          -8.827
REMARK INTER:                  -9.153
REMARK INTRA:                   0.326
REMARK UNBOUND:                -1.290
REMARK SMILES C=C(CC[C@@H](C(=O)[O-])[C@@H]1[C@H](O)C[C@]2(C)C3=C(CC[C@@]12C)[C@@]1(C)CC[C@H](OC(C)=O)C(C)(C)[C@H]1CC3)C(C)C
REMARK SMILES IDX 4 1 5 2 6 3 7 4 8 5 9 6 10 7 19 8 12 9 13 10 18 11 20 12
REMARK SMILES IDX 14 13 15 14 17 15 16 16 35 17 21 18 34 19 33 20 23 21 22 22
REMARK SMILES IDX 30 23 24 24 25 25 31 26 32 27 11 28 26 30 27 31 29 32 28 33
REMARK SMILES IDX 3 34 2 35 1 36 36 37 37 38 38 39
REMARK H PARENT 11 29
REMARK Flexibility Score: inf
ROOT
ATOM      1  C   UNL     1      -1.059  29.615  51.486  1.00  0.00     0.014 C 
ENDROOT
BRANCH   1   2
ATOM      2  C   UNL     1      -1.823  28.458  52.186  1.00  0.00     0.042 C 
BRANCH   2   3
ATOM      3  C   UNL     1      -0.833  27.533  52.869  1.00  0.00     0.045 C 
ATOM      4  O   UNL     1      -1.088  26.306  52.979  1.00  0.00    -0.550 OA
ATOM      5  O   UNL     1       0.405  28.002  53.288  1.00  0.00    -0.550 OA
ENDBRANCH   2   3
BRANCH   2   6
ATOM      6  C   UNL     1      -2.990  29.027  53.084  1.00  0.00     0.033 C 
ATOM      7  C   UNL     1      -4.001  30.052  52.478  1.00  0.00     0.119 C 
ATOM      8  C   UNL     1      -2.642  29.614  54.479  1.00  0.00    -0.017 C 
ATOM      9  C   UNL     1      -4.453  30.956  53.652  1.00  0.00     0.043 C 
ATOM     10  C   UNL     1      -4.003  30.224  54.930  1.00  0.00    -0.003 C 
ATOM     11  C   UNL     1      -2.206  28.595  55.542  1.00  0.00     0.012 C 
ATOM     12  C   UNL     1      -1.513  30.690  54.330  1.00  0.00     0.013 C 
ATOM     13  C   UNL     1      -5.124  29.192  55.292  1.00  0.00     0.017 C 
ATOM     14  C   UNL     1      -3.788  31.054  56.191  1.00  0.00    -0.064 C 
ATOM     15  C   UNL     1      -2.228  29.210  56.972  1.00  0.00     0.032 C 
ATOM     16  C   UNL     1      -2.990  30.552  57.189  1.00  0.00    -0.064 C 
ATOM     17  C   UNL     1      -4.686  32.234  56.431  1.00  0.00     0.032 C 
ATOM     18  C   UNL     1      -2.760  31.318  58.534  1.00  0.00    -0.008 C 
ATOM     19  C   UNL     1      -4.087  33.207  57.425  1.00  0.00     0.009 C 
ATOM     20  C   UNL     1      -3.798  32.503  58.774  1.00  0.00     0.009 C 
ATOM     21  C   UNL     1      -1.313  31.888  58.491  1.00  0.00     0.015 C 
ATOM     22  C   UNL     1      -2.888  30.262  59.667  1.00  0.00     0.016 C 
ATOM     23  C   UNL     1      -3.406  33.555  59.921  1.00  0.00     0.005 C 
ATOM     24  C   UNL     1      -0.967  32.788  59.676  1.00  0.00     0.047 C 
ATOM     25  C   UNL     1      -1.915  33.986  59.773  1.00  0.00     0.182 C 
ATOM     26  C   UNL     1      -3.673  32.982  61.351  1.00  0.00     0.015 C 
ATOM     27  C   UNL     1      -4.289  34.835  59.828  1.00  0.00     0.015 C 
BRANCH   7  28
ATOM     28  O   UNL     1      -3.439  30.845  51.471  1.00  0.00    -0.393 OA
ATOM     29  H   UNL     1      -3.098  30.224  50.774  1.00  0.00     0.210 HD
ENDBRANCH   7  28
BRANCH  25  30
ATOM     30  O   UNL     1      -1.504  34.793  60.884  1.00  0.00    -0.462 OA
BRANCH  30  31
ATOM     31  C   UNL     1      -0.349  34.560  61.639  1.00  0.00     0.302 C 
ATOM     32  O   UNL     1       0.761  35.055  61.298  1.00  0.00    -0.253 OA
ATOM     33  C   UNL     1      -0.443  33.751  62.884  1.00  0.00     0.139 C 
ENDBRANCH  30  31
ENDBRANCH  25  30
ENDBRANCH   2   6
ENDBRANCH   1   2
BRANCH   1  34
ATOM     34  C   UNL     1      -0.873  29.370  49.974  1.00  0.00     0.031 C 
BRANCH  34  35
ATOM     35  C   UNL     1       0.503  29.801  49.507  1.00  0.00    -0.075 C 
ATOM     36  C   UNL     1       1.411  30.180  50.426  1.00  0.00     0.008 C 
BRANCH  35  37
ATOM     37  C   UNL     1       0.864  29.824  48.027  1.00  0.00     0.008 C 
ATOM     38  C   UNL     1      -0.277  30.416  47.190  1.00  0.00     0.012 C 
ATOM     39  C   UNL     1       2.174  30.585  47.783  1.00  0.00     0.012 C 
ENDBRANCH  35  37
ENDBRANCH  34  35
ENDBRANCH   1  34
TORSDOF 9
ENDMDL
