MODEL 1
REMARK VINA RESULT:    -7.575      0.000      0.000
REMARK INTER + INTRA:          -9.220
REMARK INTER:                  -8.903
REMARK INTRA:                  -0.317
REMARK UNBOUND:                -0.317
REMARK SMILES O=c1cc(-c2ccc(O)c(O)c2)oc2cc(O)cc(O)c12
REMARK SMILES IDX 4 1 3 2 2 3 1 4 21 5 19 6 18 7 16 8 15 9 14 10 13 11 5 12
REMARK SMILES IDX 6 13 7 14 8 15 12 16 10 17 9 18 11 20 20 22 17 24
REMARK H PARENT 9 19 11 21 20 23 17 25
REMARK Flexibility Score: inf
ROOT
ATOM      1  C   UNL     1     -96.353  82.154 207.448  1.00  0.00     0.138 A 
ATOM      2  C   UNL     1     -95.554  82.607 208.511  1.00  0.00     0.100 A 
ATOM      3  C   UNL     1     -95.725  83.905 208.994  1.00  0.00     0.197 A 
ATOM      4  O   UNL     1     -95.003  84.302 209.949  1.00  0.00    -0.289 OA
ATOM      5  C   UNL     1     -96.699  84.741 208.412  1.00  0.00     0.107 A 
ATOM      6  C   UNL     1     -96.936  86.069 208.840  1.00  0.00     0.134 A 
ATOM      7  C   UNL     1     -97.928  86.835 208.211  1.00  0.00     0.093 A 
ATOM      8  C   UNL     1     -98.687  86.298 207.165  1.00  0.00     0.123 A 
ATOM      9  C   UNL     1     -98.457  84.988 206.740  1.00  0.00     0.094 A 
ATOM     10  C   UNL     1     -97.472  84.208 207.352  1.00  0.00     0.146 A 
ATOM     11  O   UNL     1     -97.271  82.965 206.928  1.00  0.00    -0.456 OA
ENDROOT
BRANCH   1  12
ATOM     12  C   UNL     1     -96.217  80.783 206.894  1.00  0.00     0.021 A 
ATOM     13  C   UNL     1     -95.143  79.976 207.304  1.00  0.00     0.016 A 
ATOM     14  C   UNL     1     -94.996  78.679 206.805  1.00  0.00     0.051 A 
ATOM     15  C   UNL     1     -95.927  78.164 205.894  1.00  0.00     0.157 A 
ATOM     16  C   UNL     1     -97.157  80.254 205.988  1.00  0.00     0.062 A 
ATOM     17  C   UNL     1     -97.011  78.951 205.487  1.00  0.00     0.158 A 
BRANCH  15  18
ATOM     18  O   UNL     1     -95.784  76.872 205.392  1.00  0.00    -0.504 OA
ATOM     19  H   UNL     1     -94.945  76.584 204.901  1.00  0.00     0.293 HD
ENDBRANCH  15  18
BRANCH  17  20
ATOM     20  O   UNL     1     -97.942  78.431 204.590  1.00  0.00    -0.504 OA
ATOM     21  H   UNL     1     -98.904  78.752 204.578  1.00  0.00     0.293 HD
ENDBRANCH  17  20
ENDBRANCH   1  12
BRANCH   6  22
ATOM     22  O   UNL     1     -96.195  86.630 209.881  1.00  0.00    -0.507 OA
ATOM     23  H   UNL     1     -96.635  87.162 210.623  1.00  0.00     0.293 HD
ENDBRANCH   6  22
BRANCH   8  24
ATOM     24  O   UNL     1     -99.674  87.059 206.541  1.00  0.00    -0.508 OA
ATOM     25  H   UNL     1     -99.455  87.933 206.079  1.00  0.00     0.293 HD
ENDBRANCH   8  24
TORSDOF 5
ENDMDL
MODEL 2
REMARK VINA RESULT:    -6.948      1.413      6.924
REMARK INTER + INTRA:          -8.484
REMARK INTER:                  -8.189
REMARK INTRA:                  -0.295
REMARK UNBOUND:                -0.317
REMARK SMILES O=c1cc(-c2ccc(O)c(O)c2)oc2cc(O)cc(O)c12
REMARK SMILES IDX 4 1 3 2 2 3 1 4 21 5 19 6 18 7 16 8 15 9 14 10 13 11 5 12
REMARK SMILES IDX 6 13 7 14 8 15 12 16 10 17 9 18 11 20 20 22 17 24
REMARK H PARENT 9 19 11 21 20 23 17 25
REMARK Flexibility Score: inf
ROOT
ATOM      1  C   UNL     1     -96.971  83.454 207.644  1.00  0.00     0.138 A 
ATOM      2  C   UNL     1     -96.061  82.956 208.592  1.00  0.00     0.100 A 
ATOM      3  C   UNL     1     -95.714  81.605 208.567  1.00  0.00     0.197 A 
ATOM      4  O   UNL     1     -94.897  81.167 209.422  1.00  0.00    -0.289 OA
ATOM      5  C   UNL     1     -96.276  80.760 207.589  1.00  0.00     0.107 A 
ATOM      6  C   UNL     1     -95.980  79.379 207.494  1.00  0.00     0.134 A 
ATOM      7  C   UNL     1     -96.579  78.607 206.488  1.00  0.00     0.093 A 
ATOM      8  C   UNL     1     -97.466  79.190 205.575  1.00  0.00     0.123 A 
ATOM      9  C   UNL     1     -97.761  80.552 205.665  1.00  0.00     0.094 A 
ATOM     10  C   UNL     1     -97.176  81.338 206.662  1.00  0.00     0.146 A 
ATOM     11  O   UNL     1     -97.475  82.632 206.727  1.00  0.00    -0.456 OA
ENDROOT
BRANCH   1  12
ATOM     12  C   UNL     1     -97.375  84.882 207.621  1.00  0.00     0.021 A 
ATOM     13  C   UNL     1     -98.470  85.278 206.835  1.00  0.00     0.016 A 
ATOM     14  C   UNL     1     -98.876  86.615 206.802  1.00  0.00     0.051 A 
ATOM     15  C   UNL     1     -98.200  87.577 207.563  1.00  0.00     0.157 A 
ATOM     16  C   UNL     1     -96.708  85.853 208.394  1.00  0.00     0.062 A 
ATOM     17  C   UNL     1     -97.116  87.195 208.362  1.00  0.00     0.158 A 
BRANCH  15  18
ATOM     18  O   UNL     1     -98.600  88.911 207.532  1.00  0.00    -0.504 OA
ATOM     19  H   UNL     1     -98.966  89.335 206.687  1.00  0.00     0.293 HD
ENDBRANCH  15  18
BRANCH  17  20
ATOM     20  O   UNL     1     -96.453  88.153 209.127  1.00  0.00    -0.504 OA
ATOM     21  H   UNL     1     -96.051  88.983 208.706  1.00  0.00     0.293 HD
ENDBRANCH  17  20
ENDBRANCH   1  12
BRANCH   6  22
ATOM     22  O   UNL     1     -95.098  78.772 208.390  1.00  0.00    -0.507 OA
ATOM     23  H   UNL     1     -94.329  79.281 208.810  1.00  0.00     0.293 HD
ENDBRANCH   6  22
BRANCH   8  24
ATOM     24  O   UNL     1     -98.060  78.424 204.575  1.00  0.00    -0.508 OA
ATOM     25  H   UNL     1     -98.522  77.546 204.784  1.00  0.00     0.293 HD
ENDBRANCH   8  24
TORSDOF 5
ENDMDL
MODEL 3
REMARK VINA RESULT:    -6.894      1.460      2.960
REMARK INTER + INTRA:          -8.420
REMARK INTER:                  -8.133
REMARK INTRA:                  -0.287
REMARK UNBOUND:                -0.317
REMARK SMILES O=c1cc(-c2ccc(O)c(O)c2)oc2cc(O)cc(O)c12
REMARK SMILES IDX 4 1 3 2 2 3 1 4 21 5 19 6 18 7 16 8 15 9 14 10 13 11 5 12
REMARK SMILES IDX 6 13 7 14 8 15 12 16 10 17 9 18 11 20 20 22 17 24
REMARK H PARENT 9 19 11 21 20 23 17 25
REMARK Flexibility Score: inf
ROOT
ATOM      1  C   UNL     1     -97.886  82.829 206.804  1.00  0.00     0.138 A 
ATOM      2  C   UNL     1     -99.004  83.345 206.126  1.00  0.00     0.100 A 
ATOM      3  C   UNL     1     -99.273  84.712 206.186  1.00  0.00     0.197 A 
ATOM      4  O   UNL     1    -100.278  85.165 205.574  1.00  0.00    -0.289 OA
ATOM      5  C   UNL     1     -98.417  85.558 206.920  1.00  0.00     0.107 A 
ATOM      6  C   UNL     1     -98.617  86.954 207.033  1.00  0.00     0.134 A 
ATOM      7  C   UNL     1     -97.716  87.728 207.780  1.00  0.00     0.093 A 
ATOM      8  C   UNL     1     -96.619  87.131 208.413  1.00  0.00     0.123 A 
ATOM      9  C   UNL     1     -96.418  85.754 208.304  1.00  0.00     0.094 A 
ATOM     10  C   UNL     1     -97.305  84.965 207.566  1.00  0.00     0.146 A 
ATOM     11  O   UNL     1     -97.092  83.656 207.479  1.00  0.00    -0.456 OA
ENDROOT
BRANCH   1  12
ATOM     12  C   UNL     1     -97.550  81.383 206.774  1.00  0.00     0.021 A 
ATOM     13  C   UNL     1     -96.933  80.794 207.890  1.00  0.00     0.016 A 
ATOM     14  C   UNL     1     -96.614  79.434 207.891  1.00  0.00     0.051 A 
ATOM     15  C   UNL     1     -96.915  78.637 206.779  1.00  0.00     0.157 A 
ATOM     16  C   UNL     1     -97.862  80.573 205.664  1.00  0.00     0.062 A 
ATOM     17  C   UNL     1     -97.543  79.207 205.665  1.00  0.00     0.158 A 
BRANCH  15  18
ATOM     18  O   UNL     1     -96.597  77.280 206.775  1.00  0.00    -0.504 OA
ATOM     19  H   UNL     1     -96.331  76.801 205.922  1.00  0.00     0.293 HD
ENDBRANCH  15  18
BRANCH  17  20
ATOM     20  O   UNL     1     -97.852  78.409 204.565  1.00  0.00    -0.504 OA
ATOM     21  H   UNL     1     -97.473  77.473 204.466  1.00  0.00     0.293 HD
ENDBRANCH  17  20
ENDBRANCH   1  12
BRANCH   6  22
ATOM     22  O   UNL     1     -99.701  87.576 206.411  1.00  0.00    -0.507 OA
ATOM     23  H   UNL     1    -100.165  88.377 206.825  1.00  0.00     0.293 HD
ENDBRANCH   6  22
BRANCH   8  24
ATOM     24  O   UNL     1     -95.723  87.899 209.154  1.00  0.00    -0.508 OA
ATOM     25  H   UNL     1     -95.970  88.270 210.064  1.00  0.00     0.293 HD
ENDBRANCH   8  24
TORSDOF 5
ENDMDL
MODEL 4
REMARK VINA RESULT:    -6.738      1.654      1.837
REMARK INTER + INTRA:          -8.237
REMARK INTER:                  -7.953
REMARK INTRA:                  -0.284
REMARK UNBOUND:                -0.317
REMARK SMILES O=c1cc(-c2ccc(O)c(O)c2)oc2cc(O)cc(O)c12
REMARK SMILES IDX 4 1 3 2 2 3 1 4 21 5 19 6 18 7 16 8 15 9 14 10 13 11 5 12
REMARK SMILES IDX 6 13 7 14 8 15 12 16 10 17 9 18 11 20 20 22 17 24
REMARK H PARENT 9 19 11 21 20 23 17 25
REMARK Flexibility Score: inf
ROOT
ATOM      1  C   UNL     1     -97.241  83.240 207.808  1.00  0.00     0.138 A 
ATOM      2  C   UNL     1     -96.163  83.730 208.564  1.00  0.00     0.100 A 
ATOM      3  C   UNL     1     -95.989  85.108 208.700  1.00  0.00     0.197 A 
ATOM      4  O   UNL     1     -95.019  85.538 209.381  1.00  0.00    -0.289 OA
ATOM      5  C   UNL     1     -96.899  85.988 208.080  1.00  0.00     0.107 A 
ATOM      6  C   UNL     1     -96.796  87.397 208.166  1.00  0.00     0.134 A 
ATOM      7  C   UNL     1     -97.747  88.204 207.524  1.00  0.00     0.093 A 
ATOM      8  C   UNL     1     -98.798  87.629 206.800  1.00  0.00     0.123 A 
ATOM      9  C   UNL     1     -98.904  86.239 206.713  1.00  0.00     0.094 A 
ATOM     10  C   UNL     1     -97.966  85.417 207.344  1.00  0.00     0.146 A 
ATOM     11  O   UNL     1     -98.088  84.097 207.245  1.00  0.00    -0.456 OA
ENDROOT
BRANCH   1  12
ATOM     12  C   UNL     1     -97.476  81.784 207.631  1.00  0.00     0.021 A 
ATOM     13  C   UNL     1     -97.574  80.958 208.763  1.00  0.00     0.016 A 
ATOM     14  C   UNL     1     -97.802  79.587 208.624  1.00  0.00     0.051 A 
ATOM     15  C   UNL     1     -97.947  79.020 207.352  1.00  0.00     0.157 A 
ATOM     16  C   UNL     1     -97.636  81.210 206.355  1.00  0.00     0.062 A 
ATOM     17  C   UNL     1     -97.866  79.833 206.216  1.00  0.00     0.158 A 
BRANCH  15  18
ATOM     18  O   UNL     1     -98.174  77.652 207.209  1.00  0.00    -0.504 OA
ATOM     19  H   UNL     1     -99.105  77.259 207.284  1.00  0.00     0.293 HD
ENDBRANCH  15  18
BRANCH  17  20
ATOM     20  O   UNL     1     -98.023  79.267 204.951  1.00  0.00    -0.504 OA
ATOM     21  H   UNL     1     -98.928  79.228 204.496  1.00  0.00     0.293 HD
ENDBRANCH  17  20
ENDBRANCH   1  12
BRANCH   6  22
ATOM     22  O   UNL     1     -95.759  87.998 208.881  1.00  0.00    -0.507 OA
ATOM     23  H   UNL     1     -94.972  88.432 208.414  1.00  0.00     0.293 HD
ENDBRANCH   6  22
BRANCH   8  24
ATOM     24  O   UNL     1     -99.744  88.430 206.163  1.00  0.00    -0.508 OA
ATOM     25  H   UNL     1    -100.325  89.077 206.682  1.00  0.00     0.293 HD
ENDBRANCH   8  24
TORSDOF 5
ENDMDL
MODEL 5
REMARK VINA RESULT:    -6.710      2.118      7.112
REMARK INTER + INTRA:          -8.203
REMARK INTER:                  -7.924
REMARK INTRA:                  -0.280
REMARK UNBOUND:                -0.317
REMARK SMILES O=c1cc(-c2ccc(O)c(O)c2)oc2cc(O)cc(O)c12
REMARK SMILES IDX 4 1 3 2 2 3 1 4 21 5 19 6 18 7 16 8 15 9 14 10 13 11 5 12
REMARK SMILES IDX 6 13 7 14 8 15 12 16 10 17 9 18 11 20 20 22 17 24
REMARK H PARENT 9 19 11 21 20 23 17 25
REMARK Flexibility Score: inf
ROOT
ATOM      1  C   UNL     1     -96.900  85.042 208.163  1.00  0.00     0.138 A 
ATOM      2  C   UNL     1     -96.011  84.629 209.170  1.00  0.00     0.100 A 
ATOM      3  C   UNL     1     -95.807  83.266 209.389  1.00  0.00     0.197 A 
ATOM      4  O   UNL     1     -95.007  82.905 210.294  1.00  0.00    -0.289 OA
ATOM      5  C   UNL     1     -96.492  82.324 208.595  1.00  0.00     0.107 A 
ATOM      6  C   UNL     1     -96.344  80.925 208.752  1.00  0.00     0.134 A 
ATOM      7  C   UNL     1     -97.058  80.053 207.917  1.00  0.00     0.093 A 
ATOM      8  C   UNL     1     -97.914  80.553 206.930  1.00  0.00     0.123 A 
ATOM      9  C   UNL     1     -98.063  81.932 206.771  1.00  0.00     0.094 A 
ATOM     10  C   UNL     1     -97.362  82.818 207.593  1.00  0.00     0.146 A 
ATOM     11  O   UNL     1     -97.522  84.127 207.424  1.00  0.00    -0.456 OA
ENDROOT
BRANCH   1  12
ATOM     12  C   UNL     1     -97.155  86.478 207.884  1.00  0.00     0.021 A 
ATOM     13  C   UNL     1     -97.226  86.921 206.552  1.00  0.00     0.016 A 
ATOM     14  C   UNL     1     -97.472  88.265 206.263  1.00  0.00     0.051 A 
ATOM     15  C   UNL     1     -97.661  89.188 207.299  1.00  0.00     0.157 A 
ATOM     16  C   UNL     1     -97.359  87.409 208.921  1.00  0.00     0.062 A 
ATOM     17  C   UNL     1     -97.607  88.759 208.630  1.00  0.00     0.158 A 
BRANCH  15  18
ATOM     18  O   UNL     1     -97.906  90.530 207.014  1.00  0.00    -0.504 OA
ATOM     19  H   UNL     1     -98.353  90.815 206.150  1.00  0.00     0.293 HD
ENDBRANCH  15  18
BRANCH  17  20
ATOM     20  O   UNL     1     -97.808  89.677 209.659  1.00  0.00    -0.504 OA
ATOM     21  H   UNL     1     -98.003  89.377 210.608  1.00  0.00     0.293 HD
ENDBRANCH  17  20
ENDBRANCH   1  12
BRANCH   6  22
ATOM     22  O   UNL     1     -95.496  80.398 209.728  1.00  0.00    -0.507 OA
ATOM     23  H   UNL     1     -95.328  79.402 209.806  1.00  0.00     0.293 HD
ENDBRANCH   6  22
BRANCH   8  24
ATOM     24  O   UNL     1     -98.623  79.687 206.099  1.00  0.00    -0.508 OA
ATOM     25  H   UNL     1     -99.316  80.030 205.444  1.00  0.00     0.293 HD
ENDBRANCH   8  24
TORSDOF 5
ENDMDL
MODEL 6
REMARK VINA RESULT:    -6.599      2.266      7.300
REMARK INTER + INTRA:          -8.074
REMARK INTER:                  -7.809
REMARK INTRA:                  -0.264
REMARK UNBOUND:                -0.317
REMARK SMILES O=c1cc(-c2ccc(O)c(O)c2)oc2cc(O)cc(O)c12
REMARK SMILES IDX 4 1 3 2 2 3 1 4 21 5 19 6 18 7 16 8 15 9 14 10 13 11 5 12
REMARK SMILES IDX 6 13 7 14 8 15 12 16 10 17 9 18 11 20 20 22 17 24
REMARK H PARENT 9 19 11 21 20 23 17 25
REMARK Flexibility Score: inf
ROOT
ATOM      1  C   UNL     1     -96.875  84.139 207.899  1.00  0.00     0.138 A 
ATOM      2  C   UNL     1     -97.803  83.747 206.919  1.00  0.00     0.100 A 
ATOM      3  C   UNL     1     -98.126  82.397 206.780  1.00  0.00     0.197 A 
ATOM      4  O   UNL     1     -98.960  82.055 205.899  1.00  0.00    -0.289 OA
ATOM      5  C   UNL     1     -97.520  81.446 207.626  1.00  0.00     0.107 A 
ATOM      6  C   UNL     1     -97.790  80.059 207.552  1.00  0.00     0.134 A 
ATOM      7  C   UNL     1     -97.148  79.177 208.434  1.00  0.00     0.093 A 
ATOM      8  C   UNL     1     -96.245  79.657 209.390  1.00  0.00     0.123 A 
ATOM      9  C   UNL     1     -95.976  81.025 209.467  1.00  0.00     0.094 A 
ATOM     10  C   UNL     1     -96.603  81.920 208.596  1.00  0.00     0.146 A 
ATOM     11  O   UNL     1     -96.329  83.217 208.688  1.00  0.00    -0.456 OA
ENDROOT
BRANCH   1  12
ATOM     12  C   UNL     1     -96.495  85.561 208.093  1.00  0.00     0.021 A 
ATOM     13  C   UNL     1     -95.253  86.016 207.619  1.00  0.00     0.016 A 
ATOM     14  C   UNL     1     -94.875  87.351 207.783  1.00  0.00     0.051 A 
ATOM     15  C   UNL     1     -95.737  88.256 208.414  1.00  0.00     0.157 A 
ATOM     16  C   UNL     1     -97.363  86.480 208.715  1.00  0.00     0.062 A 
ATOM     17  C   UNL     1     -96.983  87.821 208.879  1.00  0.00     0.158 A 
BRANCH  15  18
ATOM     18  O   UNL     1     -95.363  89.589 208.580  1.00  0.00    -0.504 OA
ATOM     19  H   UNL     1     -94.388  89.862 208.640  1.00  0.00     0.293 HD
ENDBRANCH  15  18
BRANCH  17  20
ATOM     20  O   UNL     1     -97.843  88.728 209.496  1.00  0.00    -0.504 OA
ATOM     21  H   UNL     1     -98.735  88.436 209.880  1.00  0.00     0.293 HD
ENDBRANCH  17  20
ENDBRANCH   1  12
BRANCH   6  22
ATOM     22  O   UNL     1     -98.687  79.552 206.610  1.00  0.00    -0.507 OA
ATOM     23  H   UNL     1     -99.645  79.329 206.853  1.00  0.00     0.293 HD
ENDBRANCH   6  22
BRANCH   8  24
ATOM     24  O   UNL     1     -95.608  78.783 210.267  1.00  0.00    -0.508 OA
ATOM     25  H   UNL     1     -96.068  78.444 211.104  1.00  0.00     0.293 HD
ENDBRANCH   8  24
TORSDOF 5
ENDMDL
MODEL 7
REMARK VINA RESULT:    -6.337      2.342      7.330
REMARK INTER + INTRA:          -7.766
REMARK INTER:                  -7.476
REMARK INTRA:                  -0.290
REMARK UNBOUND:                -0.317
REMARK SMILES O=c1cc(-c2ccc(O)c(O)c2)oc2cc(O)cc(O)c12
REMARK SMILES IDX 4 1 3 2 2 3 1 4 21 5 19 6 18 7 16 8 15 9 14 10 13 11 5 12
REMARK SMILES IDX 6 13 7 14 8 15 12 16 10 17 9 18 11 20 20 22 17 24
REMARK H PARENT 9 19 11 21 20 23 17 25
REMARK Flexibility Score: inf
ROOT
ATOM      1  C   UNL     1     -96.905  82.631 208.093  1.00  0.00     0.138 A 
ATOM      2  C   UNL     1     -96.995  82.074 206.806  1.00  0.00     0.100 A 
ATOM      3  C   UNL     1     -97.076  80.689 206.662  1.00  0.00     0.197 A 
ATOM      4  O   UNL     1     -97.157  80.198 205.503  1.00  0.00    -0.289 OA
ATOM      5  C   UNL     1     -97.070  79.868 207.808  1.00  0.00     0.107 A 
ATOM      6  C   UNL     1     -97.147  78.456 207.751  1.00  0.00     0.134 A 
ATOM      7  C   UNL     1     -97.140  77.711 208.939  1.00  0.00     0.093 A 
ATOM      8  C   UNL     1     -97.059  78.351 210.181  1.00  0.00     0.123 A 
ATOM      9  C   UNL     1     -96.983  79.744 210.242  1.00  0.00     0.094 A 
ATOM     10  C   UNL     1     -96.987  80.505 209.070  1.00  0.00     0.146 A 
ATOM     11  O   UNL     1     -96.912  81.829 209.155  1.00  0.00    -0.456 OA
ENDROOT
BRANCH   1  12
ATOM     12  C   UNL     1     -96.819  84.098 208.308  1.00  0.00     0.021 A 
ATOM     13  C   UNL     1     -97.723  84.947 207.649  1.00  0.00     0.016 A 
ATOM     14  C   UNL     1     -97.668  86.330 207.839  1.00  0.00     0.051 A 
ATOM     15  C   UNL     1     -96.714  86.887 208.700  1.00  0.00     0.157 A 
ATOM     16  C   UNL     1     -95.870  84.663 209.182  1.00  0.00     0.062 A 
ATOM     17  C   UNL     1     -95.816  86.052 209.374  1.00  0.00     0.158 A 
BRANCH  15  18
ATOM     18  O   UNL     1     -96.656  88.266 208.892  1.00  0.00    -0.504 OA
ATOM     19  H   UNL     1     -95.961  88.687 209.498  1.00  0.00     0.293 HD
ENDBRANCH  15  18
BRANCH  17  20
ATOM     20  O   UNL     1     -94.875  86.609 210.239  1.00  0.00    -0.504 OA
ATOM     21  H   UNL     1     -95.086  86.774 211.217  1.00  0.00     0.293 HD
ENDBRANCH  17  20
ENDBRANCH   1  12
BRANCH   6  22
ATOM     22  O   UNL     1     -97.229  77.791 206.526  1.00  0.00    -0.507 OA
ATOM     23  H   UNL     1     -97.427  78.285 205.664  1.00  0.00     0.293 HD
ENDBRANCH   6  22
BRANCH   8  24
ATOM     24  O   UNL     1     -97.053  77.611 211.362  1.00  0.00    -0.508 OA
ATOM     25  H   UNL     1     -97.139  78.059 212.268  1.00  0.00     0.293 HD
ENDBRANCH   8  24
TORSDOF 5
ENDMDL
MODEL 8
REMARK VINA RESULT:    -6.323      2.535      6.312
REMARK INTER + INTRA:          -7.749
REMARK INTER:                  -7.473
REMARK INTRA:                  -0.276
REMARK UNBOUND:                -0.317
REMARK SMILES O=c1cc(-c2ccc(O)c(O)c2)oc2cc(O)cc(O)c12
REMARK SMILES IDX 4 1 3 2 2 3 1 4 21 5 19 6 18 7 16 8 15 9 14 10 13 11 5 12
REMARK SMILES IDX 6 13 7 14 8 15 12 16 10 17 9 18 11 20 20 22 17 24
REMARK H PARENT 9 19 11 21 20 23 17 25
REMARK Flexibility Score: inf
ROOT
ATOM      1  C   UNL     1     -98.460  85.172 206.862  1.00  0.00     0.138 A 
ATOM      2  C   UNL     1     -98.018  86.128 207.792  1.00  0.00     0.100 A 
ATOM      3  C   UNL     1     -97.035  85.781 208.719  1.00  0.00     0.197 A 
ATOM      4  O   UNL     1     -96.644  86.646 209.549  1.00  0.00    -0.289 OA
ATOM      5  C   UNL     1     -96.496  84.479 208.707  1.00  0.00     0.107 A 
ATOM      6  C   UNL     1     -95.498  84.045 209.611  1.00  0.00     0.134 A 
ATOM      7  C   UNL     1     -95.010  82.732 209.531  1.00  0.00     0.093 A 
ATOM      8  C   UNL     1     -95.500  81.848 208.562  1.00  0.00     0.123 A 
ATOM      9  C   UNL     1     -96.484  82.272 207.668  1.00  0.00     0.094 A 
ATOM     10  C   UNL     1     -96.985  83.576 207.732  1.00  0.00     0.146 A 
ATOM     11  O   UNL     1     -97.923  83.955 206.871  1.00  0.00    -0.456 OA
ENDROOT
BRANCH   1  12
ATOM     12  C   UNL     1     -99.502  85.485 205.852  1.00  0.00     0.021 A 
ATOM     13  C   UNL     1    -100.579  84.601 205.672  1.00  0.00     0.016 A 
ATOM     14  C   UNL     1    -101.576  84.877 204.734  1.00  0.00     0.051 A 
ATOM     15  C   UNL     1    -101.520  86.047 203.966  1.00  0.00     0.157 A 
ATOM     16  C   UNL     1     -99.458  86.667 205.085  1.00  0.00     0.062 A 
ATOM     17  C   UNL     1    -100.460  86.944 204.143  1.00  0.00     0.158 A 
BRANCH  15  18
ATOM     18  O   UNL     1    -102.512  86.325 203.027  1.00  0.00    -0.504 OA
ATOM     19  H   UNL     1    -103.489  86.128 203.216  1.00  0.00     0.293 HD
ENDBRANCH  15  18
BRANCH  17  20
ATOM     20  O   UNL     1    -100.413  88.113 203.386  1.00  0.00    -0.504 OA
ATOM     21  H   UNL     1     -99.558  88.419 202.935  1.00  0.00     0.293 HD
ENDBRANCH  17  20
ENDBRANCH   1  12
BRANCH   6  22
ATOM     22  O   UNL     1     -94.990  84.905 210.587  1.00  0.00    -0.507 OA
ATOM     23  H   UNL     1     -94.681  85.843 210.361  1.00  0.00     0.293 HD
ENDBRANCH   6  22
BRANCH   8  24
ATOM     24  O   UNL     1     -95.015  80.544 208.481  1.00  0.00    -0.508 OA
ATOM     25  H   UNL     1     -94.498  80.123 209.244  1.00  0.00     0.293 HD
ENDBRANCH   8  24
TORSDOF 5
ENDMDL
MODEL 9
REMARK VINA RESULT:    -6.258      1.925      3.754
REMARK INTER + INTRA:          -7.672
REMARK INTER:                  -7.363
REMARK INTRA:                  -0.309
REMARK UNBOUND:                -0.317
REMARK SMILES O=c1cc(-c2ccc(O)c(O)c2)oc2cc(O)cc(O)c12
REMARK SMILES IDX 4 1 3 2 2 3 1 4 21 5 19 6 18 7 16 8 15 9 14 10 13 11 5 12
REMARK SMILES IDX 6 13 7 14 8 15 12 16 10 17 9 18 11 20 20 22 17 24
REMARK H PARENT 9 19 11 21 20 23 17 25
REMARK Flexibility Score: inf
ROOT
ATOM      1  C   UNL     1     -97.822  83.854 207.233  1.00  0.00     0.138 A 
ATOM      2  C   UNL     1     -98.924  84.244 206.454  1.00  0.00     0.100 A 
ATOM      3  C   UNL     1     -99.227  85.599 206.322  1.00  0.00     0.197 A 
ATOM      4  O   UNL     1    -100.218  85.939 205.621  1.00  0.00    -0.289 OA
ATOM      5  C   UNL     1     -98.421  86.558 206.969  1.00  0.00     0.107 A 
ATOM      6  C   UNL     1     -98.658  87.950 206.889  1.00  0.00     0.134 A 
ATOM      7  C   UNL     1     -97.806  88.841 207.559  1.00  0.00     0.093 A 
ATOM      8  C   UNL     1     -96.721  88.364 208.304  1.00  0.00     0.123 A 
ATOM      9  C   UNL     1     -96.483  86.990 208.385  1.00  0.00     0.094 A 
ATOM     10  C   UNL     1     -97.321  86.087 207.727  1.00  0.00     0.146 A 
ATOM     11  O   UNL     1     -97.075  84.784 207.822  1.00  0.00    -0.456 OA
ENDROOT
BRANCH   1  12
ATOM     12  C   UNL     1     -97.451  82.426 207.407  1.00  0.00     0.021 A 
ATOM     13  C   UNL     1     -97.802  81.495 206.415  1.00  0.00     0.016 A 
ATOM     14  C   UNL     1     -97.458  80.148 206.551  1.00  0.00     0.051 A 
ATOM     15  C   UNL     1     -96.749  79.710 207.676  1.00  0.00     0.157 A 
ATOM     16  C   UNL     1     -96.726  81.981 208.530  1.00  0.00     0.062 A 
ATOM     17  C   UNL     1     -96.380  80.628 208.665  1.00  0.00     0.158 A 
BRANCH  15  18
ATOM     18  O   UNL     1     -96.405  78.366 207.815  1.00  0.00    -0.504 OA
ATOM     19  H   UNL     1     -96.054  77.998 208.692  1.00  0.00     0.293 HD
ENDBRANCH  15  18
BRANCH  17  20
ATOM     20  O   UNL     1     -95.663  80.191 209.778  1.00  0.00    -0.504 OA
ATOM     21  H   UNL     1     -95.127  79.330 209.759  1.00  0.00     0.293 HD
ENDBRANCH  17  20
ENDBRANCH   1  12
BRANCH   6  22
ATOM     22  O   UNL     1     -99.731  88.454 206.152  1.00  0.00    -0.507 OA
ATOM     23  H   UNL     1     -99.934  88.128 205.214  1.00  0.00     0.293 HD
ENDBRANCH   6  22
BRANCH   8  24
ATOM     24  O   UNL     1     -95.873  89.248 208.969  1.00  0.00    -0.508 OA
ATOM     25  H   UNL     1     -95.139  88.915 209.584  1.00  0.00     0.293 HD
ENDBRANCH   8  24
TORSDOF 5
ENDMDL
