MODEL 1
REMARK VINA RESULT:     2.723      0.000      0.000
REMARK INTER + INTRA:           4.241
REMARK INTER:                   3.837
REMARK INTRA:                   0.404
REMARK UNBOUND:                 0.404
REMARK SMILES CC1=CCC(=C(C)C)C(=O)CC(C)=CCC1
REMARK SMILES IDX 12 1 14 2 13 3 15 4 16 5 2 6 1 7 3 8 11 10 9 11 10 12 5 13
REMARK SMILES IDX 6 14 7 15 8 16 4 17
REMARK H PARENT
REMARK Flexibility Score: 60.00
ROOT
ATOM      1  C   UNL     1      76.074  75.675  72.629  1.00  0.00    -0.070 C 
ATOM      2  C   UNL     1      76.055  76.332  73.813  1.00  0.00    -0.027 C 
ATOM      3  C   UNL     1      75.626  76.426  71.400  1.00  0.00     0.039 C 
ENDROOT
BRANCH   2   4
ATOM      4  C   UNL     1      76.488  75.749  75.135  1.00  0.00     0.032 C 
BRANCH   4   5
ATOM      5  C   UNL     1      75.376  75.882  76.190  1.00  0.00     0.034 C 
BRANCH   5   6
ATOM      6  C   UNL     1      74.737  74.557  76.562  1.00  0.00    -0.077 C 
ATOM      7  C   UNL     1      75.044  73.963  77.915  1.00  0.00     0.039 C 
ATOM      8  C   UNL     1      73.966  73.829  75.717  1.00  0.00    -0.023 CG0
ATOM      9  G   UNL     1      73.442  74.260  74.364  1.00  0.00     0.000 G0
ENDBRANCH   5   6
ENDBRANCH   4   5
ENDBRANCH   2   4
BRANCH   1  10
ATOM     10  C   UNL     1      76.513  74.224  72.484  1.00  0.00     0.111 C 
BRANCH  10  11
ATOM     11  C   UNL     1      75.526  73.279  73.128  1.00  0.00     0.163 C 
ATOM     12  O   UNL     1      76.003  72.242  73.664  1.00  0.00    -0.294 OA
BRANCH  11  13
ATOM     13  C   UNL     1      74.039  73.520  73.173  1.00  0.00    -0.002 C 
ATOM     14  C   UNL     1      73.217  73.068  72.171  1.00  0.00    -0.069 C 
ATOM     15  C   UNL     1      73.761  72.423  70.917  1.00  0.00     0.039 C 
ATOM     16  C   UNL     1      71.714  73.240  72.242  1.00  0.00     0.039 C 
BRANCH  13  17
ATOM     17  C   UNL     1      73.441  74.268  74.362  1.00  0.00     0.066 CG0
ATOM     18  G   UNL     1      73.976  73.837  75.710  1.00  0.00     0.000 G0
ENDBRANCH  13  17
ENDBRANCH  11  13
ENDBRANCH  10  11
ENDBRANCH   1  10
TORSDOF 0
ENDMDL
MODEL 2
REMARK VINA RESULT:     3.301      1.626      3.205
REMARK INTER + INTRA:           5.056
REMARK INTER:                   4.610
REMARK INTRA:                   0.446
REMARK UNBOUND:                 0.404
REMARK SMILES CC1=CCC(=C(C)C)C(=O)CC(C)=CCC1
REMARK SMILES IDX 12 1 14 2 13 3 15 4 16 5 2 6 1 7 3 8 11 10 9 11 10 12 5 13
REMARK SMILES IDX 6 14 7 15 8 16 4 17
REMARK H PARENT
REMARK Flexibility Score: 60.00
ROOT
ATOM      1  C   UNL     1      73.080  75.401  73.647  1.00  0.00    -0.070 C 
ATOM      2  C   UNL     1      73.017  75.160  74.979  1.00  0.00    -0.027 C 
ATOM      3  C   UNL     1      73.282  76.826  73.198  1.00  0.00     0.039 C 
ENDROOT
BRANCH   2   4
ATOM      4  C   UNL     1      72.843  73.800  75.607  1.00  0.00     0.032 C 
BRANCH   4   5
ATOM      5  C   UNL     1      74.204  73.138  75.882  1.00  0.00     0.034 C 
BRANCH   5   6
ATOM      6  C   UNL     1      75.332  74.136  76.067  1.00  0.00    -0.077 C 
ATOM      7  C   UNL     1      75.412  74.903  77.363  1.00  0.00     0.039 C 
ATOM      8  C   UNL     1      76.233  74.442  75.100  1.00  0.00    -0.023 CG0
ATOM      9  G   UNL     1      76.415  73.739  73.772  1.00  0.00     0.000 G0
ENDBRANCH   5   6
ENDBRANCH   4   5
ENDBRANCH   2   4
BRANCH   1  10
ATOM     10  C   UNL     1      72.949  74.309  72.593  1.00  0.00     0.111 C 
BRANCH  10  11
ATOM     11  C   UNL     1      74.287  73.689  72.267  1.00  0.00     0.163 C 
ATOM     12  O   UNL     1      74.265  72.585  71.658  1.00  0.00    -0.294 OA
BRANCH  11  13
ATOM     13  C   UNL     1      75.612  74.319  72.613  1.00  0.00    -0.002 C 
ATOM     14  C   UNL     1      76.084  75.405  71.920  1.00  0.00    -0.069 C 
ATOM     15  C   UNL     1      75.372  75.950  70.702  1.00  0.00     0.039 C 
ATOM     16  C   UNL     1      77.378  76.089  72.306  1.00  0.00     0.039 C 
BRANCH  13  17
ATOM     17  C   UNL     1      76.434  73.740  73.763  1.00  0.00     0.066 CG0
ATOM     18  G   UNL     1      76.233  74.436  75.092  1.00  0.00     0.000 G0
ENDBRANCH  13  17
ENDBRANCH  11  13
ENDBRANCH  10  11
ENDBRANCH   1  10
TORSDOF 0
ENDMDL
MODEL 3
REMARK VINA RESULT:     3.539      1.487      3.898
REMARK INTER + INTRA:           5.390
REMARK INTER:                   2.964
REMARK INTRA:                   2.426
REMARK UNBOUND:                 0.404
REMARK SMILES CC1=CCC(=C(C)C)C(=O)CC(C)=CCC1
REMARK SMILES IDX 12 1 14 2 13 3 15 4 16 5 2 6 1 7 3 8 11 10 9 11 10 12 5 13
REMARK SMILES IDX 6 14 7 15 8 16 4 17
REMARK H PARENT
REMARK Flexibility Score: 60.00
ROOT
ATOM      1  C   UNL     1      76.171  74.982  72.450  1.00  0.00    -0.070 C 
ATOM      2  C   UNL     1      75.221  75.890  72.121  1.00  0.00    -0.027 C 
ATOM      3  C   UNL     1      77.394  74.892  71.571  1.00  0.00     0.039 C 
ENDROOT
BRANCH   2   4
ATOM      4  C   UNL     1      73.949  76.134  72.894  1.00  0.00     0.032 C 
BRANCH   4   5
ATOM      5  C   UNL     1      72.849  75.145  72.476  1.00  0.00     0.034 C 
BRANCH   5   6
ATOM      6  C   UNL     1      73.134  73.714  72.895  1.00  0.00    -0.077 C 
ATOM      7  C   UNL     1      73.204  72.650  71.827  1.00  0.00     0.039 C 
ATOM      8  C   UNL     1      73.250  73.316  74.187  1.00  0.00    -0.023 CG0
ATOM      9  G   UNL     1      73.318  74.206  75.409  1.00  0.00     0.000 G0
ENDBRANCH   5   6
ENDBRANCH   4   5
ENDBRANCH   2   4
BRANCH   1  10
ATOM     10  C   UNL     1      76.058  74.051  73.650  1.00  0.00     0.111 C 
BRANCH  10  11
ATOM     11  C   UNL     1      75.821  74.821  74.928  1.00  0.00     0.163 C 
ATOM     12  O   UNL     1      76.581  75.803  75.146  1.00  0.00    -0.294 OA
BRANCH  11  13
ATOM     13  C   UNL     1      74.738  74.487  75.922  1.00  0.00    -0.002 C 
ATOM     14  C   UNL     1      74.997  74.450  77.269  1.00  0.00    -0.069 C 
ATOM     15  C   UNL     1      76.396  74.615  77.821  1.00  0.00     0.039 C 
ATOM     16  C   UNL     1      73.901  74.188  78.280  1.00  0.00     0.039 C 
BRANCH  13  17
ATOM     17  C   UNL     1      73.327  74.198  75.416  1.00  0.00     0.066 CG0
ATOM     18  G   UNL     1      73.267  73.309  74.192  1.00  0.00     0.000 G0
ENDBRANCH  13  17
ENDBRANCH  11  13
ENDBRANCH  10  11
ENDBRANCH   1  10
TORSDOF 0
ENDMDL
MODEL 4
REMARK VINA RESULT:     3.545      1.888      3.348
REMARK INTER + INTRA:           5.400
REMARK INTER:                   4.032
REMARK INTRA:                   1.368
REMARK UNBOUND:                 0.404
REMARK SMILES CC1=CCC(=C(C)C)C(=O)CC(C)=CCC1
REMARK SMILES IDX 12 1 14 2 13 3 15 4 16 5 2 6 1 7 3 8 11 10 9 11 10 12 5 13
REMARK SMILES IDX 6 14 7 15 8 16 4 17
REMARK H PARENT
REMARK Flexibility Score: 60.00
ROOT
ATOM      1  C   UNL     1      72.755  74.670  73.092  1.00  0.00    -0.070 C 
ATOM      2  C   UNL     1      72.557  73.779  74.093  1.00  0.00    -0.027 C 
ATOM      3  C   UNL     1      72.134  74.371  71.750  1.00  0.00     0.039 C 
ENDROOT
BRANCH   2   4
ATOM      4  C   UNL     1      73.082  73.925  75.499  1.00  0.00     0.032 C 
BRANCH   4   5
ATOM      5  C   UNL     1      74.576  73.571  75.573  1.00  0.00     0.034 C 
BRANCH   5   6
ATOM      6  C   UNL     1      75.388  74.554  76.396  1.00  0.00    -0.077 C 
ATOM      7  C   UNL     1      75.059  74.713  77.860  1.00  0.00     0.039 C 
ATOM      8  C   UNL     1      76.344  75.364  75.876  1.00  0.00    -0.023 CG0
ATOM      9  G   UNL     1      76.913  75.315  74.475  1.00  0.00     0.000 G0
ENDBRANCH   5   6
ENDBRANCH   4   5
ENDBRANCH   2   4
BRANCH   1  10
ATOM     10  C   UNL     1      73.576  75.943  73.255  1.00  0.00     0.111 C 
BRANCH  10  11
ATOM     11  C   UNL     1      74.988  75.760  72.751  1.00  0.00     0.163 C 
ATOM     12  O   UNL     1      75.332  76.464  71.763  1.00  0.00    -0.294 OA
BRANCH  11  13
ATOM     13  C   UNL     1      75.985  74.812  73.369  1.00  0.00    -0.002 C 
ATOM     14  C   UNL     1      76.065  73.505  72.963  1.00  0.00    -0.069 C 
ATOM     15  C   UNL     1      75.087  72.909  71.975  1.00  0.00     0.039 C 
ATOM     16  C   UNL     1      77.111  72.564  73.524  1.00  0.00     0.039 C 
BRANCH  13  17
ATOM     17  C   UNL     1      76.926  75.326  74.456  1.00  0.00     0.066 CG0
ATOM     18  G   UNL     1      76.334  75.333  75.849  1.00  0.00     0.000 G0
ENDBRANCH  13  17
ENDBRANCH  11  13
ENDBRANCH  10  11
ENDBRANCH   1  10
TORSDOF 0
ENDMDL
MODEL 5
REMARK VINA RESULT:     3.805      1.759      3.642
REMARK INTER + INTRA:           5.767
REMARK INTER:                   3.665
REMARK INTRA:                   2.102
REMARK UNBOUND:                 0.404
REMARK SMILES CC1=CCC(=C(C)C)C(=O)CC(C)=CCC1
REMARK SMILES IDX 12 1 14 2 13 3 15 4 16 5 2 6 1 7 3 8 11 10 9 11 10 12 5 13
REMARK SMILES IDX 6 14 7 15 8 16 4 17
REMARK H PARENT
REMARK Flexibility Score: 60.00
ROOT
ATOM      1  C   UNL     1      75.215  74.355  76.451  1.00  0.00    -0.070 C 
ATOM      2  C   UNL     1      76.142  75.340  76.377  1.00  0.00    -0.027 C 
ATOM      3  C   UNL     1      74.607  74.059  77.799  1.00  0.00     0.039 C 
ENDROOT
BRANCH   2   4
ATOM      4  C   UNL     1      76.835  75.785  75.114  1.00  0.00     0.032 C 
BRANCH   4   5
ATOM      5  C   UNL     1      76.365  74.961  73.904  1.00  0.00     0.034 C 
BRANCH   5   6
ATOM      6  C   UNL     1      76.055  75.807  72.683  1.00  0.00    -0.077 C 
ATOM      7  C   UNL     1      77.174  76.122  71.721  1.00  0.00     0.039 C 
ATOM      8  C   UNL     1      74.844  76.370  72.443  1.00  0.00    -0.023 CG0
ATOM      9  G   UNL     1      73.559  76.117  73.200  1.00  0.00     0.000 G0
ENDBRANCH   5   6
ENDBRANCH   4   5
ENDBRANCH   2   4
BRANCH   1  10
ATOM     10  C   UNL     1      74.770  73.534  75.248  1.00  0.00     0.111 C 
BRANCH  10  11
ATOM     11  C   UNL     1      73.429  73.996  74.726  1.00  0.00     0.163 C 
ATOM     12  O   UNL     1      72.438  73.827  75.488  1.00  0.00    -0.294 OA
BRANCH  11  13
ATOM     13  C   UNL     1      73.228  74.645  73.381  1.00  0.00    -0.002 C 
ATOM     14  C   UNL     1      72.741  73.932  72.315  1.00  0.00    -0.069 C 
ATOM     15  C   UNL     1      72.499  72.441  72.390  1.00  0.00     0.039 C 
ATOM     16  C   UNL     1      72.467  74.593  70.980  1.00  0.00     0.039 C 
BRANCH  13  17
ATOM     17  C   UNL     1      73.564  76.125  73.212  1.00  0.00     0.066 CG0
ATOM     18  G   UNL     1      74.843  76.397  72.450  1.00  0.00     0.000 G0
ENDBRANCH  13  17
ENDBRANCH  11  13
ENDBRANCH  10  11
ENDBRANCH   1  10
TORSDOF 0
ENDMDL
MODEL 6
REMARK VINA RESULT:     3.821      1.575      4.536
REMARK INTER + INTRA:           5.788
REMARK INTER:                   3.686
REMARK INTRA:                   2.102
REMARK UNBOUND:                 0.404
REMARK SMILES CC1=CCC(=C(C)C)C(=O)CC(C)=CCC1
REMARK SMILES IDX 12 1 14 2 13 3 15 4 16 5 2 6 1 7 3 8 11 10 9 11 10 12 5 13
REMARK SMILES IDX 6 14 7 15 8 16 4 17
REMARK H PARENT
REMARK Flexibility Score: 60.00
ROOT
ATOM      1  C   UNL     1      72.960  74.253  72.373  1.00  0.00    -0.070 C 
ATOM      2  C   UNL     1      73.873  73.400  71.848  1.00  0.00    -0.027 C 
ATOM      3  C   UNL     1      71.596  74.307  71.731  1.00  0.00     0.039 C 
ENDROOT
BRANCH   2   4
ATOM      4  C   UNL     1      75.273  73.198  72.372  1.00  0.00     0.032 C 
BRANCH   4   5
ATOM      5  C   UNL     1      76.236  74.250  71.796  1.00  0.00     0.034 C 
BRANCH   5   6
ATOM      6  C   UNL     1      76.132  75.600  72.480  1.00  0.00    -0.077 C 
ATOM      7  C   UNL     1      76.046  76.839  71.622  1.00  0.00     0.039 C 
ATOM      8  C   UNL     1      76.194  75.771  73.825  1.00  0.00    -0.023 CG0
ATOM      9  G   UNL     1      76.176  74.686  74.880  1.00  0.00     0.000 G0
ENDBRANCH   5   6
ENDBRANCH   4   5
ENDBRANCH   2   4
BRANCH   1  10
ATOM     10  C   UNL     1      73.249  75.157  73.564  1.00  0.00     0.111 C 
BRANCH  10  11
ATOM     11  C   UNL     1      73.572  74.356  74.803  1.00  0.00     0.163 C 
ATOM     12  O   UNL     1      72.723  73.492  75.155  1.00  0.00    -0.294 OA
BRANCH  11  13
ATOM     13  C   UNL     1      74.835  74.525  75.608  1.00  0.00    -0.002 C 
ATOM     14  C   UNL     1      74.807  74.527  76.980  1.00  0.00    -0.069 C 
ATOM     15  C   UNL     1      73.509  74.488  77.756  1.00  0.00     0.039 C 
ATOM     16  C   UNL     1      76.077  74.623  77.798  1.00  0.00     0.039 C 
BRANCH  13  17
ATOM     17  C   UNL     1      76.167  74.685  74.879  1.00  0.00     0.066 CG0
ATOM     18  G   UNL     1      76.182  75.771  73.826  1.00  0.00     0.000 G0
ENDBRANCH  13  17
ENDBRANCH  11  13
ENDBRANCH  10  11
ENDBRANCH   1  10
TORSDOF 0
ENDMDL
MODEL 7
REMARK VINA RESULT:     4.322      1.647      4.223
REMARK INTER + INTRA:           6.495
REMARK INTER:                   6.325
REMARK INTRA:                   0.170
REMARK UNBOUND:                 0.404
REMARK SMILES CC1=CCC(=C(C)C)C(=O)CC(C)=CCC1
REMARK SMILES IDX 12 1 14 2 13 3 15 4 16 5 2 6 1 7 3 8 11 10 9 11 10 12 5 13
REMARK SMILES IDX 6 14 7 15 8 16 4 17
REMARK H PARENT
REMARK Flexibility Score: 60.00
ROOT
ATOM      1  C   UNL     1      73.873  76.173  72.743  1.00  0.00    -0.070 C 
ATOM      2  C   UNL     1      72.688  75.587  72.448  1.00  0.00    -0.027 C 
ATOM      3  C   UNL     1      73.880  77.256  73.793  1.00  0.00     0.039 C 
ENDROOT
BRANCH   2   4
ATOM      4  C   UNL     1      72.496  74.476  71.445  1.00  0.00     0.032 C 
BRANCH   4   5
ATOM      5  C   UNL     1      72.390  73.111  72.144  1.00  0.00     0.034 C 
BRANCH   5   6
ATOM      6  C   UNL     1      73.671  72.300  72.080  1.00  0.00    -0.077 C 
ATOM      7  C   UNL     1      73.904  71.412  70.883  1.00  0.00     0.039 C 
ATOM      8  C   UNL     1      74.590  72.262  73.078  1.00  0.00    -0.023 CG0
ATOM      9  G   UNL     1      74.624  73.134  74.315  1.00  0.00     0.000 G0
ENDBRANCH   5   6
ENDBRANCH   4   5
ENDBRANCH   2   4
BRANCH   1  10
ATOM     10  C   UNL     1      75.183  75.801  72.062  1.00  0.00     0.111 C 
BRANCH  10  11
ATOM     11  C   UNL     1      75.988  74.835  72.900  1.00  0.00     0.163 C 
ATOM     12  O   UNL     1      77.095  74.461  72.426  1.00  0.00    -0.294 OA
BRANCH  11  13
ATOM     13  C   UNL     1      75.547  74.322  74.248  1.00  0.00    -0.002 C 
ATOM     14  C   UNL     1      75.962  74.927  75.407  1.00  0.00    -0.069 C 
ATOM     15  C   UNL     1      76.973  76.051  75.408  1.00  0.00     0.039 C 
ATOM     16  C   UNL     1      75.467  74.465  76.762  1.00  0.00     0.039 C 
BRANCH  13  17
ATOM     17  C   UNL     1      74.615  73.114  74.316  1.00  0.00     0.066 CG0
ATOM     18  G   UNL     1      74.602  72.258  73.068  1.00  0.00     0.000 G0
ENDBRANCH  13  17
ENDBRANCH  11  13
ENDBRANCH  10  11
ENDBRANCH   1  10
TORSDOF 0
ENDMDL
MODEL 8
REMARK VINA RESULT:     4.368      1.910      3.684
REMARK INTER + INTRA:           6.559
REMARK INTER:                   3.749
REMARK INTRA:                   2.810
REMARK UNBOUND:                 0.404
REMARK SMILES CC1=CCC(=C(C)C)C(=O)CC(C)=CCC1
REMARK SMILES IDX 12 1 14 2 13 3 15 4 16 5 2 6 1 7 3 8 11 10 9 11 10 12 5 13
REMARK SMILES IDX 6 14 7 15 8 16 4 17
REMARK H PARENT
REMARK Flexibility Score: 60.00
ROOT
ATOM      1  C   UNL     1      73.700  74.353  75.227  1.00  0.00    -0.070 C 
ATOM      2  C   UNL     1      74.940  74.041  75.675  1.00  0.00    -0.027 C 
ATOM      3  C   UNL     1      72.533  73.585  75.795  1.00  0.00     0.039 C 
ENDROOT
BRANCH   2   4
ATOM      4  C   UNL     1      76.216  74.716  75.238  1.00  0.00     0.032 C 
BRANCH   4   5
ATOM      5  C   UNL     1      75.930  75.831  74.217  1.00  0.00     0.034 C 
BRANCH   5   6
ATOM      6  C   UNL     1      76.498  75.545  72.839  1.00  0.00    -0.077 C 
ATOM      7  C   UNL     1      77.443  76.549  72.226  1.00  0.00     0.039 C 
ATOM      8  C   UNL     1      76.142  74.476  72.085  1.00  0.00    -0.023 CG0
ATOM      9  G   UNL     1      75.300  73.295  72.520  1.00  0.00     0.000 G0
ENDBRANCH   5   6
ENDBRANCH   4   5
ENDBRANCH   2   4
BRANCH   1  10
ATOM     10  C   UNL     1      73.435  75.427  74.180  1.00  0.00     0.111 C 
BRANCH  10  11
ATOM     11  C   UNL     1      73.193  74.823  72.816  1.00  0.00     0.163 C 
ATOM     12  O   UNL     1      72.453  75.477  72.032  1.00  0.00    -0.294 OA
BRANCH  11  13
ATOM     13  C   UNL     1      73.789  73.517  72.357  1.00  0.00    -0.002 C 
ATOM     14  C   UNL     1      73.007  72.536  71.803  1.00  0.00    -0.069 C 
ATOM     15  C   UNL     1      71.500  72.651  71.739  1.00  0.00     0.039 C 
ATOM     16  C   UNL     1      73.606  71.251  71.272  1.00  0.00     0.039 C 
BRANCH  13  17
ATOM     17  C   UNL     1      75.293  73.295  72.501  1.00  0.00     0.066 CG0
ATOM     18  G   UNL     1      76.146  74.477  72.096  1.00  0.00     0.000 G0
ENDBRANCH  13  17
ENDBRANCH  11  13
ENDBRANCH  10  11
ENDBRANCH   1  10
TORSDOF 0
ENDMDL
MODEL 9
REMARK VINA RESULT:     4.499      1.517      2.035
REMARK INTER + INTRA:           6.744
REMARK INTER:                   6.225
REMARK INTRA:                   0.520
REMARK UNBOUND:                 0.404
REMARK SMILES CC1=CCC(=C(C)C)C(=O)CC(C)=CCC1
REMARK SMILES IDX 12 1 14 2 13 3 15 4 16 5 2 6 1 7 3 8 11 10 9 11 10 12 5 13
REMARK SMILES IDX 6 14 7 15 8 16 4 17
REMARK H PARENT
REMARK Flexibility Score: 60.00
ROOT
ATOM      1  C   UNL     1      76.398  73.615  73.518  1.00  0.00    -0.070 C 
ATOM      2  C   UNL     1      76.498  73.849  74.849  1.00  0.00    -0.027 C 
ATOM      3  C   UNL     1      76.134  72.199  73.070  1.00  0.00     0.039 C 
ENDROOT
BRANCH   2   4
ATOM      4  C   UNL     1      76.735  75.200  75.475  1.00  0.00     0.032 C 
BRANCH   4   5
ATOM      5  C   UNL     1      75.406  75.888  75.830  1.00  0.00     0.034 C 
BRANCH   5   6
ATOM      6  C   UNL     1      74.254  74.916  76.008  1.00  0.00    -0.077 C 
ATOM      7  C   UNL     1      74.183  74.107  77.280  1.00  0.00     0.039 C 
ATOM      8  C   UNL     1      73.322  74.668  75.054  1.00  0.00    -0.023 CG0
ATOM      9  G   UNL     1      73.130  75.421  73.755  1.00  0.00     0.000 G0
ENDBRANCH   5   6
ENDBRANCH   4   5
ENDBRANCH   2   4
BRANCH   1  10
ATOM     10  C   UNL     1      76.548  74.703  72.463  1.00  0.00     0.111 C 
BRANCH  10  11
ATOM     11  C   UNL     1      75.225  75.368  72.161  1.00  0.00     0.163 C 
ATOM     12  O   UNL     1      75.271  76.453  71.521  1.00  0.00    -0.294 OA
BRANCH  11  13
ATOM     13  C   UNL     1      73.888  74.802  72.564  1.00  0.00    -0.002 C 
ATOM     14  C   UNL     1      73.338  73.737  71.897  1.00  0.00    -0.069 C 
ATOM     15  C   UNL     1      73.971  73.156  70.653  1.00  0.00     0.039 C 
ATOM     16  C   UNL     1      72.030  73.114  72.340  1.00  0.00     0.039 C 
BRANCH  13  17
ATOM     17  C   UNL     1      73.143  75.421  73.745  1.00  0.00     0.066 CG0
ATOM     18  G   UNL     1      73.310  74.679  75.054  1.00  0.00     0.000 G0
ENDBRANCH  13  17
ENDBRANCH  11  13
ENDBRANCH  10  11
ENDBRANCH   1  10
TORSDOF 0
ENDMDL
