MODEL 1
REMARK VINA RESULT:    -5.312      0.000      0.000
REMARK INTER + INTRA:          -5.660
REMARK INTER:                  -5.933
REMARK INTRA:                   0.273
REMARK UNBOUND:                 0.273
REMARK SMILES O=C([O-])c1ccccc1C(=O)[O-]
REMARK SMILES IDX 4 1 9 2 5 3 8 4 6 5 7 6 2 7 1 8 3 9 10 10 11 11 12 12
REMARK H PARENT
REMARK Flexibility Score: inf
ROOT
ATOM      1  C   UNL     1     -22.952 -28.470  38.738  1.00  0.00     0.006 A 
ATOM      2  C   UNL     1     -22.815 -27.968  40.062  1.00  0.00     0.006 A 
ATOM      3  C   UNL     1     -22.041 -28.051  37.750  1.00  0.00     0.010 A 
ATOM      4  C   UNL     1     -21.813 -27.019  40.335  1.00  0.00     0.010 A 
ATOM      5  C   UNL     1     -21.039 -27.125  38.048  1.00  0.00     0.001 A 
ATOM      6  C   UNL     1     -20.934 -26.602  39.334  1.00  0.00     0.001 A 
ENDROOT
BRANCH   1   7
ATOM      7  C   UNL     1     -24.062 -29.362  38.331  1.00  0.00     0.072 C 
ATOM      8  O   UNL     1     -24.609 -29.218  37.205  1.00  0.00    -0.545 OA
ATOM      9  O   UNL     1     -24.557 -30.323  39.204  1.00  0.00    -0.545 OA
ENDBRANCH   1   7
BRANCH   2  10
ATOM     10  C   UNL     1     -23.637 -28.452  41.196  1.00  0.00     0.072 C 
ATOM     11  O   UNL     1     -23.230 -29.387  41.934  1.00  0.00    -0.545 OA
ATOM     12  O   UNL     1     -24.843 -27.830  41.498  1.00  0.00    -0.545 OA
ENDBRANCH   2  10
TORSDOF 2
ENDMDL
MODEL 2
REMARK VINA RESULT:    -5.311      1.828      3.568
REMARK INTER + INTRA:          -5.658
REMARK INTER:                  -5.444
REMARK INTRA:                  -0.215
REMARK UNBOUND:                 0.273
REMARK SMILES O=C([O-])c1ccccc1C(=O)[O-]
REMARK SMILES IDX 4 1 9 2 5 3 8 4 6 5 7 6 2 7 1 8 3 9 10 10 11 11 12 12
REMARK H PARENT
REMARK Flexibility Score: inf
ROOT
ATOM      1  C   UNL     1     -23.521 -26.041  41.168  1.00  0.00     0.006 A 
ATOM      2  C   UNL     1     -22.735 -27.073  40.584  1.00  0.00     0.006 A 
ATOM      3  C   UNL     1     -23.007 -24.731  41.211  1.00  0.00     0.010 A 
ATOM      4  C   UNL     1     -21.441 -26.770  40.123  1.00  0.00     0.010 A 
ATOM      5  C   UNL     1     -21.728 -24.449  40.727  1.00  0.00     0.001 A 
ATOM      6  C   UNL     1     -20.943 -25.468  40.195  1.00  0.00     0.001 A 
ENDROOT
BRANCH   1   7
ATOM      7  C   UNL     1     -24.834 -26.297  41.804  1.00  0.00     0.072 C 
ATOM      8  O   UNL     1     -24.893 -26.655  43.011  1.00  0.00    -0.545 OA
ATOM      9  O   UNL     1     -26.008 -26.211  41.067  1.00  0.00    -0.545 OA
ENDBRANCH   1   7
BRANCH   2  10
ATOM     10  C   UNL     1     -23.241 -28.449  40.371  1.00  0.00     0.072 C 
ATOM     11  O   UNL     1     -23.652 -28.816  39.238  1.00  0.00    -0.545 OA
ATOM     12  O   UNL     1     -23.206 -29.373  41.407  1.00  0.00    -0.545 OA
ENDBRANCH   2  10
TORSDOF 2
ENDMDL
MODEL 3
REMARK VINA RESULT:    -5.308      1.839      2.756
REMARK INTER + INTRA:          -5.655
REMARK INTER:                  -5.440
REMARK INTRA:                  -0.215
REMARK UNBOUND:                 0.273
REMARK SMILES O=C([O-])c1ccccc1C(=O)[O-]
REMARK SMILES IDX 4 1 9 2 5 3 8 4 6 5 7 6 2 7 1 8 3 9 10 10 11 11 12 12
REMARK H PARENT
REMARK Flexibility Score: inf
ROOT
ATOM      1  C   UNL     1     -22.732 -27.076  40.603  1.00  0.00     0.006 A 
ATOM      2  C   UNL     1     -23.529 -26.051  41.184  1.00  0.00     0.006 A 
ATOM      3  C   UNL     1     -21.437 -26.761  40.151  1.00  0.00     0.010 A 
ATOM      4  C   UNL     1     -23.028 -24.738  41.233  1.00  0.00     0.010 A 
ATOM      5  C   UNL     1     -20.950 -25.455  40.231  1.00  0.00     0.001 A 
ATOM      6  C   UNL     1     -21.748 -24.444  40.760  1.00  0.00     0.001 A 
ENDROOT
BRANCH   1   7
ATOM      7  C   UNL     1     -23.233 -28.452  40.383  1.00  0.00     0.072 C 
ATOM      8  O   UNL     1     -23.050 -29.340  41.258  1.00  0.00    -0.545 OA
ATOM      9  O   UNL     1     -23.850 -28.800  39.187  1.00  0.00    -0.545 OA
ENDBRANCH   1   7
BRANCH   2  10
ATOM     10  C   UNL     1     -24.847 -26.313  41.809  1.00  0.00     0.072 C 
ATOM     11  O   UNL     1     -24.935 -26.587  43.035  1.00  0.00    -0.545 OA
ATOM     12  O   UNL     1     -26.011 -26.192  41.060  1.00  0.00    -0.545 OA
ENDBRANCH   2  10
TORSDOF 2
ENDMDL
MODEL 4
REMARK VINA RESULT:    -5.292      0.131      3.078
REMARK INTER + INTRA:          -5.637
REMARK INTER:                  -5.832
REMARK INTRA:                   0.195
REMARK UNBOUND:                 0.273
REMARK SMILES O=C([O-])c1ccccc1C(=O)[O-]
REMARK SMILES IDX 4 1 9 2 5 3 8 4 6 5 7 6 2 7 1 8 3 9 10 10 11 11 12 12
REMARK H PARENT
REMARK Flexibility Score: inf
ROOT
ATOM      1  C   UNL     1     -22.907 -27.894  40.093  1.00  0.00     0.006 A 
ATOM      2  C   UNL     1     -23.012 -28.454  38.790  1.00  0.00     0.006 A 
ATOM      3  C   UNL     1     -21.893 -26.953  40.354  1.00  0.00     0.010 A 
ATOM      4  C   UNL     1     -22.061 -28.102  37.815  1.00  0.00     0.010 A 
ATOM      5  C   UNL     1     -20.974 -26.601  39.364  1.00  0.00     0.001 A 
ATOM      6  C   UNL     1     -21.051 -27.183  38.102  1.00  0.00     0.001 A 
ENDROOT
BRANCH   1   7
ATOM      7  C   UNL     1     -23.776 -28.313  41.217  1.00  0.00     0.072 C 
ATOM      8  O   UNL     1     -23.426 -29.262  41.968  1.00  0.00    -0.545 OA
ATOM      9  O   UNL     1     -25.013 -27.713  41.419  1.00  0.00    -0.545 OA
ENDBRANCH   1   7
BRANCH   2  10
ATOM     10  C   UNL     1     -24.123 -29.346  38.383  1.00  0.00     0.072 C 
ATOM     11  O   UNL     1     -24.660 -29.229  37.249  1.00  0.00    -0.545 OA
ATOM     12  O   UNL     1     -24.542 -30.368  39.226  1.00  0.00    -0.545 OA
ENDBRANCH   2  10
TORSDOF 2
ENDMDL
MODEL 5
REMARK VINA RESULT:    -5.231      2.251      3.564
REMARK INTER + INTRA:          -5.569
REMARK INTER:                  -5.372
REMARK INTRA:                  -0.197
REMARK UNBOUND:                 0.273
REMARK SMILES O=C([O-])c1ccccc1C(=O)[O-]
REMARK SMILES IDX 4 1 9 2 5 3 8 4 6 5 7 6 2 7 1 8 3 9 10 10 11 11 12 12
REMARK H PARENT
REMARK Flexibility Score: inf
ROOT
ATOM      1  C   UNL     1     -25.486 -28.236  40.196  1.00  0.00     0.006 A 
ATOM      2  C   UNL     1     -24.413 -27.945  41.083  1.00  0.00     0.006 A 
ATOM      3  C   UNL     1     -26.690 -27.517  40.321  1.00  0.00     0.010 A 
ATOM      4  C   UNL     1     -24.604 -26.993  42.101  1.00  0.00     0.010 A 
ATOM      5  C   UNL     1     -26.850 -26.560  41.324  1.00  0.00     0.001 A 
ATOM      6  C   UNL     1     -25.814 -26.308  42.219  1.00  0.00     0.001 A 
ENDROOT
BRANCH   1   7
ATOM      7  C   UNL     1     -25.420 -29.319  39.188  1.00  0.00     0.072 C 
ATOM      8  O   UNL     1     -25.959 -30.434  39.420  1.00  0.00    -0.545 OA
ATOM      9  O   UNL     1     -24.712 -29.145  38.005  1.00  0.00    -0.545 OA
ENDBRANCH   1   7
BRANCH   2  10
ATOM     10  C   UNL     1     -23.067 -28.549  40.945  1.00  0.00     0.072 C 
ATOM     11  O   UNL     1     -22.745 -29.566  41.616  1.00  0.00    -0.545 OA
ATOM     12  O   UNL     1     -22.164 -28.038  40.021  1.00  0.00    -0.545 OA
ENDBRANCH   2  10
TORSDOF 2
ENDMDL
MODEL 6
REMARK VINA RESULT:    -5.189      2.197      4.206
REMARK INTER + INTRA:          -5.522
REMARK INTER:                  -5.323
REMARK INTRA:                  -0.199
REMARK UNBOUND:                 0.273
REMARK SMILES O=C([O-])c1ccccc1C(=O)[O-]
REMARK SMILES IDX 4 1 9 2 5 3 8 4 6 5 7 6 2 7 1 8 3 9 10 10 11 11 12 12
REMARK H PARENT
REMARK Flexibility Score: inf
ROOT
ATOM      1  C   UNL     1     -24.353 -27.911  41.015  1.00  0.00     0.006 A 
ATOM      2  C   UNL     1     -25.447 -28.268  40.178  1.00  0.00     0.006 A 
ATOM      3  C   UNL     1     -24.539 -26.923  41.999  1.00  0.00     0.010 A 
ATOM      4  C   UNL     1     -26.666 -27.579  40.314  1.00  0.00     0.010 A 
ATOM      5  C   UNL     1     -25.765 -26.268  42.132  1.00  0.00     0.001 A 
ATOM      6  C   UNL     1     -26.821 -26.587  41.283  1.00  0.00     0.001 A 
ENDROOT
BRANCH   1   7
ATOM      7  C   UNL     1     -22.997 -28.484  40.848  1.00  0.00     0.072 C 
ATOM      8  O   UNL     1     -22.198 -27.986  40.011  1.00  0.00    -0.545 OA
ATOM      9  O   UNL     1     -22.612 -29.614  41.560  1.00  0.00    -0.545 OA
ENDBRANCH   1   7
BRANCH   2  10
ATOM     10  C   UNL     1     -25.389 -29.387  39.209  1.00  0.00     0.072 C 
ATOM     11  O   UNL     1     -25.952 -30.486  39.458  1.00  0.00    -0.545 OA
ATOM     12  O   UNL     1     -24.765 -29.212  37.979  1.00  0.00    -0.545 OA
ENDBRANCH   2  10
TORSDOF 2
ENDMDL
MODEL 7
REMARK VINA RESULT:    -4.981      8.273      9.692
REMARK INTER + INTRA:          -5.289
REMARK INTER:                  -5.094
REMARK INTRA:                  -0.195
REMARK UNBOUND:                 0.273
REMARK SMILES O=C([O-])c1ccccc1C(=O)[O-]
REMARK SMILES IDX 4 1 9 2 5 3 8 4 6 5 7 6 2 7 1 8 3 9 10 10 11 11 12 12
REMARK H PARENT
REMARK Flexibility Score: inf
ROOT
ATOM      1  C   UNL     1     -15.230 -29.831  36.316  1.00  0.00     0.006 A 
ATOM      2  C   UNL     1     -14.972 -28.941  35.237  1.00  0.00     0.006 A 
ATOM      3  C   UNL     1     -16.077 -29.414  37.360  1.00  0.00     0.010 A 
ATOM      4  C   UNL     1     -15.520 -27.646  35.272  1.00  0.00     0.010 A 
ATOM      5  C   UNL     1     -16.628 -28.131  37.363  1.00  0.00     0.001 A 
ATOM      6  C   UNL     1     -16.340 -27.246  36.328  1.00  0.00     0.001 A 
ENDROOT
BRANCH   1   7
ATOM      7  C   UNL     1     -14.584 -31.160  36.430  1.00  0.00     0.072 C 
ATOM      8  O   UNL     1     -15.113 -32.169  35.893  1.00  0.00    -0.545 OA
ATOM      9  O   UNL     1     -13.427 -31.324  37.182  1.00  0.00    -0.545 OA
ENDBRANCH   1   7
BRANCH   2  10
ATOM     10  C   UNL     1     -14.207 -29.337  34.031  1.00  0.00     0.072 C 
ATOM     11  O   UNL     1     -14.749 -30.013  33.117  1.00  0.00    -0.545 OA
ATOM     12  O   UNL     1     -12.896 -28.907  33.866  1.00  0.00    -0.545 OA
ENDBRANCH   2  10
TORSDOF 2
ENDMDL
MODEL 8
REMARK VINA RESULT:    -4.954      8.276      9.480
REMARK INTER + INTRA:          -5.260
REMARK INTER:                  -5.067
REMARK INTRA:                  -0.193
REMARK UNBOUND:                 0.273
REMARK SMILES O=C([O-])c1ccccc1C(=O)[O-]
REMARK SMILES IDX 4 1 9 2 5 3 8 4 6 5 7 6 2 7 1 8 3 9 10 10 11 11 12 12
REMARK H PARENT
REMARK Flexibility Score: inf
ROOT
ATOM      1  C   UNL     1     -14.979 -28.879  35.219  1.00  0.00     0.006 A 
ATOM      2  C   UNL     1     -15.234 -29.766  36.302  1.00  0.00     0.006 A 
ATOM      3  C   UNL     1     -15.545 -27.591  35.244  1.00  0.00     0.010 A 
ATOM      4  C   UNL     1     -16.095 -29.356  37.335  1.00  0.00     0.010 A 
ATOM      5  C   UNL     1     -16.379 -27.196  36.292  1.00  0.00     0.001 A 
ATOM      6  C   UNL     1     -16.662 -28.081  37.328  1.00  0.00     0.001 A 
ENDROOT
BRANCH   1   7
ATOM      7  C   UNL     1     -14.200 -29.277  34.024  1.00  0.00     0.072 C 
ATOM      8  O   UNL     1     -14.713 -30.036  33.158  1.00  0.00    -0.545 OA
ATOM      9  O   UNL     1     -12.878 -28.876  33.873  1.00  0.00    -0.545 OA
ENDBRANCH   1   7
BRANCH   2  10
ATOM     10  C   UNL     1     -14.576 -31.088  36.432  1.00  0.00     0.072 C 
ATOM     11  O   UNL     1     -15.089 -32.116  35.915  1.00  0.00    -0.545 OA
ATOM     12  O   UNL     1     -13.348 -31.195  37.072  1.00  0.00    -0.545 OA
ENDBRANCH   2  10
TORSDOF 2
ENDMDL
MODEL 9
REMARK VINA RESULT:    -4.744      3.737      4.990
REMARK INTER + INTRA:          -5.026
REMARK INTER:                  -4.864
REMARK INTRA:                  -0.162
REMARK UNBOUND:                 0.273
REMARK SMILES O=C([O-])c1ccccc1C(=O)[O-]
REMARK SMILES IDX 4 1 9 2 5 3 8 4 6 5 7 6 2 7 1 8 3 9 10 10 11 11 12 12
REMARK H PARENT
REMARK Flexibility Score: inf
ROOT
ATOM      1  C   UNL     1     -25.917 -24.827  41.543  1.00  0.00     0.006 A 
ATOM      2  C   UNL     1     -24.661 -25.492  41.489  1.00  0.00     0.006 A 
ATOM      3  C   UNL     1     -25.984 -23.462  41.207  1.00  0.00     0.010 A 
ATOM      4  C   UNL     1     -23.509 -24.754  41.164  1.00  0.00     0.010 A 
ATOM      5  C   UNL     1     -24.830 -22.754  40.864  1.00  0.00     0.001 A 
ATOM      6  C   UNL     1     -23.595 -23.396  40.855  1.00  0.00     0.001 A 
ENDROOT
BRANCH   1   7
ATOM      7  C   UNL     1     -27.156 -25.492  42.011  1.00  0.00     0.072 C 
ATOM      8  O   UNL     1     -27.533 -25.360  43.205  1.00  0.00    -0.545 OA
ATOM      9  O   UNL     1     -27.881 -26.320  41.162  1.00  0.00    -0.545 OA
ENDBRANCH   1   7
BRANCH   2  10
ATOM     10  C   UNL     1     -24.513 -26.953  41.693  1.00  0.00     0.072 C 
ATOM     11  O   UNL     1     -24.540 -27.447  42.851  1.00  0.00    -0.545 OA
ATOM     12  O   UNL     1     -24.409 -27.802  40.599  1.00  0.00    -0.545 OA
ENDBRANCH   2  10
TORSDOF 2
ENDMDL
