MODEL 1
REMARK VINA RESULT:    -4.565      0.000      0.000
REMARK INTER + INTRA:          -9.368
REMARK INTER:                  -7.767
REMARK INTRA:                  -1.601
REMARK UNBOUND:                -1.601
REMARK SMILES CCCCCCCCCCCCCC(=O)[O-]
REMARK SMILES IDX 8 1 9 2 10 3 11 4 12 5 13 6 14 7 15 8 16 9 7 10 6 11 5 12
REMARK SMILES IDX 4 13 3 14 2 15 1 16
REMARK H PARENT
REMARK Flexibility Score: inf
ROOT
ATOM      1  C   UNL     1      84.261 125.554 129.671  1.00  0.00     0.000 C 
ENDROOT
BRANCH   1   2
ATOM      2  C   UNL     1      85.211 126.058 128.572  1.00  0.00     0.000 C 
BRANCH   2   3
ATOM      3  C   UNL     1      86.615 125.441 128.677  1.00  0.00     0.000 C 
BRANCH   3   4
ATOM      4  C   UNL     1      86.644 123.964 128.248  1.00  0.00     0.000 C 
BRANCH   4   5
ATOM      5  C   UNL     1      86.734 122.991 129.438  1.00  0.00     0.006 C 
BRANCH   5   6
ATOM      6  C   UNL     1      88.110 122.974 130.126  1.00  0.00     0.053 C 
BRANCH   6   7
ATOM      7  C   UNL     1      88.620 121.584 130.358  1.00  0.00     0.041 C 
ATOM      8  O   UNL     1      89.471 121.363 131.259  1.00  0.00    -0.550 OA
ATOM      9  O   UNL     1      88.182 120.537 129.556  1.00  0.00    -0.550 OA
ENDBRANCH   6   7
ENDBRANCH   5   6
ENDBRANCH   4   5
ENDBRANCH   3   4
ENDBRANCH   2   3
ENDBRANCH   1   2
BRANCH   1  10
ATOM     10  C   UNL     1      82.997 124.882 129.095  1.00  0.00     0.000 C 
BRANCH  10  11
ATOM     11  C   UNL     1      83.105 123.349 128.980  1.00  0.00    -0.000 C 
BRANCH  11  12
ATOM     12  C   UNL     1      83.056 122.798 127.543  1.00  0.00    -0.000 C 
BRANCH  12  13
ATOM     13  C   UNL     1      82.798 123.853 126.451  1.00  0.00    -0.000 C 
BRANCH  13  14
ATOM     14  C   UNL     1      84.049 124.175 125.622  1.00  0.00    -0.000 C 
BRANCH  14  15
ATOM     15  C   UNL     1      84.677 122.895 125.059  1.00  0.00    -0.003 C 
ATOM     16  C   UNL     1      83.790 122.269 123.986  1.00  0.00     0.004 C 
ENDBRANCH  14  15
ENDBRANCH  13  14
ENDBRANCH  12  13
ENDBRANCH  11  12
ENDBRANCH  10  11
ENDBRANCH   1  10
TORSDOF 12
ENDMDL
MODEL 2
REMARK VINA RESULT:    -4.364      1.714      2.463
REMARK INTER + INTRA:          -9.026
REMARK INTER:                  -7.966
REMARK INTRA:                  -1.061
REMARK UNBOUND:                -1.601
REMARK SMILES CCCCCCCCCCCCCC(=O)[O-]
REMARK SMILES IDX 8 1 9 2 10 3 11 4 12 5 13 6 14 7 15 8 16 9 7 10 6 11 5 12
REMARK SMILES IDX 4 13 3 14 2 15 1 16
REMARK H PARENT
REMARK Flexibility Score: inf
ROOT
ATOM      1  C   UNL     1      86.534 124.940 128.662  1.00  0.00     0.000 C 
ENDROOT
BRANCH   1   2
ATOM      2  C   UNL     1      86.347 124.866 130.187  1.00  0.00     0.000 C 
BRANCH   2   3
ATOM      3  C   UNL     1      87.362 123.929 130.862  1.00  0.00     0.000 C 
BRANCH   3   4
ATOM      4  C   UNL     1      88.155 123.088 129.846  1.00  0.00     0.000 C 
BRANCH   4   5
ATOM      5  C   UNL     1      88.738 121.799 130.454  1.00  0.00     0.006 C 
BRANCH   5   6
ATOM      6  C   UNL     1      87.705 120.945 131.211  1.00  0.00     0.053 C 
BRANCH   6   7
ATOM      7  C   UNL     1      86.865 120.111 130.293  1.00  0.00     0.041 C 
ATOM      8  O   UNL     1      85.632 119.977 130.508  1.00  0.00    -0.550 OA
ATOM      9  O   UNL     1      87.448 119.452 129.217  1.00  0.00    -0.550 OA
ENDBRANCH   6   7
ENDBRANCH   5   6
ENDBRANCH   4   5
ENDBRANCH   3   4
ENDBRANCH   2   3
ENDBRANCH   1   2
BRANCH   1  10
ATOM     10  C   UNL     1      85.246 125.372 127.931  1.00  0.00     0.000 C 
BRANCH  10  11
ATOM     11  C   UNL     1      84.633 124.270 127.047  1.00  0.00    -0.000 C 
BRANCH  11  12
ATOM     12  C   UNL     1      85.134 122.844 127.341  1.00  0.00    -0.000 C 
BRANCH  12  13
ATOM     13  C   UNL     1      84.931 121.835 126.195  1.00  0.00    -0.000 C 
BRANCH  13  14
ATOM     14  C   UNL     1      85.077 122.472 124.805  1.00  0.00    -0.000 C 
BRANCH  14  15
ATOM     15  C   UNL     1      83.789 122.313 123.991  1.00  0.00    -0.003 C 
ATOM     16  C   UNL     1      82.926 121.178 124.537  1.00  0.00     0.004 C 
ENDBRANCH  14  15
ENDBRANCH  13  14
ENDBRANCH  12  13
ENDBRANCH  11  12
ENDBRANCH  10  11
ENDBRANCH   1  10
TORSDOF 12
ENDMDL
MODEL 3
REMARK VINA RESULT:    -4.362      1.295      2.201
REMARK INTER + INTRA:          -9.022
REMARK INTER:                  -7.722
REMARK INTRA:                  -1.300
REMARK UNBOUND:                -1.601
REMARK SMILES CCCCCCCCCCCCCC(=O)[O-]
REMARK SMILES IDX 8 1 9 2 10 3 11 4 12 5 13 6 14 7 15 8 16 9 7 10 6 11 5 12
REMARK SMILES IDX 4 13 3 14 2 15 1 16
REMARK H PARENT
REMARK Flexibility Score: inf
ROOT
ATOM      1  C   UNL     1      84.968 125.299 128.096  1.00  0.00     0.000 C 
ENDROOT
BRANCH   1   2
ATOM      2  C   UNL     1      85.865 125.350 129.344  1.00  0.00     0.000 C 
BRANCH   2   3
ATOM      3  C   UNL     1      85.694 124.116 130.245  1.00  0.00     0.000 C 
BRANCH   3   4
ATOM      4  C   UNL     1      86.693 124.097 131.415  1.00  0.00     0.000 C 
BRANCH   4   5
ATOM      5  C   UNL     1      88.146 123.862 130.964  1.00  0.00     0.006 C 
BRANCH   5   6
ATOM      6  C   UNL     1      88.283 122.867 129.798  1.00  0.00     0.053 C 
BRANCH   6   7
ATOM      7  C   UNL     1      88.592 121.476 130.261  1.00  0.00     0.041 C 
ATOM      8  O   UNL     1      87.993 120.491 129.755  1.00  0.00    -0.550 OA
ATOM      9  O   UNL     1      89.517 121.267 131.277  1.00  0.00    -0.550 OA
ENDBRANCH   6   7
ENDBRANCH   5   6
ENDBRANCH   4   5
ENDBRANCH   3   4
ENDBRANCH   2   3
ENDBRANCH   1   2
BRANCH   1  10
ATOM     10  C   UNL     1      83.666 124.506 128.337  1.00  0.00     0.000 C 
BRANCH  10  11
ATOM     11  C   UNL     1      82.904 124.153 127.046  1.00  0.00    -0.000 C 
BRANCH  11  12
ATOM     12  C   UNL     1      83.722 124.290 125.748  1.00  0.00    -0.000 C 
BRANCH  12  13
ATOM     13  C   UNL     1      83.812 123.008 124.900  1.00  0.00    -0.000 C 
BRANCH  13  14
ATOM     14  C   UNL     1      85.022 122.135 125.263  1.00  0.00    -0.000 C 
BRANCH  14  15
ATOM     15  C   UNL     1      84.626 121.032 126.251  1.00  0.00    -0.003 C 
ATOM     16  C   UNL     1      85.243 121.275 127.626  1.00  0.00     0.004 C 
ENDBRANCH  14  15
ENDBRANCH  13  14
ENDBRANCH  12  13
ENDBRANCH  11  12
ENDBRANCH  10  11
ENDBRANCH   1  10
TORSDOF 12
ENDMDL
MODEL 4
REMARK VINA RESULT:    -4.347      2.539      5.609
REMARK INTER + INTRA:          -8.997
REMARK INTER:                  -7.570
REMARK INTRA:                  -1.426
REMARK UNBOUND:                -1.601
REMARK SMILES CCCCCCCCCCCCCC(=O)[O-]
REMARK SMILES IDX 8 1 9 2 10 3 11 4 12 5 13 6 14 7 15 8 16 9 7 10 6 11 5 12
REMARK SMILES IDX 4 13 3 14 2 15 1 16
REMARK H PARENT
REMARK Flexibility Score: inf
ROOT
ATOM      1  C   UNL     1      84.498 125.638 129.626  1.00  0.00     0.000 C 
ENDROOT
BRANCH   1   2
ATOM      2  C   UNL     1      83.242 124.971 129.040  1.00  0.00     0.000 C 
BRANCH   2   3
ATOM      3  C   UNL     1      83.322 123.436 129.067  1.00  0.00     0.000 C 
BRANCH   3   4
ATOM      4  C   UNL     1      83.494 122.830 127.663  1.00  0.00     0.000 C 
BRANCH   4   5
ATOM      5  C   UNL     1      82.979 123.751 126.542  1.00  0.00     0.006 C 
BRANCH   5   6
ATOM      6  C   UNL     1      84.042 124.102 125.486  1.00  0.00     0.053 C 
BRANCH   6   7
ATOM      7  C   UNL     1      84.404 122.932 124.623  1.00  0.00     0.041 C 
ATOM      8  O   UNL     1      85.597 122.533 124.563  1.00  0.00    -0.550 OA
ATOM      9  O   UNL     1      83.431 122.302 123.857  1.00  0.00    -0.550 OA
ENDBRANCH   6   7
ENDBRANCH   5   6
ENDBRANCH   4   5
ENDBRANCH   3   4
ENDBRANCH   2   3
ENDBRANCH   1   2
BRANCH   1  10
ATOM     10  C   UNL     1      85.519 126.030 128.537  1.00  0.00     0.000 C 
BRANCH  10  11
ATOM     11  C   UNL     1      86.695 125.044 128.404  1.00  0.00    -0.000 C 
BRANCH  11  12
ATOM     12  C   UNL     1      87.013 124.233 129.675  1.00  0.00    -0.000 C 
BRANCH  12  13
ATOM     13  C   UNL     1      87.166 122.716 129.455  1.00  0.00    -0.000 C 
BRANCH  13  14
ATOM     14  C   UNL     1      88.448 122.148 130.080  1.00  0.00    -0.000 C 
BRANCH  14  15
ATOM     15  C   UNL     1      88.129 121.329 131.336  1.00  0.00    -0.003 C 
ATOM     16  C   UNL     1      87.022 120.313 131.067  1.00  0.00     0.004 C 
ENDBRANCH  14  15
ENDBRANCH  13  14
ENDBRANCH  12  13
ENDBRANCH  11  12
ENDBRANCH  10  11
ENDBRANCH   1  10
TORSDOF 12
ENDMDL
MODEL 5
REMARK VINA RESULT:    -4.337      2.799      5.652
REMARK INTER + INTRA:          -8.980
REMARK INTER:                  -7.548
REMARK INTRA:                  -1.432
REMARK UNBOUND:                -1.601
REMARK SMILES CCCCCCCCCCCCCC(=O)[O-]
REMARK SMILES IDX 8 1 9 2 10 3 11 4 12 5 13 6 14 7 15 8 16 9 7 10 6 11 5 12
REMARK SMILES IDX 4 13 3 14 2 15 1 16
REMARK H PARENT
REMARK Flexibility Score: inf
ROOT
ATOM      1  C   UNL     1      86.006 124.478 130.419  1.00  0.00     0.000 C 
ENDROOT
BRANCH   1   2
ATOM      2  C   UNL     1      86.511 124.432 128.967  1.00  0.00     0.000 C 
BRANCH   2   3
ATOM      3  C   UNL     1      85.528 125.079 127.978  1.00  0.00     0.000 C 
BRANCH   3   4
ATOM      4  C   UNL     1      84.094 124.545 128.136  1.00  0.00     0.000 C 
BRANCH   4   5
ATOM      5  C   UNL     1      83.711 123.517 127.055  1.00  0.00     0.006 C 
BRANCH   5   6
ATOM      6  C   UNL     1      83.925 124.018 125.616  1.00  0.00     0.053 C 
BRANCH   6   7
ATOM      7  C   UNL     1      84.358 122.927 124.685  1.00  0.00     0.041 C 
ATOM      8  O   UNL     1      83.569 122.493 123.806  1.00  0.00    -0.550 OA
ATOM      9  O   UNL     1      85.622 122.363 124.810  1.00  0.00    -0.550 OA
ENDBRANCH   6   7
ENDBRANCH   5   6
ENDBRANCH   4   5
ENDBRANCH   3   4
ENDBRANCH   2   3
ENDBRANCH   1   2
BRANCH   1  10
ATOM     10  C   UNL     1      87.076 124.020 131.431  1.00  0.00     0.000 C 
BRANCH  10  11
ATOM     11  C   UNL     1      88.351 123.457 130.776  1.00  0.00    -0.000 C 
BRANCH  11  12
ATOM     12  C   UNL     1      88.579 121.947 130.981  1.00  0.00    -0.000 C 
BRANCH  12  13
ATOM     13  C   UNL     1      87.408 121.200 131.648  1.00  0.00    -0.000 C 
BRANCH  13  14
ATOM     14  C   UNL     1      86.886 120.031 130.802  1.00  0.00    -0.000 C 
BRANCH  14  15
ATOM     15  C   UNL     1      87.144 120.274 129.310  1.00  0.00    -0.003 C 
ATOM     16  C   UNL     1      85.892 120.797 128.612  1.00  0.00     0.004 C 
ENDBRANCH  14  15
ENDBRANCH  13  14
ENDBRANCH  12  13
ENDBRANCH  11  12
ENDBRANCH  10  11
ENDBRANCH   1  10
TORSDOF 12
ENDMDL
MODEL 6
REMARK VINA RESULT:    -4.200      2.812      5.674
REMARK INTER + INTRA:          -8.746
REMARK INTER:                  -7.019
REMARK INTRA:                  -1.727
REMARK UNBOUND:                -1.601
REMARK SMILES CCCCCCCCCCCCCC(=O)[O-]
REMARK SMILES IDX 8 1 9 2 10 3 11 4 12 5 13 6 14 7 15 8 16 9 7 10 6 11 5 12
REMARK SMILES IDX 4 13 3 14 2 15 1 16
REMARK H PARENT
REMARK Flexibility Score: inf
ROOT
ATOM      1  C   UNL     1      88.030 121.113 130.112  1.00  0.00     0.000 C 
ENDROOT
BRANCH   1   2
ATOM      2  C   UNL     1      86.835 120.309 130.650  1.00  0.00     0.000 C 
BRANCH   2   3
ATOM      3  C   UNL     1      85.689 120.201 129.631  1.00  0.00     0.000 C 
BRANCH   3   4
ATOM      4  C   UNL     1      85.367 121.547 128.960  1.00  0.00     0.000 C 
BRANCH   4   5
ATOM      5  C   UNL     1      85.260 121.447 127.427  1.00  0.00     0.006 C 
BRANCH   5   6
ATOM      6  C   UNL     1      84.123 122.291 126.826  1.00  0.00     0.053 C 
BRANCH   6   7
ATOM      7  C   UNL     1      84.549 123.041 125.600  1.00  0.00     0.041 C 
ATOM      8  O   UNL     1      84.088 124.189 125.367  1.00  0.00    -0.550 OA
ATOM      9  O   UNL     1      85.429 122.459 124.696  1.00  0.00    -0.550 OA
ENDBRANCH   6   7
ENDBRANCH   5   6
ENDBRANCH   4   5
ENDBRANCH   3   4
ENDBRANCH   2   3
ENDBRANCH   1   2
BRANCH   1  10
ATOM     10  C   UNL     1      88.721 121.950 131.210  1.00  0.00     0.000 C 
BRANCH  10  11
ATOM     11  C   UNL     1      88.466 123.464 131.091  1.00  0.00    -0.000 C 
BRANCH  11  12
ATOM     12  C   UNL     1      87.124 123.948 131.671  1.00  0.00    -0.000 C 
BRANCH  12  13
ATOM     13  C   UNL     1      86.244 124.746 130.691  1.00  0.00    -0.000 C 
BRANCH  13  14
ATOM     14  C   UNL     1      86.859 124.856 129.289  1.00  0.00    -0.000 C 
BRANCH  14  15
ATOM     15  C   UNL     1      85.818 125.336 128.270  1.00  0.00    -0.003 C 
ATOM     16  C   UNL     1      84.472 125.599 128.938  1.00  0.00     0.004 C 
ENDBRANCH  14  15
ENDBRANCH  13  14
ENDBRANCH  12  13
ENDBRANCH  11  12
ENDBRANCH  10  11
ENDBRANCH   1  10
TORSDOF 12
ENDMDL
MODEL 7
REMARK VINA RESULT:    -4.145      2.825      4.546
REMARK INTER + INTRA:          -8.653
REMARK INTER:                  -7.170
REMARK INTRA:                  -1.483
REMARK UNBOUND:                -1.601
REMARK SMILES CCCCCCCCCCCCCC(=O)[O-]
REMARK SMILES IDX 8 1 9 2 10 3 11 4 12 5 13 6 14 7 15 8 16 9 7 10 6 11 5 12
REMARK SMILES IDX 4 13 3 14 2 15 1 16
REMARK H PARENT
REMARK Flexibility Score: inf
ROOT
ATOM      1  C   UNL     1      87.127 120.997 131.433  1.00  0.00     0.000 C 
ENDROOT
BRANCH   1   2
ATOM      2  C   UNL     1      88.462 121.718 131.177  1.00  0.00     0.000 C 
BRANCH   2   3
ATOM      3  C   UNL     1      88.297 123.242 131.063  1.00  0.00     0.000 C 
BRANCH   3   4
ATOM      4  C   UNL     1      87.145 123.777 131.930  1.00  0.00     0.000 C 
BRANCH   4   5
ATOM      5  C   UNL     1      86.120 124.601 131.129  1.00  0.00     0.006 C 
BRANCH   5   6
ATOM      6  C   UNL     1      86.564 124.919 129.690  1.00  0.00     0.053 C 
BRANCH   6   7
ATOM      7  C   UNL     1      85.559 125.746 128.947  1.00  0.00     0.041 C 
ATOM      8  O   UNL     1      85.843 126.226 127.818  1.00  0.00    -0.550 OA
ATOM      9  O   UNL     1      84.320 126.016 129.515  1.00  0.00    -0.550 OA
ENDBRANCH   6   7
ENDBRANCH   5   6
ENDBRANCH   4   5
ENDBRANCH   3   4
ENDBRANCH   2   3
ENDBRANCH   1   2
BRANCH   1  10
ATOM     10  C   UNL     1      86.875 119.851 130.430  1.00  0.00     0.000 C 
BRANCH  10  11
ATOM     11  C   UNL     1      86.430 120.331 129.036  1.00  0.00    -0.000 C 
BRANCH  11  12
ATOM     12  C   UNL     1      85.396 121.472 129.038  1.00  0.00    -0.000 C 
BRANCH  12  13
ATOM     13  C   UNL     1      85.219 122.190 127.686  1.00  0.00    -0.000 C 
BRANCH  13  14
ATOM     14  C   UNL     1      83.751 122.293 127.251  1.00  0.00    -0.000 C 
BRANCH  14  15
ATOM     15  C   UNL     1      83.367 123.747 126.956  1.00  0.00    -0.003 C 
ATOM     16  C   UNL     1      83.934 124.207 125.616  1.00  0.00     0.004 C 
ENDBRANCH  14  15
ENDBRANCH  13  14
ENDBRANCH  12  13
ENDBRANCH  11  12
ENDBRANCH  10  11
ENDBRANCH   1  10
TORSDOF 12
ENDMDL
MODEL 8
REMARK VINA RESULT:    -4.138      1.613      4.226
REMARK INTER + INTRA:          -8.642
REMARK INTER:                  -7.151
REMARK INTRA:                  -1.491
REMARK UNBOUND:                -1.601
REMARK SMILES CCCCCCCCCCCCCC(=O)[O-]
REMARK SMILES IDX 8 1 9 2 10 3 11 4 12 5 13 6 14 7 15 8 16 9 7 10 6 11 5 12
REMARK SMILES IDX 4 13 3 14 2 15 1 16
REMARK H PARENT
REMARK Flexibility Score: inf
ROOT
ATOM      1  C   UNL     1      84.489 122.709 124.830  1.00  0.00     0.000 C 
ENDROOT
BRANCH   1   2
ATOM      2  C   UNL     1      83.488 121.556 125.017  1.00  0.00     0.000 C 
BRANCH   2   3
ATOM      3  C   UNL     1      83.903 120.591 126.140  1.00  0.00     0.000 C 
BRANCH   3   4
ATOM      4  C   UNL     1      85.209 121.017 126.832  1.00  0.00     0.000 C 
BRANCH   4   5
ATOM      5  C   UNL     1      85.176 120.817 128.358  1.00  0.00     0.006 C 
BRANCH   5   6
ATOM      6  C   UNL     1      86.330 121.511 129.103  1.00  0.00     0.053 C 
BRANCH   6   7
ATOM      7  C   UNL     1      87.466 120.580 129.397  1.00  0.00     0.041 C 
ATOM      8  O   UNL     1      88.326 120.883 130.266  1.00  0.00    -0.550 OA
ATOM      9  O   UNL     1      87.597 119.391 128.690  1.00  0.00    -0.550 OA
ENDBRANCH   6   7
ENDBRANCH   5   6
ENDBRANCH   4   5
ENDBRANCH   3   4
ENDBRANCH   2   3
ENDBRANCH   1   2
BRANCH   1  10
ATOM     10  C   UNL     1      83.879 124.082 125.181  1.00  0.00     0.000 C 
BRANCH  10  11
ATOM     11  C   UNL     1      83.002 124.068 126.447  1.00  0.00    -0.000 C 
BRANCH  11  12
ATOM     12  C   UNL     1      83.766 124.252 127.772  1.00  0.00    -0.000 C 
BRANCH  12  13
ATOM     13  C   UNL     1      85.137 124.942 127.640  1.00  0.00    -0.000 C 
BRANCH  13  14
ATOM     14  C   UNL     1      85.534 125.728 128.897  1.00  0.00    -0.000 C 
BRANCH  14  15
ATOM     15  C   UNL     1      84.403 125.716 129.932  1.00  0.00    -0.003 C 
ATOM     16  C   UNL     1      84.911 125.274 131.301  1.00  0.00     0.004 C 
ENDBRANCH  14  15
ENDBRANCH  13  14
ENDBRANCH  12  13
ENDBRANCH  11  12
ENDBRANCH  10  11
ENDBRANCH   1  10
TORSDOF 12
ENDMDL
MODEL 9
REMARK VINA RESULT:    -4.098      2.562      3.943
REMARK INTER + INTRA:          -8.573
REMARK INTER:                  -6.600
REMARK INTRA:                  -1.972
REMARK UNBOUND:                -1.601
REMARK SMILES CCCCCCCCCCCCCC(=O)[O-]
REMARK SMILES IDX 8 1 9 2 10 3 11 4 12 5 13 6 14 7 15 8 16 9 7 10 6 11 5 12
REMARK SMILES IDX 4 13 3 14 2 15 1 16
REMARK H PARENT
REMARK Flexibility Score: inf
ROOT
ATOM      1  C   UNL     1      87.470 124.073 131.730  1.00  0.00     0.000 C 
ENDROOT
BRANCH   1   2
ATOM      2  C   UNL     1      87.948 123.695 130.318  1.00  0.00     0.000 C 
BRANCH   2   3
ATOM      3  C   UNL     1      88.476 122.253 130.241  1.00  0.00     0.000 C 
BRANCH   3   4
ATOM      4  C   UNL     1      88.006 121.388 131.423  1.00  0.00     0.000 C 
BRANCH   4   5
ATOM      5  C   UNL     1      86.976 120.318 131.015  1.00  0.00     0.006 C 
BRANCH   5   6
ATOM      6  C   UNL     1      86.969 120.002 129.509  1.00  0.00     0.053 C 
BRANCH   6   7
ATOM      7  C   UNL     1      85.675 119.399 129.054  1.00  0.00     0.041 C 
ATOM      8  O   UNL     1      84.872 118.914 129.893  1.00  0.00    -0.550 OA
ATOM      9  O   UNL     1      85.370 119.341 127.699  1.00  0.00    -0.550 OA
ENDBRANCH   6   7
ENDBRANCH   5   6
ENDBRANCH   4   5
ENDBRANCH   3   4
ENDBRANCH   2   3
ENDBRANCH   1   2
BRANCH   1  10
ATOM     10  C   UNL     1      86.004 124.558 131.746  1.00  0.00     0.000 C 
BRANCH  10  11
ATOM     11  C   UNL     1      84.981 123.452 131.427  1.00  0.00    -0.000 C 
BRANCH  11  12
ATOM     12  C   UNL     1      84.201 123.645 130.113  1.00  0.00    -0.000 C 
BRANCH  12  13
ATOM     13  C   UNL     1      84.748 122.850 128.912  1.00  0.00    -0.000 C 
BRANCH  13  14
ATOM     14  C   UNL     1      85.240 123.754 127.772  1.00  0.00    -0.000 C 
BRANCH  14  15
ATOM     15  C   UNL     1      84.863 125.217 128.030  1.00  0.00    -0.003 C 
ATOM     16  C   UNL     1      86.101 126.066 128.303  1.00  0.00     0.004 C 
ENDBRANCH  14  15
ENDBRANCH  13  14
ENDBRANCH  12  13
ENDBRANCH  11  12
ENDBRANCH  10  11
ENDBRANCH   1  10
TORSDOF 12
ENDMDL
