MODEL 1
REMARK VINA RESULT:    11.095      0.000      0.000
REMARK INTER + INTRA:          19.052
REMARK INTER:                  19.527
REMARK INTRA:                  -0.475
REMARK UNBOUND:                -0.475
REMARK SMILES CCCCCCCCCCCCCCC(=O)[O-]
REMARK SMILES IDX 9 1 10 2 11 3 12 4 13 5 14 6 15 7 16 8 17 9 8 10 7 11 6 12
REMARK SMILES IDX 5 13 4 14 3 15 2 16 1 17
REMARK H PARENT
REMARK Flexibility Score: inf
ROOT
ATOM      1  C   UNL     1       4.717  48.476  11.440  1.00  0.00     0.000 C 
ENDROOT
BRANCH   1   2
ATOM      2  C   UNL     1       4.248  48.166  10.010  1.00  0.00     0.000 C 
BRANCH   2   3
ATOM      3  C   UNL     1       5.022  48.964   8.945  1.00  0.00     0.000 C 
BRANCH   3   4
ATOM      4  C   UNL     1       6.104  49.871   9.556  1.00  0.00     0.000 C 
BRANCH   4   5
ATOM      5  C   UNL     1       7.487  49.653   8.919  1.00  0.00     0.006 C 
BRANCH   5   6
ATOM      6  C   UNL     1       7.877  48.170   8.875  1.00  0.00     0.053 C 
BRANCH   6   7
ATOM      7  C   UNL     1       7.810  47.534  10.230  1.00  0.00     0.041 C 
ATOM      8  O   UNL     1       8.393  48.068  11.210  1.00  0.00    -0.550 OA
ATOM      9  O   UNL     1       7.129  46.336  10.404  1.00  0.00    -0.550 OA
ENDBRANCH   6   7
ENDBRANCH   5   6
ENDBRANCH   4   5
ENDBRANCH   3   4
ENDBRANCH   2   3
ENDBRANCH   1   2
BRANCH   1  10
ATOM     10  C   UNL     1       3.748  47.938  12.508  1.00  0.00     0.000 C 
BRANCH  10  11
ATOM     11  C   UNL     1       4.382  47.884  13.908  1.00  0.00    -0.000 C 
BRANCH  11  12
ATOM     12  C   UNL     1       3.336  47.809  15.031  1.00  0.00    -0.000 C 
BRANCH  12  13
ATOM     13  C   UNL     1       2.770  46.386  15.157  1.00  0.00    -0.000 C 
BRANCH  13  14
ATOM     14  C   UNL     1       3.255  45.664  16.424  1.00  0.00    -0.000 C 
BRANCH  14  15
ATOM     15  C   UNL     1       2.797  46.361  17.715  1.00  0.00    -0.000 C 
BRANCH  15  16
ATOM     16  C   UNL     1       2.551  45.338  18.831  1.00  0.00    -0.003 C 
ATOM     17  C   UNL     1       1.338  45.722  19.672  1.00  0.00     0.004 C 
ENDBRANCH  15  16
ENDBRANCH  14  15
ENDBRANCH  13  14
ENDBRANCH  12  13
ENDBRANCH  11  12
ENDBRANCH  10  11
ENDBRANCH   1  10
TORSDOF 13
ENDMDL
MODEL 2
REMARK VINA RESULT:    12.217     10.974     11.987
REMARK INTER + INTRA:          21.027
REMARK INTER:                  21.469
REMARK INTRA:                  -0.442
REMARK UNBOUND:                -0.475
REMARK SMILES CCCCCCCCCCCCCCC(=O)[O-]
REMARK SMILES IDX 9 1 10 2 11 3 12 4 13 5 14 6 15 7 16 8 17 9 8 10 7 11 6 12
REMARK SMILES IDX 5 13 4 14 3 15 2 16 1 17
REMARK H PARENT
REMARK Flexibility Score: inf
ROOT
ATOM      1  C   UNL     1      15.029  50.201  10.707  1.00  0.00     0.000 C 
ENDROOT
BRANCH   1   2
ATOM      2  C   UNL     1      14.959  49.712   9.252  1.00  0.00     0.000 C 
BRANCH   2   3
ATOM      3  C   UNL     1      14.516  48.242   9.141  1.00  0.00     0.000 C 
BRANCH   3   4
ATOM      4  C   UNL     1      15.627  47.257   9.541  1.00  0.00     0.000 C 
BRANCH   4   5
ATOM      5  C   UNL     1      15.464  45.880   8.875  1.00  0.00     0.006 C 
BRANCH   5   6
ATOM      6  C   UNL     1      14.029  45.350   8.985  1.00  0.00     0.053 C 
BRANCH   6   7
ATOM      7  C   UNL     1      13.996  43.867   9.198  1.00  0.00     0.041 C 
ATOM      8  O   UNL     1      12.896  43.257   9.238  1.00  0.00    -0.550 OA
ATOM      9  O   UNL     1      15.180  43.164   9.383  1.00  0.00    -0.550 OA
ENDBRANCH   6   7
ENDBRANCH   5   6
ENDBRANCH   4   5
ENDBRANCH   3   4
ENDBRANCH   2   3
ENDBRANCH   1   2
BRANCH   1  10
ATOM     10  C   UNL     1      15.245  51.721  10.808  1.00  0.00     0.000 C 
BRANCH  10  11
ATOM     11  C   UNL     1      14.771  52.298  12.152  1.00  0.00    -0.000 C 
BRANCH  11  12
ATOM     12  C   UNL     1      15.779  53.282  12.765  1.00  0.00    -0.000 C 
BRANCH  12  13
ATOM     13  C   UNL     1      16.825  52.539  13.610  1.00  0.00    -0.000 C 
BRANCH  13  14
ATOM     14  C   UNL     1      16.336  52.243  15.036  1.00  0.00    -0.000 C 
BRANCH  14  15
ATOM     15  C   UNL     1      17.487  51.917  16.001  1.00  0.00    -0.000 C 
BRANCH  15  16
ATOM     16  C   UNL     1      17.038  50.911  17.068  1.00  0.00    -0.003 C 
ATOM     17  C   UNL     1      18.235  50.213  17.707  1.00  0.00     0.004 C 
ENDBRANCH  15  16
ENDBRANCH  14  15
ENDBRANCH  13  14
ENDBRANCH  12  13
ENDBRANCH  11  12
ENDBRANCH  10  11
ENDBRANCH   1  10
TORSDOF 13
ENDMDL
MODEL 3
REMARK VINA RESULT:    12.334      1.678      3.174
REMARK INTER + INTRA:          21.232
REMARK INTER:                  19.052
REMARK INTRA:                   2.179
REMARK UNBOUND:                -0.475
REMARK SMILES CCCCCCCCCCCCCCC(=O)[O-]
REMARK SMILES IDX 9 1 10 2 11 3 12 4 13 5 14 6 15 7 16 8 17 9 8 10 7 11 6 12
REMARK SMILES IDX 5 13 4 14 3 15 2 16 1 17
REMARK H PARENT
REMARK Flexibility Score: inf
ROOT
ATOM      1  C   UNL     1       6.092  48.889   9.458  1.00  0.00     0.000 C 
ENDROOT
BRANCH   1   2
ATOM      2  C   UNL     1       7.098  49.956   8.996  1.00  0.00     0.000 C 
BRANCH   2   3
ATOM      3  C   UNL     1       8.543  49.427   8.949  1.00  0.00     0.000 C 
BRANCH   3   4
ATOM      4  C   UNL     1       8.610  47.891   8.922  1.00  0.00     0.000 C 
BRANCH   4   5
ATOM      5  C   UNL     1       7.412  47.235   9.628  1.00  0.00     0.006 C 
BRANCH   5   6
ATOM      6  C   UNL     1       7.789  46.664  11.001  1.00  0.00     0.053 C 
BRANCH   6   7
ATOM      7  C   UNL     1       7.948  47.741  12.029  1.00  0.00     0.041 C 
ATOM      8  O   UNL     1       8.908  48.553  11.953  1.00  0.00    -0.550 OA
ATOM      9  O   UNL     1       7.054  47.829  13.089  1.00  0.00    -0.550 OA
ENDBRANCH   6   7
ENDBRANCH   5   6
ENDBRANCH   4   5
ENDBRANCH   3   4
ENDBRANCH   2   3
ENDBRANCH   1   2
BRANCH   1  10
ATOM     10  C   UNL     1       4.634  49.299   9.187  1.00  0.00     0.000 C 
BRANCH  10  11
ATOM     11  C   UNL     1       3.675  48.841  10.300  1.00  0.00    -0.000 C 
BRANCH  11  12
ATOM     12  C   UNL     1       4.336  47.873  11.293  1.00  0.00    -0.000 C 
BRANCH  12  13
ATOM     13  C   UNL     1       3.304  47.319  12.287  1.00  0.00    -0.000 C 
BRANCH  13  14
ATOM     14  C   UNL     1       3.732  47.502  13.751  1.00  0.00    -0.000 C 
BRANCH  14  15
ATOM     15  C   UNL     1       2.549  47.420  14.729  1.00  0.00    -0.000 C 
BRANCH  15  16
ATOM     16  C   UNL     1       3.002  46.890  16.094  1.00  0.00    -0.003 C 
ATOM     17  C   UNL     1       3.696  45.538  15.959  1.00  0.00     0.004 C 
ENDBRANCH  15  16
ENDBRANCH  14  15
ENDBRANCH  13  14
ENDBRANCH  12  13
ENDBRANCH  11  12
ENDBRANCH  10  11
ENDBRANCH   1  10
TORSDOF 13
ENDMDL
MODEL 4
REMARK VINA RESULT:    12.709      5.937      9.700
REMARK INTER + INTRA:          21.892
REMARK INTER:                  21.532
REMARK INTRA:                   0.361
REMARK UNBOUND:                -0.475
REMARK SMILES CCCCCCCCCCCCCCC(=O)[O-]
REMARK SMILES IDX 9 1 10 2 11 3 12 4 13 5 14 6 15 7 16 8 17 9 8 10 7 11 6 12
REMARK SMILES IDX 5 13 4 14 3 15 2 16 1 17
REMARK H PARENT
REMARK Flexibility Score: inf
ROOT
ATOM      1  C   UNL     1      12.257  43.878  10.365  1.00  0.00     0.000 C 
ENDROOT
BRANCH   1   2
ATOM      2  C   UNL     1      13.707  43.484  10.687  1.00  0.00     0.000 C 
BRANCH   2   3
ATOM      3  C   UNL     1      14.442  42.883   9.476  1.00  0.00     0.000 C 
BRANCH   3   4
ATOM      4  C   UNL     1      15.741  43.633   9.139  1.00  0.00     0.000 C 
BRANCH   4   5
ATOM      5  C   UNL     1      15.508  45.131   8.876  1.00  0.00     0.006 C 
BRANCH   5   6
ATOM      6  C   UNL     1      16.008  46.007  10.032  1.00  0.00     0.053 C 
BRANCH   6   7
ATOM      7  C   UNL     1      15.243  47.291  10.132  1.00  0.00     0.041 C 
ATOM      8  O   UNL     1      14.658  47.598  11.203  1.00  0.00    -0.550 OA
ATOM      9  O   UNL     1      15.150  48.133   9.031  1.00  0.00    -0.550 OA
ENDBRANCH   6   7
ENDBRANCH   5   6
ENDBRANCH   4   5
ENDBRANCH   3   4
ENDBRANCH   2   3
ENDBRANCH   1   2
BRANCH   1  10
ATOM     10  C   UNL     1      12.123  44.561   8.993  1.00  0.00     0.000 C 
BRANCH  10  11
ATOM     11  C   UNL     1      12.724  45.977   8.976  1.00  0.00    -0.000 C 
BRANCH  11  12
ATOM     12  C   UNL     1      11.666  47.074   9.169  1.00  0.00    -0.000 C 
BRANCH  12  13
ATOM     13  C   UNL     1      10.257  46.534   8.876  1.00  0.00    -0.000 C 
BRANCH  13  14
ATOM     14  C   UNL     1       9.185  47.634   8.889  1.00  0.00    -0.000 C 
BRANCH  14  15
ATOM     15  C   UNL     1       7.765  47.075   9.071  1.00  0.00    -0.000 C 
BRANCH  15  16
ATOM     16  C   UNL     1       6.716  48.184   8.922  1.00  0.00    -0.003 C 
ATOM     17  C   UNL     1       5.543  47.964   9.871  1.00  0.00     0.004 C 
ENDBRANCH  15  16
ENDBRANCH  14  15
ENDBRANCH  13  14
ENDBRANCH  12  13
ENDBRANCH  11  12
ENDBRANCH  10  11
ENDBRANCH   1  10
TORSDOF 13
ENDMDL
MODEL 5
REMARK VINA RESULT:    12.909      2.653      7.528
REMARK INTER + INTRA:          22.245
REMARK INTER:                  21.573
REMARK INTRA:                   0.672
REMARK UNBOUND:                -0.475
REMARK SMILES CCCCCCCCCCCCCCC(=O)[O-]
REMARK SMILES IDX 9 1 10 2 11 3 12 4 13 5 14 6 15 7 16 8 17 9 8 10 7 11 6 12
REMARK SMILES IDX 5 13 4 14 3 15 2 16 1 17
REMARK H PARENT
REMARK Flexibility Score: inf
ROOT
ATOM      1  C   UNL     1       4.343  47.935  11.035  1.00  0.00     0.000 C 
ENDROOT
BRANCH   1   2
ATOM      2  C   UNL     1       4.543  48.195  12.536  1.00  0.00     0.000 C 
BRANCH   2   3
ATOM      3  C   UNL     1       3.722  47.238  13.419  1.00  0.00     0.000 C 
BRANCH   3   4
ATOM      4  C   UNL     1       3.446  47.814  14.818  1.00  0.00     0.000 C 
BRANCH   4   5
ATOM      5  C   UNL     1       2.519  46.916  15.654  1.00  0.00     0.006 C 
BRANCH   5   6
ATOM      6  C   UNL     1       3.285  46.133  16.729  1.00  0.00     0.053 C 
BRANCH   6   7
ATOM      7  C   UNL     1       3.879  44.871  16.184  1.00  0.00     0.041 C 
ATOM      8  O   UNL     1       3.154  44.040  15.577  1.00  0.00    -0.550 OA
ATOM      9  O   UNL     1       5.228  44.598  16.373  1.00  0.00    -0.550 OA
ENDBRANCH   6   7
ENDBRANCH   5   6
ENDBRANCH   4   5
ENDBRANCH   3   4
ENDBRANCH   2   3
ENDBRANCH   1   2
BRANCH   1  10
ATOM     10  C   UNL     1       3.838  49.179  10.284  1.00  0.00     0.000 C 
BRANCH  10  11
ATOM     11  C   UNL     1       4.576  49.407   8.954  1.00  0.00    -0.000 C 
BRANCH  11  12
ATOM     12  C   UNL     1       5.914  48.655   8.881  1.00  0.00    -0.000 C 
BRANCH  12  13
ATOM     13  C   UNL     1       7.096  49.622   9.054  1.00  0.00    -0.000 C 
BRANCH  13  14
ATOM     14  C   UNL     1       8.150  49.099  10.043  1.00  0.00    -0.000 C 
BRANCH  14  15
ATOM     15  C   UNL     1       7.660  47.883  10.843  1.00  0.00    -0.000 C 
BRANCH  15  16
ATOM     16  C   UNL     1       7.282  46.728   9.908  1.00  0.00    -0.003 C 
ATOM     17  C   UNL     1       8.375  46.473   8.876  1.00  0.00     0.004 C 
ENDBRANCH  15  16
ENDBRANCH  14  15
ENDBRANCH  13  14
ENDBRANCH  12  13
ENDBRANCH  11  12
ENDBRANCH  10  11
ENDBRANCH   1  10
TORSDOF 13
ENDMDL
