MODEL 1
REMARK VINA RESULT:    -1.362      0.000      0.000
REMARK INTER + INTRA:          -1.046
REMARK INTER:                  -1.681
REMARK INTRA:                   0.635
REMARK UNBOUND:                 0.635
REMARK SMILES C=C1[C@@H]2CC[C@H]3[C@@H]2C(C)(C)CCC[C@@]13C
REMARK SMILES IDX 14 1 6 2 7 3 3 4 2 5 1 6 4 7 5 8 15 9 8 10 9 11 10 12 11 13
REMARK SMILES IDX 13 15 12 16
REMARK H PARENT
REMARK Flexibility Score: 80.00
ROOT
ATOM      1  C   UNL     1     137.839 137.036 122.307  1.00  0.00    -0.008 C 
ATOM      2  C   UNL     1     137.670 138.045 123.511  1.00  0.00     0.003 C 
ATOM      3  C   UNL     1     136.893 137.250 124.580  1.00  0.00     0.006 C 
ATOM      4  C   UNL     1     135.782 136.840 123.610  1.00  0.00     0.019 C 
ATOM      5  C   UNL     1     136.563 136.248 122.471  1.00  0.00    -0.068 C 
ATOM      6  C   UNL     1     136.141 135.250 121.686  1.00  0.00     0.009 C 
ATOM      7  C   UNL     1     135.286 138.226 123.132  1.00  0.00     0.008 C 
ATOM      8  C   UNL     1     136.572 139.088 123.163  1.00  0.00     0.005 C 
ATOM      9  C   UNL     1     137.879 137.730 120.918  1.00  0.00     0.016 C 
ENDROOT
BRANCH   3  10
ATOM     10  C   UNL     1     137.638 136.141 125.442  1.00  0.00    -0.032 C 
ATOM     11  C   UNL     1     136.760 134.877 125.624  1.00  0.00     0.011 C 
ATOM     12  C   UNL     1     137.863 136.719 126.867  1.00  0.00     0.011 C 
BRANCH  10  13
ATOM     13  C   UNL     1     139.054 135.754 124.928  1.00  0.00     0.007 CG0
ATOM     14  G   UNL     1     139.109 135.126 123.539  1.00  0.00     0.000 G0
ENDBRANCH  10  13
ENDBRANCH   3  10
BRANCH   1  15
ATOM     15  C   UNL     1     139.117 136.165 122.427  1.00  0.00     0.011 C 
BRANCH  15  16
ATOM     16  C   UNL     1     139.112 135.121 123.540  1.00  0.00     0.001 CG0
ATOM     17  G   UNL     1     139.056 135.749 124.929  1.00  0.00     0.000 G0
ENDBRANCH  15  16
ENDBRANCH   1  15
TORSDOF 0
ENDMDL
MODEL 2
REMARK VINA RESULT:    -1.085      1.490      3.342
REMARK INTER + INTRA:          -0.704
REMARK INTER:                  -1.359
REMARK INTRA:                   0.655
REMARK UNBOUND:                 0.635
REMARK SMILES C=C1[C@@H]2CC[C@H]3[C@@H]2C(C)(C)CCC[C@@]13C
REMARK SMILES IDX 14 1 6 2 7 3 3 4 2 5 1 6 4 7 5 8 15 9 8 10 9 11 10 12 11 13
REMARK SMILES IDX 13 15 12 16
REMARK H PARENT
REMARK Flexibility Score: 80.00
ROOT
ATOM      1  C   UNL     1     136.844 137.701 124.159  1.00  0.00    -0.008 C 
ATOM      2  C   UNL     1     138.003 136.884 124.855  1.00  0.00     0.003 C 
ATOM      3  C   UNL     1     138.160 135.617 123.990  1.00  0.00     0.006 C 
ATOM      4  C   UNL     1     136.673 135.267 124.055  1.00  0.00     0.019 C 
ATOM      5  C   UNL     1     136.028 136.553 123.620  1.00  0.00    -0.068 C 
ATOM      6  C   UNL     1     134.876 136.646 122.946  1.00  0.00     0.009 C 
ATOM      7  C   UNL     1     136.462 135.165 125.585  1.00  0.00     0.008 C 
ATOM      8  C   UNL     1     137.459 136.210 126.146  1.00  0.00     0.005 C 
ATOM      9  C   UNL     1     136.004 138.551 125.151  1.00  0.00     0.016 C 
ENDROOT
BRANCH   3  10
ATOM     10  C   UNL     1     138.891 135.705 122.581  1.00  0.00    -0.032 C 
ATOM     11  C   UNL     1     138.142 134.885 121.500  1.00  0.00     0.011 C 
ATOM     12  C   UNL     1     140.291 135.046 122.730  1.00  0.00     0.011 C 
BRANCH  10  13
ATOM     13  C   UNL     1     139.169 137.150 122.076  1.00  0.00     0.007 CG0
ATOM     14  G   UNL     1     137.937 137.997 121.774  1.00  0.00     0.000 G0
ENDBRANCH  10  13
ENDBRANCH   3  10
BRANCH   1  15
ATOM     15  C   UNL     1     137.363 138.658 123.053  1.00  0.00     0.011 C 
BRANCH  15  16
ATOM     16  C   UNL     1     137.911 137.989 121.796  1.00  0.00     0.001 CG0
ATOM     17  G   UNL     1     139.160 137.158 122.075  1.00  0.00     0.000 G0
ENDBRANCH  15  16
ENDBRANCH   1  15
TORSDOF 0
ENDMDL
MODEL 3
REMARK VINA RESULT:    -0.927     15.261     16.799
REMARK INTER + INTRA:          -0.508
REMARK INTER:                  -1.161
REMARK INTRA:                   0.653
REMARK UNBOUND:                 0.635
REMARK SMILES C=C1[C@@H]2CC[C@H]3[C@@H]2C(C)(C)CCC[C@@]13C
REMARK SMILES IDX 14 1 6 2 7 3 3 4 2 5 1 6 4 7 5 8 15 9 8 10 9 11 10 12 11 13
REMARK SMILES IDX 13 15 12 16
REMARK H PARENT
REMARK Flexibility Score: 80.00
ROOT
ATOM      1  C   UNL     1     136.922 152.644 122.542  1.00  0.00    -0.008 C 
ATOM      2  C   UNL     1     137.941 152.824 123.736  1.00  0.00     0.003 C 
ATOM      3  C   UNL     1     137.234 153.788 124.710  1.00  0.00     0.006 C 
ATOM      4  C   UNL     1     136.950 154.831 123.628  1.00  0.00     0.019 C 
ATOM      5  C   UNL     1     136.278 154.008 122.566  1.00  0.00    -0.068 C 
ATOM      6  C   UNL     1     135.333 154.454 121.730  1.00  0.00     0.009 C 
ATOM      7  C   UNL     1     138.382 155.123 123.120  1.00  0.00     0.008 C 
ATOM      8  C   UNL     1     139.099 153.761 123.292  1.00  0.00     0.005 C 
ATOM      9  C   UNL     1     137.610 152.387 121.174  1.00  0.00     0.016 C 
ENDROOT
BRANCH   3  10
ATOM     10  C   UNL     1     136.049 153.259 125.629  1.00  0.00    -0.032 C 
ATOM     11  C   UNL     1     134.877 154.271 125.684  1.00  0.00     0.011 C 
ATOM     12  C   UNL     1     136.589 153.145 127.082  1.00  0.00     0.011 C 
BRANCH  10  13
ATOM     13  C   UNL     1     135.528 151.838 125.271  1.00  0.00     0.007 CG0
ATOM     14  G   UNL     1     134.901 151.687 123.889  1.00  0.00     0.000 G0
ENDBRANCH  10  13
ENDBRANCH   3  10
BRANCH   1  15
ATOM     15  C   UNL     1     135.916 151.487 122.780  1.00  0.00     0.011 C 
BRANCH  15  16
ATOM     16  C   UNL     1     134.888 151.711 123.885  1.00  0.00     0.001 CG0
ATOM     17  G   UNL     1     135.530 151.822 125.264  1.00  0.00     0.000 G0
ENDBRANCH  15  16
ENDBRANCH   1  15
TORSDOF 0
ENDMDL
MODEL 4
REMARK VINA RESULT:    -0.062     14.976     16.904
REMARK INTER + INTRA:           0.559
REMARK INTER:                  -0.060
REMARK INTRA:                   0.619
REMARK UNBOUND:                 0.635
REMARK SMILES C=C1[C@@H]2CC[C@H]3[C@@H]2C(C)(C)CCC[C@@]13C
REMARK SMILES IDX 14 1 6 2 7 3 3 4 2 5 1 6 4 7 5 8 15 9 8 10 9 11 10 12 11 13
REMARK SMILES IDX 13 15 12 16
REMARK H PARENT
REMARK Flexibility Score: 80.00
ROOT
ATOM      1  C   UNL     1     137.249 153.007 122.114  1.00  0.00    -0.008 C 
ATOM      2  C   UNL     1     135.725 153.065 122.523  1.00  0.00     0.003 C 
ATOM      3  C   UNL     1     135.716 152.768 124.036  1.00  0.00     0.006 C 
ATOM      4  C   UNL     1     136.541 151.488 123.890  1.00  0.00     0.019 C 
ATOM      5  C   UNL     1     137.724 151.966 123.097  1.00  0.00    -0.068 C 
ATOM      6  C   UNL     1     138.965 151.474 123.194  1.00  0.00     0.009 C 
ATOM      7  C   UNL     1     135.654 150.678 122.914  1.00  0.00     0.008 C 
ATOM      8  C   UNL     1     135.007 151.776 122.035  1.00  0.00     0.005 C 
ATOM      9  C   UNL     1     137.481 152.528 120.655  1.00  0.00     0.016 C 
ENDROOT
BRANCH   3  10
ATOM     10  C   UNL     1     136.171 153.888 125.068  1.00  0.00    -0.032 C 
ATOM     11  C   UNL     1     137.026 153.292 126.215  1.00  0.00     0.011 C 
ATOM     12  C   UNL     1     134.893 154.466 125.737  1.00  0.00     0.011 C 
BRANCH  10  13
ATOM     13  C   UNL     1     136.889 155.113 124.430  1.00  0.00     0.007 CG0
ATOM     14  G   UNL     1     138.206 154.816 123.719  1.00  0.00     0.000 G0
ENDBRANCH  10  13
ENDBRANCH   3  10
BRANCH   1  15
ATOM     15  C   UNL     1     137.968 154.373 122.272  1.00  0.00     0.011 C 
BRANCH  15  16
ATOM     16  C   UNL     1     138.201 154.842 123.706  1.00  0.00     0.001 CG0
ATOM     17  G   UNL     1     136.898 155.123 124.447  1.00  0.00     0.000 G0
ENDBRANCH  15  16
ENDBRANCH   1  15
TORSDOF 0
ENDMDL
MODEL 5
REMARK VINA RESULT:     0.795      1.676      4.097
REMARK INTER + INTRA:           1.616
REMARK INTER:                   0.965
REMARK INTRA:                   0.651
REMARK UNBOUND:                 0.635
REMARK SMILES C=C1[C@@H]2CC[C@H]3[C@@H]2C(C)(C)CCC[C@@]13C
REMARK SMILES IDX 14 1 6 2 7 3 3 4 2 5 1 6 4 7 5 8 15 9 8 10 9 11 10 12 11 13
REMARK SMILES IDX 13 15 12 16
REMARK H PARENT
REMARK Flexibility Score: 80.00
ROOT
ATOM      1  C   UNL     1     137.413 136.998 125.076  1.00  0.00    -0.008 C 
ATOM      2  C   UNL     1     138.816 137.089 124.358  1.00  0.00     0.003 C 
ATOM      3  C   UNL     1     138.726 136.079 123.196  1.00  0.00     0.006 C 
ATOM      4  C   UNL     1     138.271 134.931 124.098  1.00  0.00     0.019 C 
ATOM      5  C   UNL     1     137.105 135.543 124.821  1.00  0.00    -0.068 C 
ATOM      6  C   UNL     1     136.024 134.875 125.242  1.00  0.00     0.009 C 
ATOM      7  C   UNL     1     139.439 134.875 125.113  1.00  0.00     0.008 C 
ATOM      8  C   UNL     1     139.886 136.355 125.214  1.00  0.00     0.005 C 
ATOM      9  C   UNL     1     137.477 137.284 126.601  1.00  0.00     0.016 C 
ENDROOT
BRANCH   3  10
ATOM     10  C   UNL     1     137.889 136.441 121.894  1.00  0.00    -0.032 C 
ATOM     11  C   UNL     1     137.044 135.236 121.408  1.00  0.00     0.011 C 
ATOM     12  C   UNL     1     138.897 136.749 120.751  1.00  0.00     0.011 C 
BRANCH  10  13
ATOM     13  C   UNL     1     137.005 137.715 122.016  1.00  0.00     0.007 CG0
ATOM     14  G   UNL     1     135.896 137.657 123.062  1.00  0.00     0.000 G0
ENDBRANCH  10  13
ENDBRANCH   3  10
BRANCH   1  15
ATOM     15  C   UNL     1     136.361 137.963 124.468  1.00  0.00     0.011 C 
BRANCH  15  16
ATOM     16  C   UNL     1     135.889 137.631 123.055  1.00  0.00     0.001 CG0
ATOM     17  G   UNL     1     137.015 137.718 122.029  1.00  0.00     0.000 G0
ENDBRANCH  15  16
ENDBRANCH   1  15
TORSDOF 0
ENDMDL
