MODEL 1
REMARK VINA RESULT:    -7.630      0.000      0.000
REMARK INTER + INTRA:          -9.978
REMARK INTER:                 -10.306
REMARK INTRA:                   0.328
REMARK UNBOUND:                 0.328
REMARK SMILES O=c1c(-c2ccc(O)cc2)coc2c([C@@H]3O[C@H](CO)[C@@H](O)[C@H](O)[C@@H]3O)c(O)ccc12
REMARK SMILES IDX 3 1 11 2 12 3 13 4 30 5 2 6 1 7 29 8 28 9 26 10 14 11 4 12
REMARK SMILES IDX 5 13 6 14 7 15 10 16 9 17 8 18 15 20 24 21 16 22 22 23 17 24
REMARK SMILES IDX 20 25 25 26 23 28 18 30 19 31 21 33 27 35
REMARK H PARENT 8 19 25 27 23 29 19 32 21 34 27 36
REMARK Flexibility Score: inf
ROOT
ATOM      1  C   UNL     1     -27.444  81.474  79.886  1.00  0.00     0.065 A 
ATOM      2  C   UNL     1     -26.419  82.427  79.853  1.00  0.00     0.208 A 
ATOM      3  O   UNL     1     -26.140  83.087  78.736  1.00  0.00    -0.463 OA
ATOM      4  C   UNL     1     -26.793  82.903  77.589  1.00  0.00     0.147 A 
ATOM      5  C   UNL     1     -27.834  81.948  77.534  1.00  0.00     0.066 A 
ATOM      6  C   UNL     1     -28.166  81.238  78.704  1.00  0.00     0.200 A 
ATOM      7  O   UNL     1     -29.118  80.408  78.697  1.00  0.00    -0.288 OA
ATOM      8  C   UNL     1     -28.504  81.725  76.329  1.00  0.00     0.020 A 
ATOM      9  C   UNL     1     -28.124  82.410  75.184  1.00  0.00     0.047 A 
ATOM     10  C   UNL     1     -27.091  83.357  75.214  1.00  0.00     0.125 A 
ATOM     11  C   UNL     1     -26.438  83.670  76.442  1.00  0.00     0.069 A 
ENDROOT
BRANCH   1  12
ATOM     12  C   UNL     1     -27.740  80.749  81.148  1.00  0.00    -0.011 A 
ATOM     13  C   UNL     1     -27.009  79.599  81.492  1.00  0.00     0.013 A 
ATOM     14  C   UNL     1     -27.290  78.908  82.674  1.00  0.00     0.047 A 
ATOM     15  C   UNL     1     -28.307  79.353  83.524  1.00  0.00     0.115 A 
ATOM     16  C   UNL     1     -28.767  81.187  82.003  1.00  0.00     0.013 A 
ATOM     17  C   UNL     1     -29.046  80.494  83.184  1.00  0.00     0.047 A 
BRANCH  15  18
ATOM     18  O   UNL     1     -28.577  78.656  84.699  1.00  0.00    -0.508 OA
ATOM     19  H   UNL     1     -29.359  78.015  84.767  1.00  0.00     0.293 HD
ENDBRANCH  15  18
ENDBRANCH   1  12
BRANCH  11  20
ATOM     20  C   UNL     1     -25.319  84.723  76.630  1.00  0.00     0.188 C 
ATOM     21  C   UNL     1     -24.641  85.488  75.457  1.00  0.00     0.179 C 
ATOM     22  O   UNL     1     -25.638  85.630  77.679  1.00  0.00    -0.362 OA
ATOM     23  C   UNL     1     -25.497  86.647  74.920  1.00  0.00     0.177 C 
ATOM     24  C   UNL     1     -26.478  86.719  77.305  1.00  0.00     0.176 C 
ATOM     25  C   UNL     1     -25.972  87.535  76.085  1.00  0.00     0.177 C 
BRANCH  21  26
ATOM     26  O   UNL     1     -24.189  84.653  74.425  1.00  0.00    -0.387 OA
ATOM     27  H   UNL     1     -23.763  83.866  74.856  1.00  0.00     0.211 HD
ENDBRANCH  21  26
BRANCH  23  28
ATOM     28  O   UNL     1     -26.599  86.190  74.185  1.00  0.00    -0.387 OA
ATOM     29  H   UNL     1     -27.355  86.806  74.375  1.00  0.00     0.211 HD
ENDBRANCH  23  28
BRANCH  24  30
ATOM     30  C   UNL     1     -27.980  86.361  77.289  1.00  0.00     0.191 C 
BRANCH  30  31
ATOM     31  O   UNL     1     -28.659  86.972  76.232  1.00  0.00    -0.394 OA
ATOM     32  H   UNL     1     -29.578  86.596  76.238  1.00  0.00     0.210 HD
ENDBRANCH  30  31
ENDBRANCH  24  30
BRANCH  25  33
ATOM     33  O   UNL     1     -24.906  88.351  76.506  1.00  0.00    -0.388 OA
ATOM     34  H   UNL     1     -24.852  88.272  77.495  1.00  0.00     0.211 HD
ENDBRANCH  25  33
ENDBRANCH  11  20
BRANCH  10  35
ATOM     35  O   UNL     1     -26.734  83.952  74.012  1.00  0.00    -0.507 OA
ATOM     36  H   UNL     1     -26.547  83.411  73.175  1.00  0.00     0.293 HD
ENDBRANCH  10  35
TORSDOF 9
ENDMDL
MODEL 2
REMARK VINA RESULT:    -7.623      8.491     12.478
REMARK INTER + INTRA:          -9.969
REMARK INTER:                 -10.263
REMARK INTRA:                   0.294
REMARK UNBOUND:                 0.328
REMARK SMILES O=c1c(-c2ccc(O)cc2)coc2c([C@@H]3O[C@H](CO)[C@@H](O)[C@H](O)[C@@H]3O)c(O)ccc12
REMARK SMILES IDX 3 1 11 2 12 3 13 4 30 5 2 6 1 7 29 8 28 9 26 10 14 11 4 12
REMARK SMILES IDX 5 13 6 14 7 15 10 16 9 17 8 18 15 20 24 21 16 22 22 23 17 24
REMARK SMILES IDX 20 25 25 26 23 28 18 30 19 31 21 33 27 35
REMARK H PARENT 8 19 25 27 23 29 19 32 21 34 27 36
REMARK Flexibility Score: inf
ROOT
ATOM      1  C   UNL     1     -27.215  92.832  81.756  1.00  0.00     0.065 A 
ATOM      2  C   UNL     1     -26.210  91.859  81.811  1.00  0.00     0.208 A 
ATOM      3  O   UNL     1     -25.974  91.188  82.931  1.00  0.00    -0.463 OA
ATOM      4  C   UNL     1     -26.654  91.379  84.061  1.00  0.00     0.147 A 
ATOM      5  C   UNL     1     -27.677  92.354  84.093  1.00  0.00     0.066 A 
ATOM      6  C   UNL     1     -27.964  93.076  82.919  1.00  0.00     0.200 A 
ATOM      7  O   UNL     1     -28.899  93.925  82.905  1.00  0.00    -0.288 OA
ATOM      8  C   UNL     1     -28.375  92.584  85.282  1.00  0.00     0.020 A 
ATOM      9  C   UNL     1     -28.039  91.885  86.432  1.00  0.00     0.047 A 
ATOM     10  C   UNL     1     -27.025  90.919  86.424  1.00  0.00     0.125 A 
ATOM     11  C   UNL     1     -26.346  90.599  85.213  1.00  0.00     0.069 A 
ENDROOT
BRANCH   1  12
ATOM     12  C   UNL     1     -27.462  93.569  80.491  1.00  0.00    -0.011 A 
ATOM     13  C   UNL     1     -26.743  94.742  80.202  1.00  0.00     0.013 A 
ATOM     14  C   UNL     1     -26.980  95.444  79.016  1.00  0.00     0.047 A 
ATOM     15  C   UNL     1     -27.939  94.987  78.108  1.00  0.00     0.115 A 
ATOM     16  C   UNL     1     -28.432  93.120  79.576  1.00  0.00     0.013 A 
ATOM     17  C   UNL     1     -28.666  93.824  78.391  1.00  0.00     0.047 A 
BRANCH  15  18
ATOM     18  O   UNL     1     -28.164  95.696  76.930  1.00  0.00    -0.508 OA
ATOM     19  H   UNL     1     -28.940  96.343  76.841  1.00  0.00     0.293 HD
ENDBRANCH  15  18
ENDBRANCH   1  12
BRANCH  11  20
ATOM     20  C   UNL     1     -25.242  89.525  85.050  1.00  0.00     0.188 C 
ATOM     21  C   UNL     1     -24.618  88.734  86.235  1.00  0.00     0.179 C 
ATOM     22  O   UNL     1     -25.546  88.636  83.981  1.00  0.00    -0.362 OA
ATOM     23  C   UNL     1     -25.513  87.589  86.732  1.00  0.00     0.177 C 
ATOM     24  C   UNL     1     -26.419  87.561  84.317  1.00  0.00     0.176 C 
ATOM     25  C   UNL     1     -25.969  86.722  85.543  1.00  0.00     0.177 C 
BRANCH  21  26
ATOM     26  O   UNL     1     -24.183  89.550  87.290  1.00  0.00    -0.387 OA
ATOM     27  H   UNL     1     -23.239  89.792  87.097  1.00  0.00     0.211 HD
ENDBRANCH  21  26
BRANCH  23  28
ATOM     28  O   UNL     1     -26.629  88.060  87.437  1.00  0.00    -0.387 OA
ATOM     29  H   UNL     1     -26.307  88.761  88.063  1.00  0.00     0.211 HD
ENDBRANCH  23  28
BRANCH  24  30
ATOM     30  C   UNL     1     -27.914  87.949  84.288  1.00  0.00     0.191 C 
BRANCH  30  31
ATOM     31  O   UNL     1     -28.636  87.354  85.326  1.00  0.00    -0.394 OA
ATOM     32  H   UNL     1     -28.732  88.047  86.030  1.00  0.00     0.210 HD
ENDBRANCH  30  31
ENDBRANCH  24  30
BRANCH  25  33
ATOM     33  O   UNL     1     -24.908  85.889  85.147  1.00  0.00    -0.388 OA
ATOM     34  H   UNL     1     -24.970  85.786  84.161  1.00  0.00     0.211 HD
ENDBRANCH  25  33
ENDBRANCH  11  20
BRANCH  10  35
ATOM     35  O   UNL     1     -26.712  90.311  87.633  1.00  0.00    -0.507 OA
ATOM     36  H   UNL     1     -26.776  90.802  88.518  1.00  0.00     0.293 HD
ENDBRANCH  10  35
TORSDOF 9
ENDMDL
MODEL 3
REMARK VINA RESULT:    -7.515      7.532      9.334
REMARK INTER + INTRA:          -9.823
REMARK INTER:                 -10.050
REMARK INTRA:                   0.227
REMARK UNBOUND:                 0.328
REMARK SMILES O=c1c(-c2ccc(O)cc2)coc2c([C@@H]3O[C@H](CO)[C@@H](O)[C@H](O)[C@@H]3O)c(O)ccc12
REMARK SMILES IDX 3 1 11 2 12 3 13 4 30 5 2 6 1 7 29 8 28 9 26 10 14 11 4 12
REMARK SMILES IDX 5 13 6 14 7 15 10 16 9 17 8 18 15 20 24 21 16 22 22 23 17 24
REMARK SMILES IDX 20 25 25 26 23 28 18 30 19 31 21 33 27 35
REMARK H PARENT 8 19 25 27 23 29 19 32 21 34 27 36
REMARK Flexibility Score: inf
ROOT
ATOM      1  C   UNL     1     -27.796  85.431  83.870  1.00  0.00     0.065 A 
ATOM      2  C   UNL     1     -28.642  86.500  84.187  1.00  0.00     0.208 A 
ATOM      3  O   UNL     1     -28.190  87.550  84.861  1.00  0.00    -0.463 OA
ATOM      4  C   UNL     1     -26.930  87.669  85.279  1.00  0.00     0.147 A 
ATOM      5  C   UNL     1     -26.014  86.626  85.012  1.00  0.00     0.066 A 
ATOM      6  C   UNL     1     -26.456  85.503  84.288  1.00  0.00     0.200 A 
ATOM      7  O   UNL     1     -25.650  84.574  83.998  1.00  0.00    -0.288 OA
ATOM      8  C   UNL     1     -24.699  86.727  85.474  1.00  0.00     0.020 A 
ATOM      9  C   UNL     1     -24.307  87.827  86.222  1.00  0.00     0.047 A 
ATOM     10  C   UNL     1     -25.200  88.869  86.504  1.00  0.00     0.125 A 
ATOM     11  C   UNL     1     -26.526  88.841  85.982  1.00  0.00     0.069 A 
ENDROOT
BRANCH   1  12
ATOM     12  C   UNL     1     -28.323  84.268  83.113  1.00  0.00    -0.011 A 
ATOM     13  C   UNL     1     -27.826  83.971  81.832  1.00  0.00     0.013 A 
ATOM     14  C   UNL     1     -28.327  82.882  81.112  1.00  0.00     0.047 A 
ATOM     15  C   UNL     1     -29.332  82.080  81.659  1.00  0.00     0.115 A 
ATOM     16  C   UNL     1     -29.341  83.462  83.654  1.00  0.00     0.013 A 
ATOM     17  C   UNL     1     -29.840  82.374  82.932  1.00  0.00     0.047 A 
BRANCH  15  18
ATOM     18  O   UNL     1     -29.822  80.998  80.932  1.00  0.00    -0.508 OA
ATOM     19  H   UNL     1     -29.213  80.252  80.617  1.00  0.00     0.293 HD
ENDBRANCH  15  18
ENDBRANCH   1  12
BRANCH  11  20
ATOM     20  C   UNL     1     -27.599  89.940  86.173  1.00  0.00     0.188 C 
ATOM     21  C   UNL     1     -27.323  91.314  86.849  1.00  0.00     0.179 C 
ATOM     22  O   UNL     1     -28.359  90.128  84.985  1.00  0.00    -0.362 OA
ATOM     23  C   UNL     1     -26.618  92.311  85.916  1.00  0.00     0.177 C 
ATOM     24  C   UNL     1     -27.769  90.995  84.020  1.00  0.00     0.176 C 
ATOM     25  C   UNL     1     -27.359  92.388  84.569  1.00  0.00     0.177 C 
BRANCH  21  26
ATOM     26  O   UNL     1     -26.676  91.213  88.088  1.00  0.00    -0.387 OA
ATOM     27  H   UNL     1     -26.601  90.245  88.298  1.00  0.00     0.211 HD
ENDBRANCH  21  26
BRANCH  23  28
ATOM     28  O   UNL     1     -25.273  91.975  85.705  1.00  0.00    -0.387 OA
ATOM     29  H   UNL     1     -24.833  92.764  85.292  1.00  0.00     0.211 HD
ENDBRANCH  23  28
BRANCH  24  30
ATOM     30  C   UNL     1     -26.722  90.298  83.123  1.00  0.00     0.191 C 
BRANCH  30  31
ATOM     31  O   UNL     1     -25.613  91.110  82.874  1.00  0.00    -0.394 OA
ATOM     32  H   UNL     1     -25.287  90.866  81.969  1.00  0.00     0.210 HD
ENDBRANCH  30  31
ENDBRANCH  24  30
BRANCH  25  33
ATOM     33  O   UNL     1     -28.521  93.165  84.726  1.00  0.00    -0.388 OA
ATOM     34  H   UNL     1     -28.897  93.313  83.818  1.00  0.00     0.211 HD
ENDBRANCH  25  33
ENDBRANCH  11  20
BRANCH  10  35
ATOM     35  O   UNL     1     -24.743  89.903  87.310  1.00  0.00    -0.507 OA
ATOM     36  H   UNL     1     -25.372  90.566  87.748  1.00  0.00     0.293 HD
ENDBRANCH  10  35
TORSDOF 9
ENDMDL
MODEL 4
REMARK VINA RESULT:    -7.513      3.246      7.566
REMARK INTER + INTRA:          -9.821
REMARK INTER:                 -10.052
REMARK INTRA:                   0.232
REMARK UNBOUND:                 0.328
REMARK SMILES O=c1c(-c2ccc(O)cc2)coc2c([C@@H]3O[C@H](CO)[C@@H](O)[C@H](O)[C@@H]3O)c(O)ccc12
REMARK SMILES IDX 3 1 11 2 12 3 13 4 30 5 2 6 1 7 29 8 28 9 26 10 14 11 4 12
REMARK SMILES IDX 5 13 6 14 7 15 10 16 9 17 8 18 15 20 24 21 16 22 22 23 17 24
REMARK SMILES IDX 20 25 25 26 23 28 18 30 19 31 21 33 27 35
REMARK H PARENT 8 19 25 27 23 29 19 32 21 34 27 36
REMARK Flexibility Score: inf
ROOT
ATOM      1  C   UNL     1     -27.807  88.737  77.633  1.00  0.00     0.065 A 
ATOM      2  C   UNL     1     -28.694  87.709  77.290  1.00  0.00     0.208 A 
ATOM      3  O   UNL     1     -28.274  86.643  76.621  1.00  0.00    -0.463 OA
ATOM      4  C   UNL     1     -27.011  86.468  76.234  1.00  0.00     0.147 A 
ATOM      5  C   UNL     1     -26.055  87.467  76.528  1.00  0.00     0.066 A 
ATOM      6  C   UNL     1     -26.463  88.606  77.248  1.00  0.00     0.200 A 
ATOM      7  O   UNL     1     -25.623  89.496  77.562  1.00  0.00    -0.288 OA
ATOM      8  C   UNL     1     -24.735  87.307  76.098  1.00  0.00     0.020 A 
ATOM      9  C   UNL     1     -24.375  86.193  75.354  1.00  0.00     0.047 A 
ATOM     10  C   UNL     1     -25.308  85.194  75.046  1.00  0.00     0.125 A 
ATOM     11  C   UNL     1     -26.643  85.282  75.534  1.00  0.00     0.069 A 
ENDROOT
BRANCH   1  12
ATOM     12  C   UNL     1     -28.300  89.920  78.383  1.00  0.00    -0.011 A 
ATOM     13  C   UNL     1     -29.236  90.791  77.798  1.00  0.00     0.013 A 
ATOM     14  C   UNL     1     -29.696  91.911  78.498  1.00  0.00     0.047 A 
ATOM     15  C   UNL     1     -29.223  92.177  79.786  1.00  0.00     0.115 A 
ATOM     16  C   UNL     1     -27.823  90.199  79.676  1.00  0.00     0.013 A 
ATOM     17  C   UNL     1     -28.284  91.320  80.373  1.00  0.00     0.047 A 
BRANCH  15  18
ATOM     18  O   UNL     1     -29.689  93.296  80.472  1.00  0.00    -0.508 OA
ATOM     19  H   UNL     1     -29.417  94.235  80.201  1.00  0.00     0.293 HD
ENDBRANCH  15  18
ENDBRANCH   1  12
BRANCH  11  20
ATOM     20  C   UNL     1     -27.760  84.233  75.311  1.00  0.00     0.188 C 
ATOM     21  C   UNL     1     -27.528  82.845  74.648  1.00  0.00     0.179 C 
ATOM     22  O   UNL     1     -28.565  84.085  76.476  1.00  0.00    -0.362 OA
ATOM     23  C   UNL     1     -26.901  81.819  75.604  1.00  0.00     0.177 C 
ATOM     24  C   UNL     1     -28.048  83.194  77.460  1.00  0.00     0.176 C 
ATOM     25  C   UNL     1     -27.687  81.782  76.927  1.00  0.00     0.177 C 
BRANCH  21  26
ATOM     26  O   UNL     1     -26.838  82.911  73.429  1.00  0.00    -0.387 OA
ATOM     27  H   UNL     1     -25.879  83.053  73.646  1.00  0.00     0.211 HD
ENDBRANCH  21  26
BRANCH  23  28
ATOM     28  O   UNL     1     -25.549  82.093  75.857  1.00  0.00    -0.387 OA
ATOM     29  H   UNL     1     -25.516  82.737  76.613  1.00  0.00     0.211 HD
ENDBRANCH  23  28
BRANCH  24  30
ATOM     30  C   UNL     1     -26.999  83.844  78.388  1.00  0.00     0.191 C 
BRANCH  30  31
ATOM     31  O   UNL     1     -25.901  83.009  78.613  1.00  0.00    -0.394 OA
ATOM     32  H   UNL     1     -26.139  82.127  78.227  1.00  0.00     0.210 HD
ENDBRANCH  30  31
ENDBRANCH  24  30
BRANCH  25  33
ATOM     33  O   UNL     1     -28.879  81.060  76.735  1.00  0.00    -0.388 OA
ATOM     34  H   UNL     1     -28.939  80.849  75.766  1.00  0.00     0.211 HD
ENDBRANCH  25  33
ENDBRANCH  11  20
BRANCH  10  35
ATOM     35  O   UNL     1     -24.878  84.144  74.245  1.00  0.00    -0.507 OA
ATOM     36  H   UNL     1     -25.425  83.802  73.463  1.00  0.00     0.293 HD
ENDBRANCH  10  35
TORSDOF 9
ENDMDL
MODEL 5
REMARK VINA RESULT:    -7.067      6.363      9.663
REMARK INTER + INTRA:          -9.219
REMARK INTER:                  -9.306
REMARK INTRA:                   0.087
REMARK UNBOUND:                 0.328
REMARK SMILES O=c1c(-c2ccc(O)cc2)coc2c([C@@H]3O[C@H](CO)[C@@H](O)[C@H](O)[C@@H]3O)c(O)ccc12
REMARK SMILES IDX 3 1 11 2 12 3 13 4 30 5 2 6 1 7 29 8 28 9 26 10 14 11 4 12
REMARK SMILES IDX 5 13 6 14 7 15 10 16 9 17 8 18 15 20 24 21 16 22 22 23 17 24
REMARK SMILES IDX 20 25 25 26 23 28 18 30 19 31 21 33 27 35
REMARK H PARENT 8 19 25 27 23 29 19 32 21 34 27 36
REMARK Flexibility Score: inf
ROOT
ATOM      1  C   UNL     1     -27.349  88.065  79.658  1.00  0.00     0.065 A 
ATOM      2  C   UNL     1     -26.258  87.819  80.500  1.00  0.00     0.208 A 
ATOM      3  O   UNL     1     -26.169  88.405  81.688  1.00  0.00    -0.463 OA
ATOM      4  C   UNL     1     -27.084  89.249  82.162  1.00  0.00     0.147 A 
ATOM      5  C   UNL     1     -28.211  89.562  81.367  1.00  0.00     0.066 A 
ATOM      6  C   UNL     1     -28.344  88.950  80.107  1.00  0.00     0.200 A 
ATOM      7  O   UNL     1     -29.360  89.178  79.391  1.00  0.00    -0.288 OA
ATOM      8  C   UNL     1     -29.160  90.471  81.842  1.00  0.00     0.020 A 
ATOM      9  C   UNL     1     -28.977  91.090  83.071  1.00  0.00     0.047 A 
ATOM     10  C   UNL     1     -27.865  90.799  83.872  1.00  0.00     0.125 A 
ATOM     11  C   UNL     1     -26.918  89.818  83.458  1.00  0.00     0.069 A 
ENDROOT
BRANCH   1  12
ATOM     12  C   UNL     1     -27.427  87.397  78.334  1.00  0.00    -0.011 A 
ATOM     13  C   UNL     1     -28.009  86.123  78.216  1.00  0.00     0.013 A 
ATOM     14  C   UNL     1     -28.077  85.487  76.973  1.00  0.00     0.047 A 
ATOM     15  C   UNL     1     -27.561  86.113  75.834  1.00  0.00     0.115 A 
ATOM     16  C   UNL     1     -26.903  88.018  77.186  1.00  0.00     0.013 A 
ATOM     17  C   UNL     1     -26.972  87.379  75.944  1.00  0.00     0.047 A 
BRANCH  15  18
ATOM     18  O   UNL     1     -27.635  85.468  74.602  1.00  0.00    -0.508 OA
ATOM     19  H   UNL     1     -28.409  84.857  74.370  1.00  0.00     0.293 HD
ENDBRANCH  15  18
ENDBRANCH   1  12
BRANCH  11  20
ATOM     20  C   UNL     1     -25.674  89.365  84.260  1.00  0.00     0.188 C 
ATOM     21  C   UNL     1     -25.386  89.790  85.729  1.00  0.00     0.179 C 
ATOM     22  O   UNL     1     -25.444  87.969  84.105  1.00  0.00    -0.362 OA
ATOM     23  C   UNL     1     -26.208  88.995  86.756  1.00  0.00     0.177 C 
ATOM     24  C   UNL     1     -26.200  87.130  84.974  1.00  0.00     0.176 C 
ATOM     25  C   UNL     1     -26.080  87.486  86.481  1.00  0.00     0.177 C 
BRANCH  21  26
ATOM     26  O   UNL     1     -25.478  91.172  85.945  1.00  0.00    -0.387 OA
ATOM     27  H   UNL     1     -25.632  91.304  86.918  1.00  0.00     0.211 HD
ENDBRANCH  21  26
BRANCH  23  28
ATOM     28  O   UNL     1     -27.559  89.370  86.753  1.00  0.00    -0.387 OA
ATOM     29  H   UNL     1     -27.691  89.989  85.987  1.00  0.00     0.211 HD
ENDBRANCH  23  28
BRANCH  24  30
ATOM     30  C   UNL     1     -27.632  86.851  84.468  1.00  0.00     0.191 C 
BRANCH  30  31
ATOM     31  O   UNL     1     -28.539  86.674  85.515  1.00  0.00    -0.394 OA
ATOM     32  H   UNL     1     -28.932  85.771  85.394  1.00  0.00     0.210 HD
ENDBRANCH  30  31
ENDBRANCH  24  30
BRANCH  25  33
ATOM     33  O   UNL     1     -24.831  87.037  86.946  1.00  0.00    -0.388 OA
ATOM     34  H   UNL     1     -24.392  86.564  86.191  1.00  0.00     0.211 HD
ENDBRANCH  25  33
ENDBRANCH  11  20
BRANCH  10  35
ATOM     35  O   UNL     1     -27.728  91.508  85.057  1.00  0.00    -0.507 OA
ATOM     36  H   UNL     1     -27.494  92.494  85.073  1.00  0.00     0.293 HD
ENDBRANCH  10  35
TORSDOF 9
ENDMDL
MODEL 6
REMARK VINA RESULT:    -7.059      4.223      4.907
REMARK INTER + INTRA:          -9.207
REMARK INTER:                  -9.258
REMARK INTRA:                   0.051
REMARK UNBOUND:                 0.328
REMARK SMILES O=c1c(-c2ccc(O)cc2)coc2c([C@@H]3O[C@H](CO)[C@@H](O)[C@H](O)[C@@H]3O)c(O)ccc12
REMARK SMILES IDX 3 1 11 2 12 3 13 4 30 5 2 6 1 7 29 8 28 9 26 10 14 11 4 12
REMARK SMILES IDX 5 13 6 14 7 15 10 16 9 17 8 18 15 20 24 21 16 22 22 23 17 24
REMARK SMILES IDX 20 25 25 26 23 28 18 30 19 31 21 33 27 35
REMARK H PARENT 8 19 25 27 23 29 19 32 21 34 27 36
REMARK Flexibility Score: inf
ROOT
ATOM      1  C   UNL     1     -27.441  86.220  82.000  1.00  0.00     0.065 A 
ATOM      2  C   UNL     1     -26.341  86.413  81.156  1.00  0.00     0.208 A 
ATOM      3  O   UNL     1     -26.284  85.823  79.969  1.00  0.00    -0.463 OA
ATOM      4  C   UNL     1     -27.239  85.022  79.497  1.00  0.00     0.147 A 
ATOM      5  C   UNL     1     -28.377  84.764  80.295  1.00  0.00     0.066 A 
ATOM      6  C   UNL     1     -28.478  85.383  81.555  1.00  0.00     0.200 A 
ATOM      7  O   UNL     1     -29.502  85.204  82.273  1.00  0.00    -0.288 OA
ATOM      8  C   UNL     1     -29.370  83.900  79.823  1.00  0.00     0.020 A 
ATOM      9  C   UNL     1     -29.219  83.272  78.595  1.00  0.00     0.047 A 
ATOM     10  C   UNL     1     -28.097  83.509  77.791  1.00  0.00     0.125 A 
ATOM     11  C   UNL     1     -27.102  84.444  78.202  1.00  0.00     0.069 A 
ENDROOT
BRANCH   1  12
ATOM     12  C   UNL     1     -27.485  86.892  83.324  1.00  0.00    -0.011 A 
ATOM     13  C   UNL     1     -28.058  88.169  83.451  1.00  0.00     0.013 A 
ATOM     14  C   UNL     1     -28.093  88.809  84.694  1.00  0.00     0.047 A 
ATOM     15  C   UNL     1     -27.553  88.185  85.822  1.00  0.00     0.115 A 
ATOM     16  C   UNL     1     -26.936  86.273  84.461  1.00  0.00     0.013 A 
ATOM     17  C   UNL     1     -26.973  86.916  85.702  1.00  0.00     0.047 A 
BRANCH  15  18
ATOM     18  O   UNL     1     -27.595  88.834  87.054  1.00  0.00    -0.508 OA
ATOM     19  H   UNL     1     -28.460  89.206  87.428  1.00  0.00     0.293 HD
ENDBRANCH  15  18
ENDBRANCH   1  12
BRANCH  11  20
ATOM     20  C   UNL     1     -25.840  84.837  77.396  1.00  0.00     0.188 C 
ATOM     21  C   UNL     1     -25.564  84.377  75.936  1.00  0.00     0.179 C 
ATOM     22  O   UNL     1     -25.558  86.226  77.528  1.00  0.00    -0.362 OA
ATOM     23  C   UNL     1     -26.353  85.184  74.892  1.00  0.00     0.177 C 
ATOM     24  C   UNL     1     -26.280  87.077  76.643  1.00  0.00     0.176 C 
ATOM     25  C   UNL     1     -26.170  86.691  75.143  1.00  0.00     0.177 C 
BRANCH  21  26
ATOM     26  O   UNL     1     -25.707  82.995  75.743  1.00  0.00    -0.387 OA
ATOM     27  H   UNL     1     -25.158  82.755  74.951  1.00  0.00     0.211 HD
ENDBRANCH  21  26
BRANCH  23  28
ATOM     28  O   UNL     1     -27.717  84.859  74.897  1.00  0.00    -0.387 OA
ATOM     29  H   UNL     1     -27.787  83.883  75.067  1.00  0.00     0.211 HD
ENDBRANCH  23  28
BRANCH  24  30
ATOM     30  C   UNL     1     -27.702  87.419  77.139  1.00  0.00     0.191 C 
BRANCH  30  31
ATOM     31  O   UNL     1     -28.607  87.580  76.086  1.00  0.00    -0.394 OA
ATOM     32  H   UNL     1     -29.012  88.478  76.203  1.00  0.00     0.210 HD
ENDBRANCH  30  31
ENDBRANCH  24  30
BRANCH  25  33
ATOM     33  O   UNL     1     -24.904  87.086  74.674  1.00  0.00    -0.388 OA
ATOM     34  H   UNL     1     -24.889  86.918  73.695  1.00  0.00     0.211 HD
ENDBRANCH  25  33
ENDBRANCH  11  20
BRANCH  10  35
ATOM     35  O   UNL     1     -27.996  82.793  76.606  1.00  0.00    -0.507 OA
ATOM     36  H   UNL     1     -28.764  82.726  75.948  1.00  0.00     0.293 HD
ENDBRANCH  10  35
TORSDOF 9
ENDMDL
MODEL 7
REMARK VINA RESULT:    -7.049      6.379      7.980
REMARK INTER + INTRA:          -9.194
REMARK INTER:                  -9.406
REMARK INTRA:                   0.211
REMARK UNBOUND:                 0.328
REMARK SMILES O=c1c(-c2ccc(O)cc2)coc2c([C@@H]3O[C@H](CO)[C@@H](O)[C@H](O)[C@@H]3O)c(O)ccc12
REMARK SMILES IDX 3 1 11 2 12 3 13 4 30 5 2 6 1 7 29 8 28 9 26 10 14 11 4 12
REMARK SMILES IDX 5 13 6 14 7 15 10 16 9 17 8 18 15 20 24 21 16 22 22 23 17 24
REMARK SMILES IDX 20 25 25 26 23 28 18 30 19 31 21 33 27 35
REMARK H PARENT 8 19 25 27 23 29 19 32 21 34 27 36
REMARK Flexibility Score: inf
ROOT
ATOM      1  C   UNL     1     -26.465  84.446  82.559  1.00  0.00     0.065 A 
ATOM      2  C   UNL     1     -25.784  84.918  83.688  1.00  0.00     0.208 A 
ATOM      3  O   UNL     1     -25.635  86.220  83.898  1.00  0.00    -0.463 OA
ATOM      4  C   UNL     1     -26.109  87.156  83.077  1.00  0.00     0.147 A 
ATOM      5  C   UNL     1     -26.797  86.763  81.906  1.00  0.00     0.066 A 
ATOM      6  C   UNL     1     -26.984  85.390  81.658  1.00  0.00     0.200 A 
ATOM      7  O   UNL     1     -27.631  85.009  80.641  1.00  0.00    -0.288 OA
ATOM      8  C   UNL     1     -27.269  87.737  81.022  1.00  0.00     0.020 A 
ATOM      9  C   UNL     1     -27.031  89.080  81.275  1.00  0.00     0.047 A 
ATOM     10  C   UNL     1     -26.346  89.492  82.425  1.00  0.00     0.125 A 
ATOM     11  C   UNL     1     -25.919  88.534  83.390  1.00  0.00     0.069 A 
ENDROOT
BRANCH   1  12
ATOM     12  C   UNL     1     -26.620  82.984  82.346  1.00  0.00    -0.011 A 
ATOM     13  C   UNL     1     -27.890  82.387  82.430  1.00  0.00     0.013 A 
ATOM     14  C   UNL     1     -28.039  81.010  82.239  1.00  0.00     0.047 A 
ATOM     15  C   UNL     1     -26.923  80.213  81.966  1.00  0.00     0.115 A 
ATOM     16  C   UNL     1     -25.501  82.176  82.078  1.00  0.00     0.013 A 
ATOM     17  C   UNL     1     -25.653  80.799  81.888  1.00  0.00     0.047 A 
BRANCH  15  18
ATOM     18  O   UNL     1     -27.086  78.843  81.777  1.00  0.00    -0.508 OA
ATOM     19  H   UNL     1     -27.395  78.237  82.529  1.00  0.00     0.293 HD
ENDBRANCH  15  18
ENDBRANCH   1  12
BRANCH  11  20
ATOM     20  C   UNL     1     -25.196  88.849  84.723  1.00  0.00     0.188 C 
ATOM     21  C   UNL     1     -24.925  90.290  85.243  1.00  0.00     0.179 C 
ATOM     22  O   UNL     1     -25.694  88.037  85.780  1.00  0.00    -0.362 OA
ATOM     23  C   UNL     1     -26.162  90.942  85.880  1.00  0.00     0.177 C 
ATOM     24  C   UNL     1     -26.877  88.521  86.410  1.00  0.00     0.176 C 
ATOM     25  C   UNL     1     -26.788  89.987  86.913  1.00  0.00     0.177 C 
BRANCH  21  26
ATOM     26  O   UNL     1     -24.325  91.129  84.293  1.00  0.00    -0.387 OA
ATOM     27  H   UNL     1     -23.363  90.882  84.255  1.00  0.00     0.211 HD
ENDBRANCH  21  26
BRANCH  23  28
ATOM     28  O   UNL     1     -27.118  91.306  84.922  1.00  0.00    -0.387 OA
ATOM     29  H   UNL     1     -27.474  92.196  85.184  1.00  0.00     0.211 HD
ENDBRANCH  23  28
BRANCH  24  30
ATOM     30  C   UNL     1     -28.172  88.154  85.652  1.00  0.00     0.191 C 
BRANCH  30  31
ATOM     31  O   UNL     1     -28.308  86.776  85.470  1.00  0.00    -0.394 OA
ATOM     32  H   UNL     1     -28.250  86.617  84.492  1.00  0.00     0.210 HD
ENDBRANCH  30  31
ENDBRANCH  24  30
BRANCH  25  33
ATOM     33  O   UNL     1     -26.016  90.008  88.088  1.00  0.00    -0.388 OA
ATOM     34  H   UNL     1     -26.604  90.339  88.817  1.00  0.00     0.211 HD
ENDBRANCH  25  33
ENDBRANCH  11  20
BRANCH  10  35
ATOM     35  O   UNL     1     -26.096  90.850  82.569  1.00  0.00    -0.507 OA
ATOM     36  H   UNL     1     -25.406  91.207  83.220  1.00  0.00     0.293 HD
ENDBRANCH  10  35
TORSDOF 9
ENDMDL
MODEL 8
REMARK VINA RESULT:    -6.965      3.819      8.110
REMARK INTER + INTRA:          -9.081
REMARK INTER:                  -9.284
REMARK INTRA:                   0.203
REMARK UNBOUND:                 0.328
REMARK SMILES O=c1c(-c2ccc(O)cc2)coc2c([C@@H]3O[C@H](CO)[C@@H](O)[C@H](O)[C@@H]3O)c(O)ccc12
REMARK SMILES IDX 3 1 11 2 12 3 13 4 30 5 2 6 1 7 29 8 28 9 26 10 14 11 4 12
REMARK SMILES IDX 5 13 6 14 7 15 10 16 9 17 8 18 15 20 24 21 16 22 22 23 17 24
REMARK SMILES IDX 20 25 25 26 23 28 18 30 19 31 21 33 27 35
REMARK H PARENT 8 19 25 27 23 29 19 32 21 34 27 36
REMARK Flexibility Score: inf
ROOT
ATOM      1  C   UNL     1     -26.269  89.885  79.148  1.00  0.00     0.065 A 
ATOM      2  C   UNL     1     -25.626  89.307  78.048  1.00  0.00     0.208 A 
ATOM      3  O   UNL     1     -25.620  87.991  77.877  1.00  0.00    -0.463 OA
ATOM      4  C   UNL     1     -26.210  87.138  78.714  1.00  0.00     0.147 A 
ATOM      5  C   UNL     1     -26.870  87.640  79.859  1.00  0.00     0.066 A 
ATOM      6  C   UNL     1     -26.907  89.032  80.065  1.00  0.00     0.200 A 
ATOM      7  O   UNL     1     -27.524  89.514  81.057  1.00  0.00    -0.288 OA
ATOM      8  C   UNL     1     -27.464  86.752  80.759  1.00  0.00     0.020 A 
ATOM      9  C   UNL     1     -27.373  85.383  80.550  1.00  0.00     0.047 A 
ATOM     10  C   UNL     1     -26.718  84.864  79.425  1.00  0.00     0.125 A 
ATOM     11  C   UNL     1     -26.170  85.739  78.443  1.00  0.00     0.069 A 
ENDROOT
BRANCH   1  12
ATOM     12  C   UNL     1     -26.264  91.361  79.318  1.00  0.00    -0.011 A 
ATOM     13  C   UNL     1     -25.057  92.043  79.551  1.00  0.00     0.013 A 
ATOM     14  C   UNL     1     -25.049  93.431  79.720  1.00  0.00     0.047 A 
ATOM     15  C   UNL     1     -26.245  94.153  79.663  1.00  0.00     0.115 A 
ATOM     16  C   UNL     1     -27.464  92.092  79.270  1.00  0.00     0.013 A 
ATOM     17  C   UNL     1     -27.453  93.480  79.440  1.00  0.00     0.047 A 
BRANCH  15  18
ATOM     18  O   UNL     1     -26.223  95.535  79.833  1.00  0.00    -0.508 OA
ATOM     19  H   UNL     1     -26.375  96.167  79.056  1.00  0.00     0.293 HD
ENDBRANCH  15  18
ENDBRANCH   1  12
BRANCH  11  20
ATOM     20  C   UNL     1     -25.464  85.305  77.135  1.00  0.00     0.188 C 
ATOM     21  C   UNL     1     -25.400  83.835  76.630  1.00  0.00     0.179 C 
ATOM     22  O   UNL     1     -25.799  86.174  76.059  1.00  0.00    -0.362 OA
ATOM     23  C   UNL     1     -26.703  83.375  75.956  1.00  0.00     0.177 C 
ATOM     24  C   UNL     1     -27.023  85.872  75.395  1.00  0.00     0.176 C 
ATOM     25  C   UNL     1     -27.144  84.405  74.901  1.00  0.00     0.177 C 
BRANCH  21  26
ATOM     26  O   UNL     1     -24.965  82.923  77.601  1.00  0.00    -0.387 OA
ATOM     27  H   UNL     1     -25.367  82.044  77.374  1.00  0.00     0.211 HD
ENDBRANCH  21  26
BRANCH  23  28
ATOM     28  O   UNL     1     -27.732  83.169  76.886  1.00  0.00    -0.387 OA
ATOM     29  H   UNL     1     -28.335  82.476  76.509  1.00  0.00     0.211 HD
ENDBRANCH  23  28
BRANCH  24  30
ATOM     30  C   UNL     1     -28.269  86.438  76.110  1.00  0.00     0.191 C 
BRANCH  30  31
ATOM     31  O   UNL     1     -28.265  87.835  76.155  1.00  0.00    -0.394 OA
ATOM     32  H   UNL     1     -27.313  88.112  76.116  1.00  0.00     0.210 HD
ENDBRANCH  30  31
ENDBRANCH  24  30
BRANCH  25  33
ATOM     33  O   UNL     1     -26.349  84.255  73.750  1.00  0.00    -0.388 OA
ATOM     34  H   UNL     1     -25.780  83.453  73.891  1.00  0.00     0.211 HD
ENDBRANCH  25  33
ENDBRANCH  11  20
BRANCH  10  35
ATOM     35  O   UNL     1     -26.620  83.483  79.324  1.00  0.00    -0.507 OA
ATOM     36  H   UNL     1     -25.835  82.967  79.707  1.00  0.00     0.293 HD
ENDBRANCH  10  35
TORSDOF 9
ENDMDL
MODEL 9
REMARK VINA RESULT:    -6.805      4.245      6.928
REMARK INTER + INTRA:          -8.865
REMARK INTER:                  -9.139
REMARK INTRA:                   0.274
REMARK UNBOUND:                 0.328
REMARK SMILES O=c1c(-c2ccc(O)cc2)coc2c([C@@H]3O[C@H](CO)[C@@H](O)[C@H](O)[C@@H]3O)c(O)ccc12
REMARK SMILES IDX 3 1 11 2 12 3 13 4 30 5 2 6 1 7 29 8 28 9 26 10 14 11 4 12
REMARK SMILES IDX 5 13 6 14 7 15 10 16 9 17 8 18 15 20 24 21 16 22 22 23 17 24
REMARK SMILES IDX 20 25 25 26 23 28 18 30 19 31 21 33 27 35
REMARK H PARENT 8 19 25 27 23 29 19 32 21 34 27 36
REMARK Flexibility Score: inf
ROOT
ATOM      1  C   UNL     1     -26.700  83.601  82.547  1.00  0.00     0.065 A 
ATOM      2  C   UNL     1     -25.345  83.323  82.328  1.00  0.00     0.208 A 
ATOM      3  O   UNL     1     -24.958  82.137  81.877  1.00  0.00    -0.463 OA
ATOM      4  C   UNL     1     -25.802  81.143  81.602  1.00  0.00     0.147 A 
ATOM      5  C   UNL     1     -27.187  81.338  81.809  1.00  0.00     0.066 A 
ATOM      6  C   UNL     1     -27.635  82.588  82.275  1.00  0.00     0.200 A 
ATOM      7  O   UNL     1     -28.869  82.806  82.431  1.00  0.00    -0.288 OA
ATOM      8  C   UNL     1     -28.077  80.291  81.554  1.00  0.00     0.020 A 
ATOM      9  C   UNL     1     -27.600  79.057  81.136  1.00  0.00     0.047 A 
ATOM     10  C   UNL     1     -26.231  78.841  80.930  1.00  0.00     0.125 A 
ATOM     11  C   UNL     1     -25.300  79.906  81.102  1.00  0.00     0.069 A 
ENDROOT
BRANCH   1  12
ATOM     12  C   UNL     1     -27.110  84.937  83.051  1.00  0.00    -0.011 A 
ATOM     13  C   UNL     1     -27.571  85.920  82.159  1.00  0.00     0.013 A 
ATOM     14  C   UNL     1     -27.950  87.181  82.629  1.00  0.00     0.047 A 
ATOM     15  C   UNL     1     -27.867  87.478  83.992  1.00  0.00     0.115 A 
ATOM     16  C   UNL     1     -27.021  85.244  84.421  1.00  0.00     0.013 A 
ATOM     17  C   UNL     1     -27.399  86.506  84.887  1.00  0.00     0.047 A 
BRANCH  15  18
ATOM     18  O   UNL     1     -28.247  88.738  84.447  1.00  0.00    -0.508 OA
ATOM     19  H   UNL     1     -27.565  89.470  84.612  1.00  0.00     0.293 HD
ENDBRANCH  15  18
ENDBRANCH   1  12
BRANCH  11  20
ATOM     20  C   UNL     1     -23.773  79.822  80.865  1.00  0.00     0.188 C 
ATOM     21  C   UNL     1     -23.048  78.562  80.311  1.00  0.00     0.179 C 
ATOM     22  O   UNL     1     -23.291  80.987  80.205  1.00  0.00    -0.362 OA
ATOM     23  C   UNL     1     -23.187  78.409  78.789  1.00  0.00     0.177 C 
ATOM     24  C   UNL     1     -23.422  80.978  78.787  1.00  0.00     0.176 C 
ATOM     25  C   UNL     1     -22.816  79.730  78.090  1.00  0.00     0.177 C 
BRANCH  21  26
ATOM     26  O   UNL     1     -23.381  77.378  80.986  1.00  0.00    -0.387 OA
ATOM     27  H   UNL     1     -23.768  76.760  80.312  1.00  0.00     0.211 HD
ENDBRANCH  21  26
BRANCH  23  28
ATOM     28  O   UNL     1     -24.480  78.016  78.415  1.00  0.00    -0.387 OA
ATOM     29  H   UNL     1     -25.118  78.571  78.936  1.00  0.00     0.211 HD
ENDBRANCH  23  28
BRANCH  24  30
ATOM     30  C   UNL     1     -24.824  81.399  78.295  1.00  0.00     0.191 C 
BRANCH  30  31
ATOM     31  O   UNL     1     -24.991  81.187  76.924  1.00  0.00    -0.394 OA
ATOM     32  H   UNL     1     -24.422  81.860  76.467  1.00  0.00     0.210 HD
ENDBRANCH  30  31
ENDBRANCH  24  30
BRANCH  25  33
ATOM     33  O   UNL     1     -21.416  79.865  78.075  1.00  0.00    -0.388 OA
ATOM     34  H   UNL     1     -21.053  79.224  78.741  1.00  0.00     0.211 HD
ENDBRANCH  25  33
ENDBRANCH  11  20
BRANCH  10  35
ATOM     35  O   UNL     1     -25.833  77.560  80.572  1.00  0.00    -0.507 OA
ATOM     36  H   UNL     1     -25.866  77.232  79.613  1.00  0.00     0.293 HD
ENDBRANCH  10  35
TORSDOF 9
ENDMDL
