MODEL 1
REMARK VINA RESULT:    -4.000      0.000      0.000
REMARK INTER + INTRA:          -6.167
REMARK INTER:                  -6.105
REMARK INTRA:                  -0.062
REMARK UNBOUND:                -0.062
REMARK SMILES CC1=CCC[C@@H](C)C(=O)C[C@H](C(C)C)C(=O)C1
REMARK SMILES IDX 8 1 9 2 6 3 7 4 5 5 4 6 3 7 2 8 1 9 10 11 11 12 15 13 16 14
REMARK SMILES IDX 17 15 12 17 13 18 14 19
REMARK H PARENT
REMARK Flexibility Score: 70.00
ROOT
ATOM      1  C   UNL     1      17.091  16.098  13.482  1.00  0.00     0.136 C 
ATOM      2  O   UNL     1      16.560  16.744  12.589  1.00  0.00    -0.299 OA
ENDROOT
BRANCH   1   3
ATOM      3  C   UNL     1      16.341  15.803  14.772  1.00  0.00     0.053 C 
ATOM      4  C   UNL     1      14.868  15.423  14.549  1.00  0.00     0.016 C 
BRANCH   3   5
ATOM      5  C   UNL     1      16.518  16.908  15.845  1.00  0.00     0.015 C 
BRANCH   5   6
ATOM      6  C   UNL     1      17.606  17.982  15.622  1.00  0.00     0.028 C 
BRANCH   6   7
ATOM      7  C   UNL     1      18.746  18.048  16.610  1.00  0.00    -0.028 C 
ATOM      8  C   UNL     1      19.709  17.116  16.793  1.00  0.00    -0.070 CG0
ATOM      9  C   UNL     1      20.554  17.233  18.039  1.00  0.00     0.039 C 
ATOM     10  G   UNL     1      19.981  15.973  15.828  1.00  0.00     0.000 G0
ENDBRANCH   6   7
ENDBRANCH   5   6
ENDBRANCH   3   5
ENDBRANCH   1   3
BRANCH   1  11
ATOM     11  C   UNL     1      18.461  15.494  13.253  1.00  0.00     0.087 C 
BRANCH  11  12
ATOM     12  C   UNL     1      19.653  16.494  13.217  1.00  0.00     0.066 C 
BRANCH  12  13
ATOM     13  C   UNL     1      20.501  16.493  14.482  1.00  0.00     0.140 C 
ATOM     14  O   UNL     1      21.659  16.876  14.393  1.00  0.00    -0.299 OA
BRANCH  13  15
ATOM     15  C   UNL     1      20.009  15.959  15.810  1.00  0.00     0.106 CG0
ATOM     16  G   UNL     1      19.731  17.104  16.770  1.00  0.00     0.000 G0
ENDBRANCH  13  15
ENDBRANCH  12  13
BRANCH  12  17
ATOM     17  C   UNL     1      20.541  16.295  11.949  1.00  0.00    -0.006 C 
ATOM     18  C   UNL     1      19.833  16.778  10.669  1.00  0.00     0.008 C 
ATOM     19  C   UNL     1      20.945  14.820  11.764  1.00  0.00     0.008 C 
ENDBRANCH  12  17
ENDBRANCH  11  12
ENDBRANCH   1  11
TORSDOF 1
ENDMDL
MODEL 2
REMARK VINA RESULT:    -3.906      8.831     11.162
REMARK INTER + INTRA:          -6.023
REMARK INTER:                  -5.975
REMARK INTRA:                  -0.048
REMARK UNBOUND:                -0.062
REMARK SMILES CC1=CCC[C@@H](C)C(=O)C[C@H](C(C)C)C(=O)C1
REMARK SMILES IDX 8 1 9 2 6 3 7 4 5 5 4 6 3 7 2 8 1 9 10 11 11 12 15 13 16 14
REMARK SMILES IDX 17 15 12 17 13 18 14 19
REMARK H PARENT
REMARK Flexibility Score: 70.00
ROOT
ATOM      1  C   UNL     1      16.535  17.504  23.405  1.00  0.00     0.136 C 
ATOM      2  O   UNL     1      17.224  18.145  22.623  1.00  0.00    -0.299 OA
ENDROOT
BRANCH   1   3
ATOM      3  C   UNL     1      17.149  16.389  24.238  1.00  0.00     0.053 C 
ATOM      4  C   UNL     1      18.527  15.934  23.730  1.00  0.00     0.016 C 
BRANCH   3   5
ATOM      5  C   UNL     1      16.177  15.204  24.476  1.00  0.00     0.015 C 
BRANCH   5   6
ATOM      6  C   UNL     1      15.246  15.252  25.707  1.00  0.00     0.028 C 
BRANCH   6   7
ATOM      7  C   UNL     1      13.886  14.605  25.589  1.00  0.00    -0.028 C 
ATOM      8  C   UNL     1      12.722  15.224  25.286  1.00  0.00    -0.070 CG0
ATOM      9  C   UNL     1      11.447  14.455  25.536  1.00  0.00     0.039 C 
ATOM     10  G   UNL     1      12.630  16.631  24.719  1.00  0.00     0.000 G0
ENDBRANCH   6   7
ENDBRANCH   5   6
ENDBRANCH   3   5
ENDBRANCH   1   3
BRANCH   1  11
ATOM     11  C   UNL     1      15.091  17.903  23.627  1.00  0.00     0.087 C 
BRANCH  11  12
ATOM     12  C   UNL     1      14.062  17.344  22.601  1.00  0.00     0.066 C 
BRANCH  12  13
ATOM     13  C   UNL     1      12.862  16.658  23.238  1.00  0.00     0.140 C 
ATOM     14  O   UNL     1      12.028  16.160  22.496  1.00  0.00    -0.299 OA
BRANCH  13  15
ATOM     15  C   UNL     1      12.611  16.642  24.731  1.00  0.00     0.106 CG0
ATOM     16  G   UNL     1      12.727  15.226  25.272  1.00  0.00     0.000 G0
ENDBRANCH  13  15
ENDBRANCH  12  13
BRANCH  12  17
ATOM     17  C   UNL     1      13.606  18.436  21.582  1.00  0.00    -0.006 C 
ATOM     18  C   UNL     1      14.610  18.602  20.428  1.00  0.00     0.008 C 
ATOM     19  C   UNL     1      13.406  19.802  22.266  1.00  0.00     0.008 C 
ENDBRANCH  12  17
ENDBRANCH  11  12
ENDBRANCH   1  11
TORSDOF 1
ENDMDL
MODEL 3
REMARK VINA RESULT:    -3.856      9.115     10.513
REMARK INTER + INTRA:          -5.946
REMARK INTER:                  -5.869
REMARK INTRA:                  -0.077
REMARK UNBOUND:                -0.062
REMARK SMILES CC1=CCC[C@@H](C)C(=O)C[C@H](C(C)C)C(=O)C1
REMARK SMILES IDX 8 1 9 2 6 3 7 4 5 5 4 6 3 7 2 8 1 9 10 11 11 12 15 13 16 14
REMARK SMILES IDX 17 15 12 17 13 18 14 19
REMARK H PARENT
REMARK Flexibility Score: 70.00
ROOT
ATOM      1  C   UNL     1      17.831  15.684  24.209  1.00  0.00     0.136 C 
ATOM      2  O   UNL     1      17.100  14.823  23.739  1.00  0.00    -0.299 OA
ENDROOT
BRANCH   1   3
ATOM      3  C   UNL     1      17.633  17.147  23.844  1.00  0.00     0.053 C 
ATOM      4  C   UNL     1      16.225  17.458  23.310  1.00  0.00     0.016 C 
BRANCH   3   5
ATOM      5  C   UNL     1      18.756  17.704  22.931  1.00  0.00     0.015 C 
BRANCH   5   6
ATOM      6  C   UNL     1      19.920  18.479  23.587  1.00  0.00     0.028 C 
BRANCH   6   7
ATOM      7  C   UNL     1      21.329  18.054  23.251  1.00  0.00    -0.028 C 
ATOM      8  C   UNL     1      22.133  17.262  23.996  1.00  0.00    -0.070 CG0
ATOM      9  C   UNL     1      23.598  17.229  23.634  1.00  0.00     0.039 C 
ATOM     10  G   UNL     1      21.648  16.419  25.165  1.00  0.00     0.000 G0
ENDBRANCH   6   7
ENDBRANCH   5   6
ENDBRANCH   3   5
ENDBRANCH   1   3
BRANCH   1  11
ATOM     11  C   UNL     1      18.866  15.300  25.246  1.00  0.00     0.087 C 
BRANCH  11  12
ATOM     12  C   UNL     1      19.992  14.339  24.766  1.00  0.00     0.066 C 
BRANCH  12  13
ATOM     13  C   UNL     1      21.373  14.977  24.718  1.00  0.00     0.140 C 
ATOM     14  O   UNL     1      22.313  14.281  24.359  1.00  0.00    -0.299 OA
BRANCH  13  15
ATOM     15  C   UNL     1      21.649  16.394  25.175  1.00  0.00     0.106 CG0
ATOM     16  G   UNL     1      22.115  17.246  24.005  1.00  0.00     0.000 G0
ENDBRANCH  13  15
ENDBRANCH  12  13
BRANCH  12  17
ATOM     17  C   UNL     1      20.017  13.015  25.593  1.00  0.00    -0.006 C 
ATOM     18  C   UNL     1      18.638  12.332  25.628  1.00  0.00     0.008 C 
ATOM     19  C   UNL     1      20.487  13.258  27.040  1.00  0.00     0.008 C 
ENDBRANCH  12  17
ENDBRANCH  11  12
ENDBRANCH   1  11
TORSDOF 1
ENDMDL
MODEL 4
REMARK VINA RESULT:    -3.830      9.608     11.367
REMARK INTER + INTRA:          -5.907
REMARK INTER:                  -6.083
REMARK INTRA:                   0.177
REMARK UNBOUND:                -0.062
REMARK SMILES CC1=CCC[C@@H](C)C(=O)C[C@H](C(C)C)C(=O)C1
REMARK SMILES IDX 8 1 9 2 6 3 7 4 5 5 4 6 3 7 2 8 1 9 10 11 11 12 15 13 16 14
REMARK SMILES IDX 17 15 12 17 13 18 14 19
REMARK H PARENT
REMARK Flexibility Score: 70.00
ROOT
ATOM      1  C   UNL     1      15.295  17.808  22.677  1.00  0.00     0.136 C 
ATOM      2  O   UNL     1      16.364  18.400  22.627  1.00  0.00    -0.299 OA
ENDROOT
BRANCH   1   3
ATOM      3  C   UNL     1      14.062  18.384  21.998  1.00  0.00     0.053 C 
ATOM      4  C   UNL     1      13.410  19.532  22.786  1.00  0.00     0.016 C 
BRANCH   3   5
ATOM      5  C   UNL     1      13.042  17.299  21.566  1.00  0.00     0.015 C 
BRANCH   5   6
ATOM      6  C   UNL     1      11.733  17.158  22.372  1.00  0.00     0.028 C 
BRANCH   6   7
ATOM      7  C   UNL     1      11.589  15.961  23.282  1.00  0.00    -0.028 C 
ATOM      8  C   UNL     1      12.200  15.777  24.474  1.00  0.00    -0.070 CG0
ATOM      9  C   UNL     1      12.167  14.385  25.058  1.00  0.00     0.039 C 
ATOM     10  G   UNL     1      12.911  16.877  25.245  1.00  0.00     0.000 G0
ENDBRANCH   6   7
ENDBRANCH   5   6
ENDBRANCH   3   5
ENDBRANCH   1   3
BRANCH   1  11
ATOM     11  C   UNL     1      15.229  16.439  23.322  1.00  0.00     0.087 C 
BRANCH  11  12
ATOM     12  C   UNL     1      15.518  16.389  24.851  1.00  0.00     0.066 C 
BRANCH  12  13
ATOM     13  C   UNL     1      14.267  16.382  25.718  1.00  0.00     0.140 C 
ATOM     14  O   UNL     1      14.347  15.886  26.833  1.00  0.00    -0.299 OA
BRANCH  13  15
ATOM     15  C   UNL     1      12.920  16.875  25.235  1.00  0.00     0.106 CG0
ATOM     16  G   UNL     1      12.200  15.779  24.466  1.00  0.00     0.000 G0
ENDBRANCH  13  15
ENDBRANCH  12  13
BRANCH  12  17
ATOM     17  C   UNL     1      16.463  15.203  25.224  1.00  0.00    -0.006 C 
ATOM     18  C   UNL     1      17.645  15.663  26.098  1.00  0.00     0.008 C 
ATOM     19  C   UNL     1      17.018  14.502  23.970  1.00  0.00     0.008 C 
ENDBRANCH  12  17
ENDBRANCH  11  12
ENDBRANCH   1  11
TORSDOF 1
ENDMDL
MODEL 5
REMARK VINA RESULT:    -3.812      9.208     11.147
REMARK INTER + INTRA:          -5.879
REMARK INTER:                  -5.748
REMARK INTRA:                  -0.131
REMARK UNBOUND:                -0.062
REMARK SMILES CC1=CCC[C@@H](C)C(=O)C[C@H](C(C)C)C(=O)C1
REMARK SMILES IDX 8 1 9 2 6 3 7 4 5 5 4 6 3 7 2 8 1 9 10 11 11 12 15 13 16 14
REMARK SMILES IDX 17 15 12 17 13 18 14 19
REMARK H PARENT
REMARK Flexibility Score: 70.00
ROOT
ATOM      1  C   UNL     1      12.752  17.442  23.183  1.00  0.00     0.136 C 
ATOM      2  O   UNL     1      11.677  17.028  22.771  1.00  0.00    -0.299 OA
ENDROOT
BRANCH   1   3
ATOM      3  C   UNL     1      13.550  18.452  22.373  1.00  0.00     0.053 C 
ATOM      4  C   UNL     1      12.745  19.096  21.232  1.00  0.00     0.016 C 
BRANCH   3   5
ATOM      5  C   UNL     1      14.923  17.905  21.902  1.00  0.00     0.015 C 
BRANCH   5   6
ATOM      6  C   UNL     1      16.192  18.355  22.657  1.00  0.00     0.028 C 
BRANCH   6   7
ATOM      7  C   UNL     1      17.189  17.294  23.058  1.00  0.00    -0.028 C 
ATOM      8  C   UNL     1      17.230  16.630  24.235  1.00  0.00    -0.070 CG0
ATOM      9  C   UNL     1      18.487  15.854  24.546  1.00  0.00     0.039 C 
ATOM     10  G   UNL     1      16.097  16.626  25.249  1.00  0.00     0.000 G0
ENDBRANCH   6   7
ENDBRANCH   5   6
ENDBRANCH   3   5
ENDBRANCH   1   3
BRANCH   1  11
ATOM     11  C   UNL     1      13.232  17.031  24.559  1.00  0.00     0.087 C 
BRANCH  11  12
ATOM     12  C   UNL     1      13.724  15.561  24.701  1.00  0.00     0.066 C 
BRANCH  12  13
ATOM     13  C   UNL     1      15.197  15.434  25.065  1.00  0.00     0.140 C 
ATOM     14  O   UNL     1      15.640  14.313  25.273  1.00  0.00    -0.299 OA
BRANCH  13  15
ATOM     15  C   UNL     1      16.108  16.626  25.266  1.00  0.00     0.106 CG0
ATOM     16  G   UNL     1      17.234  16.610  24.245  1.00  0.00     0.000 G0
ENDBRANCH  13  15
ENDBRANCH  12  13
BRANCH  12  17
ATOM     17  C   UNL     1      12.833  14.743  25.688  1.00  0.00    -0.006 C 
ATOM     18  C   UNL     1      11.435  14.465  25.105  1.00  0.00     0.008 C 
ATOM     19  C   UNL     1      12.672  15.464  27.039  1.00  0.00     0.008 C 
ENDBRANCH  12  17
ENDBRANCH  11  12
ENDBRANCH   1  11
TORSDOF 1
ENDMDL
MODEL 6
REMARK VINA RESULT:    -3.796      9.883     11.295
REMARK INTER + INTRA:          -5.855
REMARK INTER:                  -6.073
REMARK INTRA:                   0.217
REMARK UNBOUND:                -0.062
REMARK SMILES CC1=CCC[C@@H](C)C(=O)C[C@H](C(C)C)C(=O)C1
REMARK SMILES IDX 8 1 9 2 6 3 7 4 5 5 4 6 3 7 2 8 1 9 10 11 11 12 15 13 16 14
REMARK SMILES IDX 17 15 12 17 13 18 14 19
REMARK H PARENT
REMARK Flexibility Score: 70.00
ROOT
ATOM      1  C   UNL     1      19.119  13.221  24.027  1.00  0.00     0.136 C 
ATOM      2  O   UNL     1      19.738  13.324  22.976  1.00  0.00    -0.299 OA
ENDROOT
BRANCH   1   3
ATOM      3  C   UNL     1      19.667  12.372  25.164  1.00  0.00     0.053 C 
ATOM      4  C   UNL     1      19.025  10.978  25.250  1.00  0.00     0.016 C 
BRANCH   3   5
ATOM      5  C   UNL     1      19.674  13.114  26.526  1.00  0.00     0.015 C 
BRANCH   5   6
ATOM      6  C   UNL     1      20.859  14.049  26.848  1.00  0.00     0.028 C 
BRANCH   6   7
ATOM      7  C   UNL     1      21.667  14.590  25.692  1.00  0.00    -0.028 C 
ATOM      8  C   UNL     1      21.361  15.661  24.926  1.00  0.00    -0.070 CG0
ATOM      9  C   UNL     1      22.130  15.829  23.638  1.00  0.00     0.039 C 
ATOM     10  G   UNL     1      20.297  16.686  25.283  1.00  0.00     0.000 G0
ENDBRANCH   6   7
ENDBRANCH   5   6
ENDBRANCH   3   5
ENDBRANCH   1   3
BRANCH   1  11
ATOM     11  C   UNL     1      17.859  14.035  24.233  1.00  0.00     0.087 C 
BRANCH  11  12
ATOM     12  C   UNL     1      18.001  15.301  25.127  1.00  0.00     0.066 C 
BRANCH  12  13
ATOM     13  C   UNL     1      18.983  16.332  24.589  1.00  0.00     0.140 C 
ATOM     14  O   UNL     1      18.739  16.843  23.505  1.00  0.00    -0.299 OA
BRANCH  13  15
ATOM     15  C   UNL     1      20.281  16.685  25.285  1.00  0.00     0.106 CG0
ATOM     16  G   UNL     1      21.358  15.668  24.941  1.00  0.00     0.000 G0
ENDBRANCH  13  15
ENDBRANCH  12  13
BRANCH  12  17
ATOM     17  C   UNL     1      16.616  15.955  25.432  1.00  0.00    -0.006 C 
ATOM     18  C   UNL     1      16.271  15.897  26.932  1.00  0.00     0.008 C 
ATOM     19  C   UNL     1      15.482  15.281  24.636  1.00  0.00     0.008 C 
ENDBRANCH  12  17
ENDBRANCH  11  12
ENDBRANCH   1  11
TORSDOF 1
ENDMDL
MODEL 7
REMARK VINA RESULT:    -3.712      2.131      4.561
REMARK INTER + INTRA:          -5.727
REMARK INTER:                  -5.704
REMARK INTRA:                  -0.023
REMARK UNBOUND:                -0.062
REMARK SMILES CC1=CCC[C@@H](C)C(=O)C[C@H](C(C)C)C(=O)C1
REMARK SMILES IDX 8 1 9 2 6 3 7 4 5 5 4 6 3 7 2 8 1 9 10 11 11 12 15 13 16 14
REMARK SMILES IDX 17 15 12 17 13 18 14 19
REMARK H PARENT
REMARK Flexibility Score: 70.00
ROOT
ATOM      1  C   UNL     1      19.041  16.978  16.131  1.00  0.00     0.136 C 
ATOM      2  O   UNL     1      18.454  18.018  16.393  1.00  0.00    -0.299 OA
ENDROOT
BRANCH   1   3
ATOM      3  C   UNL     1      20.276  16.569  16.919  1.00  0.00     0.053 C 
ATOM      4  C   UNL     1      20.886  17.719  17.738  1.00  0.00     0.016 C 
BRANCH   3   5
ATOM      5  C   UNL     1      21.327  15.823  16.057  1.00  0.00     0.015 C 
BRANCH   5   6
ATOM      6  C   UNL     1      22.028  16.596  14.918  1.00  0.00     0.028 C 
BRANCH   6   7
ATOM      7  C   UNL     1      22.499  15.811  13.717  1.00  0.00    -0.028 C 
ATOM      8  C   UNL     1      21.830  15.637  12.555  1.00  0.00    -0.070 CG0
ATOM      9  C   UNL     1      22.336  14.562  11.622  1.00  0.00     0.039 C 
ATOM     10  G   UNL     1      20.613  16.449  12.144  1.00  0.00     0.000 G0
ENDBRANCH   6   7
ENDBRANCH   5   6
ENDBRANCH   3   5
ENDBRANCH   1   3
BRANCH   1  11
ATOM     11  C   UNL     1      18.465  16.038  15.091  1.00  0.00     0.087 C 
BRANCH  11  12
ATOM     12  C   UNL     1      18.400  16.585  13.636  1.00  0.00     0.066 C 
BRANCH  12  13
ATOM     13  C   UNL     1      19.320  15.863  12.661  1.00  0.00     0.140 C 
ATOM     14  O   UNL     1      19.037  14.715  12.352  1.00  0.00    -0.299 OA
BRANCH  13  15
ATOM     15  C   UNL     1      20.605  16.465  12.132  1.00  0.00     0.106 CG0
ATOM     16  G   UNL     1      21.798  15.626  12.563  1.00  0.00     0.000 G0
ENDBRANCH  13  15
ENDBRANCH  12  13
BRANCH  12  17
ATOM     17  C   UNL     1      16.936  16.627  13.096  1.00  0.00    -0.006 C 
ATOM     18  C   UNL     1      16.609  17.972  12.420  1.00  0.00     0.008 C 
ATOM     19  C   UNL     1      15.910  16.373  14.216  1.00  0.00     0.008 C 
ENDBRANCH  12  17
ENDBRANCH  11  12
ENDBRANCH   1  11
TORSDOF 1
ENDMDL
MODEL 8
REMARK VINA RESULT:    -3.600      9.573     11.915
REMARK INTER + INTRA:          -5.556
REMARK INTER:                  -5.510
REMARK INTRA:                  -0.046
REMARK UNBOUND:                -0.062
REMARK SMILES CC1=CCC[C@@H](C)C(=O)C[C@H](C(C)C)C(=O)C1
REMARK SMILES IDX 8 1 9 2 6 3 7 4 5 5 4 6 3 7 2 8 1 9 10 11 11 12 15 13 16 14
REMARK SMILES IDX 17 15 12 17 13 18 14 19
REMARK H PARENT
REMARK Flexibility Score: 70.00
ROOT
ATOM      1  C   UNL     1      14.170  16.988  24.752  1.00  0.00     0.136 C 
ATOM      2  O   UNL     1      15.272  17.308  24.328  1.00  0.00    -0.299 OA
ENDROOT
BRANCH   1   3
ATOM      3  C   UNL     1      14.045  16.109  25.988  1.00  0.00     0.053 C 
ATOM      4  C   UNL     1      15.371  15.921  26.742  1.00  0.00     0.016 C 
BRANCH   3   5
ATOM      5  C   UNL     1      13.320  14.767  25.708  1.00  0.00     0.015 C 
BRANCH   5   6
ATOM      6  C   UNL     1      11.805  14.797  25.406  1.00  0.00     0.028 C 
BRANCH   6   7
ATOM      7  C   UNL     1      11.328  14.164  24.121  1.00  0.00    -0.028 C 
ATOM      8  C   UNL     1      10.631  14.770  23.134  1.00  0.00    -0.070 CG0
ATOM      9  C   UNL     1       9.985  13.880  22.100  1.00  0.00     0.039 C 
ATOM     10  G   UNL     1      10.462  16.276  23.013  1.00  0.00     0.000 G0
ENDBRANCH   6   7
ENDBRANCH   5   6
ENDBRANCH   3   5
ENDBRANCH   1   3
BRANCH   1  11
ATOM     11  C   UNL     1      12.926  17.564  24.108  1.00  0.00     0.087 C 
BRANCH  11  12
ATOM     12  C   UNL     1      12.829  17.423  22.561  1.00  0.00     0.066 C 
BRANCH  12  13
ATOM     13  C   UNL     1      11.499  16.865  22.072  1.00  0.00     0.140 C 
ATOM     14  O   UNL     1      11.243  16.960  20.880  1.00  0.00    -0.299 OA
BRANCH  13  15
ATOM     15  C   UNL     1      10.452  16.284  22.999  1.00  0.00     0.106 CG0
ATOM     16  G   UNL     1      10.637  14.781  23.130  1.00  0.00     0.000 G0
ENDBRANCH  13  15
ENDBRANCH  12  13
BRANCH  12  17
ATOM     17  C   UNL     1      13.174  18.761  21.834  1.00  0.00    -0.006 C 
ATOM     18  C   UNL     1      14.482  18.656  21.027  1.00  0.00     0.008 C 
ATOM     19  C   UNL     1      13.297  19.932  22.827  1.00  0.00     0.008 C 
ENDBRANCH  12  17
ENDBRANCH  11  12
ENDBRANCH   1  11
TORSDOF 1
ENDMDL
MODEL 9
REMARK VINA RESULT:    -3.522      8.901     10.641
REMARK INTER + INTRA:          -5.436
REMARK INTER:                  -5.998
REMARK INTRA:                   0.562
REMARK UNBOUND:                -0.062
REMARK SMILES CC1=CCC[C@@H](C)C(=O)C[C@H](C(C)C)C(=O)C1
REMARK SMILES IDX 8 1 9 2 6 3 7 4 5 5 4 6 3 7 2 8 1 9 10 11 11 12 15 13 16 14
REMARK SMILES IDX 17 15 12 17 13 18 14 19
REMARK H PARENT
REMARK Flexibility Score: 70.00
ROOT
ATOM      1  C   UNL     1      18.013  13.640  24.893  1.00  0.00     0.136 C 
ATOM      2  O   UNL     1      17.336  13.318  25.860  1.00  0.00    -0.299 OA
ENDROOT
BRANCH   1   3
ATOM      3  C   UNL     1      19.342  12.953  24.619  1.00  0.00     0.053 C 
ATOM      4  C   UNL     1      20.214  12.786  25.875  1.00  0.00     0.016 C 
BRANCH   3   5
ATOM      5  C   UNL     1      20.117  13.580  23.431  1.00  0.00     0.015 C 
BRANCH   5   6
ATOM      6  C   UNL     1      21.370  14.430  23.736  1.00  0.00     0.028 C 
BRANCH   6   7
ATOM      7  C   UNL     1      21.191  15.680  24.564  1.00  0.00    -0.028 C 
ATOM      8  C   UNL     1      20.527  16.800  24.200  1.00  0.00    -0.070 CG0
ATOM      9  C   UNL     1      20.744  18.035  25.041  1.00  0.00     0.039 C 
ATOM     10  G   UNL     1      19.591  16.884  23.005  1.00  0.00     0.000 G0
ENDBRANCH   6   7
ENDBRANCH   5   6
ENDBRANCH   3   5
ENDBRANCH   1   3
BRANCH   1  11
ATOM     11  C   UNL     1      17.468  14.648  23.903  1.00  0.00     0.087 C 
BRANCH  11  12
ATOM     12  C   UNL     1      17.435  16.129  24.382  1.00  0.00     0.066 C 
BRANCH  12  13
ATOM     13  C   UNL     1      18.156  17.097  23.454  1.00  0.00     0.140 C 
ATOM     14  O   UNL     1      17.518  18.036  23.001  1.00  0.00    -0.299 OA
BRANCH  13  15
ATOM     15  C   UNL     1      19.587  16.901  23.000  1.00  0.00     0.106 CG0
ATOM     16  G   UNL     1      20.514  16.799  24.201  1.00  0.00     0.000 G0
ENDBRANCH  13  15
ENDBRANCH  12  13
BRANCH  12  17
ATOM     17  C   UNL     1      15.980  16.613  24.673  1.00  0.00    -0.006 C 
ATOM     18  C   UNL     1      15.360  15.884  25.879  1.00  0.00     0.008 C 
ATOM     19  C   UNL     1      15.062  16.417  23.451  1.00  0.00     0.008 C 
ENDBRANCH  12  17
ENDBRANCH  11  12
ENDBRANCH   1  11
TORSDOF 1
ENDMDL
