MODEL 1
REMARK VINA RESULT:    -2.403      0.000      0.000
REMARK INTER + INTRA:          -2.403
REMARK INTER:                  -2.403
REMARK INTRA:                   0.000
REMARK UNBOUND:                 0.000
REMARK SMILES CC(=O)[O-]
REMARK SMILES IDX 1 1 2 2 3 3 4 4
REMARK H PARENT
REMARK Flexibility Score: inf
ROOT
ATOM      1  C   UNL     1      19.218  20.980   9.942  1.00  0.00     0.063 C 
ATOM      2  C   UNL     1      17.884  20.419   9.581  1.00  0.00     0.038 C 
ATOM      3  O   UNL     1      17.529  20.359   8.375  1.00  0.00    -0.550 OA
ATOM      4  O   UNL     1      17.008  20.011  10.579  1.00  0.00    -0.550 OA
ENDROOT
TORSDOF 0
ENDMDL
MODEL 2
REMARK VINA RESULT:    -2.387      4.754      5.072
REMARK INTER + INTRA:          -2.387
REMARK INTER:                  -2.387
REMARK INTRA:                   0.000
REMARK UNBOUND:                 0.000
REMARK SMILES CC(=O)[O-]
REMARK SMILES IDX 1 1 2 2 3 3 4 4
REMARK H PARENT
REMARK Flexibility Score: inf
ROOT
ATOM      1  C   UNL     1      14.801  19.366  10.736  1.00  0.00     0.063 C 
ATOM      2  C   UNL     1      13.471  19.070  11.342  1.00  0.00     0.038 C 
ATOM      3  O   UNL     1      13.065  17.881  11.425  1.00  0.00    -0.550 OA
ATOM      4  O   UNL     1      12.653  20.110  11.766  1.00  0.00    -0.550 OA
ENDROOT
TORSDOF 0
ENDMDL
MODEL 3
REMARK VINA RESULT:    -2.376      4.266      5.091
REMARK INTER + INTRA:          -2.376
REMARK INTER:                  -2.376
REMARK INTRA:                   0.000
REMARK UNBOUND:                 0.000
REMARK SMILES CC(=O)[O-]
REMARK SMILES IDX 1 1 2 2 3 3 4 4
REMARK H PARENT
REMARK Flexibility Score: inf
ROOT
ATOM      1  C   UNL     1      13.127  17.875  11.498  1.00  0.00     0.063 C 
ATOM      2  C   UNL     1      13.849  19.160  11.279  1.00  0.00     0.038 C 
ATOM      3  O   UNL     1      13.475  20.206  11.871  1.00  0.00    -0.550 OA
ATOM      4  O   UNL     1      14.905  19.220  10.377  1.00  0.00    -0.550 OA
ENDROOT
TORSDOF 0
ENDMDL
MODEL 4
REMARK VINA RESULT:    -2.302      1.369      1.769
REMARK INTER + INTRA:          -2.302
REMARK INTER:                  -2.302
REMARK INTRA:                   0.000
REMARK UNBOUND:                 0.000
REMARK SMILES CC(=O)[O-]
REMARK SMILES IDX 1 1 2 2 3 3 4 4
REMARK H PARENT
REMARK Flexibility Score: inf
ROOT
ATOM      1  C   UNL     1      17.233  20.156  10.656  1.00  0.00     0.063 C 
ATOM      2  C   UNL     1      18.052  20.520   9.465  1.00  0.00     0.038 C 
ATOM      3  O   UNL     1      17.563  20.428   8.308  1.00  0.00    -0.550 OA
ATOM      4  O   UNL     1      19.377  20.910   9.624  1.00  0.00    -0.550 OA
ENDROOT
TORSDOF 0
ENDMDL
MODEL 5
REMARK VINA RESULT:    -2.144      1.396      2.101
REMARK INTER + INTRA:          -2.144
REMARK INTER:                  -2.144
REMARK INTRA:                   0.000
REMARK UNBOUND:                 0.000
REMARK SMILES CC(=O)[O-]
REMARK SMILES IDX 1 1 2 2 3 3 4 4
REMARK H PARENT
REMARK Flexibility Score: inf
ROOT
ATOM      1  C   UNL     1      17.507  20.351   8.388  1.00  0.00     0.063 C 
ATOM      2  C   UNL     1      17.943  20.512   9.805  1.00  0.00     0.038 C 
ATOM      3  O   UNL     1      17.207  20.106  10.743  1.00  0.00    -0.550 OA
ATOM      4  O   UNL     1      19.137  21.159  10.097  1.00  0.00    -0.550 OA
ENDROOT
TORSDOF 0
ENDMDL
MODEL 6
REMARK VINA RESULT:    -1.836     13.746     14.178
REMARK INTER + INTRA:          -1.836
REMARK INTER:                  -1.836
REMARK INTRA:                   0.000
REMARK UNBOUND:                 0.000
REMARK SMILES CC(=O)[O-]
REMARK SMILES IDX 1 1 2 2 3 3 4 4
REMARK H PARENT
REMARK Flexibility Score: inf
ROOT
ATOM      1  C   UNL     1      22.136  32.500   3.759  1.00  0.00     0.063 C 
ATOM      2  C   UNL     1      23.492  31.993   4.112  1.00  0.00     0.038 C 
ATOM      3  O   UNL     1      23.766  31.698   5.305  1.00  0.00    -0.550 OA
ATOM      4  O   UNL     1      24.475  31.895   3.135  1.00  0.00    -0.550 OA
ENDROOT
TORSDOF 0
ENDMDL
MODEL 7
REMARK VINA RESULT:    -1.806     13.751     14.115
REMARK INTER + INTRA:          -1.806
REMARK INTER:                  -1.806
REMARK INTRA:                   0.000
REMARK UNBOUND:                 0.000
REMARK SMILES CC(=O)[O-]
REMARK SMILES IDX 1 1 2 2 3 3 4 4
REMARK H PARENT
REMARK Flexibility Score: inf
ROOT
ATOM      1  C   UNL     1      22.207  32.558   3.760  1.00  0.00     0.063 C 
ATOM      2  C   UNL     1      23.572  32.011   4.010  1.00  0.00     0.038 C 
ATOM      3  O   UNL     1      24.412  31.955   3.074  1.00  0.00    -0.550 OA
ATOM      4  O   UNL     1      23.903  31.512   5.264  1.00  0.00    -0.550 OA
ENDROOT
TORSDOF 0
ENDMDL
MODEL 8
REMARK VINA RESULT:    -1.626     13.741     14.064
REMARK INTER + INTRA:          -1.626
REMARK INTER:                  -1.626
REMARK INTRA:                   0.000
REMARK UNBOUND:                 0.000
REMARK SMILES CC(=O)[O-]
REMARK SMILES IDX 1 1 2 2 3 3 4 4
REMARK H PARENT
REMARK Flexibility Score: inf
ROOT
ATOM      1  C   UNL     1      24.152  31.714   2.885  1.00  0.00     0.063 C 
ATOM      2  C   UNL     1      23.346  32.078   4.086  1.00  0.00     0.038 C 
ATOM      3  O   UNL     1      22.318  32.794   3.965  1.00  0.00    -0.550 OA
ATOM      4  O   UNL     1      23.758  31.672   5.350  1.00  0.00    -0.550 OA
ENDROOT
TORSDOF 0
ENDMDL
MODEL 9
REMARK VINA RESULT:    -1.614      9.901     10.027
REMARK INTER + INTRA:          -1.614
REMARK INTER:                  -1.614
REMARK INTRA:                   0.000
REMARK UNBOUND:                 0.000
REMARK SMILES CC(=O)[O-]
REMARK SMILES IDX 1 1 2 2 3 3 4 4
REMARK H PARENT
REMARK Flexibility Score: inf
ROOT
ATOM      1  C   UNL     1      26.998  22.750  10.750  1.00  0.00     0.063 C 
ATOM      2  C   UNL     1      27.788  21.580  10.272  1.00  0.00     0.038 C 
ATOM      3  O   UNL     1      28.110  21.486   9.058  1.00  0.00    -0.550 OA
ATOM      4  O   UNL     1      28.125  20.560  11.154  1.00  0.00    -0.550 OA
ENDROOT
TORSDOF 0
ENDMDL
