MODEL 1
REMARK VINA RESULT:    -2.552      0.000      0.000
REMARK INTER + INTRA:          -2.552
REMARK INTER:                  -2.552
REMARK INTRA:                   0.000
REMARK UNBOUND:                 0.000
REMARK SMILES O=C1CCCCC1
REMARK SMILES IDX 5 1 4 2 3 3 2 4 1 5 7 6 6 7
REMARK H PARENT
REMARK Flexibility Score: inf
ROOT
ATOM      1  C   UNL     1     142.121 135.084 138.198  1.00  0.00     0.001 C 
ATOM      2  C   UNL     1     143.544 134.736 138.662  1.00  0.00     0.008 C 
ATOM      3  C   UNL     1     143.666 133.252 139.029  1.00  0.00     0.075 C 
ATOM      4  C   UNL     1     143.124 132.392 137.922  1.00  0.00     0.132 C 
ATOM      5  O   UNL     1     143.725 131.386 137.572  1.00  0.00    -0.300 OA
ATOM      6  C   UNL     1     141.790 132.728 137.316  1.00  0.00     0.075 C 
ATOM      7  C   UNL     1     141.713 134.225 136.991  1.00  0.00     0.008 C 
ENDROOT
TORSDOF 0
ENDMDL
MODEL 2
REMARK VINA RESULT:    -2.529     14.254     15.505
REMARK INTER + INTRA:          -2.529
REMARK INTER:                  -2.529
REMARK INTRA:                   0.000
REMARK UNBOUND:                 0.000
REMARK SMILES O=C1CCCCC1
REMARK SMILES IDX 5 1 4 2 3 3 2 4 1 5 7 6 6 7
REMARK H PARENT
REMARK Flexibility Score: inf
ROOT
ATOM      1  C   UNL     1     139.657 146.463 138.068  1.00  0.00     0.001 C 
ATOM      2  C   UNL     1     138.250 146.638 138.658  1.00  0.00     0.008 C 
ATOM      3  C   UNL     1     138.006 148.084 139.108  1.00  0.00     0.075 C 
ATOM      4  C   UNL     1     138.364 149.042 138.007  1.00  0.00     0.132 C 
ATOM      5  O   UNL     1     137.636 149.992 137.755  1.00  0.00    -0.300 OA
ATOM      6  C   UNL     1     139.671 148.875 137.282  1.00  0.00     0.075 C 
ATOM      7  C   UNL     1     139.874 147.410 136.878  1.00  0.00     0.008 C 
ENDROOT
TORSDOF 0
ENDMDL
MODEL 3
REMARK VINA RESULT:    -2.529     10.083     10.990
REMARK INTER + INTRA:          -2.529
REMARK INTER:                  -2.529
REMARK INTRA:                   0.000
REMARK UNBOUND:                 0.000
REMARK SMILES O=C1CCCCC1
REMARK SMILES IDX 5 1 4 2 3 3 2 4 1 5 7 6 6 7
REMARK H PARENT
REMARK Flexibility Score: inf
ROOT
ATOM      1  C   UNL     1     146.467 142.098 138.145  1.00  0.00     0.001 C 
ATOM      2  C   UNL     1     146.836 143.510 138.627  1.00  0.00     0.008 C 
ATOM      3  C   UNL     1     148.323 143.606 138.991  1.00  0.00     0.075 C 
ATOM      4  C   UNL     1     149.171 143.067 137.873  1.00  0.00     0.132 C 
ATOM      5  O   UNL     1     150.184 143.658 137.527  1.00  0.00    -0.300 OA
ATOM      6  C   UNL     1     148.814 141.746 137.250  1.00  0.00     0.075 C 
ATOM      7  C   UNL     1     147.314 141.695 136.930  1.00  0.00     0.008 C 
ENDROOT
TORSDOF 0
ENDMDL
MODEL 4
REMARK VINA RESULT:    -2.516     10.097     11.019
REMARK INTER + INTRA:          -2.516
REMARK INTER:                  -2.516
REMARK INTRA:                   0.000
REMARK UNBOUND:                 0.000
REMARK SMILES O=C1CCCCC1
REMARK SMILES IDX 5 1 4 2 3 3 2 4 1 5 7 6 6 7
REMARK H PARENT
REMARK Flexibility Score: inf
ROOT
ATOM      1  C   UNL     1     135.100 139.499 138.236  1.00  0.00     0.001 C 
ATOM      2  C   UNL     1     134.768 138.065 138.677  1.00  0.00     0.008 C 
ATOM      3  C   UNL     1     133.280 137.915 139.017  1.00  0.00     0.075 C 
ATOM      4  C   UNL     1     132.430 138.458 137.902  1.00  0.00     0.132 C 
ATOM      5  O   UNL     1     131.440 137.846 137.528  1.00  0.00    -0.300 OA
ATOM      6  C   UNL     1     132.755 139.805 137.319  1.00  0.00     0.075 C 
ATOM      7  C   UNL     1     134.256 139.909 137.020  1.00  0.00     0.008 C 
ENDROOT
TORSDOF 0
ENDMDL
MODEL 5
REMARK VINA RESULT:    -2.465     14.219     15.449
REMARK INTER + INTRA:          -2.465
REMARK INTER:                  -2.465
REMARK INTRA:                   0.000
REMARK UNBOUND:                 0.000
REMARK SMILES O=C1CCCCC1
REMARK SMILES IDX 5 1 4 2 3 3 2 4 1 5 7 6 6 7
REMARK H PARENT
REMARK Flexibility Score: inf
ROOT
ATOM      1  C   UNL     1     139.646 147.003 137.123  1.00  0.00     0.001 C 
ATOM      2  C   UNL     1     139.878 148.504 137.354  1.00  0.00     0.008 C 
ATOM      3  C   UNL     1     138.560 149.238 137.633  1.00  0.00     0.075 C 
ATOM      4  C   UNL     1     137.788 148.534 138.714  1.00  0.00     0.132 C 
ATOM      5  O   UNL     1     137.243 149.176 139.600  1.00  0.00    -0.300 OA
ATOM      6  C   UNL     1     137.614 147.043 138.641  1.00  0.00     0.075 C 
ATOM      7  C   UNL     1     138.954 146.363 138.336  1.00  0.00     0.008 C 
ENDROOT
TORSDOF 0
ENDMDL
MODEL 6
REMARK VINA RESULT:    -2.454     10.214     11.120
REMARK INTER + INTRA:          -2.454
REMARK INTER:                  -2.454
REMARK INTRA:                   0.000
REMARK UNBOUND:                 0.000
REMARK SMILES O=C1CCCCC1
REMARK SMILES IDX 5 1 4 2 3 3 2 4 1 5 7 6 6 7
REMARK H PARENT
REMARK Flexibility Score: inf
ROOT
ATOM      1  C   UNL     1     147.240 141.807 136.881  1.00  0.00     0.001 C 
ATOM      2  C   UNL     1     148.719 141.627 137.256  1.00  0.00     0.008 C 
ATOM      3  C   UNL     1     149.345 142.950 137.716  1.00  0.00     0.075 C 
ATOM      4  C   UNL     1     148.490 143.596 138.769  1.00  0.00     0.132 C 
ATOM      5  O   UNL     1     149.004 144.096 139.760  1.00  0.00    -0.300 OA
ATOM      6  C   UNL     1     147.007 143.706 138.547  1.00  0.00     0.075 C 
ATOM      7  C   UNL     1     146.438 142.365 138.066  1.00  0.00     0.008 C 
ENDROOT
TORSDOF 0
ENDMDL
MODEL 7
REMARK VINA RESULT:    -2.451      1.139      2.268
REMARK INTER + INTRA:          -2.451
REMARK INTER:                  -2.451
REMARK INTRA:                   0.000
REMARK UNBOUND:                 0.000
REMARK SMILES O=C1CCCCC1
REMARK SMILES IDX 5 1 4 2 3 3 2 4 1 5 7 6 6 7
REMARK H PARENT
REMARK Flexibility Score: inf
ROOT
ATOM      1  C   UNL     1     141.745 134.204 136.896  1.00  0.00     0.001 C 
ATOM      2  C   UNL     1     141.836 132.729 137.318  1.00  0.00     0.008 C 
ATOM      3  C   UNL     1     143.205 132.403 137.928  1.00  0.00     0.075 C 
ATOM      4  C   UNL     1     143.552 133.399 138.999  1.00  0.00     0.132 C 
ATOM      5  O   UNL     1     144.042 133.024 140.054  1.00  0.00    -0.300 OA
ATOM      6  C   UNL     1     143.377 134.867 138.722  1.00  0.00     0.075 C 
ATOM      7  C   UNL     1     142.004 135.132 138.093  1.00  0.00     0.008 C 
ENDROOT
TORSDOF 0
ENDMDL
MODEL 8
REMARK VINA RESULT:    -2.435     13.449     14.671
REMARK INTER + INTRA:          -2.435
REMARK INTER:                  -2.435
REMARK INTRA:                   0.000
REMARK UNBOUND:                 0.000
REMARK SMILES O=C1CCCCC1
REMARK SMILES IDX 5 1 4 2 3 3 2 4 1 5 7 6 6 7
REMARK H PARENT
REMARK Flexibility Score: inf
ROOT
ATOM      1  C   UNL     1     139.605 148.888 137.454  1.00  0.00     0.001 C 
ATOM      2  C   UNL     1     139.883 147.493 136.875  1.00  0.00     0.008 C 
ATOM      3  C   UNL     1     139.737 146.403 137.945  1.00  0.00     0.075 C 
ATOM      4  C   UNL     1     138.426 146.550 138.665  1.00  0.00     0.132 C 
ATOM      5  O   UNL     1     137.745 145.565 138.913  1.00  0.00    -0.300 OA
ATOM      6  C   UNL     1     138.007 147.906 139.162  1.00  0.00     0.075 C 
ATOM      7  C   UNL     1     138.197 148.958 138.063  1.00  0.00     0.008 C 
ENDROOT
TORSDOF 0
ENDMDL
MODEL 9
REMARK VINA RESULT:    -2.434     10.006     10.994
REMARK INTER + INTRA:          -2.434
REMARK INTER:                  -2.434
REMARK INTRA:                   0.000
REMARK UNBOUND:                 0.000
REMARK SMILES O=C1CCCCC1
REMARK SMILES IDX 5 1 4 2 3 3 2 4 1 5 7 6 6 7
REMARK H PARENT
REMARK Flexibility Score: inf
ROOT
ATOM      1  C   UNL     1     134.317 139.806 137.073  1.00  0.00     0.001 C 
ATOM      2  C   UNL     1     132.804 139.939 137.305  1.00  0.00     0.008 C 
ATOM      3  C   UNL     1     132.151 138.571 137.539  1.00  0.00     0.075 C 
ATOM      4  C   UNL     1     132.898 137.808 138.597  1.00  0.00     0.132 C 
ATOM      5  O   UNL     1     132.288 137.197 139.462  1.00  0.00    -0.300 OA
ATOM      6  C   UNL     1     134.397 137.727 138.524  1.00  0.00     0.075 C 
ATOM      7  C   UNL     1     134.996 139.115 138.265  1.00  0.00     0.008 C 
ENDROOT
TORSDOF 0
ENDMDL
