MODEL 1
REMARK VINA RESULT:    -3.439      0.000      0.000
REMARK INTER + INTRA:          -3.539
REMARK INTER:                  -3.539
REMARK INTRA:                   0.000
REMARK UNBOUND:                 0.000
REMARK SMILES Oc1ccc2[nH]ccc2c1
REMARK SMILES IDX 3 1 4 2 5 3 9 4 8 5 7 6 6 7 10 8 2 9 1 11
REMARK H PARENT 6 10 1 12
REMARK Flexibility Score: inf
ROOT
ATOM      1  C   UNL     1      10.950  16.888   2.119  1.00  0.00     0.048 A 
ATOM      2  C   UNL     1      11.994  15.944   2.125  1.00  0.00     0.030 A 
ATOM      3  C   UNL     1      11.826  14.784   1.370  1.00  0.00     0.046 A 
ATOM      4  C   UNL     1      10.688  14.557   0.642  1.00  0.00     0.003 A 
ATOM      5  C   UNL     1      10.834  13.338   0.019  1.00  0.00     0.028 A 
ATOM      6  C   UNL     1      12.087  12.876   0.413  1.00  0.00     0.083 A 
ATOM      7  N   UNL     1      12.688  13.763   1.238  1.00  0.00    -0.361 N 
ATOM      8  C   UNL     1       9.637  15.471   0.615  1.00  0.00     0.056 A 
ATOM      9  C   UNL     1       9.775  16.657   1.369  1.00  0.00     0.116 A 
ATOM     10  H   UNL     1      13.630  13.670   1.679  1.00  0.00     0.166 HD
ENDROOT
BRANCH   9  11
ATOM     11  O   UNL     1       8.757  17.608   1.379  1.00  0.00    -0.508 OA
ATOM     12  H   UNL     1       7.927  17.488   1.946  1.00  0.00     0.293 HD
ENDBRANCH   9  11
TORSDOF 1
ENDMDL
MODEL 2
REMARK VINA RESULT:    -3.348      1.392      2.299
REMARK INTER + INTRA:          -3.446
REMARK INTER:                  -3.446
REMARK INTRA:                   0.000
REMARK UNBOUND:                 0.000
REMARK SMILES Oc1ccc2[nH]ccc2c1
REMARK SMILES IDX 3 1 4 2 5 3 9 4 8 5 7 6 6 7 10 8 2 9 1 11
REMARK H PARENT 6 10 1 12
REMARK Flexibility Score: inf
ROOT
ATOM      1  C   UNL     1       9.653  14.700  -0.105  1.00  0.00     0.048 A 
ATOM      2  C   UNL     1      10.716  13.935  -0.618  1.00  0.00     0.030 A 
ATOM      3  C   UNL     1      11.767  13.622   0.243  1.00  0.00     0.046 A 
ATOM      4  C   UNL     1      11.777  14.038   1.548  1.00  0.00     0.003 A 
ATOM      5  C   UNL     1      12.938  13.570   2.121  1.00  0.00     0.028 A 
ATOM      6  C   UNL     1      13.590  12.875   1.106  1.00  0.00     0.083 A 
ATOM      7  N   UNL     1      12.870  12.910  -0.039  1.00  0.00    -0.361 N 
ATOM      8  C   UNL     1      10.740  14.796   2.086  1.00  0.00     0.056 A 
ATOM      9  C   UNL     1       9.660  15.131   1.241  1.00  0.00     0.116 A 
ATOM     10  H   UNL     1      13.124  12.472  -0.953  1.00  0.00     0.166 HD
ENDROOT
BRANCH   9  11
ATOM     11  O   UNL     1       8.594  15.887   1.725  1.00  0.00    -0.508 OA
ATOM     12  H   UNL     1       7.855  16.212   1.113  1.00  0.00     0.293 HD
ENDBRANCH   9  11
TORSDOF 1
ENDMDL
MODEL 3
REMARK VINA RESULT:    -3.092      2.621      4.055
REMARK INTER + INTRA:          -3.182
REMARK INTER:                  -3.182
REMARK INTRA:                   0.000
REMARK UNBOUND:                 0.000
REMARK SMILES Oc1ccc2[nH]ccc2c1
REMARK SMILES IDX 3 1 4 2 5 3 9 4 8 5 7 6 6 7 10 8 2 9 1 11
REMARK H PARENT 6 10 1 12
REMARK Flexibility Score: inf
ROOT
ATOM      1  C   UNL     1      11.696  13.073   0.559  1.00  0.00     0.048 A 
ATOM      2  C   UNL     1      10.537  13.787   0.206  1.00  0.00     0.030 A 
ATOM      3  C   UNL     1      10.327  15.027   0.810  1.00  0.00     0.046 A 
ATOM      4  C   UNL     1      11.213  15.543   1.719  1.00  0.00     0.003 A 
ATOM      5  C   UNL     1      10.722  16.765   2.123  1.00  0.00     0.028 A 
ATOM      6  C   UNL     1       9.533  16.930   1.419  1.00  0.00     0.083 A 
ATOM      7  N   UNL     1       9.296  15.865   0.618  1.00  0.00    -0.361 N 
ATOM      8  C   UNL     1      12.369  14.861   2.090  1.00  0.00     0.056 A 
ATOM      9  C   UNL     1      12.611  13.603   1.497  1.00  0.00     0.116 A 
ATOM     10  H   UNL     1       8.479  15.728  -0.017  1.00  0.00     0.166 HD
ENDROOT
BRANCH   9  11
ATOM     11  O   UNL     1      13.752  12.875   1.829  1.00  0.00    -0.508 OA
ATOM     12  H   UNL     1      13.750  11.863   1.837  1.00  0.00     0.293 HD
ENDBRANCH   9  11
TORSDOF 1
ENDMDL
MODEL 4
REMARK VINA RESULT:    -3.036      1.654      1.932
REMARK INTER + INTRA:          -3.125
REMARK INTER:                  -3.125
REMARK INTRA:                   0.000
REMARK UNBOUND:                 0.000
REMARK SMILES Oc1ccc2[nH]ccc2c1
REMARK SMILES IDX 3 1 4 2 5 3 9 4 8 5 7 6 6 7 10 8 2 9 1 11
REMARK H PARENT 6 10 1 12
REMARK Flexibility Score: inf
ROOT
ATOM      1  C   UNL     1       9.052  17.232   2.125  1.00  0.00     0.048 A 
ATOM      2  C   UNL     1      10.456  17.142   2.109  1.00  0.00     0.030 A 
ATOM      3  C   UNL     1      11.026  15.870   2.074  1.00  0.00     0.046 A 
ATOM      4  C   UNL     1      10.257  14.737   2.058  1.00  0.00     0.003 A 
ATOM      5  C   UNL     1      11.113  13.658   2.025  1.00  0.00     0.028 A 
ATOM      6  C   UNL     1      12.391  14.209   2.025  1.00  0.00     0.083 A 
ATOM      7  N   UNL     1      12.332  15.560   2.055  1.00  0.00    -0.361 N 
ATOM      8  C   UNL     1       8.865  14.792   2.074  1.00  0.00     0.056 A 
ATOM      9  C   UNL     1       8.255  16.064   2.108  1.00  0.00     0.116 A 
ATOM     10  H   UNL     1      13.139  16.223   2.061  1.00  0.00     0.166 HD
ENDROOT
BRANCH   9  11
ATOM     11  O   UNL     1       6.867  16.181   2.124  1.00  0.00    -0.508 OA
ATOM     12  H   UNL     1       6.274  15.402   2.384  1.00  0.00     0.293 HD
ENDBRANCH   9  11
TORSDOF 1
ENDMDL
MODEL 5
REMARK VINA RESULT:    -2.757      2.795      3.727
REMARK INTER + INTRA:          -2.838
REMARK INTER:                  -2.838
REMARK INTRA:                   0.000
REMARK UNBOUND:                 0.000
REMARK SMILES Oc1ccc2[nH]ccc2c1
REMARK SMILES IDX 3 1 4 2 5 3 9 4 8 5 7 6 6 7 10 8 2 9 1 11
REMARK H PARENT 6 10 1 12
REMARK Flexibility Score: inf
ROOT
ATOM      1  C   UNL     1      11.894  16.538   1.779  1.00  0.00     0.048 A 
ATOM      2  C   UNL     1      10.726  17.320   1.833  1.00  0.00     0.030 A 
ATOM      3  C   UNL     1       9.505  16.657   1.951  1.00  0.00     0.046 A 
ATOM      4  C   UNL     1       9.430  15.291   2.013  1.00  0.00     0.003 A 
ATOM      5  C   UNL     1       8.099  14.955   2.125  1.00  0.00     0.028 A 
ATOM      6  C   UNL     1       7.418  16.169   2.124  1.00  0.00     0.083 A 
ATOM      7  N   UNL     1       8.281  17.205   2.018  1.00  0.00    -0.361 N 
ATOM      8  C   UNL     1      10.568  14.489   1.961  1.00  0.00     0.056 A 
ATOM      9  C   UNL     1      11.821  15.128   1.842  1.00  0.00     0.116 A 
ATOM     10  H   UNL     1       8.041  18.221   1.994  1.00  0.00     0.166 HD
ENDROOT
BRANCH   9  11
ATOM     11  O   UNL     1      12.993  14.377   1.788  1.00  0.00    -0.508 OA
ATOM     12  H   UNL     1      12.972  13.365   1.758  1.00  0.00     0.293 HD
ENDBRANCH   9  11
TORSDOF 1
ENDMDL
MODEL 6
REMARK VINA RESULT:    -2.562      2.492      3.736
REMARK INTER + INTRA:          -2.637
REMARK INTER:                  -2.637
REMARK INTRA:                   0.000
REMARK UNBOUND:                 0.000
REMARK SMILES Oc1ccc2[nH]ccc2c1
REMARK SMILES IDX 3 1 4 2 5 3 9 4 8 5 7 6 6 7 10 8 2 9 1 11
REMARK H PARENT 6 10 1 12
REMARK Flexibility Score: inf
ROOT
ATOM      1  C   UNL     1      11.624  14.983   2.052  1.00  0.00     0.048 A 
ATOM      2  C   UNL     1      10.365  14.354   2.060  1.00  0.00     0.030 A 
ATOM      3  C   UNL     1       9.232  15.166   2.085  1.00  0.00     0.046 A 
ATOM      4  C   UNL     1       9.327  16.533   2.102  1.00  0.00     0.003 A 
ATOM      5  C   UNL     1       8.044  17.034   2.125  1.00  0.00     0.028 A 
ATOM      6  C   UNL     1       7.217  15.915   2.121  1.00  0.00     0.083 A 
ATOM      7  N   UNL     1       7.947  14.777   2.096  1.00  0.00    -0.361 N 
ATOM      8  C   UNL     1      10.557  17.186   2.095  1.00  0.00     0.056 A 
ATOM      9  C   UNL     1      11.725  16.393   2.070  1.00  0.00     0.116 A 
ATOM     10  H   UNL     1       7.583  13.798   2.088  1.00  0.00     0.166 HD
ENDROOT
BRANCH   9  11
ATOM     11  O   UNL     1      12.983  16.990   2.061  1.00  0.00    -0.508 OA
ATOM     12  H   UNL     1      13.605  16.901   1.267  1.00  0.00     0.293 HD
ENDBRANCH   9  11
TORSDOF 1
ENDMDL
MODEL 7
REMARK VINA RESULT:    -2.448      2.948      3.766
REMARK INTER + INTRA:          -2.520
REMARK INTER:                  -2.520
REMARK INTRA:                   0.000
REMARK UNBOUND:                 0.000
REMARK SMILES Oc1ccc2[nH]ccc2c1
REMARK SMILES IDX 3 1 4 2 5 3 9 4 8 5 7 6 6 7 10 8 2 9 1 11
REMARK H PARENT 6 10 1 12
REMARK Flexibility Score: inf
ROOT
ATOM      1  C   UNL     1      12.698  13.119   1.185  1.00  0.00     0.048 A 
ATOM      2  C   UNL     1      11.672  13.538   2.052  1.00  0.00     0.030 A 
ATOM      3  C   UNL     1      10.544  14.130   1.487  1.00  0.00     0.046 A 
ATOM      4  C   UNL     1      10.425  14.306   0.133  1.00  0.00     0.003 A 
ATOM      5  C   UNL     1       9.210  14.912  -0.099  1.00  0.00     0.028 A 
ATOM      6  C   UNL     1       8.640  15.077   1.160  1.00  0.00     0.083 A 
ATOM      7  N   UNL     1       9.459  14.598   2.125  1.00  0.00    -0.361 N 
ATOM      8  C   UNL     1      11.422  13.903  -0.752  1.00  0.00     0.056 A 
ATOM      9  C   UNL     1      12.578  13.299  -0.212  1.00  0.00     0.116 A 
ATOM     10  H   UNL     1       9.280  14.594   3.154  1.00  0.00     0.166 HD
ENDROOT
BRANCH   9  11
ATOM     11  O   UNL     1      13.608  12.875  -1.048  1.00  0.00    -0.508 OA
ATOM     12  H   UNL     1      13.420  12.483  -1.963  1.00  0.00     0.293 HD
ENDBRANCH   9  11
TORSDOF 1
ENDMDL
MODEL 8
REMARK VINA RESULT:    -1.836      1.956      3.089
REMARK INTER + INTRA:          -1.889
REMARK INTER:                  -1.889
REMARK INTRA:                   0.000
REMARK UNBOUND:                 0.000
REMARK SMILES Oc1ccc2[nH]ccc2c1
REMARK SMILES IDX 3 1 4 2 5 3 9 4 8 5 7 6 6 7 10 8 2 9 1 11
REMARK H PARENT 6 10 1 12
REMARK Flexibility Score: inf
ROOT
ATOM      1  C   UNL     1       9.474  13.733   2.110  1.00  0.00     0.048 A 
ATOM      2  C   UNL     1      10.848  14.035   2.121  1.00  0.00     0.030 A 
ATOM      3  C   UNL     1      11.219  15.379   2.116  1.00  0.00     0.046 A 
ATOM      4  C   UNL     1      10.287  16.383   2.101  1.00  0.00     0.003 A 
ATOM      5  C   UNL     1      10.970  17.579   2.099  1.00  0.00     0.028 A 
ATOM      6  C   UNL     1      12.317  17.228   2.114  1.00  0.00     0.083 A 
ATOM      7  N   UNL     1      12.463  15.883   2.124  1.00  0.00    -0.361 N 
ATOM      8  C   UNL     1       8.920  16.118   2.089  1.00  0.00     0.056 A 
ATOM      9  C   UNL     1       8.510  14.767   2.093  1.00  0.00     0.116 A 
ATOM     10  H   UNL     1      13.362  15.350   2.136  1.00  0.00     0.166 HD
ENDROOT
BRANCH   9  11
ATOM     11  O   UNL     1       7.155  14.441   2.084  1.00  0.00    -0.508 OA
ATOM     12  H   UNL     1       6.447  15.116   2.345  1.00  0.00     0.293 HD
ENDBRANCH   9  11
TORSDOF 1
ENDMDL
