MODEL 1
REMARK VINA RESULT:    -3.926      0.000      0.000
REMARK INTER + INTRA:          -5.924
REMARK INTER:                  -5.304
REMARK INTRA:                  -0.620
REMARK UNBOUND:                -0.620
REMARK SMILES CCCCCCC=CC(=O)[O-]
REMARK SMILES IDX 5 1 6 2 7 3 8 4 9 5 10 6 11 7 4 8 3 9 2 10 1 11
REMARK H PARENT
REMARK Flexibility Score: inf
ROOT
ATOM      1  C   UNL     1      59.087  35.642  81.102  1.00  0.00     0.004 C 
ENDROOT
BRANCH   1   2
ATOM      2  C   UNL     1      58.517  34.242  80.844  1.00  0.00     0.027 C 
BRANCH   2   3
ATOM      3  C   UNL     1      58.748  33.813  79.424  1.00  0.00    -0.025 C 
ATOM      4  C   UNL     1      57.870  33.041  78.775  1.00  0.00     0.020 C 
BRANCH   4   5
ATOM      5  C   UNL     1      58.069  32.621  77.380  1.00  0.00     0.064 C 
ATOM      6  O   UNL     1      57.707  33.353  76.421  1.00  0.00    -0.545 OA
ATOM      7  O   UNL     1      58.668  31.395  77.114  1.00  0.00    -0.545 OA
ENDBRANCH   4   5
ENDBRANCH   2   3
ENDBRANCH   1   2
BRANCH   1   8
ATOM      8  C   UNL     1      58.103  36.729  80.643  1.00  0.00     0.000 C 
BRANCH   8   9
ATOM      9  C   UNL     1      58.637  37.548  79.457  1.00  0.00    -0.000 C 
BRANCH   9  10
ATOM     10  C   UNL     1      57.552  37.858  78.416  1.00  0.00    -0.003 C 
ATOM     11  C   UNL     1      56.745  36.610  78.075  1.00  0.00     0.004 C 
ENDBRANCH   9  10
ENDBRANCH   8   9
ENDBRANCH   1   8
TORSDOF 6
ENDMDL
MODEL 2
REMARK VINA RESULT:    -3.849      1.079      1.619
REMARK INTER + INTRA:          -5.819
REMARK INTER:                  -5.211
REMARK INTRA:                  -0.608
REMARK UNBOUND:                -0.620
REMARK SMILES CCCCCCC=CC(=O)[O-]
REMARK SMILES IDX 5 1 6 2 7 3 8 4 9 5 10 6 11 7 4 8 3 9 2 10 1 11
REMARK H PARENT
REMARK Flexibility Score: inf
ROOT
ATOM      1  C   UNL     1      59.115  34.318  80.655  1.00  0.00     0.004 C 
ENDROOT
BRANCH   1   2
ATOM      2  C   UNL     1      57.854  33.659  80.082  1.00  0.00     0.027 C 
BRANCH   2   3
ATOM      3  C   UNL     1      58.085  33.166  78.683  1.00  0.00    -0.025 C 
ATOM      4  C   UNL     1      57.717  33.887  77.618  1.00  0.00     0.020 C 
BRANCH   4   5
ATOM      5  C   UNL     1      57.945  33.430  76.239  1.00  0.00     0.064 C 
ATOM      6  O   UNL     1      57.642  32.261  75.881  1.00  0.00    -0.545 OA
ATOM      7  O   UNL     1      58.504  34.304  75.313  1.00  0.00    -0.545 OA
ENDBRANCH   4   5
ENDBRANCH   2   3
ENDBRANCH   1   2
BRANCH   1   8
ATOM      8  C   UNL     1      58.804  35.724  81.190  1.00  0.00     0.000 C 
BRANCH   8   9
ATOM      9  C   UNL     1      58.536  36.740  80.068  1.00  0.00    -0.000 C 
BRANCH   9  10
ATOM     10  C   UNL     1      57.070  37.192  80.017  1.00  0.00    -0.003 C 
ATOM     11  C   UNL     1      56.585  37.321  78.576  1.00  0.00     0.004 C 
ENDBRANCH   9  10
ENDBRANCH   8   9
ENDBRANCH   1   8
TORSDOF 6
ENDMDL
MODEL 3
REMARK VINA RESULT:    -3.798      3.121      6.016
REMARK INTER + INTRA:          -5.751
REMARK INTER:                  -5.491
REMARK INTRA:                  -0.260
REMARK UNBOUND:                -0.620
REMARK SMILES CCCCCCC=CC(=O)[O-]
REMARK SMILES IDX 5 1 6 2 7 3 8 4 9 5 10 6 11 7 4 8 3 9 2 10 1 11
REMARK H PARENT
REMARK Flexibility Score: inf
ROOT
ATOM      1  C   UNL     1      58.280  32.695  76.279  1.00  0.00     0.004 C 
ENDROOT
BRANCH   1   2
ATOM      2  C   UNL     1      58.342  32.325  77.766  1.00  0.00     0.027 C 
BRANCH   2   3
ATOM      3  C   UNL     1      58.052  33.515  78.635  1.00  0.00    -0.025 C 
ATOM      4  C   UNL     1      58.899  33.904  79.594  1.00  0.00     0.020 C 
BRANCH   4   5
ATOM      5  C   UNL     1      58.642  35.074  80.448  1.00  0.00     0.064 C 
ATOM      6  O   UNL     1      59.217  35.208  81.560  1.00  0.00    -0.545 OA
ATOM      7  O   UNL     1      57.748  36.048  80.020  1.00  0.00    -0.545 OA
ENDBRANCH   4   5
ENDBRANCH   2   3
ENDBRANCH   1   2
BRANCH   1   8
ATOM      8  C   UNL     1      57.606  31.580  75.465  1.00  0.00     0.000 C 
BRANCH   8   9
ATOM      9  C   UNL     1      58.104  30.179  75.853  1.00  0.00    -0.000 C 
BRANCH   9  10
ATOM     10  C   UNL     1      57.156  29.064  75.389  1.00  0.00    -0.003 C 
ATOM     11  C   UNL     1      56.033  29.623  74.522  1.00  0.00     0.004 C 
ENDBRANCH   9  10
ENDBRANCH   8   9
ENDBRANCH   1   8
TORSDOF 6
ENDMDL
MODEL 4
REMARK VINA RESULT:    -3.766      1.956      3.948
REMARK INTER + INTRA:          -5.707
REMARK INTER:                  -5.054
REMARK INTRA:                  -0.653
REMARK UNBOUND:                -0.620
REMARK SMILES CCCCCCC=CC(=O)[O-]
REMARK SMILES IDX 5 1 6 2 7 3 8 4 9 5 10 6 11 7 4 8 3 9 2 10 1 11
REMARK H PARENT
REMARK Flexibility Score: inf
ROOT
ATOM      1  C   UNL     1      58.238  37.135  80.453  1.00  0.00     0.004 C 
ENDROOT
BRANCH   1   2
ATOM      2  C   UNL     1      56.855  37.224  79.796  1.00  0.00     0.027 C 
BRANCH   2   3
ATOM      3  C   UNL     1      56.965  37.275  78.300  1.00  0.00    -0.025 C 
ATOM      4  C   UNL     1      56.195  36.511  77.516  1.00  0.00     0.020 C 
BRANCH   4   5
ATOM      5  C   UNL     1      56.276  36.554  76.048  1.00  0.00     0.064 C 
ATOM      6  O   UNL     1      56.176  35.504  75.359  1.00  0.00    -0.545 OA
ATOM      7  O   UNL     1      56.466  37.773  75.409  1.00  0.00    -0.545 OA
ENDBRANCH   4   5
ENDBRANCH   2   3
ENDBRANCH   1   2
BRANCH   1   8
ATOM      8  C   UNL     1      59.026  35.932  79.911  1.00  0.00     0.000 C 
BRANCH   8   9
ATOM      9  C   UNL     1      58.852  34.672  80.774  1.00  0.00    -0.000 C 
BRANCH   9  10
ATOM     10  C   UNL     1      57.884  33.657  80.150  1.00  0.00    -0.003 C 
ATOM     11  C   UNL     1      58.204  33.427  78.676  1.00  0.00     0.004 C 
ENDBRANCH   9  10
ENDBRANCH   8   9
ENDBRANCH   1   8
TORSDOF 6
ENDMDL
MODEL 5
REMARK VINA RESULT:    -3.746      2.391      4.370
REMARK INTER + INTRA:          -5.681
REMARK INTER:                  -5.068
REMARK INTRA:                  -0.613
REMARK UNBOUND:                -0.620
REMARK SMILES CCCCCCC=CC(=O)[O-]
REMARK SMILES IDX 5 1 6 2 7 3 8 4 9 5 10 6 11 7 4 8 3 9 2 10 1 11
REMARK H PARENT
REMARK Flexibility Score: inf
ROOT
ATOM      1  C   UNL     1      59.050  35.473  81.124  1.00  0.00     0.004 C 
ENDROOT
BRANCH   1   2
ATOM      2  C   UNL     1      58.132  36.697  81.020  1.00  0.00     0.027 C 
BRANCH   2   3
ATOM      3  C   UNL     1      58.303  37.395  79.702  1.00  0.00    -0.025 C 
ATOM      4  C   UNL     1      57.284  37.531  78.845  1.00  0.00     0.020 C 
BRANCH   4   5
ATOM      5  C   UNL     1      57.425  38.222  77.555  1.00  0.00     0.064 C 
ATOM      6  O   UNL     1      57.400  37.586  76.468  1.00  0.00    -0.545 OA
ATOM      7  O   UNL     1      57.588  39.602  77.533  1.00  0.00    -0.545 OA
ENDBRANCH   4   5
ENDBRANCH   2   3
ENDBRANCH   1   2
BRANCH   1   8
ATOM      8  C   UNL     1      58.341  34.209  80.614  1.00  0.00     0.000 C 
BRANCH   8   9
ATOM      9  C   UNL     1      58.973  33.653  79.328  1.00  0.00    -0.000 C 
BRANCH   9  10
ATOM     10  C   UNL     1      57.928  33.140  78.328  1.00  0.00    -0.003 C 
ATOM     11  C   UNL     1      57.680  34.160  77.221  1.00  0.00     0.004 C 
ENDBRANCH   9  10
ENDBRANCH   8   9
ENDBRANCH   1   8
TORSDOF 6
ENDMDL
MODEL 6
REMARK VINA RESULT:    -3.706      2.460      4.201
REMARK INTER + INTRA:          -5.626
REMARK INTER:                  -5.269
REMARK INTRA:                  -0.357
REMARK UNBOUND:                -0.620
REMARK SMILES CCCCCCC=CC(=O)[O-]
REMARK SMILES IDX 5 1 6 2 7 3 8 4 9 5 10 6 11 7 4 8 3 9 2 10 1 11
REMARK H PARENT
REMARK Flexibility Score: inf
ROOT
ATOM      1  C   UNL     1      57.969  33.353  76.944  1.00  0.00     0.004 C 
ENDROOT
BRANCH   1   2
ATOM      2  C   UNL     1      58.618  32.026  77.357  1.00  0.00     0.027 C 
BRANCH   2   3
ATOM      3  C   UNL     1      57.997  30.868  76.631  1.00  0.00    -0.025 C 
ATOM      4  C   UNL     1      57.419  31.022  75.434  1.00  0.00     0.020 C 
BRANCH   4   5
ATOM      5  C   UNL     1      56.817  29.899  74.699  1.00  0.00     0.064 C 
ATOM      6  O   UNL     1      57.251  28.724  74.835  1.00  0.00    -0.545 OA
ATOM      7  O   UNL     1      55.751  30.138  73.840  1.00  0.00    -0.545 OA
ENDBRANCH   4   5
ENDBRANCH   2   3
ENDBRANCH   1   2
BRANCH   1   8
ATOM      8  C   UNL     1      57.696  34.236  78.172  1.00  0.00     0.000 C 
BRANCH   8   9
ATOM      9  C   UNL     1      57.973  33.509  79.497  1.00  0.00    -0.000 C 
BRANCH   9  10
ATOM     10  C   UNL     1      59.063  34.196  80.332  1.00  0.00    -0.003 C 
ATOM     11  C   UNL     1      58.724  35.663  80.578  1.00  0.00     0.004 C 
ENDBRANCH   9  10
ENDBRANCH   8   9
ENDBRANCH   1   8
TORSDOF 6
ENDMDL
MODEL 7
REMARK VINA RESULT:    -3.645      3.118      5.986
REMARK INTER + INTRA:          -5.544
REMARK INTER:                  -5.254
REMARK INTRA:                  -0.290
REMARK UNBOUND:                -0.620
REMARK SMILES CCCCCCC=CC(=O)[O-]
REMARK SMILES IDX 5 1 6 2 7 3 8 4 9 5 10 6 11 7 4 8 3 9 2 10 1 11
REMARK H PARENT
REMARK Flexibility Score: inf
ROOT
ATOM      1  C   UNL     1      58.443  32.512  76.211  1.00  0.00     0.004 C 
ENDROOT
BRANCH   1   2
ATOM      2  C   UNL     1      58.364  32.168  77.703  1.00  0.00     0.027 C 
BRANCH   2   3
ATOM      3  C   UNL     1      58.037  33.381  78.525  1.00  0.00    -0.025 C 
ATOM      4  C   UNL     1      58.859  33.814  79.488  1.00  0.00     0.020 C 
BRANCH   4   5
ATOM      5  C   UNL     1      58.566  35.008  80.297  1.00  0.00     0.064 C 
ATOM      6  O   UNL     1      57.680  35.832  79.944  1.00  0.00    -0.545 OA
ATOM      7  O   UNL     1      59.277  35.230  81.470  1.00  0.00    -0.545 OA
ENDBRANCH   4   5
ENDBRANCH   2   3
ENDBRANCH   1   2
BRANCH   1   8
ATOM      8  C   UNL     1      58.460  31.238  75.353  1.00  0.00     0.000 C 
BRANCH   8   9
ATOM      9  C   UNL     1      57.187  31.076  74.507  1.00  0.00    -0.000 C 
BRANCH   9  10
ATOM     10  C   UNL     1      56.480  29.736  74.752  1.00  0.00    -0.003 C 
ATOM     11  C   UNL     1      57.363  28.787  75.556  1.00  0.00     0.004 C 
ENDBRANCH   9  10
ENDBRANCH   8   9
ENDBRANCH   1   8
TORSDOF 6
ENDMDL
MODEL 8
REMARK VINA RESULT:    -3.608      2.943      4.605
REMARK INTER + INTRA:          -5.494
REMARK INTER:                  -4.856
REMARK INTRA:                  -0.638
REMARK UNBOUND:                -0.620
REMARK SMILES CCCCCCC=CC(=O)[O-]
REMARK SMILES IDX 5 1 6 2 7 3 8 4 9 5 10 6 11 7 4 8 3 9 2 10 1 11
REMARK H PARENT
REMARK Flexibility Score: inf
ROOT
ATOM      1  C   UNL     1      57.973  33.071  78.688  1.00  0.00     0.004 C 
ENDROOT
BRANCH   1   2
ATOM      2  C   UNL     1      59.076  33.700  79.549  1.00  0.00     0.027 C 
BRANCH   2   3
ATOM      3  C   UNL     1      58.724  35.104  79.945  1.00  0.00    -0.025 C 
ATOM      4  C   UNL     1      57.527  35.631  79.663  1.00  0.00     0.020 C 
BRANCH   4   5
ATOM      5  C   UNL     1      57.155  36.999  80.054  1.00  0.00     0.064 C 
ATOM      6  O   UNL     1      57.625  37.530  81.095  1.00  0.00    -0.545 OA
ATOM      7  O   UNL     1      56.271  37.721  79.260  1.00  0.00    -0.545 OA
ENDBRANCH   4   5
ENDBRANCH   2   3
ENDBRANCH   1   2
BRANCH   1   8
ATOM      8  C   UNL     1      58.572  32.335  77.480  1.00  0.00     0.000 C 
BRANCH   8   9
ATOM      9  C   UNL     1      57.995  32.824  76.142  1.00  0.00    -0.000 C 
BRANCH   9  10
ATOM     10  C   UNL     1      57.420  34.244  76.230  1.00  0.00    -0.003 C 
ATOM     11  C   UNL     1      58.456  35.284  75.813  1.00  0.00     0.004 C 
ENDBRANCH   9  10
ENDBRANCH   8   9
ENDBRANCH   1   8
TORSDOF 6
ENDMDL
MODEL 9
REMARK VINA RESULT:    -3.551      1.792      2.956
REMARK INTER + INTRA:          -5.418
REMARK INTER:                  -4.888
REMARK INTRA:                  -0.530
REMARK UNBOUND:                -0.620
REMARK SMILES CCCCCCC=CC(=O)[O-]
REMARK SMILES IDX 5 1 6 2 7 3 8 4 9 5 10 6 11 7 4 8 3 9 2 10 1 11
REMARK H PARENT
REMARK Flexibility Score: inf
ROOT
ATOM      1  C   UNL     1      57.900  33.835  79.801  1.00  0.00     0.004 C 
ENDROOT
BRANCH   1   2
ATOM      2  C   UNL     1      58.320  33.048  78.554  1.00  0.00     0.027 C 
BRANCH   2   3
ATOM      3  C   UNL     1      57.756  33.664  77.306  1.00  0.00    -0.025 C 
ATOM      4  C   UNL     1      57.298  34.921  77.292  1.00  0.00     0.020 C 
BRANCH   4   5
ATOM      5  C   UNL     1      56.754  35.549  76.079  1.00  0.00     0.064 C 
ATOM      6  O   UNL     1      56.272  36.712  76.107  1.00  0.00    -0.545 OA
ATOM      7  O   UNL     1      56.772  34.847  74.879  1.00  0.00    -0.545 OA
ENDBRANCH   4   5
ENDBRANCH   2   3
ENDBRANCH   1   2
BRANCH   1   8
ATOM      8  C   UNL     1      59.130  34.366  80.555  1.00  0.00     0.000 C 
BRANCH   8   9
ATOM      9  C   UNL     1      58.854  35.693  81.279  1.00  0.00    -0.000 C 
BRANCH   9  10
ATOM     10  C   UNL     1      57.941  36.628  80.473  1.00  0.00    -0.003 C 
ATOM     11  C   UNL     1      58.724  37.360  79.388  1.00  0.00     0.004 C 
ENDBRANCH   9  10
ENDBRANCH   8   9
ENDBRANCH   1   8
TORSDOF 6
ENDMDL
