MODEL 1
REMARK VINA RESULT:    -4.215      0.000      0.000
REMARK INTER + INTRA:          -9.409
REMARK INTER:                  -7.910
REMARK INTRA:                  -1.499
REMARK UNBOUND:                -1.499
REMARK SMILES O=C([O-])CCCCCCCCCCCCCCC(=O)[O-]
REMARK SMILES IDX 10 1 9 2 8 3 7 4 6 5 5 6 4 7 2 8 1 9 3 10 11 11 12 12 13 13
REMARK SMILES IDX 14 14 15 15 16 16 17 17 18 18 19 19 20 20
REMARK H PARENT
REMARK Flexibility Score: inf
ROOT
ATOM      1  C   UNL     1      -6.941   1.054   3.771  1.00  0.00     0.000 C 
ENDROOT
BRANCH   1   2
ATOM      2  C   UNL     1      -7.776   0.245   2.757  1.00  0.00     0.000 C 
BRANCH   2   3
ATOM      3  C   UNL     1      -7.469  -1.262   2.721  1.00  0.00     0.000 C 
BRANCH   3   4
ATOM      4  C   UNL     1      -6.859  -1.778   4.031  1.00  0.00     0.000 C 
BRANCH   4   5
ATOM      5  C   UNL     1      -6.942  -3.308   4.111  1.00  0.00     0.000 C 
BRANCH   5   6
ATOM      6  C   UNL     1      -5.641  -3.902   4.669  1.00  0.00     0.006 C 
BRANCH   6   7
ATOM      7  C   UNL     1      -5.470  -3.620   6.168  1.00  0.00     0.053 C 
BRANCH   7   8
ATOM      8  C   UNL     1      -6.677  -4.031   6.953  1.00  0.00     0.041 C 
ATOM      9  O   UNL     1      -7.357  -3.168   7.567  1.00  0.00    -0.550 OA
ATOM     10  O   UNL     1      -7.071  -5.363   6.979  1.00  0.00    -0.550 OA
ENDBRANCH   7   8
ENDBRANCH   6   7
ENDBRANCH   5   6
ENDBRANCH   4   5
ENDBRANCH   3   4
ENDBRANCH   2   3
ENDBRANCH   1   2
BRANCH   1  11
ATOM     11  C   UNL     1      -7.683   1.456   5.061  1.00  0.00     0.000 C 
BRANCH  11  12
ATOM     12  C   UNL     1      -6.789   1.641   6.300  1.00  0.00     0.000 C 
BRANCH  12  13
ATOM     13  C   UNL     1      -5.342   1.171   6.066  1.00  0.00     0.000 C 
BRANCH  13  14
ATOM     14  C   UNL     1      -5.040  -0.168   6.756  1.00  0.00     0.000 C 
BRANCH  14  15
ATOM     15  C   UNL     1      -3.663  -0.187   7.443  1.00  0.00     0.000 C 
BRANCH  15  16
ATOM     16  C   UNL     1      -2.906   1.145   7.293  1.00  0.00     0.006 C 
BRANCH  16  17
ATOM     17  C   UNL     1      -2.564   1.830   8.626  1.00  0.00     0.053 C 
BRANCH  17  18
ATOM     18  C   UNL     1      -3.508   2.951   8.941  1.00  0.00     0.041 C 
ATOM     19  O   UNL     1      -3.087   4.136   8.999  1.00  0.00    -0.550 OA
ATOM     20  O   UNL     1      -4.858   2.689   9.136  1.00  0.00    -0.550 OA
ENDBRANCH  17  18
ENDBRANCH  16  17
ENDBRANCH  15  16
ENDBRANCH  14  15
ENDBRANCH  13  14
ENDBRANCH  12  13
ENDBRANCH  11  12
ENDBRANCH   1  11
TORSDOF 15
ENDMDL
MODEL 2
REMARK VINA RESULT:    -4.186      1.764      2.822
REMARK INTER + INTRA:          -9.356
REMARK INTER:                  -7.832
REMARK INTRA:                  -1.523
REMARK UNBOUND:                -1.499
REMARK SMILES O=C([O-])CCCCCCCCCCCCCCC(=O)[O-]
REMARK SMILES IDX 10 1 9 2 8 3 7 4 6 5 5 6 4 7 2 8 1 9 3 10 11 11 12 12 13 13
REMARK SMILES IDX 14 14 15 15 16 16 17 17 18 18 19 19 20 20
REMARK H PARENT
REMARK Flexibility Score: inf
ROOT
ATOM      1  C   UNL     1      -6.908  -1.298   3.881  1.00  0.00     0.000 C 
ENDROOT
BRANCH   1   2
ATOM      2  C   UNL     1      -7.627  -2.600   3.474  1.00  0.00     0.000 C 
BRANCH   2   3
ATOM      3  C   UNL     1      -7.244  -3.839   4.302  1.00  0.00     0.000 C 
BRANCH   3   4
ATOM      4  C   UNL     1      -5.749  -3.885   4.648  1.00  0.00     0.000 C 
BRANCH   4   5
ATOM      5  C   UNL     1      -5.540  -4.094   6.154  1.00  0.00     0.000 C 
BRANCH   5   6
ATOM      6  C   UNL     1      -5.585  -2.758   6.907  1.00  0.00     0.006 C 
BRANCH   6   7
ATOM      7  C   UNL     1      -4.184  -2.183   7.154  1.00  0.00     0.053 C 
BRANCH   7   8
ATOM      8  C   UNL     1      -3.850  -2.137   8.614  1.00  0.00     0.041 C 
ATOM      9  O   UNL     1      -4.357  -1.253   9.352  1.00  0.00    -0.550 OA
ATOM     10  O   UNL     1      -3.005  -3.093   9.164  1.00  0.00    -0.550 OA
ENDBRANCH   7   8
ENDBRANCH   6   7
ENDBRANCH   5   6
ENDBRANCH   4   5
ENDBRANCH   3   4
ENDBRANCH   2   3
ENDBRANCH   1   2
BRANCH   1  11
ATOM     11  C   UNL     1      -7.247  -0.064   3.020  1.00  0.00     0.000 C 
BRANCH  11  12
ATOM     12  C   UNL     1      -7.273   1.276   3.779  1.00  0.00     0.000 C 
BRANCH  12  13
ATOM     13  C   UNL     1      -7.933   1.164   5.165  1.00  0.00     0.000 C 
BRANCH  13  14
ATOM     14  C   UNL     1      -7.003   1.628   6.296  1.00  0.00     0.000 C 
BRANCH  14  15
ATOM     15  C   UNL     1      -5.556   1.132   6.119  1.00  0.00     0.000 C 
BRANCH  15  16
ATOM     16  C   UNL     1      -4.521   2.082   6.749  1.00  0.00     0.006 C 
BRANCH  16  17
ATOM     17  C   UNL     1      -3.325   1.368   7.400  1.00  0.00     0.053 C 
BRANCH  17  18
ATOM     18  C   UNL     1      -2.884   2.047   8.661  1.00  0.00     0.041 C 
ATOM     19  O   UNL     1      -2.411   1.371   9.612  1.00  0.00    -0.550 OA
ATOM     20  O   UNL     1      -2.963   3.430   8.771  1.00  0.00    -0.550 OA
ENDBRANCH  17  18
ENDBRANCH  16  17
ENDBRANCH  15  16
ENDBRANCH  14  15
ENDBRANCH  13  14
ENDBRANCH  12  13
ENDBRANCH  11  12
ENDBRANCH   1  11
TORSDOF 15
ENDMDL
MODEL 3
REMARK VINA RESULT:    -4.164      1.797      5.398
REMARK INTER + INTRA:          -9.314
REMARK INTER:                  -7.335
REMARK INTRA:                  -1.979
REMARK UNBOUND:                -1.499
REMARK SMILES O=C([O-])CCCCCCCCCCCCCCC(=O)[O-]
REMARK SMILES IDX 10 1 9 2 8 3 7 4 6 5 5 6 4 7 2 8 1 9 3 10 11 11 12 12 13 13
REMARK SMILES IDX 14 14 15 15 16 16 17 17 18 18 19 19 20 20
REMARK H PARENT
REMARK Flexibility Score: inf
ROOT
ATOM      1  C   UNL     1      -6.640  -0.075   3.896  1.00  0.00     0.000 C 
ENDROOT
BRANCH   1   2
ATOM      2  C   UNL     1      -7.112   1.028   4.864  1.00  0.00     0.000 C 
BRANCH   2   3
ATOM      3  C   UNL     1      -6.974   0.684   6.357  1.00  0.00     0.000 C 
BRANCH   3   4
ATOM      4  C   UNL     1      -6.018   1.627   7.101  1.00  0.00     0.000 C 
BRANCH   4   5
ATOM      5  C   UNL     1      -4.640   1.657   6.426  1.00  0.00     0.000 C 
BRANCH   5   6
ATOM      6  C   UNL     1      -3.704   0.607   7.039  1.00  0.00     0.006 C 
BRANCH   6   7
ATOM      7  C   UNL     1      -2.519   1.245   7.778  1.00  0.00     0.053 C 
BRANCH   7   8
ATOM      8  C   UNL     1      -2.768   1.340   9.252  1.00  0.00     0.041 C 
ATOM      9  O   UNL     1      -2.169   2.206   9.940  1.00  0.00    -0.550 OA
ATOM     10  O   UNL     1      -3.688   0.494   9.858  1.00  0.00    -0.550 OA
ENDBRANCH   7   8
ENDBRANCH   6   7
ENDBRANCH   5   6
ENDBRANCH   4   5
ENDBRANCH   3   4
ENDBRANCH   2   3
ENDBRANCH   1   2
BRANCH   1  11
ATOM     11  C   UNL     1      -7.754  -0.730   3.054  1.00  0.00     0.000 C 
BRANCH  11  12
ATOM     12  C   UNL     1      -7.800  -2.268   3.116  1.00  0.00     0.000 C 
BRANCH  12  13
ATOM     13  C   UNL     1      -7.437  -2.821   4.505  1.00  0.00     0.000 C 
BRANCH  13  14
ATOM     14  C   UNL     1      -6.311  -3.865   4.445  1.00  0.00     0.000 C 
BRANCH  14  15
ATOM     15  C   UNL     1      -5.534  -3.979   5.769  1.00  0.00     0.000 C 
BRANCH  15  16
ATOM     16  C   UNL     1      -5.231  -2.607   6.400  1.00  0.00     0.006 C 
BRANCH  16  17
ATOM     17  C   UNL     1      -5.749  -2.447   7.838  1.00  0.00     0.053 C 
BRANCH  17  18
ATOM     18  C   UNL     1      -4.695  -2.767   8.855  1.00  0.00     0.041 C 
ATOM     19  O   UNL     1      -5.023  -3.193   9.993  1.00  0.00    -0.550 OA
ATOM     20  O   UNL     1      -3.352  -2.629   8.531  1.00  0.00    -0.550 OA
ENDBRANCH  17  18
ENDBRANCH  16  17
ENDBRANCH  15  16
ENDBRANCH  14  15
ENDBRANCH  13  14
ENDBRANCH  12  13
ENDBRANCH  11  12
ENDBRANCH   1  11
TORSDOF 15
ENDMDL
MODEL 4
REMARK VINA RESULT:    -4.101      2.687      4.504
REMARK INTER + INTRA:          -9.196
REMARK INTER:                  -7.136
REMARK INTRA:                  -2.060
REMARK UNBOUND:                -1.499
REMARK SMILES O=C([O-])CCCCCCCCCCCCCCC(=O)[O-]
REMARK SMILES IDX 10 1 9 2 8 3 7 4 6 5 5 6 4 7 2 8 1 9 3 10 11 11 12 12 13 13
REMARK SMILES IDX 14 14 15 15 16 16 17 17 18 18 19 19 20 20
REMARK H PARENT
REMARK Flexibility Score: inf
ROOT
ATOM      1  C   UNL     1      -4.113  -2.686   6.759  1.00  0.00     0.000 C 
ENDROOT
BRANCH   1   2
ATOM      2  C   UNL     1      -5.340  -3.538   6.376  1.00  0.00     0.000 C 
BRANCH   2   3
ATOM      3  C   UNL     1      -5.497  -3.809   4.869  1.00  0.00     0.000 C 
BRANCH   3   4
ATOM      4  C   UNL     1      -6.754  -3.161   4.275  1.00  0.00     0.000 C 
BRANCH   4   5
ATOM      5  C   UNL     1      -7.349  -2.127   5.241  1.00  0.00     0.000 C 
BRANCH   5   6
ATOM      6  C   UNL     1      -7.988  -0.961   4.475  1.00  0.00     0.006 C 
BRANCH   6   7
ATOM      7  C   UNL     1      -6.991  -0.263   3.540  1.00  0.00     0.053 C 
BRANCH   7   8
ATOM      8  C   UNL     1      -7.286   1.198   3.402  1.00  0.00     0.041 C 
ATOM      9  O   UNL     1      -7.108   1.779   2.300  1.00  0.00    -0.550 OA
ATOM     10  O   UNL     1      -7.789   1.912   4.483  1.00  0.00    -0.550 OA
ENDBRANCH   7   8
ENDBRANCH   6   7
ENDBRANCH   5   6
ENDBRANCH   4   5
ENDBRANCH   3   4
ENDBRANCH   2   3
ENDBRANCH   1   2
BRANCH   1  11
ATOM     11  C   UNL     1      -3.991  -2.348   8.259  1.00  0.00     0.000 C 
BRANCH  11  12
ATOM     12  C   UNL     1      -5.236  -2.670   9.105  1.00  0.00     0.000 C 
BRANCH  12  13
ATOM     13  C   UNL     1      -6.317  -1.578   9.015  1.00  0.00     0.000 C 
BRANCH  13  14
ATOM     14  C   UNL     1      -5.799  -0.201   9.459  1.00  0.00     0.000 C 
BRANCH  14  15
ATOM     15  C   UNL     1      -6.167   0.920   8.471  1.00  0.00     0.000 C 
BRANCH  15  16
ATOM     16  C   UNL     1      -5.664   0.642   7.043  1.00  0.00     0.006 C 
BRANCH  16  17
ATOM     17  C   UNL     1      -4.682   1.695   6.504  1.00  0.00     0.053 C 
BRANCH  17  18
ATOM     18  C   UNL     1      -3.501   1.877   7.409  1.00  0.00     0.041 C 
ATOM     19  O   UNL     1      -3.349   2.954   8.043  1.00  0.00    -0.550 OA
ATOM     20  O   UNL     1      -2.588   0.843   7.578  1.00  0.00    -0.550 OA
ENDBRANCH  17  18
ENDBRANCH  16  17
ENDBRANCH  15  16
ENDBRANCH  14  15
ENDBRANCH  13  14
ENDBRANCH  12  13
ENDBRANCH  11  12
ENDBRANCH   1  11
TORSDOF 15
ENDMDL
MODEL 5
REMARK VINA RESULT:    -3.986     11.924     14.864
REMARK INTER + INTRA:          -8.981
REMARK INTER:                  -6.719
REMARK INTRA:                  -2.262
REMARK UNBOUND:                -1.499
REMARK SMILES O=C([O-])CCCCCCCCCCCCCCC(=O)[O-]
REMARK SMILES IDX 10 1 9 2 8 3 7 4 6 5 5 6 4 7 2 8 1 9 3 10 11 11 12 12 13 13
REMARK SMILES IDX 14 14 15 15 16 16 17 17 18 18 19 19 20 20
REMARK H PARENT
REMARK Flexibility Score: inf
ROOT
ATOM      1  C   UNL     1      -7.448   0.506  -5.575  1.00  0.00     0.000 C 
ENDROOT
BRANCH   1   2
ATOM      2  C   UNL     1      -7.342   1.430  -6.806  1.00  0.00     0.000 C 
BRANCH   2   3
ATOM      3  C   UNL     1      -6.879   0.738  -8.099  1.00  0.00     0.000 C 
BRANCH   3   4
ATOM      4  C   UNL     1      -5.599   1.354  -8.680  1.00  0.00     0.000 C 
BRANCH   4   5
ATOM      5  C   UNL     1      -5.172   0.629  -9.962  1.00  0.00     0.000 C 
BRANCH   5   6
ATOM      6  C   UNL     1      -3.669   0.319  -9.946  1.00  0.00     0.006 C 
BRANCH   6   7
ATOM      7  C   UNL     1      -2.990   0.802  -8.657  1.00  0.00     0.053 C 
BRANCH   7   8
ATOM      8  C   UNL     1      -1.855  -0.091  -8.258  1.00  0.00     0.041 C 
ATOM      9  O   UNL     1      -1.001   0.306  -7.423  1.00  0.00    -0.550 OA
ATOM     10  O   UNL     1      -1.761  -1.373  -8.782  1.00  0.00    -0.550 OA
ENDBRANCH   7   8
ENDBRANCH   6   7
ENDBRANCH   5   6
ENDBRANCH   4   5
ENDBRANCH   3   4
ENDBRANCH   2   3
ENDBRANCH   1   2
BRANCH   1  11
ATOM     11  C   UNL     1      -6.369   0.725  -4.495  1.00  0.00     0.000 C 
BRANCH  11  12
ATOM     12  C   UNL     1      -5.313  -0.391  -4.390  1.00  0.00     0.000 C 
BRANCH  12  13
ATOM     13  C   UNL     1      -4.433  -0.500  -5.647  1.00  0.00     0.000 C 
BRANCH  13  14
ATOM     14  C   UNL     1      -4.272  -1.951  -6.126  1.00  0.00     0.000 C 
BRANCH  14  15
ATOM     15  C   UNL     1      -5.401  -2.393  -7.074  1.00  0.00     0.000 C 
BRANCH  15  16
ATOM     16  C   UNL     1      -4.882  -2.809  -8.463  1.00  0.00     0.006 C 
BRANCH  16  17
ATOM     17  C   UNL     1      -5.292  -4.228  -8.890  1.00  0.00     0.053 C 
BRANCH  17  18
ATOM     18  C   UNL     1      -5.338  -5.173  -7.728  1.00  0.00     0.041 C 
ATOM     19  O   UNL     1      -4.281  -5.470  -7.110  1.00  0.00    -0.550 OA
ATOM     20  O   UNL     1      -6.552  -5.698  -7.305  1.00  0.00    -0.550 OA
ENDBRANCH  17  18
ENDBRANCH  16  17
ENDBRANCH  15  16
ENDBRANCH  14  15
ENDBRANCH  13  14
ENDBRANCH  12  13
ENDBRANCH  11  12
ENDBRANCH   1  11
TORSDOF 15
ENDMDL
MODEL 6
REMARK VINA RESULT:    -3.966      2.866      4.921
REMARK INTER + INTRA:          -8.942
REMARK INTER:                  -7.140
REMARK INTRA:                  -1.802
REMARK UNBOUND:                -1.499
REMARK SMILES O=C([O-])CCCCCCCCCCCCCCC(=O)[O-]
REMARK SMILES IDX 10 1 9 2 8 3 7 4 6 5 5 6 4 7 2 8 1 9 3 10 11 11 12 12 13 13
REMARK SMILES IDX 14 14 15 15 16 16 17 17 18 18 19 19 20 20
REMARK H PARENT
REMARK Flexibility Score: inf
ROOT
ATOM      1  C   UNL     1      -2.843   1.054   7.588  1.00  0.00     0.000 C 
ENDROOT
BRANCH   1   2
ATOM      2  C   UNL     1      -3.495  -0.285   7.188  1.00  0.00     0.000 C 
BRANCH   2   3
ATOM      3  C   UNL     1      -3.690  -1.282   8.344  1.00  0.00     0.000 C 
BRANCH   3   4
ATOM      4  C   UNL     1      -4.828  -2.279   8.085  1.00  0.00     0.000 C 
BRANCH   4   5
ATOM      5  C   UNL     1      -5.814  -1.730   7.046  1.00  0.00     0.000 C 
BRANCH   5   6
ATOM      6  C   UNL     1      -7.079  -2.597   6.975  1.00  0.00     0.006 C 
BRANCH   6   7
ATOM      7  C   UNL     1      -6.786  -4.011   6.454  1.00  0.00     0.053 C 
BRANCH   7   8
ATOM      8  C   UNL     1      -6.404  -4.002   5.006  1.00  0.00     0.041 C 
ATOM      9  O   UNL     1      -7.292  -3.926   4.117  1.00  0.00    -0.550 OA
ATOM     10  O   UNL     1      -5.065  -4.044   4.639  1.00  0.00    -0.550 OA
ENDBRANCH   7   8
ENDBRANCH   6   7
ENDBRANCH   5   6
ENDBRANCH   4   5
ENDBRANCH   3   4
ENDBRANCH   2   3
ENDBRANCH   1   2
BRANCH   1  11
ATOM     11  C   UNL     1      -3.802   2.260   7.645  1.00  0.00     0.000 C 
BRANCH  11  12
ATOM     12  C   UNL     1      -4.530   2.454   8.987  1.00  0.00     0.000 C 
BRANCH  12  13
ATOM     13  C   UNL     1      -6.062   2.403   8.849  1.00  0.00     0.000 C 
BRANCH  13  14
ATOM     14  C   UNL     1      -6.515   1.546   7.656  1.00  0.00     0.000 C 
BRANCH  14  15
ATOM     15  C   UNL     1      -7.816   2.059   7.015  1.00  0.00     0.000 C 
BRANCH  15  16
ATOM     16  C   UNL     1      -8.002   1.564   5.569  1.00  0.00     0.006 C 
BRANCH  16  17
ATOM     17  C   UNL     1      -6.717   1.026   4.917  1.00  0.00     0.053 C 
BRANCH  17  18
ATOM     18  C   UNL     1      -6.925   0.667   3.477  1.00  0.00     0.041 C 
ATOM     19  O   UNL     1      -7.245   1.555   2.643  1.00  0.00    -0.550 OA
ATOM     20  O   UNL     1      -6.731  -0.640   3.050  1.00  0.00    -0.550 OA
ENDBRANCH  17  18
ENDBRANCH  16  17
ENDBRANCH  15  16
ENDBRANCH  14  15
ENDBRANCH  13  14
ENDBRANCH  12  13
ENDBRANCH  11  12
ENDBRANCH   1  11
TORSDOF 15
ENDMDL
MODEL 7
REMARK VINA RESULT:    -3.914      2.102      5.909
REMARK INTER + INTRA:          -8.845
REMARK INTER:                  -6.895
REMARK INTRA:                  -1.950
REMARK UNBOUND:                -1.499
REMARK SMILES O=C([O-])CCCCCCCCCCCCCCC(=O)[O-]
REMARK SMILES IDX 10 1 9 2 8 3 7 4 6 5 5 6 4 7 2 8 1 9 3 10 11 11 12 12 13 13
REMARK SMILES IDX 14 14 15 15 16 16 17 17 18 18 19 19 20 20
REMARK H PARENT
REMARK Flexibility Score: inf
ROOT
ATOM      1  C   UNL     1      -5.631  -3.500   6.255  1.00  0.00     0.000 C 
ENDROOT
BRANCH   1   2
ATOM      2  C   UNL     1      -5.522  -3.099   7.740  1.00  0.00     0.000 C 
BRANCH   2   3
ATOM      3  C   UNL     1      -4.124  -2.635   8.185  1.00  0.00     0.000 C 
BRANCH   3   4
ATOM      4  C   UNL     1      -3.599  -1.450   7.362  1.00  0.00     0.000 C 
BRANCH   4   5
ATOM      5  C   UNL     1      -3.552  -0.171   8.208  1.00  0.00     0.000 C 
BRANCH   5   6
ATOM      6  C   UNL     1      -2.835   0.960   7.458  1.00  0.00     0.006 C 
BRANCH   6   7
ATOM      7  C   UNL     1      -3.562   2.303   7.600  1.00  0.00     0.053 C 
BRANCH   7   8
ATOM      8  C   UNL     1      -3.122   3.048   8.823  1.00  0.00     0.041 C 
ATOM      9  O   UNL     1      -2.375   2.491   9.669  1.00  0.00    -0.550 OA
ATOM     10  O   UNL     1      -3.510   4.368   9.012  1.00  0.00    -0.550 OA
ENDBRANCH   7   8
ENDBRANCH   6   7
ENDBRANCH   5   6
ENDBRANCH   4   5
ENDBRANCH   3   4
ENDBRANCH   2   3
ENDBRANCH   1   2
BRANCH   1  11
ATOM     11  C   UNL     1      -7.062  -3.501   5.679  1.00  0.00     0.000 C 
BRANCH  11  12
ATOM     12  C   UNL     1      -7.150  -3.613   4.146  1.00  0.00     0.000 C 
BRANCH  12  13
ATOM     13  C   UNL     1      -7.579  -2.296   3.475  1.00  0.00     0.000 C 
BRANCH  13  14
ATOM     14  C   UNL     1      -7.753  -1.152   4.486  1.00  0.00     0.000 C 
BRANCH  14  15
ATOM     15  C   UNL     1      -6.706  -0.038   4.310  1.00  0.00     0.000 C 
BRANCH  15  16
ATOM     16  C   UNL     1      -6.320   0.631   5.642  1.00  0.00     0.006 C 
BRANCH  16  17
ATOM     17  C   UNL     1      -7.068   0.077   6.866  1.00  0.00     0.053 C 
BRANCH  17  18
ATOM     18  C   UNL     1      -7.086   1.053   8.003  1.00  0.00     0.041 C 
ATOM     19  O   UNL     1      -6.838   0.664   9.175  1.00  0.00    -0.550 OA
ATOM     20  O   UNL     1      -7.341   2.397   7.763  1.00  0.00    -0.550 OA
ENDBRANCH  17  18
ENDBRANCH  16  17
ENDBRANCH  15  16
ENDBRANCH  14  15
ENDBRANCH  13  14
ENDBRANCH  12  13
ENDBRANCH  11  12
ENDBRANCH   1  11
TORSDOF 15
ENDMDL
MODEL 8
REMARK VINA RESULT:    -3.904     11.994     14.256
REMARK INTER + INTRA:          -8.827
REMARK INTER:                  -6.877
REMARK INTRA:                  -1.949
REMARK UNBOUND:                -1.499
REMARK SMILES O=C([O-])CCCCCCCCCCCCCCC(=O)[O-]
REMARK SMILES IDX 10 1 9 2 8 3 7 4 6 5 5 6 4 7 2 8 1 9 3 10 11 11 12 12 13 13
REMARK SMILES IDX 14 14 15 15 16 16 17 17 18 18 19 19 20 20
REMARK H PARENT
REMARK Flexibility Score: inf
ROOT
ATOM      1  C   UNL     1      -5.132  -0.303  -4.530  1.00  0.00     0.000 C 
ENDROOT
BRANCH   1   2
ATOM      2  C   UNL     1      -4.396  -1.113  -5.617  1.00  0.00     0.000 C 
BRANCH   2   3
ATOM      3  C   UNL     1      -5.295  -2.033  -6.461  1.00  0.00     0.000 C 
BRANCH   3   4
ATOM      4  C   UNL     1      -4.541  -3.240  -7.035  1.00  0.00     0.000 C 
BRANCH   4   5
ATOM      5  C   UNL     1      -5.063  -3.602  -8.432  1.00  0.00     0.000 C 
BRANCH   5   6
ATOM      6  C   UNL     1      -5.590  -5.043  -8.467  1.00  0.00     0.006 C 
BRANCH   6   7
ATOM      7  C   UNL     1      -5.062  -5.883  -7.297  1.00  0.00     0.053 C 
BRANCH   7   8
ATOM      8  C   UNL     1      -5.146  -7.351  -7.583  1.00  0.00     0.041 C 
ATOM      9  O   UNL     1      -4.664  -7.818  -8.647  1.00  0.00    -0.550 OA
ATOM     10  O   UNL     1      -5.728  -8.208  -6.657  1.00  0.00    -0.550 OA
ENDBRANCH   7   8
ENDBRANCH   6   7
ENDBRANCH   5   6
ENDBRANCH   4   5
ENDBRANCH   3   4
ENDBRANCH   2   3
ENDBRANCH   1   2
BRANCH   1  11
ATOM     11  C   UNL     1      -6.670  -0.284  -4.655  1.00  0.00     0.000 C 
BRANCH  11  12
ATOM     12  C   UNL     1      -7.262   1.008  -5.246  1.00  0.00     0.000 C 
BRANCH  12  13
ATOM     13  C   UNL     1      -7.595   0.880  -6.743  1.00  0.00     0.000 C 
BRANCH  13  14
ATOM     14  C   UNL     1      -6.617   1.666  -7.631  1.00  0.00     0.000 C 
BRANCH  14  15
ATOM     15  C   UNL     1      -5.931   0.781  -8.687  1.00  0.00     0.000 C 
BRANCH  15  16
ATOM     16  C   UNL     1      -4.395   0.877  -8.635  1.00  0.00     0.006 C 
BRANCH  16  17
ATOM     17  C   UNL     1      -3.667  -0.266  -9.363  1.00  0.00     0.053 C 
BRANCH  17  18
ATOM     18  C   UNL     1      -2.352  -0.592  -8.723  1.00  0.00     0.041 C 
ATOM     19  O   UNL     1      -1.679  -1.578  -9.124  1.00  0.00    -0.550 OA
ATOM     20  O   UNL     1      -1.853   0.215  -7.708  1.00  0.00    -0.550 OA
ENDBRANCH  17  18
ENDBRANCH  16  17
ENDBRANCH  15  16
ENDBRANCH  14  15
ENDBRANCH  13  14
ENDBRANCH  12  13
ENDBRANCH  11  12
ENDBRANCH   1  11
TORSDOF 15
ENDMDL
MODEL 9
REMARK VINA RESULT:    -3.895      1.831      3.849
REMARK INTER + INTRA:          -8.810
REMARK INTER:                  -6.990
REMARK INTRA:                  -1.820
REMARK UNBOUND:                -1.499
REMARK SMILES O=C([O-])CCCCCCCCCCCCCCC(=O)[O-]
REMARK SMILES IDX 10 1 9 2 8 3 7 4 6 5 5 6 4 7 2 8 1 9 3 10 11 11 12 12 13 13
REMARK SMILES IDX 14 14 15 15 16 16 17 17 18 18 19 19 20 20
REMARK H PARENT
REMARK Flexibility Score: inf
ROOT
ATOM      1  C   UNL     1      -5.524  -4.198   5.152  1.00  0.00     0.000 C 
ENDROOT
BRANCH   1   2
ATOM      2  C   UNL     1      -7.035  -4.007   4.906  1.00  0.00     0.000 C 
BRANCH   2   3
ATOM      3  C   UNL     1      -7.388  -3.082   3.728  1.00  0.00     0.000 C 
BRANCH   3   4
ATOM      4  C   UNL     1      -7.873  -1.698   4.182  1.00  0.00     0.000 C 
BRANCH   4   5
ATOM      5  C   UNL     1      -6.731  -0.675   4.140  1.00  0.00     0.000 C 
BRANCH   5   6
ATOM      6  C   UNL     1      -7.214   0.709   4.597  1.00  0.00     0.006 C 
BRANCH   6   7
ATOM      7  C   UNL     1      -6.360   1.274   5.739  1.00  0.00     0.053 C 
BRANCH   7   8
ATOM      8  C   UNL     1      -7.107   1.294   7.037  1.00  0.00     0.041 C 
ATOM      9  O   UNL     1      -7.188   2.357   7.705  1.00  0.00    -0.550 OA
ATOM     10  O   UNL     1      -7.741   0.145   7.492  1.00  0.00    -0.550 OA
ENDBRANCH   7   8
ENDBRANCH   6   7
ENDBRANCH   5   6
ENDBRANCH   4   5
ENDBRANCH   3   4
ENDBRANCH   2   3
ENDBRANCH   1   2
BRANCH   1  11
ATOM     11  C   UNL     1      -4.870  -3.142   6.066  1.00  0.00     0.000 C 
BRANCH  11  12
ATOM     12  C   UNL     1      -5.723  -2.700   7.270  1.00  0.00     0.000 C 
BRANCH  12  13
ATOM     13  C   UNL     1      -4.952  -2.760   8.601  1.00  0.00     0.000 C 
BRANCH  13  14
ATOM     14  C   UNL     1      -3.736  -1.822   8.618  1.00  0.00     0.000 C 
BRANCH  14  15
ATOM     15  C   UNL     1      -4.117  -0.349   8.384  1.00  0.00     0.000 C 
BRANCH  15  16
ATOM     16  C   UNL     1      -3.160   0.365   7.412  1.00  0.00     0.006 C 
BRANCH  16  17
ATOM     17  C   UNL     1      -3.136   1.895   7.561  1.00  0.00     0.053 C 
BRANCH  17  18
ATOM     18  C   UNL     1      -3.221   2.321   8.996  1.00  0.00     0.041 C 
ATOM     19  O   UNL     1      -2.246   2.136   9.770  1.00  0.00    -0.550 OA
ATOM     20  O   UNL     1      -4.364   2.955   9.467  1.00  0.00    -0.550 OA
ENDBRANCH  17  18
ENDBRANCH  16  17
ENDBRANCH  15  16
ENDBRANCH  14  15
ENDBRANCH  13  14
ENDBRANCH  12  13
ENDBRANCH  11  12
ENDBRANCH   1  11
TORSDOF 15
ENDMDL
