MODEL 1
REMARK VINA RESULT:    -3.752      0.000      0.000
REMARK INTER + INTRA:          -6.665
REMARK INTER:                  -5.726
REMARK INTRA:                  -0.939
REMARK UNBOUND:                -0.939
REMARK SMILES CCCCCCCCCCC(=O)[O-]
REMARK SMILES IDX 7 1 8 2 9 3 10 4 11 5 12 6 13 7 6 8 5 9 4 10 3 11 2 12 1 13
REMARK H PARENT
REMARK Flexibility Score: inf
ROOT
ATOM      1  C   UNL     1       3.002  14.644  12.007  1.00  0.00     0.000 C 
ENDROOT
BRANCH   1   2
ATOM      2  C   UNL     1       4.461  14.683  12.493  1.00  0.00     0.000 C 
BRANCH   2   3
ATOM      3  C   UNL     1       5.424  13.945  11.545  1.00  0.00     0.006 C 
BRANCH   3   4
ATOM      4  C   UNL     1       6.207  12.797  12.203  1.00  0.00     0.053 C 
BRANCH   4   5
ATOM      5  C   UNL     1       6.179  11.550  11.374  1.00  0.00     0.041 C 
ATOM      6  O   UNL     1       7.104  10.701  11.476  1.00  0.00    -0.550 OA
ATOM      7  O   UNL     1       5.150  11.341  10.465  1.00  0.00    -0.550 OA
ENDBRANCH   4   5
ENDBRANCH   3   4
ENDBRANCH   2   3
ENDBRANCH   1   2
BRANCH   1   8
ATOM      8  C   UNL     1       2.480  13.209  11.826  1.00  0.00     0.000 C 
BRANCH   8   9
ATOM      9  C   UNL     1       1.973  12.943  10.398  1.00  0.00    -0.000 C 
BRANCH   9  10
ATOM     10  C   UNL     1       2.648  13.842   9.346  1.00  0.00    -0.000 C 
BRANCH  10  11
ATOM     11  C   UNL     1       1.681  14.627   8.441  1.00  0.00    -0.000 C 
BRANCH  11  12
ATOM     12  C   UNL     1       0.733  15.542   9.230  1.00  0.00    -0.003 C 
ATOM     13  C   UNL     1       1.389  16.887   9.529  1.00  0.00     0.004 C 
ENDBRANCH  11  12
ENDBRANCH  10  11
ENDBRANCH   9  10
ENDBRANCH   8   9
ENDBRANCH   1   8
TORSDOF 9
ENDMDL
MODEL 2
REMARK VINA RESULT:    -3.704      1.551      2.714
REMARK INTER + INTRA:          -6.591
REMARK INTER:                  -5.365
REMARK INTRA:                  -1.226
REMARK UNBOUND:                -0.939
REMARK SMILES CCCCCCCCCCC(=O)[O-]
REMARK SMILES IDX 7 1 8 2 9 3 10 4 11 5 12 6 13 7 6 8 5 9 4 10 3 11 2 12 1 13
REMARK H PARENT
REMARK Flexibility Score: inf
ROOT
ATOM      1  C   UNL     1       1.915  13.815  11.358  1.00  0.00     0.000 C 
ENDROOT
BRANCH   1   2
ATOM      2  C   UNL     1       3.226  13.239  11.921  1.00  0.00     0.000 C 
BRANCH   2   3
ATOM      3  C   UNL     1       4.398  14.233  11.837  1.00  0.00     0.006 C 
BRANCH   3   4
ATOM      4  C   UNL     1       5.537  13.794  10.901  1.00  0.00     0.053 C 
BRANCH   4   5
ATOM      5  C   UNL     1       6.609  13.048  11.634  1.00  0.00     0.041 C 
ATOM      6  O   UNL     1       6.462  12.758  12.850  1.00  0.00    -0.550 OA
ATOM      7  O   UNL     1       7.785  12.701  10.981  1.00  0.00    -0.550 OA
ENDBRANCH   4   5
ENDBRANCH   3   4
ENDBRANCH   2   3
ENDBRANCH   1   2
BRANCH   1   8
ATOM      8  C   UNL     1       2.106  15.206  10.730  1.00  0.00     0.000 C 
BRANCH   8   9
ATOM      9  C   UNL     1       1.490  15.305   9.323  1.00  0.00    -0.000 C 
BRANCH   9  10
ATOM     10  C   UNL     1       1.652  14.011   8.505  1.00  0.00    -0.000 C 
BRANCH  10  11
ATOM     11  C   UNL     1       2.936  13.930   7.661  1.00  0.00    -0.000 C 
BRANCH  11  12
ATOM     12  C   UNL     1       3.717  12.626   7.879  1.00  0.00    -0.003 C 
ATOM     13  C   UNL     1       2.861  11.586   8.596  1.00  0.00     0.004 C 
ENDBRANCH  11  12
ENDBRANCH  10  11
ENDBRANCH   9  10
ENDBRANCH   8   9
ENDBRANCH   1   8
TORSDOF 9
ENDMDL
MODEL 3
REMARK VINA RESULT:    -3.644      1.497      4.161
REMARK INTER + INTRA:          -6.500
REMARK INTER:                  -5.530
REMARK INTRA:                  -0.970
REMARK UNBOUND:                -0.939
REMARK SMILES CCCCCCCCCCC(=O)[O-]
REMARK SMILES IDX 7 1 8 2 9 3 10 4 11 5 12 6 13 7 6 8 5 9 4 10 3 11 2 12 1 13
REMARK H PARENT
REMARK Flexibility Score: inf
ROOT
ATOM      1  C   UNL     1       1.360  14.277   8.787  1.00  0.00     0.000 C 
ENDROOT
BRANCH   1   2
ATOM      2  C   UNL     1       2.385  14.266   7.640  1.00  0.00     0.000 C 
BRANCH   2   3
ATOM      3  C   UNL     1       3.469  13.188   7.821  1.00  0.00     0.006 C 
BRANCH   3   4
ATOM      4  C   UNL     1       2.931  11.811   8.244  1.00  0.00     0.053 C 
BRANCH   4   5
ATOM      5  C   UNL     1       3.855  11.115   9.196  1.00  0.00     0.041 C 
ATOM      6  O   UNL     1       3.472  10.838  10.363  1.00  0.00    -0.550 OA
ATOM      7  O   UNL     1       5.150  10.801   8.805  1.00  0.00    -0.550 OA
ENDBRANCH   4   5
ENDBRANCH   3   4
ENDBRANCH   2   3
ENDBRANCH   1   2
BRANCH   1   8
ATOM      8  C   UNL     1       1.874  15.030  10.026  1.00  0.00     0.000 C 
BRANCH   8   9
ATOM      9  C   UNL     1       2.325  14.077  11.148  1.00  0.00    -0.000 C 
BRANCH   9  10
ATOM     10  C   UNL     1       2.990  14.812  12.326  1.00  0.00    -0.000 C 
BRANCH  10  11
ATOM     11  C   UNL     1       4.526  14.721  12.368  1.00  0.00    -0.000 C 
BRANCH  11  12
ATOM     12  C   UNL     1       5.115  13.971  11.164  1.00  0.00    -0.003 C 
ATOM     13  C   UNL     1       6.168  12.959  11.608  1.00  0.00     0.004 C 
ENDBRANCH  11  12
ENDBRANCH  10  11
ENDBRANCH   9  10
ENDBRANCH   8   9
ENDBRANCH   1   8
TORSDOF 9
ENDMDL
MODEL 4
REMARK VINA RESULT:    -3.637      1.599      3.561
REMARK INTER + INTRA:          -6.489
REMARK INTER:                  -5.404
REMARK INTRA:                  -1.085
REMARK UNBOUND:                -0.939
REMARK SMILES CCCCCCCCCCC(=O)[O-]
REMARK SMILES IDX 7 1 8 2 9 3 10 4 11 5 12 6 13 7 6 8 5 9 4 10 3 11 2 12 1 13
REMARK H PARENT
REMARK Flexibility Score: inf
ROOT
ATOM      1  C   UNL     1       2.480  14.134   7.670  1.00  0.00     0.000 C 
ENDROOT
BRANCH   1   2
ATOM      2  C   UNL     1       3.583  13.123   8.024  1.00  0.00     0.000 C 
BRANCH   2   3
ATOM      3  C   UNL     1       3.025  11.809   8.599  1.00  0.00     0.006 C 
BRANCH   3   4
ATOM      4  C   UNL     1       3.711  11.339   9.893  1.00  0.00     0.053 C 
BRANCH   4   5
ATOM      5  C   UNL     1       5.194  11.207   9.726  1.00  0.00     0.041 C 
ATOM      6  O   UNL     1       5.668  10.362   8.921  1.00  0.00    -0.550 OA
ATOM      7  O   UNL     1       6.053  11.993  10.483  1.00  0.00    -0.550 OA
ENDBRANCH   4   5
ENDBRANCH   3   4
ENDBRANCH   2   3
ENDBRANCH   1   2
BRANCH   1   8
ATOM      8  C   UNL     1       1.289  14.069   8.641  1.00  0.00     0.000 C 
BRANCH   8   9
ATOM      9  C   UNL     1       0.988  15.429   9.295  1.00  0.00    -0.000 C 
BRANCH   9  10
ATOM     10  C   UNL     1       1.942  15.759  10.457  1.00  0.00    -0.000 C 
BRANCH  10  11
ATOM     11  C   UNL     1       2.311  14.565  11.356  1.00  0.00    -0.000 C 
BRANCH  11  12
ATOM     12  C   UNL     1       3.807  14.514  11.700  1.00  0.00    -0.003 C 
ATOM     13  C   UNL     1       4.049  14.883  13.160  1.00  0.00     0.004 C 
ENDBRANCH  11  12
ENDBRANCH  10  11
ENDBRANCH   9  10
ENDBRANCH   8   9
ENDBRANCH   1   8
TORSDOF 9
ENDMDL
MODEL 5
REMARK VINA RESULT:    -3.614      1.845      3.250
REMARK INTER + INTRA:          -6.454
REMARK INTER:                  -5.378
REMARK INTRA:                  -1.077
REMARK UNBOUND:                -0.939
REMARK SMILES CCCCCCCCCCC(=O)[O-]
REMARK SMILES IDX 7 1 8 2 9 3 10 4 11 5 12 6 13 7 6 8 5 9 4 10 3 11 2 12 1 13
REMARK H PARENT
REMARK Flexibility Score: inf
ROOT
ATOM      1  C   UNL     1       5.310  12.263  13.146  1.00  0.00     0.000 C 
ENDROOT
BRANCH   1   2
ATOM      2  C   UNL     1       6.652  12.092  13.880  1.00  0.00     0.000 C 
BRANCH   2   3
ATOM      3  C   UNL     1       7.855  12.057  12.920  1.00  0.00     0.006 C 
BRANCH   3   4
ATOM      4  C   UNL     1       7.515  12.416  11.463  1.00  0.00     0.053 C 
BRANCH   4   5
ATOM      5  C   UNL     1       7.831  11.295  10.520  1.00  0.00     0.041 C 
ATOM      6  O   UNL     1       8.721  11.439   9.641  1.00  0.00    -0.550 OA
ATOM      7  O   UNL     1       7.119  10.105  10.591  1.00  0.00    -0.550 OA
ENDBRANCH   4   5
ENDBRANCH   3   4
ENDBRANCH   2   3
ENDBRANCH   1   2
BRANCH   1   8
ATOM      8  C   UNL     1       4.612  13.587  13.500  1.00  0.00     0.000 C 
BRANCH   8   9
ATOM      9  C   UNL     1       4.529  14.546  12.299  1.00  0.00    -0.000 C 
BRANCH   9  10
ATOM     10  C   UNL     1       3.111  14.646  11.709  1.00  0.00    -0.000 C 
BRANCH  10  11
ATOM     11  C   UNL     1       2.922  13.953  10.347  1.00  0.00    -0.000 C 
BRANCH  11  12
ATOM     12  C   UNL     1       4.229  13.382   9.779  1.00  0.00    -0.003 C 
ATOM     13  C   UNL     1       4.150  11.865   9.635  1.00  0.00     0.004 C 
ENDBRANCH  11  12
ENDBRANCH  10  11
ENDBRANCH   9  10
ENDBRANCH   8   9
ENDBRANCH   1   8
TORSDOF 9
ENDMDL
MODEL 6
REMARK VINA RESULT:    -3.601      1.308      2.365
REMARK INTER + INTRA:          -6.435
REMARK INTER:                  -5.416
REMARK INTRA:                  -1.019
REMARK UNBOUND:                -0.939
REMARK SMILES CCCCCCCCCCC(=O)[O-]
REMARK SMILES IDX 7 1 8 2 9 3 10 4 11 5 12 6 13 7 6 8 5 9 4 10 3 11 2 12 1 13
REMARK H PARENT
REMARK Flexibility Score: inf
ROOT
ATOM      1  C   UNL     1       4.569  14.226  12.219  1.00  0.00     0.000 C 
ENDROOT
BRANCH   1   2
ATOM      2  C   UNL     1       5.641  13.979  11.144  1.00  0.00     0.000 C 
BRANCH   2   3
ATOM      3  C   UNL     1       6.480  12.718  11.419  1.00  0.00     0.006 C 
BRANCH   3   4
ATOM      4  C   UNL     1       5.773  11.397  11.069  1.00  0.00     0.053 C 
BRANCH   4   5
ATOM      5  C   UNL     1       6.606  10.536  10.169  1.00  0.00     0.041 C 
ATOM      6  O   UNL     1       6.381  10.512   8.930  1.00  0.00    -0.550 OA
ATOM      7  O   UNL     1       7.608   9.736  10.702  1.00  0.00    -0.550 OA
ENDBRANCH   4   5
ENDBRANCH   3   4
ENDBRANCH   2   3
ENDBRANCH   1   2
BRANCH   1   8
ATOM      8  C   UNL     1       3.267  14.798  11.630  1.00  0.00     0.000 C 
BRANCH   8   9
ATOM      9  C   UNL     1       2.177  13.725  11.464  1.00  0.00    -0.000 C 
BRANCH   9  10
ATOM     10  C   UNL     1       2.166  13.095  10.059  1.00  0.00    -0.000 C 
BRANCH  10  11
ATOM     11  C   UNL     1       1.907  14.081   8.905  1.00  0.00    -0.000 C 
BRANCH  11  12
ATOM     12  C   UNL     1       2.812  13.832   7.689  1.00  0.00    -0.003 C 
ATOM     13  C   UNL     1       3.860  12.766   7.992  1.00  0.00     0.004 C 
ENDBRANCH  11  12
ENDBRANCH  10  11
ENDBRANCH   9  10
ENDBRANCH   8   9
ENDBRANCH   1   8
TORSDOF 9
ENDMDL
MODEL 7
REMARK VINA RESULT:    -3.585      1.803      3.232
REMARK INTER + INTRA:          -6.411
REMARK INTER:                  -5.350
REMARK INTRA:                  -1.061
REMARK UNBOUND:                -0.939
REMARK SMILES CCCCCCCCCCC(=O)[O-]
REMARK SMILES IDX 7 1 8 2 9 3 10 4 11 5 12 6 13 7 6 8 5 9 4 10 3 11 2 12 1 13
REMARK H PARENT
REMARK Flexibility Score: inf
ROOT
ATOM      1  C   UNL     1       1.863  15.674  10.512  1.00  0.00     0.000 C 
ENDROOT
BRANCH   1   2
ATOM      2  C   UNL     1       2.314  14.382  11.215  1.00  0.00     0.000 C 
BRANCH   2   3
ATOM      3  C   UNL     1       3.718  14.502  11.835  1.00  0.00     0.006 C 
BRANCH   3   4
ATOM      4  C   UNL     1       4.819  13.755  11.063  1.00  0.00     0.053 C 
BRANCH   4   5
ATOM      5  C   UNL     1       5.398  12.627  11.860  1.00  0.00     0.041 C 
ATOM      6  O   UNL     1       5.024  11.444  11.647  1.00  0.00    -0.550 OA
ATOM      7  O   UNL     1       6.326  12.886  12.861  1.00  0.00    -0.550 OA
ENDBRANCH   4   5
ENDBRANCH   3   4
ENDBRANCH   2   3
ENDBRANCH   1   2
BRANCH   1   8
ATOM      8  C   UNL     1       1.280  15.409   9.113  1.00  0.00     0.000 C 
BRANCH   8   9
ATOM      9  C   UNL     1       1.584  13.988   8.609  1.00  0.00    -0.000 C 
BRANCH   9  10
ATOM     10  C   UNL     1       2.728  13.949   7.580  1.00  0.00    -0.000 C 
BRANCH  10  11
ATOM     11  C   UNL     1       3.731  12.796   7.763  1.00  0.00    -0.000 C 
BRANCH  11  12
ATOM     12  C   UNL     1       3.170  11.642   8.606  1.00  0.00    -0.003 C 
ATOM     13  C   UNL     1       4.047  10.399   8.490  1.00  0.00     0.004 C 
ENDBRANCH  11  12
ENDBRANCH  10  11
ENDBRANCH   9  10
ENDBRANCH   8   9
ENDBRANCH   1   8
TORSDOF 9
ENDMDL
MODEL 8
REMARK VINA RESULT:    -3.553      2.166      3.526
REMARK INTER + INTRA:          -6.362
REMARK INTER:                  -5.340
REMARK INTRA:                  -1.022
REMARK UNBOUND:                -0.939
REMARK SMILES CCCCCCCCCCC(=O)[O-]
REMARK SMILES IDX 7 1 8 2 9 3 10 4 11 5 12 6 13 7 6 8 5 9 4 10 3 11 2 12 1 13
REMARK H PARENT
REMARK Flexibility Score: inf
ROOT
ATOM      1  C   UNL     1       5.553  11.622  12.111  1.00  0.00     0.000 C 
ENDROOT
BRANCH   1   2
ATOM      2  C   UNL     1       6.692  12.529  12.608  1.00  0.00     0.000 C 
BRANCH   2   3
ATOM      3  C   UNL     1       8.070  11.845  12.540  1.00  0.00     0.006 C 
BRANCH   3   4
ATOM      4  C   UNL     1       8.783  11.988  11.185  1.00  0.00     0.053 C 
BRANCH   4   5
ATOM      5  C   UNL     1       8.644  10.756  10.344  1.00  0.00     0.041 C 
ATOM      6  O   UNL     1       8.573   9.623  10.888  1.00  0.00    -0.550 OA
ATOM      7  O   UNL     1       8.626  10.857   8.959  1.00  0.00    -0.550 OA
ENDBRANCH   4   5
ENDBRANCH   3   4
ENDBRANCH   2   3
ENDBRANCH   1   2
BRANCH   1   8
ATOM      8  C   UNL     1       5.093  11.984  10.688  1.00  0.00     0.000 C 
BRANCH   8   9
ATOM      9  C   UNL     1       4.896  13.498  10.501  1.00  0.00    -0.000 C 
BRANCH   9  10
ATOM     10  C   UNL     1       3.414  13.916  10.518  1.00  0.00    -0.000 C 
BRANCH  10  11
ATOM     11  C   UNL     1       2.940  14.582  11.823  1.00  0.00    -0.000 C 
BRANCH  11  12
ATOM     12  C   UNL     1       4.099  15.094  12.690  1.00  0.00    -0.003 C 
ATOM     13  C   UNL     1       3.925  14.673  14.146  1.00  0.00     0.004 C 
ENDBRANCH  11  12
ENDBRANCH  10  11
ENDBRANCH   9  10
ENDBRANCH   8   9
ENDBRANCH   1   8
TORSDOF 9
ENDMDL
MODEL 9
REMARK VINA RESULT:    -3.522      2.535      4.397
REMARK INTER + INTRA:          -6.315
REMARK INTER:                  -5.324
REMARK INTRA:                  -0.991
REMARK UNBOUND:                -0.939
REMARK SMILES CCCCCCCCCCC(=O)[O-]
REMARK SMILES IDX 7 1 8 2 9 3 10 4 11 5 12 6 13 7 6 8 5 9 4 10 3 11 2 12 1 13
REMARK H PARENT
REMARK Flexibility Score: inf
ROOT
ATOM      1  C   UNL     1       2.654  13.893   8.312  1.00  0.00     0.000 C 
ENDROOT
BRANCH   1   2
ATOM      2  C   UNL     1       3.740  12.823   8.108  1.00  0.00     0.000 C 
BRANCH   2   3
ATOM      3  C   UNL     1       3.675  11.701   9.160  1.00  0.00     0.006 C 
BRANCH   3   4
ATOM      4  C   UNL     1       4.054  10.309   8.628  1.00  0.00     0.053 C 
BRANCH   4   5
ATOM      5  C   UNL     1       2.867   9.399   8.538  1.00  0.00     0.041 C 
ATOM      6  O   UNL     1       2.311   8.978   9.586  1.00  0.00    -0.550 OA
ATOM      7  O   UNL     1       2.395   8.991   7.297  1.00  0.00    -0.550 OA
ENDBRANCH   4   5
ENDBRANCH   3   4
ENDBRANCH   2   3
ENDBRANCH   1   2
BRANCH   1   8
ATOM      8  C   UNL     1       1.958  13.771   9.678  1.00  0.00     0.000 C 
BRANCH   8   9
ATOM      9  C   UNL     1       2.192  15.004  10.569  1.00  0.00    -0.000 C 
BRANCH   9  10
ATOM     10  C   UNL     1       2.590  14.635  12.010  1.00  0.00    -0.000 C 
BRANCH  10  11
ATOM     11  C   UNL     1       4.061  14.911  12.370  1.00  0.00    -0.000 C 
BRANCH  11  12
ATOM     12  C   UNL     1       4.968  13.690  12.161  1.00  0.00    -0.003 C 
ATOM     13  C   UNL     1       5.936  13.915  11.003  1.00  0.00     0.004 C 
ENDBRANCH  11  12
ENDBRANCH  10  11
ENDBRANCH   9  10
ENDBRANCH   8   9
ENDBRANCH   1   8
TORSDOF 9
ENDMDL
