MODEL 1
REMARK VINA RESULT:    -4.399      0.000      0.000
REMARK INTER + INTRA:          -6.588
REMARK INTER:                  -6.713
REMARK INTRA:                   0.125
REMARK UNBOUND:                 0.125
REMARK SMILES CC1=CCC[C@H](C)C(=O)C[C@H](C(C)C)C(=O)C1
REMARK SMILES IDX 8 1 9 2 6 3 7 4 5 5 4 6 3 7 2 8 1 9 10 11 11 12 15 13 16 14
REMARK SMILES IDX 17 15 12 17 13 18 14 19
REMARK H PARENT
REMARK Flexibility Score: 70.00
ROOT
ATOM      1  C   UNL     1     212.652 154.514 183.030  1.00  0.00     0.136 C 
ATOM      2  O   UNL     1     213.396 155.232 183.683  1.00  0.00    -0.299 OA
ENDROOT
BRANCH   1   3
ATOM      3  C   UNL     1     211.768 153.506 183.743  1.00  0.00     0.053 C 
ATOM      4  C   UNL     1     210.820 154.217 184.721  1.00  0.00     0.016 C 
BRANCH   3   5
ATOM      5  C   UNL     1     210.975 152.670 182.716  1.00  0.00     0.015 C 
BRANCH   5   6
ATOM      6  C   UNL     1     211.576 151.263 182.525  1.00  0.00     0.028 C 
BRANCH   6   7
ATOM      7  C   UNL     1     211.756 150.952 181.060  1.00  0.00    -0.028 C 
ATOM      8  C   UNL     1     212.834 151.310 180.323  1.00  0.00    -0.070 CG0
ATOM      9  C   UNL     1     212.820 150.994 178.849  1.00  0.00     0.039 C 
ATOM     10  G   UNL     1     214.054 151.992 180.923  1.00  0.00     0.000 G0
ENDBRANCH   6   7
ENDBRANCH   5   6
ENDBRANCH   3   5
ENDBRANCH   1   3
BRANCH   1  11
ATOM     11  C   UNL     1     212.629 154.643 181.522  1.00  0.00     0.087 C 
BRANCH  11  12
ATOM     12  C   UNL     1     214.030 154.630 180.831  1.00  0.00     0.066 C 
BRANCH  12  13
ATOM     13  C   UNL     1     214.405 153.282 180.222  1.00  0.00     0.140 C 
ATOM     14  O   UNL     1     215.057 153.237 179.188  1.00  0.00    -0.299 OA
BRANCH  13  15
ATOM     15  C   UNL     1     214.060 151.994 180.929  1.00  0.00     0.106 CG0
ATOM     16  G   UNL     1     212.829 151.321 180.341  1.00  0.00     0.000 G0
ENDBRANCH  13  15
ENDBRANCH  12  13
BRANCH  12  17
ATOM     17  C   UNL     1     214.284 155.808 179.833  1.00  0.00    -0.006 C 
ATOM     18  C   UNL     1     214.829 157.054 180.554  1.00  0.00     0.008 C 
ATOM     19  C   UNL     1     213.065 156.193 178.980  1.00  0.00     0.008 C 
ENDBRANCH  12  17
ENDBRANCH  11  12
ENDBRANCH   1  11
TORSDOF 1
ENDMDL
MODEL 2
REMARK VINA RESULT:    -4.354      1.720      3.896
REMARK INTER + INTRA:          -6.520
REMARK INTER:                  -6.053
REMARK INTRA:                  -0.467
REMARK UNBOUND:                 0.125
REMARK SMILES CC1=CCC[C@H](C)C(=O)C[C@H](C(C)C)C(=O)C1
REMARK SMILES IDX 8 1 9 2 6 3 7 4 5 5 4 6 3 7 2 8 1 9 10 11 11 12 15 13 16 14
REMARK SMILES IDX 17 15 12 17 13 18 14 19
REMARK H PARENT
REMARK Flexibility Score: 70.00
ROOT
ATOM      1  C   UNL     1     214.224 154.698 180.389  1.00  0.00     0.136 C 
ATOM      2  O   UNL     1     215.263 155.231 180.027  1.00  0.00    -0.299 OA
ENDROOT
BRANCH   1   3
ATOM      3  C   UNL     1     213.033 154.662 179.447  1.00  0.00     0.053 C 
ATOM      4  C   UNL     1     212.616 156.086 179.051  1.00  0.00     0.016 C 
BRANCH   3   5
ATOM      5  C   UNL     1     213.365 153.817 178.199  1.00  0.00     0.015 C 
BRANCH   5   6
ATOM      6  C   UNL     1     212.925 152.348 178.358  1.00  0.00     0.028 C 
BRANCH   6   7
ATOM      7  C   UNL     1     214.107 151.464 178.665  1.00  0.00    -0.028 C 
ATOM      8  C   UNL     1     214.264 150.755 179.808  1.00  0.00    -0.070 CG0
ATOM      9  C   UNL     1     215.547 149.984 179.993  1.00  0.00     0.039 C 
ATOM     10  G   UNL     1     213.198 150.690 180.891  1.00  0.00     0.000 G0
ENDBRANCH   6   7
ENDBRANCH   5   6
ENDBRANCH   3   5
ENDBRANCH   1   3
BRANCH   1  11
ATOM     11  C   UNL     1     214.145 154.087 181.771  1.00  0.00     0.087 C 
BRANCH  11  12
ATOM     12  C   UNL     1     212.989 153.057 181.979  1.00  0.00     0.066 C 
BRANCH  12  13
ATOM     13  C   UNL     1     213.458 151.607 182.043  1.00  0.00     0.140 C 
ATOM     14  O   UNL     1     213.985 151.178 183.059  1.00  0.00    -0.299 OA
BRANCH  13  15
ATOM     15  C   UNL     1     213.198 150.661 180.895  1.00  0.00     0.106 CG0
ATOM     16  G   UNL     1     214.259 150.760 179.810  1.00  0.00     0.000 G0
ENDBRANCH  13  15
ENDBRANCH  12  13
BRANCH  12  17
ATOM     17  C   UNL     1     212.002 153.399 183.143  1.00  0.00    -0.006 C 
ATOM     18  C   UNL     1     210.743 152.514 183.098  1.00  0.00     0.008 C 
ATOM     19  C   UNL     1     211.593 154.879 183.217  1.00  0.00     0.008 C 
ENDBRANCH  12  17
ENDBRANCH  11  12
ENDBRANCH   1  11
TORSDOF 1
ENDMDL
MODEL 3
REMARK VINA RESULT:    -4.302      2.045      4.050
REMARK INTER + INTRA:          -6.441
REMARK INTER:                  -6.068
REMARK INTRA:                  -0.372
REMARK UNBOUND:                 0.125
REMARK SMILES CC1=CCC[C@H](C)C(=O)C[C@H](C(C)C)C(=O)C1
REMARK SMILES IDX 8 1 9 2 6 3 7 4 5 5 4 6 3 7 2 8 1 9 10 11 11 12 15 13 16 14
REMARK SMILES IDX 17 15 12 17 13 18 14 19
REMARK H PARENT
REMARK Flexibility Score: 70.00
ROOT
ATOM      1  C   UNL     1     214.882 151.784 183.440  1.00  0.00     0.136 C 
ATOM      2  O   UNL     1     215.626 152.083 184.363  1.00  0.00    -0.299 OA
ENDROOT
BRANCH   1   3
ATOM      3  C   UNL     1     213.496 151.239 183.741  1.00  0.00     0.053 C 
ATOM      4  C   UNL     1     213.585 150.033 184.688  1.00  0.00     0.016 C 
BRANCH   3   5
ATOM      5  C   UNL     1     212.606 152.348 184.342  1.00  0.00     0.015 C 
BRANCH   5   6
ATOM      6  C   UNL     1     211.732 153.034 183.273  1.00  0.00     0.028 C 
BRANCH   6   7
ATOM      7  C   UNL     1     212.146 154.472 183.086  1.00  0.00    -0.028 C 
ATOM      8  C   UNL     1     212.617 154.995 181.929  1.00  0.00    -0.070 CG0
ATOM      9  C   UNL     1     213.065 156.434 181.933  1.00  0.00     0.039 C 
ATOM     10  G   UNL     1     212.690 154.199 180.635  1.00  0.00     0.000 G0
ENDBRANCH   6   7
ENDBRANCH   5   6
ENDBRANCH   3   5
ENDBRANCH   1   3
BRANCH   1  11
ATOM     11  C   UNL     1     215.358 151.960 182.014  1.00  0.00     0.087 C 
BRANCH  11  12
ATOM     12  C   UNL     1     214.227 152.093 180.946  1.00  0.00     0.066 C 
BRANCH  12  13
ATOM     13  C   UNL     1     214.027 153.517 180.433  1.00  0.00     0.140 C 
ATOM     14  O   UNL     1     214.916 154.071 179.803  1.00  0.00    -0.299 OA
BRANCH  13  15
ATOM     15  C   UNL     1     212.705 154.223 180.614  1.00  0.00     0.106 CG0
ATOM     16  G   UNL     1     212.635 154.996 181.922  1.00  0.00     0.000 G0
ENDBRANCH  13  15
ENDBRANCH  12  13
BRANCH  12  17
ATOM     17  C   UNL     1     214.301 151.060 179.773  1.00  0.00    -0.006 C 
ATOM     18  C   UNL     1     213.043 150.175 179.717  1.00  0.00     0.008 C 
ATOM     19  C   UNL     1     215.558 150.175 179.784  1.00  0.00     0.008 C 
ENDBRANCH  12  17
ENDBRANCH  11  12
ENDBRANCH   1  11
TORSDOF 1
ENDMDL
MODEL 4
REMARK VINA RESULT:    -4.280      2.001      3.856
REMARK INTER + INTRA:          -6.406
REMARK INTER:                  -6.616
REMARK INTRA:                   0.210
REMARK UNBOUND:                 0.125
REMARK SMILES CC1=CCC[C@H](C)C(=O)C[C@H](C(C)C)C(=O)C1
REMARK SMILES IDX 8 1 9 2 6 3 7 4 5 5 4 6 3 7 2 8 1 9 10 11 11 12 15 13 16 14
REMARK SMILES IDX 17 15 12 17 13 18 14 19
REMARK H PARENT
REMARK Flexibility Score: 70.00
ROOT
ATOM      1  C   UNL     1     212.072 151.425 181.045  1.00  0.00     0.136 C 
ATOM      2  O   UNL     1     211.199 151.238 180.208  1.00  0.00    -0.299 OA
ENDROOT
BRANCH   1   3
ATOM      3  C   UNL     1     211.740 151.272 182.519  1.00  0.00     0.053 C 
ATOM      4  C   UNL     1     213.016 151.011 183.334  1.00  0.00     0.016 C 
BRANCH   3   5
ATOM      5  C   UNL     1     211.004 152.527 183.034  1.00  0.00     0.015 C 
BRANCH   5   6
ATOM      6  C   UNL     1     211.890 153.380 183.965  1.00  0.00     0.028 C 
BRANCH   6   7
ATOM      7  C   UNL     1     212.007 154.792 183.449  1.00  0.00    -0.028 C 
ATOM      8  C   UNL     1     212.983 155.231 182.621  1.00  0.00    -0.070 CG0
ATOM      9  C   UNL     1     213.003 156.696 182.264  1.00  0.00     0.039 C 
ATOM     10  G   UNL     1     214.036 154.309 182.025  1.00  0.00     0.000 G0
ENDBRANCH   6   7
ENDBRANCH   5   6
ENDBRANCH   3   5
ENDBRANCH   1   3
BRANCH   1  11
ATOM     11  C   UNL     1     213.465 151.807 180.593  1.00  0.00     0.087 C 
BRANCH  11  12
ATOM     12  C   UNL     1     213.554 153.112 179.739  1.00  0.00     0.066 C 
BRANCH  12  13
ATOM     13  C   UNL     1     214.034 154.330 180.522  1.00  0.00     0.140 C 
ATOM     14  O   UNL     1     214.347 155.354 179.930  1.00  0.00    -0.299 OA
BRANCH  13  15
ATOM     15  C   UNL     1     214.044 154.323 182.032  1.00  0.00     0.106 CG0
ATOM     16  G   UNL     1     212.984 155.240 182.623  1.00  0.00     0.000 G0
ENDBRANCH  13  15
ENDBRANCH  12  13
BRANCH  12  17
ATOM     17  C   UNL     1     214.312 152.960 178.380  1.00  0.00    -0.006 C 
ATOM     18  C   UNL     1     213.336 152.854 177.194  1.00  0.00     0.008 C 
ATOM     19  C   UNL     1     215.311 151.792 178.335  1.00  0.00     0.008 C 
ENDBRANCH  12  17
ENDBRANCH  11  12
ENDBRANCH   1  11
TORSDOF 1
ENDMDL
MODEL 5
REMARK VINA RESULT:    -4.168      1.831      4.218
REMARK INTER + INTRA:          -6.236
REMARK INTER:                  -6.183
REMARK INTRA:                  -0.054
REMARK UNBOUND:                 0.125
REMARK SMILES CC1=CCC[C@H](C)C(=O)C[C@H](C(C)C)C(=O)C1
REMARK SMILES IDX 8 1 9 2 6 3 7 4 5 5 4 6 3 7 2 8 1 9 10 11 11 12 15 13 16 14
REMARK SMILES IDX 17 15 12 17 13 18 14 19
REMARK H PARENT
REMARK Flexibility Score: 70.00
ROOT
ATOM      1  C   UNL     1     212.944 155.087 183.186  1.00  0.00     0.136 C 
ATOM      2  O   UNL     1     212.806 154.975 184.396  1.00  0.00    -0.299 OA
ENDROOT
BRANCH   1   3
ATOM      3  C   UNL     1     212.488 156.360 182.495  1.00  0.00     0.053 C 
ATOM      4  C   UNL     1     211.446 157.094 183.352  1.00  0.00     0.016 C 
BRANCH   3   5
ATOM      5  C   UNL     1     213.699 157.270 182.200  1.00  0.00     0.015 C 
BRANCH   5   6
ATOM      6  C   UNL     1     214.379 156.916 180.861  1.00  0.00     0.028 C 
BRANCH   6   7
ATOM      7  C   UNL     1     213.351 156.701 179.779  1.00  0.00    -0.028 C 
ATOM      8  C   UNL     1     213.167 155.537 179.112  1.00  0.00    -0.070 CG0
ATOM      9  C   UNL     1     212.150 155.513 177.999  1.00  0.00     0.039 C 
ATOM     10  G   UNL     1     213.921 154.262 179.455  1.00  0.00     0.000 G0
ENDBRANCH   6   7
ENDBRANCH   5   6
ENDBRANCH   3   5
ENDBRANCH   1   3
BRANCH   1  11
ATOM     11  C   UNL     1     213.563 153.951 182.400  1.00  0.00     0.087 C 
BRANCH  11  12
ATOM     12  C   UNL     1     212.586 153.188 181.449  1.00  0.00     0.066 C 
BRANCH  12  13
ATOM     13  C   UNL     1     213.035 153.167 179.991  1.00  0.00     0.140 C 
ATOM     14  O   UNL     1     212.609 152.308 179.232  1.00  0.00    -0.299 OA
BRANCH  13  15
ATOM     15  C   UNL     1     213.932 154.252 179.444  1.00  0.00     0.106 CG0
ATOM     16  G   UNL     1     213.168 155.527 179.121  1.00  0.00     0.000 G0
ENDBRANCH  13  15
ENDBRANCH  12  13
BRANCH  12  17
ATOM     17  C   UNL     1     212.158 151.768 181.944  1.00  0.00    -0.006 C 
ATOM     18  C   UNL     1     210.628 151.600 181.934  1.00  0.00     0.008 C 
ATOM     19  C   UNL     1     212.713 151.382 183.325  1.00  0.00     0.008 C 
ENDBRANCH  12  17
ENDBRANCH  11  12
ENDBRANCH   1  11
TORSDOF 1
ENDMDL
MODEL 6
REMARK VINA RESULT:    -4.145      1.811      2.344
REMARK INTER + INTRA:          -6.201
REMARK INTER:                  -5.893
REMARK INTRA:                  -0.308
REMARK UNBOUND:                 0.125
REMARK SMILES CC1=CCC[C@H](C)C(=O)C[C@H](C(C)C)C(=O)C1
REMARK SMILES IDX 8 1 9 2 6 3 7 4 5 5 4 6 3 7 2 8 1 9 10 11 11 12 15 13 16 14
REMARK SMILES IDX 17 15 12 17 13 18 14 19
REMARK H PARENT
REMARK Flexibility Score: 70.00
ROOT
ATOM      1  C   UNL     1     212.924 153.178 183.336  1.00  0.00     0.136 C 
ATOM      2  O   UNL     1     212.095 152.305 183.548  1.00  0.00    -0.299 OA
ENDROOT
BRANCH   1   3
ATOM      3  C   UNL     1     214.292 153.085 183.989  1.00  0.00     0.053 C 
ATOM      4  C   UNL     1     214.224 153.549 185.452  1.00  0.00     0.016 C 
BRANCH   3   5
ATOM      5  C   UNL     1     214.834 151.643 183.893  1.00  0.00     0.015 C 
BRANCH   5   6
ATOM      6  C   UNL     1     215.633 151.408 182.595  1.00  0.00     0.028 C 
BRANCH   6   7
ATOM      7  C   UNL     1     214.775 150.741 181.550  1.00  0.00    -0.028 C 
ATOM      8  C   UNL     1     214.340 151.336 180.415  1.00  0.00    -0.070 CG0
ATOM      9  C   UNL     1     213.419 150.553 179.513  1.00  0.00     0.039 C 
ATOM     10  G   UNL     1     214.758 152.741 180.008  1.00  0.00     0.000 G0
ENDBRANCH   6   7
ENDBRANCH   5   6
ENDBRANCH   3   5
ENDBRANCH   1   3
BRANCH   1  11
ATOM     11  C   UNL     1     212.570 154.336 182.429  1.00  0.00     0.087 C 
BRANCH  11  12
ATOM     12  C   UNL     1     213.647 154.696 181.356  1.00  0.00     0.066 C 
BRANCH  12  13
ATOM     13  C   UNL     1     213.661 153.756 180.155  1.00  0.00     0.140 C 
ATOM     14  O   UNL     1     212.818 153.873 179.276  1.00  0.00    -0.299 OA
BRANCH  13  15
ATOM     15  C   UNL     1     214.760 152.735 179.987  1.00  0.00     0.106 CG0
ATOM     16  G   UNL     1     214.325 151.340 180.411  1.00  0.00     0.000 G0
ENDBRANCH  13  15
ENDBRANCH  12  13
BRANCH  12  17
ATOM     17  C   UNL     1     213.666 156.198 180.918  1.00  0.00    -0.006 C 
ATOM     18  C   UNL     1     214.949 156.547 180.143  1.00  0.00     0.008 C 
ATOM     19  C   UNL     1     213.466 157.199 182.068  1.00  0.00     0.008 C 
ENDBRANCH  12  17
ENDBRANCH  11  12
ENDBRANCH   1  11
TORSDOF 1
ENDMDL
MODEL 7
REMARK VINA RESULT:    -4.120      1.816      2.312
REMARK INTER + INTRA:          -6.162
REMARK INTER:                  -6.132
REMARK INTRA:                  -0.030
REMARK UNBOUND:                 0.125
REMARK SMILES CC1=CCC[C@H](C)C(=O)C[C@H](C(C)C)C(=O)C1
REMARK SMILES IDX 8 1 9 2 6 3 7 4 5 5 4 6 3 7 2 8 1 9 10 11 11 12 15 13 16 14
REMARK SMILES IDX 17 15 12 17 13 18 14 19
REMARK H PARENT
REMARK Flexibility Score: 70.00
ROOT
ATOM      1  C   UNL     1     213.501 153.212 182.111  1.00  0.00     0.136 C 
ATOM      2  O   UNL     1     214.692 153.351 182.351  1.00  0.00    -0.299 OA
ENDROOT
BRANCH   1   3
ATOM      3  C   UNL     1     212.787 151.952 182.567  1.00  0.00     0.053 C 
ATOM      4  C   UNL     1     211.730 152.287 183.630  1.00  0.00     0.016 C 
BRANCH   3   5
ATOM      5  C   UNL     1     212.147 151.234 181.360  1.00  0.00     0.015 C 
BRANCH   5   6
ATOM      6  C   UNL     1     213.163 150.983 180.228  1.00  0.00     0.028 C 
BRANCH   6   7
ATOM      7  C   UNL     1     212.516 151.162 178.878  1.00  0.00    -0.028 C 
ATOM      8  C   UNL     1     212.767 152.190 178.033  1.00  0.00    -0.070 CG0
ATOM      9  C   UNL     1     211.972 152.265 176.754  1.00  0.00     0.039 C 
ATOM     10  G   UNL     1     213.824 153.247 178.311  1.00  0.00     0.000 G0
ENDBRANCH   6   7
ENDBRANCH   5   6
ENDBRANCH   3   5
ENDBRANCH   1   3
BRANCH   1  11
ATOM     11  C   UNL     1     212.763 154.300 181.361  1.00  0.00     0.087 C 
BRANCH  11  12
ATOM     12  C   UNL     1     213.588 155.018 180.245  1.00  0.00     0.066 C 
BRANCH  12  13
ATOM     13  C   UNL     1     213.263 154.539 178.833  1.00  0.00     0.140 C 
ATOM     14  O   UNL     1     212.595 155.241 178.087  1.00  0.00    -0.299 OA
BRANCH  13  15
ATOM     15  C   UNL     1     213.834 153.244 178.308  1.00  0.00     0.106 CG0
ATOM     16  G   UNL     1     212.757 152.207 178.026  1.00  0.00     0.000 G0
ENDBRANCH  13  15
ENDBRANCH  12  13
BRANCH  12  17
ATOM     17  C   UNL     1     213.605 156.579 180.338  1.00  0.00    -0.006 C 
ATOM     18  C   UNL     1     215.025 157.143 180.149  1.00  0.00     0.008 C 
ATOM     19  C   UNL     1     212.989 157.146 181.627  1.00  0.00     0.008 C 
ENDBRANCH  12  17
ENDBRANCH  11  12
ENDBRANCH   1  11
TORSDOF 1
ENDMDL
MODEL 8
REMARK VINA RESULT:    -4.118      1.905      3.991
REMARK INTER + INTRA:          -6.160
REMARK INTER:                  -6.045
REMARK INTRA:                  -0.115
REMARK UNBOUND:                 0.125
REMARK SMILES CC1=CCC[C@H](C)C(=O)C[C@H](C(C)C)C(=O)C1
REMARK SMILES IDX 8 1 9 2 6 3 7 4 5 5 4 6 3 7 2 8 1 9 10 11 11 12 15 13 16 14
REMARK SMILES IDX 17 15 12 17 13 18 14 19
REMARK H PARENT
REMARK Flexibility Score: 70.00
ROOT
ATOM      1  C   UNL     1     213.306 155.534 179.049  1.00  0.00     0.136 C 
ATOM      2  O   UNL     1     212.831 156.521 178.505  1.00  0.00    -0.299 OA
ENDROOT
BRANCH   1   3
ATOM      3  C   UNL     1     214.176 155.705 180.282  1.00  0.00     0.053 C 
ATOM      4  C   UNL     1     214.980 157.010 180.198  1.00  0.00     0.016 C 
BRANCH   3   5
ATOM      5  C   UNL     1     213.306 155.675 181.558  1.00  0.00     0.015 C 
BRANCH   5   6
ATOM      6  C   UNL     1     213.714 154.534 182.511  1.00  0.00     0.028 C 
BRANCH   6   7
ATOM      7  C   UNL     1     212.551 153.609 182.768  1.00  0.00    -0.028 C 
ATOM      8  C   UNL     1     212.397 152.389 182.201  1.00  0.00    -0.070 CG0
ATOM      9  C   UNL     1     211.132 151.624 182.501  1.00  0.00     0.039 C 
ATOM     10  G   UNL     1     213.449 151.758 181.302  1.00  0.00     0.000 G0
ENDBRANCH   6   7
ENDBRANCH   5   6
ENDBRANCH   3   5
ENDBRANCH   1   3
BRANCH   1  11
ATOM     11  C   UNL     1     213.018 154.161 178.481  1.00  0.00     0.087 C 
BRANCH  11  12
ATOM     12  C   UNL     1     213.920 153.010 179.031  1.00  0.00     0.066 C 
BRANCH  12  13
ATOM     13  C   UNL     1     213.156 151.951 179.820  1.00  0.00     0.140 C 
ATOM     14  O   UNL     1     212.361 151.218 179.251  1.00  0.00    -0.299 OA
BRANCH  13  15
ATOM     15  C   UNL     1     213.436 151.732 181.288  1.00  0.00     0.106 CG0
ATOM     16  G   UNL     1     212.387 152.378 182.180  1.00  0.00     0.000 G0
ENDBRANCH  13  15
ENDBRANCH  12  13
BRANCH  12  17
ATOM     17  C   UNL     1     214.883 152.367 177.979  1.00  0.00    -0.006 C 
ATOM     18  C   UNL     1     214.146 152.019 176.674  1.00  0.00     0.008 C 
ATOM     19  C   UNL     1     215.648 151.135 178.488  1.00  0.00     0.008 C 
ENDBRANCH  12  17
ENDBRANCH  11  12
ENDBRANCH   1  11
TORSDOF 1
ENDMDL
MODEL 9
REMARK VINA RESULT:    -4.098      1.615      3.743
REMARK INTER + INTRA:          -6.130
REMARK INTER:                  -5.939
REMARK INTRA:                  -0.190
REMARK UNBOUND:                 0.125
REMARK SMILES CC1=CCC[C@H](C)C(=O)C[C@H](C(C)C)C(=O)C1
REMARK SMILES IDX 8 1 9 2 6 3 7 4 5 5 4 6 3 7 2 8 1 9 10 11 11 12 15 13 16 14
REMARK SMILES IDX 17 15 12 17 13 18 14 19
REMARK H PARENT
REMARK Flexibility Score: 70.00
ROOT
ATOM      1  C   UNL     1     213.294 154.356 178.426  1.00  0.00     0.136 C 
ATOM      2  O   UNL     1     212.412 155.156 178.151  1.00  0.00    -0.299 OA
ENDROOT
BRANCH   1   3
ATOM      3  C   UNL     1     213.431 153.082 177.610  1.00  0.00     0.053 C 
ATOM      4  C   UNL     1     214.805 152.437 177.844  1.00  0.00     0.016 C 
BRANCH   3   5
ATOM      5  C   UNL     1     212.293 152.099 177.961  1.00  0.00     0.015 C 
BRANCH   5   6
ATOM      6  C   UNL     1     212.734 151.045 178.997  1.00  0.00     0.028 C 
BRANCH   6   7
ATOM      7  C   UNL     1     211.935 151.177 180.269  1.00  0.00    -0.028 C 
ATOM      8  C   UNL     1     212.400 151.720 181.419  1.00  0.00    -0.070 CG0
ATOM      9  C   UNL     1     211.498 151.701 182.627  1.00  0.00     0.039 C 
ATOM     10  G   UNL     1     213.774 152.363 181.531  1.00  0.00     0.000 G0
ENDBRANCH   6   7
ENDBRANCH   5   6
ENDBRANCH   3   5
ENDBRANCH   1   3
BRANCH   1  11
ATOM     11  C   UNL     1     214.232 154.650 179.577  1.00  0.00     0.087 C 
BRANCH  11  12
ATOM     12  C   UNL     1     213.537 154.921 180.950  1.00  0.00     0.066 C 
BRANCH  12  13
ATOM     13  C   UNL     1     213.731 153.804 181.971  1.00  0.00     0.140 C 
ATOM     14  O   UNL     1     213.768 154.064 183.165  1.00  0.00    -0.299 OA
BRANCH  13  15
ATOM     15  C   UNL     1     213.787 152.359 181.533  1.00  0.00     0.106 CG0
ATOM     16  G   UNL     1     212.405 151.732 181.428  1.00  0.00     0.000 G0
ENDBRANCH  13  15
ENDBRANCH  12  13
BRANCH  12  17
ATOM     17  C   UNL     1     213.826 156.328 181.569  1.00  0.00    -0.006 C 
ATOM     18  C   UNL     1     212.527 157.044 181.980  1.00  0.00     0.008 C 
ATOM     19  C   UNL     1     214.669 157.254 180.678  1.00  0.00     0.008 C 
ENDBRANCH  12  17
ENDBRANCH  11  12
ENDBRANCH   1  11
TORSDOF 1
ENDMDL
