MODEL 1
REMARK VINA RESULT:    -4.802      0.000      0.000
REMARK INTER + INTRA:          -5.449
REMARK INTER:                  -5.364
REMARK INTRA:                  -0.086
REMARK UNBOUND:                -0.086
REMARK SMILES CCc1ccc(O)cc1O
REMARK SMILES IDX 3 1 9 2 8 3 6 4 5 5 4 6 2 7 1 8 10 9 7 11
REMARK H PARENT 10 10 7 12
REMARK Flexibility Score: inf
ROOT
ATOM      1  C   UNL     1     -25.974 -11.948 -30.963  1.00  0.00    -0.006 A 
ATOM      2  C   UNL     1     -27.375 -12.110 -30.940  1.00  0.00     0.122 A 
ATOM      3  C   UNL     1     -28.081 -11.913 -29.744  1.00  0.00     0.092 A 
ATOM      4  C   UNL     1     -27.407 -11.544 -28.576  1.00  0.00     0.119 A 
ATOM      5  C   UNL     1     -26.017 -11.368 -28.601  1.00  0.00     0.047 A 
ATOM      6  C   UNL     1     -25.307 -11.564 -29.788  1.00  0.00     0.011 A 
ENDROOT
BRANCH   1   7
ATOM      7  C   UNL     1     -25.195 -12.123 -32.242  1.00  0.00     0.036 C 
ATOM      8  C   UNL     1     -23.728 -11.763 -32.035  1.00  0.00     0.009 C 
ENDBRANCH   1   7
BRANCH   2   9
ATOM      9  O   UNL     1     -28.060 -12.465 -32.102  1.00  0.00    -0.508 OA
ATOM     10  H   UNL     1     -28.910 -11.990 -32.383  1.00  0.00     0.293 HD
ENDBRANCH   2   9
BRANCH   4  11
ATOM     11  O   UNL     1     -28.125 -11.353 -27.398  1.00  0.00    -0.508 OA
ATOM     12  H   UNL     1     -28.803 -10.606 -27.307  1.00  0.00     0.293 HD
ENDBRANCH   4  11
TORSDOF 3
ENDMDL
MODEL 2
REMARK VINA RESULT:    -4.697      1.423      3.169
REMARK INTER + INTRA:          -5.332
REMARK INTER:                  -5.246
REMARK INTRA:                  -0.086
REMARK UNBOUND:                -0.086
REMARK SMILES CCc1ccc(O)cc1O
REMARK SMILES IDX 3 1 9 2 8 3 6 4 5 5 4 6 2 7 1 8 10 9 7 11
REMARK H PARENT 10 10 7 12
REMARK Flexibility Score: inf
ROOT
ATOM      1  C   UNL     1     -24.637 -11.413 -29.883  1.00  0.00    -0.006 A 
ATOM      2  C   UNL     1     -25.891 -11.466 -29.239  1.00  0.00     0.122 A 
ATOM      3  C   UNL     1     -27.031 -11.844 -29.962  1.00  0.00     0.092 A 
ATOM      4  C   UNL     1     -26.933 -12.182 -31.316  1.00  0.00     0.119 A 
ATOM      5  C   UNL     1     -25.686 -12.145 -31.953  1.00  0.00     0.047 A 
ATOM      6  C   UNL     1     -24.545 -11.767 -31.240  1.00  0.00     0.011 A 
ENDROOT
BRANCH   1   7
ATOM      7  C   UNL     1     -23.390 -11.039 -29.122  1.00  0.00     0.036 C 
ATOM      8  C   UNL     1     -22.146 -11.285 -29.968  1.00  0.00     0.009 C 
ENDBRANCH   1   7
BRANCH   2   9
ATOM      9  O   UNL     1     -25.999 -11.144 -27.887  1.00  0.00    -0.508 OA
ATOM     10  H   UNL     1     -26.186 -11.852 -27.186  1.00  0.00     0.293 HD
ENDBRANCH   2   9
BRANCH   4  11
ATOM     11  O   UNL     1     -28.076 -12.556 -32.017  1.00  0.00    -0.508 OA
ATOM     12  H   UNL     1     -28.355 -12.081 -32.867  1.00  0.00     0.293 HD
ENDBRANCH   4  11
TORSDOF 3
ENDMDL
MODEL 3
REMARK VINA RESULT:    -4.692      2.024      3.393
REMARK INTER + INTRA:          -5.326
REMARK INTER:                  -5.225
REMARK INTRA:                  -0.101
REMARK UNBOUND:                -0.086
REMARK SMILES CCc1ccc(O)cc1O
REMARK SMILES IDX 3 1 9 2 8 3 6 4 5 5 4 6 2 7 1 8 10 9 7 11
REMARK H PARENT 10 10 7 12
REMARK Flexibility Score: inf
ROOT
ATOM      1  C   UNL     1     -26.179 -12.023 -29.911  1.00  0.00    -0.006 A 
ATOM      2  C   UNL     1     -26.275 -11.472 -28.616  1.00  0.00     0.122 A 
ATOM      3  C   UNL     1     -25.205 -10.734 -28.091  1.00  0.00     0.092 A 
ATOM      4  C   UNL     1     -24.047 -10.527 -28.848  1.00  0.00     0.119 A 
ATOM      5  C   UNL     1     -23.957 -11.060 -30.140  1.00  0.00     0.047 A 
ATOM      6  C   UNL     1     -25.018 -11.799 -30.669  1.00  0.00     0.011 A 
ENDROOT
BRANCH   1   7
ATOM      7  C   UNL     1     -27.327 -12.795 -30.512  1.00  0.00     0.036 C 
ATOM      8  C   UNL     1     -27.934 -12.036 -31.686  1.00  0.00     0.009 C 
ENDBRANCH   1   7
BRANCH   2   9
ATOM      9  O   UNL     1     -27.430 -11.661 -27.857  1.00  0.00    -0.508 OA
ATOM     10  H   UNL     1     -27.620 -12.539 -27.388  1.00  0.00     0.293 HD
ENDBRANCH   2   9
BRANCH   4  11
ATOM     11  O   UNL     1     -22.995  -9.790 -28.309  1.00  0.00    -0.508 OA
ATOM     12  H   UNL     1     -23.160  -9.014 -27.680  1.00  0.00     0.293 HD
ENDBRANCH   4  11
TORSDOF 3
ENDMDL
MODEL 4
REMARK VINA RESULT:    -4.685      1.677      2.590
REMARK INTER + INTRA:          -5.319
REMARK INTER:                  -5.233
REMARK INTRA:                  -0.086
REMARK UNBOUND:                -0.086
REMARK SMILES CCc1ccc(O)cc1O
REMARK SMILES IDX 3 1 9 2 8 3 6 4 5 5 4 6 2 7 1 8 10 9 7 11
REMARK H PARENT 10 10 7 12
REMARK Flexibility Score: inf
ROOT
ATOM      1  C   UNL     1     -24.895 -11.528 -30.395  1.00  0.00    -0.006 A 
ATOM      2  C   UNL     1     -24.768 -10.948 -29.116  1.00  0.00     0.122 A 
ATOM      3  C   UNL     1     -25.850 -10.978 -28.225  1.00  0.00     0.092 A 
ATOM      4  C   UNL     1     -27.052 -11.592 -28.591  1.00  0.00     0.119 A 
ATOM      5  C   UNL     1     -27.175 -12.182 -29.855  1.00  0.00     0.047 A 
ATOM      6  C   UNL     1     -26.102 -12.154 -30.750  1.00  0.00     0.011 A 
ENDROOT
BRANCH   1   7
ATOM      7  C   UNL     1     -23.737 -11.536 -31.361  1.00  0.00     0.036 C 
ATOM      8  C   UNL     1     -24.070 -12.362 -32.598  1.00  0.00     0.009 C 
ENDBRANCH   1   7
BRANCH   2   9
ATOM      9  O   UNL     1     -23.569 -10.345 -28.735  1.00  0.00    -0.508 OA
ATOM     10  H   UNL     1     -23.141 -10.536 -27.836  1.00  0.00     0.293 HD
ENDBRANCH   2   9
BRANCH   4  11
ATOM     11  O   UNL     1     -28.116 -11.612 -27.693  1.00  0.00    -0.508 OA
ATOM     12  H   UNL     1     -28.809 -12.351 -27.709  1.00  0.00     0.293 HD
ENDBRANCH   4  11
TORSDOF 3
ENDMDL
MODEL 5
REMARK VINA RESULT:    -4.634      2.113      3.502
REMARK INTER + INTRA:          -5.262
REMARK INTER:                  -5.170
REMARK INTRA:                  -0.092
REMARK UNBOUND:                -0.086
REMARK SMILES CCc1ccc(O)cc1O
REMARK SMILES IDX 3 1 9 2 8 3 6 4 5 5 4 6 2 7 1 8 10 9 7 11
REMARK H PARENT 10 10 7 12
REMARK Flexibility Score: inf
ROOT
ATOM      1  C   UNL     1     -24.200 -11.567 -30.228  1.00  0.00    -0.006 A 
ATOM      2  C   UNL     1     -24.177 -11.799 -31.619  1.00  0.00     0.122 A 
ATOM      3  C   UNL     1     -25.371 -12.075 -32.301  1.00  0.00     0.092 A 
ATOM      4  C   UNL     1     -26.588 -12.108 -31.613  1.00  0.00     0.119 A 
ATOM      5  C   UNL     1     -26.614 -11.862 -30.234  1.00  0.00     0.047 A 
ATOM      6  C   UNL     1     -25.429 -11.590 -29.547  1.00  0.00     0.011 A 
ENDROOT
BRANCH   1   7
ATOM      7  C   UNL     1     -22.935 -11.239 -29.476  1.00  0.00     0.036 C 
ATOM      8  C   UNL     1     -23.138 -10.022 -28.580  1.00  0.00     0.009 C 
ENDBRANCH   1   7
BRANCH   2   9
ATOM      9  O   UNL     1     -22.970 -11.756 -32.318  1.00  0.00    -0.508 OA
ATOM     10  H   UNL     1     -22.246 -12.450 -32.171  1.00  0.00     0.293 HD
ENDBRANCH   2   9
BRANCH   4  11
ATOM     11  O   UNL     1     -27.764 -12.382 -32.307  1.00  0.00    -0.508 OA
ATOM     12  H   UNL     1     -28.132 -13.323 -32.374  1.00  0.00     0.293 HD
ENDBRANCH   4  11
TORSDOF 3
ENDMDL
MODEL 6
REMARK VINA RESULT:    -4.554      2.657      4.397
REMARK INTER + INTRA:          -5.172
REMARK INTER:                  -5.070
REMARK INTRA:                  -0.102
REMARK UNBOUND:                -0.086
REMARK SMILES CCc1ccc(O)cc1O
REMARK SMILES IDX 3 1 9 2 8 3 6 4 5 5 4 6 2 7 1 8 10 9 7 11
REMARK H PARENT 10 10 7 12
REMARK Flexibility Score: inf
ROOT
ATOM      1  C   UNL     1     -25.380 -11.566 -30.634  1.00  0.00    -0.006 A 
ATOM      2  C   UNL     1     -24.646 -11.179 -29.493  1.00  0.00     0.122 A 
ATOM      3  C   UNL     1     -23.248 -11.101 -29.556  1.00  0.00     0.092 A 
ATOM      4  C   UNL     1     -22.575 -11.392 -30.747  1.00  0.00     0.119 A 
ATOM      5  C   UNL     1     -23.303 -11.762 -31.885  1.00  0.00     0.047 A 
ATOM      6  C   UNL     1     -24.697 -11.844 -31.829  1.00  0.00     0.011 A 
ENDROOT
BRANCH   1   7
ATOM      7  C   UNL     1     -26.886 -11.628 -30.602  1.00  0.00     0.036 C 
ATOM      8  C   UNL     1     -27.367 -13.072 -30.517  1.00  0.00     0.009 C 
ENDBRANCH   1   7
BRANCH   2   9
ATOM      9  O   UNL     1     -25.308 -10.873 -28.304  1.00  0.00    -0.508 OA
ATOM     10  H   UNL     1     -24.866 -10.321 -27.577  1.00  0.00     0.293 HD
ENDBRANCH   2   9
BRANCH   4  11
ATOM     11  O   UNL     1     -21.185 -11.309 -30.790  1.00  0.00    -0.508 OA
ATOM     12  H   UNL     1     -20.629 -11.990 -31.293  1.00  0.00     0.293 HD
ENDBRANCH   4  11
TORSDOF 3
ENDMDL
MODEL 7
REMARK VINA RESULT:    -4.548      2.841      4.027
REMARK INTER + INTRA:          -5.165
REMARK INTER:                  -5.078
REMARK INTRA:                  -0.087
REMARK UNBOUND:                -0.086
REMARK SMILES CCc1ccc(O)cc1O
REMARK SMILES IDX 3 1 9 2 8 3 6 4 5 5 4 6 2 7 1 8 10 9 7 11
REMARK H PARENT 10 10 7 12
REMARK Flexibility Score: inf
ROOT
ATOM      1  C   UNL     1     -25.176 -11.847 -31.121  1.00  0.00    -0.006 A 
ATOM      2  C   UNL     1     -24.096 -11.715 -32.018  1.00  0.00     0.122 A 
ATOM      3  C   UNL     1     -22.823 -11.380 -31.534  1.00  0.00     0.092 A 
ATOM      4  C   UNL     1     -22.614 -11.186 -30.165  1.00  0.00     0.119 A 
ATOM      5  C   UNL     1     -23.683 -11.331 -29.271  1.00  0.00     0.047 A 
ATOM      6  C   UNL     1     -24.954 -11.664 -29.746  1.00  0.00     0.011 A 
ENDROOT
BRANCH   1   7
ATOM      7  C   UNL     1     -26.548 -12.237 -31.611  1.00  0.00     0.036 C 
ATOM      8  C   UNL     1     -27.331 -12.952 -30.515  1.00  0.00     0.009 C 
ENDBRANCH   1   7
BRANCH   2   9
ATOM      9  O   UNL     1     -24.290 -11.919 -33.384  1.00  0.00    -0.508 OA
ATOM     10  H   UNL     1     -25.009 -12.544 -33.731  1.00  0.00     0.293 HD
ENDBRANCH   2   9
BRANCH   4  11
ATOM     11  O   UNL     1     -21.343 -10.854 -29.703  1.00  0.00    -0.508 OA
ATOM     12  H   UNL     1     -21.130  -9.925 -29.362  1.00  0.00     0.293 HD
ENDBRANCH   4  11
TORSDOF 3
ENDMDL
MODEL 8
REMARK VINA RESULT:    -4.540      1.800      3.702
REMARK INTER + INTRA:          -5.156
REMARK INTER:                  -5.071
REMARK INTRA:                  -0.085
REMARK UNBOUND:                -0.086
REMARK SMILES CCc1ccc(O)cc1O
REMARK SMILES IDX 3 1 9 2 8 3 6 4 5 5 4 6 2 7 1 8 10 9 7 11
REMARK H PARENT 10 10 7 12
REMARK Flexibility Score: inf
ROOT
ATOM      1  C   UNL     1     -26.670 -11.726 -29.972  1.00  0.00    -0.006 A 
ATOM      2  C   UNL     1     -26.581 -12.090 -31.332  1.00  0.00     0.122 A 
ATOM      3  C   UNL     1     -25.330 -12.122 -31.965  1.00  0.00     0.092 A 
ATOM      4  C   UNL     1     -24.168 -11.808 -31.254  1.00  0.00     0.119 A 
ATOM      5  C   UNL     1     -24.253 -11.461 -29.900  1.00  0.00     0.047 A 
ATOM      6  C   UNL     1     -25.496 -11.425 -29.262  1.00  0.00     0.011 A 
ENDROOT
BRANCH   1   7
ATOM      7  C   UNL     1     -27.999 -11.713 -29.259  1.00  0.00     0.036 C 
ATOM      8  C   UNL     1     -27.859 -11.111 -27.865  1.00  0.00     0.009 C 
ENDBRANCH   1   7
BRANCH   2   9
ATOM      9  O   UNL     1     -27.732 -12.418 -32.047  1.00  0.00    -0.508 OA
ATOM     10  H   UNL     1     -27.708 -12.581 -33.048  1.00  0.00     0.293 HD
ENDBRANCH   2   9
BRANCH   4  11
ATOM     11  O   UNL     1     -22.934 -11.846 -31.900  1.00  0.00    -0.508 OA
ATOM     12  H   UNL     1     -22.519 -11.013 -32.298  1.00  0.00     0.293 HD
ENDBRANCH   4  11
TORSDOF 3
ENDMDL
MODEL 9
REMARK VINA RESULT:    -4.424      7.277      8.419
REMARK INTER + INTRA:          -5.027
REMARK INTER:                  -4.936
REMARK INTRA:                  -0.091
REMARK UNBOUND:                -0.086
REMARK SMILES CCc1ccc(O)cc1O
REMARK SMILES IDX 3 1 9 2 8 3 6 4 5 5 4 6 2 7 1 8 10 9 7 11
REMARK H PARENT 10 10 7 12
REMARK Flexibility Score: inf
ROOT
ATOM      1  C   UNL     1     -24.596  -5.050 -26.703  1.00  0.00    -0.006 A 
ATOM      2  C   UNL     1     -23.942  -6.081 -25.997  1.00  0.00     0.122 A 
ATOM      3  C   UNL     1     -22.909  -6.802 -26.614  1.00  0.00     0.092 A 
ATOM      4  C   UNL     1     -22.514  -6.497 -27.920  1.00  0.00     0.119 A 
ATOM      5  C   UNL     1     -23.152  -5.463 -28.616  1.00  0.00     0.047 A 
ATOM      6  C   UNL     1     -24.184  -4.742 -28.010  1.00  0.00     0.011 A 
ENDROOT
BRANCH   1   7
ATOM      7  C   UNL     1     -25.689  -4.238 -26.054  1.00  0.00     0.036 C 
ATOM      8  C   UNL     1     -26.956  -4.263 -26.900  1.00  0.00     0.009 C 
ENDBRANCH   1   7
BRANCH   2   9
ATOM      9  O   UNL     1     -24.319  -6.384 -24.689  1.00  0.00    -0.508 OA
ATOM     10  H   UNL     1     -23.631  -6.550 -23.963  1.00  0.00     0.293 HD
ENDBRANCH   2   9
BRANCH   4  11
ATOM     11  O   UNL     1     -21.485  -7.224 -28.515  1.00  0.00    -0.508 OA
ATOM     12  H   UNL     1     -20.644  -6.772 -28.851  1.00  0.00     0.293 HD
ENDBRANCH   4  11
TORSDOF 3
ENDMDL
