MODEL 1
REMARK VINA RESULT:    -1.846      0.000      0.000
REMARK INTER + INTRA:          -1.200
REMARK INTER:                  -2.277
REMARK INTRA:                   1.077
REMARK UNBOUND:                 1.077
REMARK SMILES C=C1CC[C@@H]2[C@@H]1[C@@H]1[C@@H](CC[C@H]2C)C1(C)C
REMARK SMILES IDX 6 1 5 2 4 3 3 4 2 5 1 6 11 7 12 8 10 9 7 11 8 12 13 13 14 14
REMARK SMILES IDX 15 15 9 16
REMARK H PARENT
REMARK Flexibility Score: 80.00
ROOT
ATOM      1  C   UNL     1     137.849 153.050 123.645  1.00  0.00     0.022 C 
ATOM      2  C   UNL     1     137.511 153.477 122.203  1.00  0.00    -0.000 C 
ATOM      3  C   UNL     1     138.724 154.337 121.830  1.00  0.00     0.009 C 
ATOM      4  C   UNL     1     139.035 155.124 123.118  1.00  0.00     0.031 C 
ATOM      5  C   UNL     1     138.491 154.263 124.220  1.00  0.00    -0.074 C 
ATOM      6  C   UNL     1     138.803 154.428 125.510  1.00  0.00     0.008 C 
ENDROOT
BRANCH   2   7
ATOM      7  C   UNL     1     137.113 152.257 121.302  1.00  0.00    -0.011 C 
ATOM      8  C   UNL     1     137.479 152.503 119.829  1.00  0.00     0.008 C 
BRANCH   7   9
ATOM      9  C   UNL     1     135.577 151.942 121.390  1.00  0.00     0.004 CG0
ATOM     10  G   UNL     1     135.017 151.547 122.783  1.00  0.00     0.000 G0
ENDBRANCH   7   9
ENDBRANCH   2   7
BRANCH   1  11
ATOM     11  C   UNL     1     136.756 152.263 124.411  1.00  0.00     0.006 C 
ATOM     12  C   UNL     1     135.373 152.630 123.800  1.00  0.00    -0.001 C 
ATOM     13  C   UNL     1     135.555 152.584 125.301  1.00  0.00    -0.029 C 
ATOM     14  C   UNL     1     134.879 151.410 126.016  1.00  0.00     0.012 C 
ATOM     15  C   UNL     1     135.545 153.938 126.019  1.00  0.00     0.012 C 
BRANCH  12  16
ATOM     16  C   UNL     1     135.033 151.529 122.787  1.00  0.00     0.005 CG0
ATOM     17  G   UNL     1     135.558 151.932 121.382  1.00  0.00     0.000 G0
ENDBRANCH  12  16
ENDBRANCH   1  11
TORSDOF 0
ENDMDL
MODEL 2
REMARK VINA RESULT:    -1.710     15.044     16.286
REMARK INTER + INTRA:          -1.033
REMARK INTER:                  -2.112
REMARK INTRA:                   1.079
REMARK UNBOUND:                 1.077
REMARK SMILES C=C1CC[C@@H]2[C@@H]1[C@@H]1[C@@H](CC[C@H]2C)C1(C)C
REMARK SMILES IDX 6 1 5 2 4 3 3 4 2 5 1 6 11 7 12 8 10 9 7 11 8 12 13 13 14 14
REMARK SMILES IDX 15 15 9 16
REMARK H PARENT
REMARK Flexibility Score: 80.00
ROOT
ATOM      1  C   UNL     1     137.530 137.940 123.637  1.00  0.00     0.022 C 
ATOM      2  C   UNL     1     137.036 137.705 122.196  1.00  0.00    -0.000 C 
ATOM      3  C   UNL     1     136.074 138.882 121.991  1.00  0.00     0.009 C 
ATOM      4  C   UNL     1     135.352 139.014 123.346  1.00  0.00     0.031 C 
ATOM      5  C   UNL     1     136.317 138.437 124.340  1.00  0.00    -0.074 C 
ATOM      6  C   UNL     1     136.213 138.616 125.660  1.00  0.00     0.008 C 
ENDROOT
BRANCH   2   7
ATOM      7  C   UNL     1     138.220 137.483 121.192  1.00  0.00    -0.011 C 
ATOM      8  C   UNL     1     137.854 137.957 119.776  1.00  0.00     0.008 C 
BRANCH   7   9
ATOM      9  C   UNL     1     138.647 135.973 121.119  1.00  0.00     0.004 CG0
ATOM     10  G   UNL     1     139.171 135.324 122.429  1.00  0.00     0.000 G0
ENDBRANCH   7   9
ENDBRANCH   2   7
BRANCH   1  11
ATOM     11  C   UNL     1     138.437 136.842 124.248  1.00  0.00     0.006 C 
ATOM     12  C   UNL     1     138.120 135.496 123.535  1.00  0.00    -0.001 C 
ATOM     13  C   UNL     1     138.255 135.547 125.040  1.00  0.00    -0.029 C 
ATOM     14  C   UNL     1     139.517 134.895 125.616  1.00  0.00     0.012 C 
ATOM     15  C   UNL     1     136.957 135.378 125.836  1.00  0.00     0.012 C 
BRANCH  12  16
ATOM     16  C   UNL     1     139.169 135.325 122.428  1.00  0.00     0.005 CG0
ATOM     17  G   UNL     1     138.652 135.972 121.114  1.00  0.00     0.000 G0
ENDBRANCH  12  16
ENDBRANCH   1  11
TORSDOF 0
ENDMDL
MODEL 3
REMARK VINA RESULT:     0.503     14.552     16.173
REMARK INTER + INTRA:           1.698
REMARK INTER:                   0.627
REMARK INTRA:                   1.070
REMARK UNBOUND:                 1.077
REMARK SMILES C=C1CC[C@@H]2[C@@H]1[C@@H]1[C@@H](CC[C@H]2C)C1(C)C
REMARK SMILES IDX 6 1 5 2 4 3 3 4 2 5 1 6 11 7 12 8 10 9 7 11 8 12 13 13 14 14
REMARK SMILES IDX 15 15 9 16
REMARK H PARENT
REMARK Flexibility Score: 80.00
ROOT
ATOM      1  C   UNL     1     138.166 137.033 124.157  1.00  0.00     0.022 C 
ATOM      2  C   UNL     1     136.744 137.417 124.611  1.00  0.00    -0.000 C 
ATOM      3  C   UNL     1     136.741 136.961 126.076  1.00  0.00     0.009 C 
ATOM      4  C   UNL     1     137.518 135.631 126.054  1.00  0.00     0.031 C 
ATOM      5  C   UNL     1     138.412 135.741 124.853  1.00  0.00    -0.074 C 
ATOM      6  C   UNL     1     139.455 134.936 124.632  1.00  0.00     0.008 C 
ENDROOT
BRANCH   2   7
ATOM      7  C   UNL     1     136.390 138.903 124.257  1.00  0.00    -0.011 C 
ATOM      8  C   UNL     1     135.396 139.501 125.266  1.00  0.00     0.008 C 
BRANCH   7   9
ATOM      9  C   UNL     1     135.777 139.030 122.817  1.00  0.00     0.004 CG0
ATOM     10  G   UNL     1     136.683 138.611 121.626  1.00  0.00     0.000 G0
ENDBRANCH   7   9
ENDBRANCH   2   7
BRANCH   1  11
ATOM     11  C   UNL     1     138.491 137.226 122.654  1.00  0.00     0.006 C 
ATOM     12  C   UNL     1     137.159 137.151 121.854  1.00  0.00    -0.001 C 
ATOM     13  C   UNL     1     138.383 136.409 121.367  1.00  0.00    -0.029 C 
ATOM     14  C   UNL     1     139.053 136.983 120.114  1.00  0.00     0.012 C 
ATOM     15  C   UNL     1     138.338 134.883 121.497  1.00  0.00     0.012 C 
BRANCH  12  16
ATOM     16  C   UNL     1     136.695 138.597 121.632  1.00  0.00     0.005 CG0
ATOM     17  G   UNL     1     135.777 139.037 122.805  1.00  0.00     0.000 G0
ENDBRANCH  12  16
ENDBRANCH   1  11
TORSDOF 0
ENDMDL
MODEL 4
REMARK VINA RESULT:     0.612     14.720     16.158
REMARK INTER + INTRA:           1.833
REMARK INTER:                  -0.590
REMARK INTRA:                   2.423
REMARK UNBOUND:                 1.077
REMARK SMILES C=C1CC[C@@H]2[C@@H]1[C@@H]1[C@@H](CC[C@H]2C)C1(C)C
REMARK SMILES IDX 6 1 5 2 4 3 3 4 2 5 1 6 11 7 12 8 10 9 7 11 8 12 13 13 14 14
REMARK SMILES IDX 15 15 9 16
REMARK H PARENT
REMARK Flexibility Score: 80.00
ROOT
ATOM      1  C   UNL     1     137.277 136.724 122.602  1.00  0.00     0.022 C 
ATOM      2  C   UNL     1     136.769 138.177 122.686  1.00  0.00    -0.000 C 
ATOM      3  C   UNL     1     136.665 138.567 121.207  1.00  0.00     0.009 C 
ATOM      4  C   UNL     1     137.905 137.919 120.562  1.00  0.00     0.031 C 
ATOM      5  C   UNL     1     138.227 136.759 121.458  1.00  0.00    -0.074 C 
ATOM      6  C   UNL     1     139.048 135.762 121.111  1.00  0.00     0.008 C 
ENDROOT
BRANCH   2   7
ATOM      7  C   UNL     1     135.515 138.313 123.618  1.00  0.00    -0.011 C 
ATOM      8  C   UNL     1     135.328 139.761 124.101  1.00  0.00     0.008 C 
BRANCH   7   9
ATOM      9  C   UNL     1     135.617 137.377 124.875  1.00  0.00     0.004 CG0
ATOM     10  G   UNL     1     136.879 137.528 125.766  1.00  0.00     0.000 G0
ENDBRANCH   7   9
ENDBRANCH   2   7
BRANCH   1  11
ATOM     11  C   UNL     1     137.637 136.036 123.943  1.00  0.00     0.006 C 
ATOM     12  C   UNL     1     138.094 137.133 124.947  1.00  0.00    -0.001 C 
ATOM     13  C   UNL     1     138.881 135.848 124.812  1.00  0.00    -0.029 C 
ATOM     14  C   UNL     1     138.772 134.876 125.992  1.00  0.00     0.012 C 
ATOM     15  C   UNL     1     140.248 135.967 124.130  1.00  0.00     0.012 C 
BRANCH  12  16
ATOM     16  C   UNL     1     136.870 137.487 125.802  1.00  0.00     0.005 CG0
ATOM     17  G   UNL     1     135.583 137.385 124.939  1.00  0.00     0.000 G0
ENDBRANCH  12  16
ENDBRANCH   1  11
TORSDOF 0
ENDMDL
MODEL 5
REMARK VINA RESULT:     0.920     15.059     16.627
REMARK INTER + INTRA:           2.213
REMARK INTER:                   1.160
REMARK INTRA:                   1.053
REMARK UNBOUND:                 1.077
REMARK SMILES C=C1CC[C@@H]2[C@@H]1[C@@H]1[C@@H](CC[C@H]2C)C1(C)C
REMARK SMILES IDX 6 1 5 2 4 3 3 4 2 5 1 6 11 7 12 8 10 9 7 11 8 12 13 13 14 14
REMARK SMILES IDX 15 15 9 16
REMARK H PARENT
REMARK Flexibility Score: 80.00
ROOT
ATOM      1  C   UNL     1     136.656 137.048 123.375  1.00  0.00     0.022 C 
ATOM      2  C   UNL     1     137.655 136.816 124.525  1.00  0.00    -0.000 C 
ATOM      3  C   UNL     1     136.839 137.246 125.750  1.00  0.00     0.009 C 
ATOM      4  C   UNL     1     136.058 138.482 125.264  1.00  0.00     0.031 C 
ATOM      5  C   UNL     1     135.949 138.293 123.779  1.00  0.00    -0.074 C 
ATOM      6  C   UNL     1     135.103 138.981 123.006  1.00  0.00     0.008 C 
ENDROOT
BRANCH   2   7
ATOM      7  C   UNL     1     138.293 135.384 124.477  1.00  0.00    -0.011 C 
ATOM      8  C   UNL     1     138.674 134.891 125.882  1.00  0.00     0.008 C 
BRANCH   7   9
ATOM      9  C   UNL     1     139.573 135.346 123.569  1.00  0.00     0.004 CG0
ATOM     10  G   UNL     1     139.375 135.642 122.058  1.00  0.00     0.000 G0
ENDBRANCH   7   9
ENDBRANCH   2   7
BRANCH   1  11
ATOM     11  C   UNL     1     137.194 136.844 121.936  1.00  0.00     0.006 C 
ATOM     12  C   UNL     1     138.737 137.044 121.960  1.00  0.00    -0.001 C 
ATOM     13  C   UNL     1     137.902 137.682 120.872  1.00  0.00    -0.029 C 
ATOM     14  C   UNL     1     138.048 137.066 119.476  1.00  0.00     0.012 C 
ATOM     15  C   UNL     1     137.749 139.205 120.949  1.00  0.00     0.012 C 
BRANCH  12  16
ATOM     16  C   UNL     1     139.362 135.647 122.071  1.00  0.00     0.005 CG0
ATOM     17  G   UNL     1     139.601 135.299 123.565  1.00  0.00     0.000 G0
ENDBRANCH  12  16
ENDBRANCH   1  11
TORSDOF 0
ENDMDL
