MODEL 1
REMARK VINA RESULT:    -2.137      0.000      0.000
REMARK INTER + INTRA:          -3.696
REMARK INTER:                  -3.261
REMARK INTRA:                  -0.435
REMARK UNBOUND:                -0.435
REMARK SMILES CC1=CCC[C@H](C)C(=O)C[C@H](C(C)C)C(=O)C1
REMARK SMILES IDX 8 1 9 2 6 3 7 4 5 5 4 6 3 7 2 8 1 9 10 11 11 12 15 13 16 14
REMARK SMILES IDX 17 15 12 17 13 18 14 19
REMARK H PARENT
REMARK Flexibility Score: 70.00
ROOT
ATOM      1  C   UNL     1      78.564   3.573  64.991  1.00  0.00     0.136 C 
ATOM      2  O   UNL     1      77.775   3.695  65.917  1.00  0.00    -0.299 OA
ENDROOT
BRANCH   1   3
ATOM      3  C   UNL     1      78.223   4.233  63.647  1.00  0.00     0.053 C 
ATOM      4  C   UNL     1      77.782   5.684  63.853  1.00  0.00     0.016 C 
BRANCH   3   5
ATOM      5  C   UNL     1      79.470   4.134  62.791  1.00  0.00     0.015 C 
BRANCH   5   6
ATOM      6  C   UNL     1      79.636   3.296  61.551  1.00  0.00     0.028 C 
BRANCH   6   7
ATOM      7  C   UNL     1      78.836   2.003  61.735  1.00  0.00    -0.028 C 
ATOM      8  C   UNL     1      79.204   0.842  62.381  1.00  0.00    -0.070 CG0
ATOM      9  C   UNL     1      78.244  -0.319  62.265  1.00  0.00     0.039 C 
ATOM     10  G   UNL     1      80.471   0.617  63.236  1.00  0.00     0.000 G0
ENDBRANCH   6   7
ENDBRANCH   5   6
ENDBRANCH   3   5
ENDBRANCH   1   3
BRANCH   1  11
ATOM     11  C   UNL     1      79.848   2.754  65.221  1.00  0.00     0.087 C 
BRANCH  11  12
ATOM     12  C   UNL     1      79.624   1.274  65.736  1.00  0.00     0.066 C 
BRANCH  12  13
ATOM     13  C   UNL     1      80.160   0.233  64.724  1.00  0.00     0.140 C 
ATOM     14  O   UNL     1      80.307  -0.926  65.089  1.00  0.00    -0.299 OA
BRANCH  13  15
ATOM     15  C   UNL     1      80.459   0.583  63.261  1.00  0.00     0.106 CG0
ATOM     16  G   UNL     1      79.211   0.833  62.385  1.00  0.00     0.000 G0
ENDBRANCH  13  15
ENDBRANCH  12  13
BRANCH  12  17
ATOM     17  C   UNL     1      80.258   1.056  67.148  1.00  0.00    -0.006 C 
ATOM     18  C   UNL     1      79.232   0.545  68.180  1.00  0.00     0.008 C 
ATOM     19  C   UNL     1      80.879   2.359  67.691  1.00  0.00     0.008 C 
ENDBRANCH  12  17
ENDBRANCH  11  12
ENDBRANCH   1  11
TORSDOF 1
ENDMDL
MODEL 2
REMARK VINA RESULT:    -2.089     13.358     14.682
REMARK INTER + INTRA:          -3.623
REMARK INTER:                  -2.998
REMARK INTRA:                  -0.625
REMARK UNBOUND:                -0.435
REMARK SMILES CC1=CCC[C@H](C)C(=O)C[C@H](C(C)C)C(=O)C1
REMARK SMILES IDX 8 1 9 2 6 3 7 4 5 5 4 6 3 7 2 8 1 9 10 11 11 12 15 13 16 14
REMARK SMILES IDX 17 15 12 17 13 18 14 19
REMARK H PARENT
REMARK Flexibility Score: 70.00
ROOT
ATOM      1  C   UNL     1      66.411   4.968  64.285  1.00  0.00     0.136 C 
ATOM      2  O   UNL     1      66.971   4.093  63.640  1.00  0.00    -0.299 OA
ENDROOT
BRANCH   1   3
ATOM      3  C   UNL     1      65.066   5.506  63.776  1.00  0.00     0.053 C 
ATOM      4  C   UNL     1      65.174   5.935  62.311  1.00  0.00     0.016 C 
BRANCH   3   5
ATOM      5  C   UNL     1      64.057   4.392  63.968  1.00  0.00     0.015 C 
BRANCH   5   6
ATOM      6  C   UNL     1      63.240   4.134  65.207  1.00  0.00     0.028 C 
BRANCH   6   7
ATOM      7  C   UNL     1      63.712   2.817  65.829  1.00  0.00    -0.028 C 
ATOM      8  C   UNL     1      64.443   2.616  66.979  1.00  0.00    -0.070 CG0
ATOM      9  C   UNL     1      64.880   1.196  67.253  1.00  0.00     0.039 C 
ATOM     10  G   UNL     1      64.829   3.680  68.032  1.00  0.00     0.000 G0
ENDBRANCH   6   7
ENDBRANCH   5   6
ENDBRANCH   3   5
ENDBRANCH   1   3
BRANCH   1  11
ATOM     11  C   UNL     1      67.092   5.488  65.565  1.00  0.00     0.087 C 
BRANCH  11  12
ATOM     12  C   UNL     1      66.128   5.709  66.802  1.00  0.00     0.066 C 
BRANCH  12  13
ATOM     13  C   UNL     1      66.110   4.476  67.736  1.00  0.00     0.140 C 
ATOM     14  O   UNL     1      67.149   4.136  68.286  1.00  0.00    -0.299 OA
BRANCH  13  15
ATOM     15  C   UNL     1      64.827   3.696  68.049  1.00  0.00     0.106 CG0
ATOM     16  G   UNL     1      64.446   2.625  67.002  1.00  0.00     0.000 G0
ENDBRANCH  13  15
ENDBRANCH  12  13
BRANCH  12  17
ATOM     17  C   UNL     1      66.500   7.004  67.594  1.00  0.00    -0.006 C 
ATOM     18  C   UNL     1      65.481   8.140  67.374  1.00  0.00     0.008 C 
ATOM     19  C   UNL     1      67.896   7.525  67.195  1.00  0.00     0.008 C 
ENDBRANCH  12  17
ENDBRANCH  11  12
ENDBRANCH   1  11
TORSDOF 1
ENDMDL
MODEL 3
REMARK VINA RESULT:    -2.023     15.407     17.664
REMARK INTER + INTRA:          -3.523
REMARK INTER:                  -2.971
REMARK INTRA:                  -0.552
REMARK UNBOUND:                -0.435
REMARK SMILES CC1=CCC[C@H](C)C(=O)C[C@H](C(C)C)C(=O)C1
REMARK SMILES IDX 8 1 9 2 6 3 7 4 5 5 4 6 3 7 2 8 1 9 10 11 11 12 15 13 16 14
REMARK SMILES IDX 17 15 12 17 13 18 14 19
REMARK H PARENT
REMARK Flexibility Score: 70.00
ROOT
ATOM      1  C   UNL     1      68.326   3.499  51.574  1.00  0.00     0.136 C 
ATOM      2  O   UNL     1      67.891   2.382  51.812  1.00  0.00    -0.299 OA
ENDROOT
BRANCH   1   3
ATOM      3  C   UNL     1      69.842   3.731  51.667  1.00  0.00     0.053 C 
ATOM      4  C   UNL     1      70.301   4.736  50.609  1.00  0.00     0.016 C 
BRANCH   3   5
ATOM      5  C   UNL     1      70.115   4.223  53.074  1.00  0.00     0.015 C 
BRANCH   5   6
ATOM      6  C   UNL     1      70.305   5.657  53.495  1.00  0.00     0.028 C 
BRANCH   6   7
ATOM      7  C   UNL     1      69.274   5.980  54.580  1.00  0.00    -0.028 C 
ATOM      8  C   UNL     1      68.053   6.606  54.455  1.00  0.00    -0.070 CG0
ATOM      9  C   UNL     1      67.325   6.913  55.742  1.00  0.00     0.039 C 
ATOM     10  G   UNL     1      67.338   6.993  53.140  1.00  0.00     0.000 G0
ENDBRANCH   6   7
ENDBRANCH   5   6
ENDBRANCH   3   5
ENDBRANCH   1   3
BRANCH   1  11
ATOM     11  C   UNL     1      67.329   4.614  51.205  1.00  0.00     0.087 C 
BRANCH  11  12
ATOM     12  C   UNL     1      66.102   4.777  52.192  1.00  0.00     0.066 C 
BRANCH  12  13
ATOM     13  C   UNL     1      66.068   6.188  52.828  1.00  0.00     0.140 C 
ATOM     14  O   UNL     1      64.988   6.670  53.139  1.00  0.00    -0.299 OA
BRANCH  13  15
ATOM     15  C   UNL     1      67.342   6.982  53.139  1.00  0.00     0.106 CG0
ATOM     16  G   UNL     1      68.053   6.581  54.452  1.00  0.00     0.000 G0
ENDBRANCH  13  15
ENDBRANCH  12  13
BRANCH  12  17
ATOM     17  C   UNL     1      64.747   4.454  51.480  1.00  0.00    -0.006 C 
ATOM     18  C   UNL     1      64.166   3.094  51.916  1.00  0.00     0.008 C 
ATOM     19  C   UNL     1      64.908   4.440  49.947  1.00  0.00     0.008 C 
ENDBRANCH  12  17
ENDBRANCH  11  12
ENDBRANCH   1  11
TORSDOF 1
ENDMDL
MODEL 4
REMARK VINA RESULT:    -1.988      2.229      5.033
REMARK INTER + INTRA:          -3.470
REMARK INTER:                  -3.084
REMARK INTRA:                  -0.386
REMARK UNBOUND:                -0.435
REMARK SMILES CC1=CCC[C@H](C)C(=O)C[C@H](C(C)C)C(=O)C1
REMARK SMILES IDX 8 1 9 2 6 3 7 4 5 5 4 6 3 7 2 8 1 9 10 11 11 12 15 13 16 14
REMARK SMILES IDX 17 15 12 17 13 18 14 19
REMARK H PARENT
REMARK Flexibility Score: 70.00
ROOT
ATOM      1  C   UNL     1      79.069  -0.677  66.499  1.00  0.00     0.136 C 
ATOM      2  O   UNL     1      78.131  -1.197  65.913  1.00  0.00    -0.299 OA
ENDROOT
BRANCH   1   3
ATOM      3  C   UNL     1      79.008  -0.570  68.030  1.00  0.00     0.053 C 
ATOM      4  C   UNL     1      80.414  -0.440  68.620  1.00  0.00     0.016 C 
BRANCH   3   5
ATOM      5  C   UNL     1      78.149   0.639  68.341  1.00  0.00     0.015 C 
BRANCH   5   6
ATOM      6  C   UNL     1      78.585   2.080  68.287  1.00  0.00     0.028 C 
BRANCH   6   7
ATOM      7  C   UNL     1      77.897   2.746  67.093  1.00  0.00    -0.028 C 
ATOM      8  C   UNL     1      78.435   3.120  65.881  1.00  0.00    -0.070 CG0
ATOM      9  C   UNL     1      77.525   3.893  64.956  1.00  0.00     0.039 C 
ATOM     10  G   UNL     1      79.854   2.802  65.358  1.00  0.00     0.000 G0
ENDBRANCH   6   7
ENDBRANCH   5   6
ENDBRANCH   3   5
ENDBRANCH   1   3
BRANCH   1  11
ATOM     11  C   UNL     1      80.254  -0.150  65.669  1.00  0.00     0.087 C 
BRANCH  11  12
ATOM     12  C   UNL     1      79.892   0.335  64.206  1.00  0.00     0.066 C 
BRANCH  12  13
ATOM     13  C   UNL     1      79.881   1.880  64.106  1.00  0.00     0.140 C 
ATOM     14  O   UNL     1      79.846   2.400  62.999  1.00  0.00    -0.299 OA
BRANCH  13  15
ATOM     15  C   UNL     1      79.851   2.786  65.343  1.00  0.00     0.106 CG0
ATOM     16  G   UNL     1      78.437   3.123  65.868  1.00  0.00     0.000 G0
ENDBRANCH  13  15
ENDBRANCH  12  13
BRANCH  12  17
ATOM     17  C   UNL     1      80.854  -0.285  63.141  1.00  0.00    -0.006 C 
ATOM     18  C   UNL     1      80.115  -0.695  61.850  1.00  0.00     0.008 C 
ATOM     19  C   UNL     1      81.578  -1.528  63.696  1.00  0.00     0.008 C 
ENDBRANCH  12  17
ENDBRANCH  11  12
ENDBRANCH   1  11
TORSDOF 1
ENDMDL
MODEL 5
REMARK VINA RESULT:    -1.976      2.849      4.344
REMARK INTER + INTRA:          -3.451
REMARK INTER:                  -3.156
REMARK INTRA:                  -0.295
REMARK UNBOUND:                -0.435
REMARK SMILES CC1=CCC[C@H](C)C(=O)C[C@H](C(C)C)C(=O)C1
REMARK SMILES IDX 8 1 9 2 6 3 7 4 5 5 4 6 3 7 2 8 1 9 10 11 11 12 15 13 16 14
REMARK SMILES IDX 17 15 12 17 13 18 14 19
REMARK H PARENT
REMARK Flexibility Score: 70.00
ROOT
ATOM      1  C   UNL     1      76.897   6.807  63.362  1.00  0.00     0.136 C 
ATOM      2  O   UNL     1      76.966   8.011  63.164  1.00  0.00    -0.299 OA
ENDROOT
BRANCH   1   3
ATOM      3  C   UNL     1      75.647   6.056  62.879  1.00  0.00     0.053 C 
ATOM      4  C   UNL     1      74.376   6.813  63.273  1.00  0.00     0.016 C 
BRANCH   3   5
ATOM      5  C   UNL     1      75.783   5.918  61.376  1.00  0.00     0.015 C 
BRANCH   5   6
ATOM      6  C   UNL     1      76.150   4.664  60.627  1.00  0.00     0.028 C 
BRANCH   6   7
ATOM      7  C   UNL     1      77.463   4.917  59.881  1.00  0.00    -0.028 C 
ATOM      8  C   UNL     1      78.742   4.542  60.228  1.00  0.00    -0.070 CG0
ATOM      9  C   UNL     1      79.854   5.071  59.353  1.00  0.00     0.039 C 
ATOM     10  G   UNL     1      79.154   3.613  61.393  1.00  0.00     0.000 G0
ENDBRANCH   6   7
ENDBRANCH   5   6
ENDBRANCH   3   5
ENDBRANCH   1   3
BRANCH   1  11
ATOM     11  C   UNL     1      78.062   6.113  64.092  1.00  0.00     0.087 C 
BRANCH  11  12
ATOM     12  C   UNL     1      78.247   4.575  63.761  1.00  0.00     0.066 C 
BRANCH  12  13
ATOM     13  C   UNL     1      79.388   4.348  62.740  1.00  0.00     0.140 C 
ATOM     14  O   UNL     1      80.520   4.712  63.027  1.00  0.00    -0.299 OA
BRANCH  13  15
ATOM     15  C   UNL     1      79.167   3.629  61.403  1.00  0.00     0.106 CG0
ATOM     16  G   UNL     1      78.743   4.547  60.234  1.00  0.00     0.000 G0
ENDBRANCH  13  15
ENDBRANCH  12  13
BRANCH  12  17
ATOM     17  C   UNL     1      78.484   3.734  65.058  1.00  0.00    -0.006 C 
ATOM     18  C   UNL     1      79.390   2.512  64.806  1.00  0.00     0.008 C 
ATOM     19  C   UNL     1      77.153   3.233  65.652  1.00  0.00     0.008 C 
ENDBRANCH  12  17
ENDBRANCH  11  12
ENDBRANCH   1  11
TORSDOF 1
ENDMDL
MODEL 6
REMARK VINA RESULT:    -1.909     16.322     17.687
REMARK INTER + INTRA:          -3.349
REMARK INTER:                  -2.810
REMARK INTRA:                  -0.540
REMARK UNBOUND:                -0.435
REMARK SMILES CC1=CCC[C@H](C)C(=O)C[C@H](C(C)C)C(=O)C1
REMARK SMILES IDX 8 1 9 2 6 3 7 4 5 5 4 6 3 7 2 8 1 9 10 11 11 12 15 13 16 14
REMARK SMILES IDX 17 15 12 17 13 18 14 19
REMARK H PARENT
REMARK Flexibility Score: 70.00
ROOT
ATOM      1  C   UNL     1      67.367   5.459  54.087  1.00  0.00     0.136 C 
ATOM      2  O   UNL     1      68.183   4.638  53.696  1.00  0.00    -0.299 OA
ENDROOT
BRANCH   1   3
ATOM      3  C   UNL     1      67.014   6.637  53.167  1.00  0.00     0.053 C 
ATOM      4  C   UNL     1      68.281   7.343  52.682  1.00  0.00     0.016 C 
BRANCH   3   5
ATOM      5  C   UNL     1      66.211   6.059  52.019  1.00  0.00     0.015 C 
BRANCH   5   6
ATOM      6  C   UNL     1      64.787   5.573  52.084  1.00  0.00     0.028 C 
BRANCH   6   7
ATOM      7  C   UNL     1      64.793   4.048  51.956  1.00  0.00    -0.028 C 
ATOM      8  C   UNL     1      64.403   3.100  52.877  1.00  0.00    -0.070 CG0
ATOM      9  C   UNL     1      64.667   1.660  52.507  1.00  0.00     0.039 C 
ATOM     10  G   UNL     1      63.693   3.354  54.227  1.00  0.00     0.000 G0
ENDBRANCH   6   7
ENDBRANCH   5   6
ENDBRANCH   3   5
ENDBRANCH   1   3
BRANCH   1  11
ATOM     11  C   UNL     1      66.748   5.273  55.486  1.00  0.00     0.087 C 
BRANCH  11  12
ATOM     12  C   UNL     1      65.166   5.230  55.525  1.00  0.00     0.066 C 
BRANCH  12  13
ATOM     13  C   UNL     1      64.633   3.785  55.375  1.00  0.00     0.140 C 
ATOM     14  O   UNL     1      64.923   2.957  56.227  1.00  0.00    -0.299 OA
BRANCH  13  15
ATOM     15  C   UNL     1      63.703   3.364  54.230  1.00  0.00     0.106 CG0
ATOM     16  G   UNL     1      64.413   3.089  52.885  1.00  0.00     0.000 G0
ENDBRANCH  13  15
ENDBRANCH  12  13
BRANCH  12  17
ATOM     17  C   UNL     1      64.606   5.899  56.822  1.00  0.00    -0.006 C 
ATOM     18  C   UNL     1      63.273   6.635  56.575  1.00  0.00     0.008 C 
ATOM     19  C   UNL     1      65.612   6.909  57.412  1.00  0.00     0.008 C 
ENDBRANCH  12  17
ENDBRANCH  11  12
ENDBRANCH   1  11
TORSDOF 1
ENDMDL
MODEL 7
REMARK VINA RESULT:    -1.821      2.530      4.287
REMARK INTER + INTRA:          -3.214
REMARK INTER:                  -2.671
REMARK INTRA:                  -0.543
REMARK UNBOUND:                -0.435
REMARK SMILES CC1=CCC[C@H](C)C(=O)C[C@H](C(C)C)C(=O)C1
REMARK SMILES IDX 8 1 9 2 6 3 7 4 5 5 4 6 3 7 2 8 1 9 10 11 11 12 15 13 16 14
REMARK SMILES IDX 17 15 12 17 13 18 14 19
REMARK H PARENT
REMARK Flexibility Score: 70.00
ROOT
ATOM      1  C   UNL     1      79.489   1.207  65.180  1.00  0.00     0.136 C 
ATOM      2  O   UNL     1      80.186   0.375  65.741  1.00  0.00    -0.299 OA
ENDROOT
BRANCH   1   3
ATOM      3  C   UNL     1      79.608   2.676  65.615  1.00  0.00     0.053 C 
ATOM      4  C   UNL     1      80.538   2.809  66.823  1.00  0.00     0.016 C 
BRANCH   3   5
ATOM      5  C   UNL     1      80.128   3.438  64.412  1.00  0.00     0.015 C 
BRANCH   5   6
ATOM      6  C   UNL     1      79.401   4.525  63.665  1.00  0.00     0.028 C 
BRANCH   6   7
ATOM      7  C   UNL     1      78.006   4.679  64.277  1.00  0.00    -0.028 C 
ATOM      8  C   UNL     1      76.831   4.053  63.923  1.00  0.00    -0.070 CG0
ATOM      9  C   UNL     1      75.582   4.528  64.627  1.00  0.00     0.039 C 
ATOM     10  G   UNL     1      76.664   2.897  62.910  1.00  0.00     0.000 G0
ENDBRANCH   6   7
ENDBRANCH   5   6
ENDBRANCH   3   5
ENDBRANCH   1   3
BRANCH   1  11
ATOM     11  C   UNL     1      78.523   0.735  64.078  1.00  0.00     0.087 C 
BRANCH  11  12
ATOM     12  C   UNL     1      76.992   0.714  64.484  1.00  0.00     0.066 C 
BRANCH  12  13
ATOM     13  C   UNL     1      76.138   1.577  63.524  1.00  0.00     0.140 C 
ATOM     14  O   UNL     1      74.992   1.227  63.277  1.00  0.00    -0.299 OA
BRANCH  13  15
ATOM     15  C   UNL     1      76.651   2.888  62.916  1.00  0.00     0.106 CG0
ATOM     16  G   UNL     1      76.834   4.044  63.926  1.00  0.00     0.000 G0
ENDBRANCH  13  15
ENDBRANCH  12  13
BRANCH  12  17
ATOM     17  C   UNL     1      76.440  -0.747  64.561  1.00  0.00    -0.006 C 
ATOM     18  C   UNL     1      76.236  -1.220  66.015  1.00  0.00     0.008 C 
ATOM     19  C   UNL     1      77.385  -1.742  63.859  1.00  0.00     0.008 C 
ENDBRANCH  12  17
ENDBRANCH  11  12
ENDBRANCH   1  11
TORSDOF 1
ENDMDL
MODEL 8
REMARK VINA RESULT:    -1.804      2.345      5.443
REMARK INTER + INTRA:          -3.189
REMARK INTER:                  -2.855
REMARK INTRA:                  -0.334
REMARK UNBOUND:                -0.435
REMARK SMILES CC1=CCC[C@H](C)C(=O)C[C@H](C(C)C)C(=O)C1
REMARK SMILES IDX 8 1 9 2 6 3 7 4 5 5 4 6 3 7 2 8 1 9 10 11 11 12 15 13 16 14
REMARK SMILES IDX 17 15 12 17 13 18 14 19
REMARK H PARENT
REMARK Flexibility Score: 70.00
ROOT
ATOM      1  C   UNL     1      80.234   0.600  62.746  1.00  0.00     0.136 C 
ATOM      2  O   UNL     1      80.876  -0.436  62.839  1.00  0.00    -0.299 OA
ENDROOT
BRANCH   1   3
ATOM      3  C   UNL     1      79.221   0.936  63.851  1.00  0.00     0.053 C 
ATOM      4  C   UNL     1      78.440  -0.313  64.266  1.00  0.00     0.016 C 
BRANCH   3   5
ATOM      5  C   UNL     1      80.018   1.515  65.003  1.00  0.00     0.015 C 
BRANCH   5   6
ATOM      6  C   UNL     1      79.668   2.745  65.798  1.00  0.00     0.028 C 
BRANCH   6   7
ATOM      7  C   UNL     1      78.615   3.538  65.019  1.00  0.00    -0.028 C 
ATOM      8  C   UNL     1      78.790   4.393  63.953  1.00  0.00    -0.070 CG0
ATOM      9  C   UNL     1      77.563   5.143  63.490  1.00  0.00     0.039 C 
ATOM     10  G   UNL     1      80.096   4.636  63.162  1.00  0.00     0.000 G0
ENDBRANCH   6   7
ENDBRANCH   5   6
ENDBRANCH   3   5
ENDBRANCH   1   3
BRANCH   1  11
ATOM     11  C   UNL     1      80.469   1.504  61.522  1.00  0.00     0.087 C 
BRANCH  11  12
ATOM     12  C   UNL     1      79.457   2.713  61.370  1.00  0.00     0.066 C 
BRANCH  12  13
ATOM     13  C   UNL     1      80.126   4.061  61.733  1.00  0.00     0.140 C 
ATOM     14  O   UNL     1      80.654   4.717  60.845  1.00  0.00    -0.299 OA
BRANCH  13  15
ATOM     15  C   UNL     1      80.099   4.638  63.154  1.00  0.00     0.106 CG0
ATOM     16  G   UNL     1      78.790   4.382  63.935  1.00  0.00     0.000 G0
ENDBRANCH  13  15
ENDBRANCH  12  13
BRANCH  12  17
ATOM     17  C   UNL     1      78.838   2.766  59.935  1.00  0.00    -0.006 C 
ATOM     18  C   UNL     1      77.470   3.477  59.913  1.00  0.00     0.008 C 
ATOM     19  C   UNL     1      78.656   1.351  59.350  1.00  0.00     0.008 C 
ENDBRANCH  12  17
ENDBRANCH  11  12
ENDBRANCH   1  11
TORSDOF 1
ENDMDL
MODEL 9
REMARK VINA RESULT:    -1.758     15.888     17.885
REMARK INTER + INTRA:          -3.118
REMARK INTER:                  -2.873
REMARK INTRA:                  -0.246
REMARK UNBOUND:                -0.435
REMARK SMILES CC1=CCC[C@H](C)C(=O)C[C@H](C(C)C)C(=O)C1
REMARK SMILES IDX 8 1 9 2 6 3 7 4 5 5 4 6 3 7 2 8 1 9 10 11 11 12 15 13 16 14
REMARK SMILES IDX 17 15 12 17 13 18 14 19
REMARK H PARENT
REMARK Flexibility Score: 70.00
ROOT
ATOM      1  C   UNL     1      64.593   4.398  54.712  1.00  0.00     0.136 C 
ATOM      2  O   UNL     1      64.311   3.808  55.745  1.00  0.00    -0.299 OA
ENDROOT
BRANCH   1   3
ATOM      3  C   UNL     1      64.873   5.906  54.783  1.00  0.00     0.053 C 
ATOM      4  C   UNL     1      63.952   6.580  55.803  1.00  0.00     0.016 C 
BRANCH   3   5
ATOM      5  C   UNL     1      66.335   6.054  55.155  1.00  0.00     0.015 C 
BRANCH   5   6
ATOM      6  C   UNL     1      67.375   6.827  54.387  1.00  0.00     0.028 C 
BRANCH   6   7
ATOM      7  C   UNL     1      68.572   5.906  54.137  1.00  0.00    -0.028 C 
ATOM      8  C   UNL     1      68.783   5.022  53.101  1.00  0.00    -0.070 CG0
ATOM      9  C   UNL     1      70.005   4.142  53.212  1.00  0.00     0.039 C 
ATOM     10  G   UNL     1      67.923   4.864  51.826  1.00  0.00     0.000 G0
ENDBRANCH   6   7
ENDBRANCH   5   6
ENDBRANCH   3   5
ENDBRANCH   1   3
BRANCH   1  11
ATOM     11  C   UNL     1      64.639   3.598  53.397  1.00  0.00     0.087 C 
BRANCH  11  12
ATOM     12  C   UNL     1      65.300   4.351  52.170  1.00  0.00     0.066 C 
BRANCH  12  13
ATOM     13  C   UNL     1      66.755   3.880  51.932  1.00  0.00     0.140 C 
ATOM     14  O   UNL     1      66.972   2.685  51.785  1.00  0.00    -0.299 OA
BRANCH  13  15
ATOM     15  C   UNL     1      67.929   4.859  51.812  1.00  0.00     0.106 CG0
ATOM     16  G   UNL     1      68.777   5.016  53.095  1.00  0.00     0.000 G0
ENDBRANCH  13  15
ENDBRANCH  12  13
BRANCH  12  17
ATOM     17  C   UNL     1      64.443   4.195  50.872  1.00  0.00    -0.006 C 
ATOM     18  C   UNL     1      63.961   2.745  50.659  1.00  0.00     0.008 C 
ATOM     19  C   UNL     1      65.234   4.628  49.622  1.00  0.00     0.008 C 
ENDBRANCH  12  17
ENDBRANCH  11  12
ENDBRANCH   1  11
TORSDOF 1
ENDMDL
