MODEL 1
REMARK VINA RESULT:    -3.032      0.000      0.000
REMARK INTER + INTRA:          -5.339
REMARK INTER:                  -4.627
REMARK INTRA:                  -0.713
REMARK UNBOUND:                -0.713
REMARK SMILES CC(=O)CCC=C(C)CCC=C(C)CCC=C(C)C
REMARK SMILES IDX 10 1 11 2 12 3 13 4 14 5 15 6 16 7 18 8 17 9 19 10 9 11 7 12
REMARK SMILES IDX 6 13 8 14 5 15 4 16 2 17 3 18 1 19
REMARK H PARENT
REMARK Flexibility Score: inf
ROOT
ATOM      1  C   UNL     1       6.859 -35.203  13.013  1.00  0.00     0.032 C 
ENDROOT
BRANCH   1   2
ATOM      2  C   UNL     1       8.117 -34.366  12.975  1.00  0.00    -0.028 C 
ATOM      3  C   UNL     1       8.103 -33.015  12.925  1.00  0.00    -0.077 C 
ATOM      4  C   UNL     1       6.806 -32.243  12.888  1.00  0.00     0.039 C 
BRANCH   3   5
ATOM      5  C   UNL     1       9.416 -32.266  12.876  1.00  0.00     0.034 C 
BRANCH   5   6
ATOM      6  C   UNL     1      10.442 -32.894  13.826  1.00  0.00     0.032 C 
BRANCH   6   7
ATOM      7  C   UNL     1      11.809 -32.297  13.602  1.00  0.00    -0.028 C 
ATOM      8  C   UNL     1      13.776 -30.906  14.085  1.00  0.00     0.039 C 
ATOM      9  C   UNL     1      12.378 -31.371  14.405  1.00  0.00    -0.080 C 
ATOM     10  C   UNL     1      11.653 -30.791  15.596  1.00  0.00     0.039 C 
ENDBRANCH   6   7
ENDBRANCH   5   6
ENDBRANCH   3   5
ENDBRANCH   1   2
BRANCH   1  11
ATOM     11  C   UNL     1       6.959 -36.351  14.028  1.00  0.00     0.034 C 
BRANCH  11  12
ATOM     12  C   UNL     1       7.121 -35.844  15.448  1.00  0.00    -0.077 C 
ATOM     13  C   UNL     1       7.940 -34.794  15.681  1.00  0.00    -0.028 C 
ATOM     14  C   UNL     1       6.367 -36.529  16.565  1.00  0.00     0.039 C 
BRANCH  13  15
ATOM     15  C   UNL     1       8.222 -34.214  17.047  1.00  0.00     0.035 C 
BRANCH  15  16
ATOM     16  C   UNL     1       8.469 -32.701  16.987  1.00  0.00     0.079 C 
BRANCH  16  17
ATOM     17  C   UNL     1       8.607 -32.107  18.366  1.00  0.00     0.130 C 
ATOM     18  O   UNL     1       8.174 -32.718  19.331  1.00  0.00    -0.300 OA
ATOM     19  C   UNL     1       9.289 -30.789  18.579  1.00  0.00     0.087 C 
ENDBRANCH  16  17
ENDBRANCH  15  16
ENDBRANCH  13  15
ENDBRANCH  11  12
ENDBRANCH   1  11
TORSDOF 9
ENDMDL
MODEL 2
REMARK VINA RESULT:    -2.978      2.086      4.239
REMARK INTER + INTRA:          -5.258
REMARK INTER:                  -4.288
REMARK INTRA:                  -0.969
REMARK UNBOUND:                -0.713
REMARK SMILES CC(=O)CCC=C(C)CCC=C(C)CCC=C(C)C
REMARK SMILES IDX 10 1 11 2 12 3 13 4 14 5 15 6 16 7 18 8 17 9 19 10 9 11 7 12
REMARK SMILES IDX 6 13 8 14 5 15 4 16 2 17 3 18 1 19
REMARK H PARENT
REMARK Flexibility Score: inf
ROOT
ATOM      1  C   UNL     1       7.737 -36.390  14.154  1.00  0.00     0.032 C 
ENDROOT
BRANCH   1   2
ATOM      2  C   UNL     1       7.711 -35.122  14.977  1.00  0.00    -0.028 C 
ATOM      3  C   UNL     1       6.920 -34.067  14.681  1.00  0.00    -0.077 C 
ATOM      4  C   UNL     1       6.006 -34.082  13.480  1.00  0.00     0.039 C 
BRANCH   3   5
ATOM      5  C   UNL     1       6.974 -32.836  15.559  1.00  0.00     0.034 C 
BRANCH   5   6
ATOM      6  C   UNL     1       8.075 -32.966  16.618  1.00  0.00     0.032 C 
BRANCH   6   7
ATOM      7  C   UNL     1       9.014 -31.787  16.556  1.00  0.00    -0.028 C 
ATOM      8  C   UNL     1      10.472 -30.010  17.423  1.00  0.00     0.039 C 
ATOM      9  C   UNL     1       9.497 -31.138  17.639  1.00  0.00    -0.080 C 
ATOM     10  C   UNL     1       9.081 -31.507  19.044  1.00  0.00     0.039 C 
ENDBRANCH   6   7
ENDBRANCH   5   6
ENDBRANCH   3   5
ENDBRANCH   1   2
BRANCH   1  11
ATOM     11  C   UNL     1       8.572 -36.231  12.875  1.00  0.00     0.034 C 
BRANCH  11  12
ATOM     12  C   UNL     1       9.932 -35.621  13.155  1.00  0.00    -0.077 C 
ATOM     13  C   UNL     1      10.090 -34.284  13.029  1.00  0.00    -0.028 C 
ATOM     14  C   UNL     1      11.075 -36.523  13.560  1.00  0.00     0.039 C 
BRANCH  13  15
ATOM     15  C   UNL     1      11.395 -33.552  13.238  1.00  0.00     0.035 C 
BRANCH  15  16
ATOM     16  C   UNL     1      11.173 -32.092  13.651  1.00  0.00     0.079 C 
BRANCH  16  17
ATOM     17  C   UNL     1      12.419 -31.490  14.249  1.00  0.00     0.130 C 
ATOM     18  O   UNL     1      12.334 -30.808  15.259  1.00  0.00    -0.300 OA
ATOM     19  C   UNL     1      13.768 -31.733  13.642  1.00  0.00     0.087 C 
ENDBRANCH  16  17
ENDBRANCH  15  16
ENDBRANCH  13  15
ENDBRANCH  11  12
ENDBRANCH   1  11
TORSDOF 9
ENDMDL
MODEL 3
REMARK VINA RESULT:    -2.684      1.666      2.304
REMARK INTER + INTRA:          -4.809
REMARK INTER:                  -3.987
REMARK INTRA:                  -0.822
REMARK UNBOUND:                -0.713
REMARK SMILES CC(=O)CCC=C(C)CCC=C(C)CCC=C(C)C
REMARK SMILES IDX 10 1 11 2 12 3 13 4 14 5 15 6 16 7 18 8 17 9 19 10 9 11 7 12
REMARK SMILES IDX 6 13 8 14 5 15 4 16 2 17 3 18 1 19
REMARK H PARENT
REMARK Flexibility Score: inf
ROOT
ATOM      1  C   UNL     1       8.629 -36.085  13.184  1.00  0.00     0.032 C 
ENDROOT
BRANCH   1   2
ATOM      2  C   UNL     1       9.458 -34.834  13.009  1.00  0.00    -0.028 C 
ATOM      3  C   UNL     1      10.809 -34.833  13.049  1.00  0.00    -0.077 C 
ATOM      4  C   UNL     1      11.590 -36.102  13.290  1.00  0.00     0.039 C 
BRANCH   3   5
ATOM      5  C   UNL     1      11.551 -33.525  12.876  1.00  0.00     0.034 C 
BRANCH   5   6
ATOM      6  C   UNL     1      12.902 -33.561  13.598  1.00  0.00     0.032 C 
BRANCH   6   7
ATOM      7  C   UNL     1      13.688 -32.306  13.315  1.00  0.00    -0.028 C 
ATOM      8  C   UNL     1      14.425 -29.982  13.621  1.00  0.00     0.039 C 
ATOM      9  C   UNL     1      13.527 -31.138  13.977  1.00  0.00    -0.080 C 
ATOM     10  C   UNL     1      12.474 -30.964  15.047  1.00  0.00     0.039 C 
ENDBRANCH   6   7
ENDBRANCH   5   6
ENDBRANCH   3   5
ENDBRANCH   1   2
BRANCH   1  11
ATOM     11  C   UNL     1       7.247 -35.783  13.783  1.00  0.00     0.034 C 
BRANCH  11  12
ATOM     12  C   UNL     1       7.344 -34.963  15.055  1.00  0.00    -0.077 C 
ATOM     13  C   UNL     1       7.480 -33.621  14.962  1.00  0.00    -0.028 C 
ATOM     14  C   UNL     1       7.292 -35.668  16.391  1.00  0.00     0.039 C 
BRANCH  13  15
ATOM     15  C   UNL     1       7.627 -32.692  16.143  1.00  0.00     0.035 C 
BRANCH  15  16
ATOM     16  C   UNL     1       8.926 -31.878  16.074  1.00  0.00     0.079 C 
BRANCH  16  17
ATOM     17  C   UNL     1       9.350 -31.394  17.437  1.00  0.00     0.130 C 
ATOM     18  O   UNL     1      10.288 -30.617  17.536  1.00  0.00    -0.300 OA
ATOM     19  C   UNL     1       8.625 -31.828  18.675  1.00  0.00     0.087 C 
ENDBRANCH  16  17
ENDBRANCH  15  16
ENDBRANCH  13  15
ENDBRANCH  11  12
ENDBRANCH   1  11
TORSDOF 9
ENDMDL
MODEL 4
REMARK VINA RESULT:    -2.643      2.708      5.292
REMARK INTER + INTRA:          -4.746
REMARK INTER:                  -3.780
REMARK INTRA:                  -0.966
REMARK UNBOUND:                -0.713
REMARK SMILES CC(=O)CCC=C(C)CCC=C(C)CCC=C(C)C
REMARK SMILES IDX 10 1 11 2 12 3 13 4 14 5 15 6 16 7 18 8 17 9 19 10 9 11 7 12
REMARK SMILES IDX 6 13 8 14 5 15 4 16 2 17 3 18 1 19
REMARK H PARENT
REMARK Flexibility Score: inf
ROOT
ATOM      1  C   UNL     1       8.168 -33.497  16.523  1.00  0.00     0.032 C 
ENDROOT
BRANCH   1   2
ATOM      2  C   UNL     1       8.220 -34.842  15.835  1.00  0.00    -0.028 C 
ATOM      3  C   UNL     1       7.240 -35.292  15.021  1.00  0.00    -0.077 C 
ATOM      4  C   UNL     1       6.000 -34.473  14.754  1.00  0.00     0.039 C 
BRANCH   3   5
ATOM      5  C   UNL     1       7.378 -36.659  14.388  1.00  0.00     0.034 C 
BRANCH   5   6
ATOM      6  C   UNL     1       7.932 -36.551  12.963  1.00  0.00     0.032 C 
BRANCH   6   7
ATOM      7  C   UNL     1       9.337 -37.096  12.896  1.00  0.00    -0.028 C 
ATOM      8  C   UNL     1      11.793 -37.019  12.875  1.00  0.00     0.039 C 
ATOM      9  C   UNL     1      10.452 -36.331  12.889  1.00  0.00    -0.080 C 
ATOM     10  C   UNL     1      10.387 -34.822  12.886  1.00  0.00     0.039 C 
ENDBRANCH   6   7
ENDBRANCH   5   6
ENDBRANCH   3   5
ENDBRANCH   1   2
BRANCH   1  11
ATOM     11  C   UNL     1       7.742 -32.374  15.566  1.00  0.00     0.034 C 
BRANCH  11  12
ATOM     12  C   UNL     1       8.813 -32.067  14.536  1.00  0.00    -0.077 C 
ATOM     13  C   UNL     1      10.070 -31.800  14.955  1.00  0.00    -0.028 C 
ATOM     14  C   UNL     1       8.445 -32.062  13.070  1.00  0.00     0.039 C 
BRANCH  13  15
ATOM     15  C   UNL     1      11.219 -31.441  14.043  1.00  0.00     0.035 C 
BRANCH  15  16
ATOM     16  C   UNL     1      12.489 -31.092  14.831  1.00  0.00     0.079 C 
BRANCH  16  17
ATOM     17  C   UNL     1      13.713 -31.125  13.952  1.00  0.00     0.130 C 
ATOM     18  O   UNL     1      14.172 -30.080  13.518  1.00  0.00    -0.300 OA
ATOM     19  C   UNL     1      14.395 -32.418  13.620  1.00  0.00     0.087 C 
ENDBRANCH  16  17
ENDBRANCH  15  16
ENDBRANCH  13  15
ENDBRANCH  11  12
ENDBRANCH   1  11
TORSDOF 9
ENDMDL
MODEL 5
REMARK VINA RESULT:    -2.255      2.630      5.424
REMARK INTER + INTRA:          -4.154
REMARK INTER:                  -3.494
REMARK INTRA:                  -0.660
REMARK UNBOUND:                -0.713
REMARK SMILES CC(=O)CCC=C(C)CCC=C(C)CCC=C(C)C
REMARK SMILES IDX 10 1 11 2 12 3 13 4 14 5 15 6 16 7 18 8 17 9 19 10 9 11 7 12
REMARK SMILES IDX 6 13 8 14 5 15 4 16 2 17 3 18 1 19
REMARK H PARENT
REMARK Flexibility Score: inf
ROOT
ATOM      1  C   UNL     1       9.791 -35.076  13.100  1.00  0.00     0.032 C 
ENDROOT
BRANCH   1   2
ATOM      2  C   UNL     1       9.031 -34.368  14.199  1.00  0.00    -0.028 C 
ATOM      3  C   UNL     1       7.702 -34.518  14.391  1.00  0.00    -0.077 C 
ATOM      4  C   UNL     1       6.873 -35.407  13.495  1.00  0.00     0.039 C 
BRANCH   3   5
ATOM      5  C   UNL     1       7.028 -33.756  15.511  1.00  0.00     0.034 C 
BRANCH   5   6
ATOM      6  C   UNL     1       7.740 -32.425  15.774  1.00  0.00     0.032 C 
BRANCH   6   7
ATOM      7  C   UNL     1       8.037 -32.262  17.244  1.00  0.00    -0.028 C 
ATOM      8  C   UNL     1       9.228 -31.450  19.234  1.00  0.00     0.039 C 
ATOM      9  C   UNL     1       9.090 -31.573  17.738  1.00  0.00    -0.080 C 
ATOM     10  C   UNL     1      10.124 -30.938  16.839  1.00  0.00     0.039 C 
ENDBRANCH   6   7
ENDBRANCH   5   6
ENDBRANCH   3   5
ENDBRANCH   1   2
BRANCH   1  11
ATOM     11  C   UNL     1      11.225 -34.546  12.955  1.00  0.00     0.034 C 
BRANCH  11  12
ATOM     12  C   UNL     1      11.318 -33.064  13.263  1.00  0.00    -0.077 C 
ATOM     13  C   UNL     1      12.424 -32.590  13.879  1.00  0.00    -0.028 C 
ATOM     14  C   UNL     1      10.171 -32.157  12.878  1.00  0.00     0.039 C 
BRANCH  13  15
ATOM     15  C   UNL     1      12.631 -31.148  14.279  1.00  0.00     0.035 C 
BRANCH  15  16
ATOM     16  C   UNL     1      14.083 -30.868  14.687  1.00  0.00     0.079 C 
BRANCH  16  17
ATOM     17  C   UNL     1      14.542 -29.515  14.210  1.00  0.00     0.130 C 
ATOM     18  O   UNL     1      14.287 -29.158  13.069  1.00  0.00    -0.300 OA
ATOM     19  C   UNL     1      15.287 -28.583  15.118  1.00  0.00     0.087 C 
ENDBRANCH  16  17
ENDBRANCH  15  16
ENDBRANCH  13  15
ENDBRANCH  11  12
ENDBRANCH   1  11
TORSDOF 9
ENDMDL
MODEL 6
REMARK VINA RESULT:    -1.891      1.726      5.118
REMARK INTER + INTRA:          -3.598
REMARK INTER:                  -2.586
REMARK INTRA:                  -1.012
REMARK UNBOUND:                -0.713
REMARK SMILES CC(=O)CCC=C(C)CCC=C(C)CCC=C(C)C
REMARK SMILES IDX 10 1 11 2 12 3 13 4 14 5 15 6 16 7 18 8 17 9 19 10 9 11 7 12
REMARK SMILES IDX 6 13 8 14 5 15 4 16 2 17 3 18 1 19
REMARK H PARENT
REMARK Flexibility Score: inf
ROOT
ATOM      1  C   UNL     1      10.883 -32.245  13.258  1.00  0.00     0.032 C 
ENDROOT
BRANCH   1   2
ATOM      2  C   UNL     1      10.792 -31.554  14.599  1.00  0.00    -0.028 C 
ATOM      3  C   UNL     1      11.867 -31.051  15.244  1.00  0.00    -0.077 C 
ATOM      4  C   UNL     1      13.256 -31.161  14.662  1.00  0.00     0.039 C 
BRANCH   3   5
ATOM      5  C   UNL     1      11.676 -30.388  16.590  1.00  0.00     0.034 C 
BRANCH   5   6
ATOM      6  C   UNL     1      10.189 -30.169  16.888  1.00  0.00     0.032 C 
BRANCH   6   7
ATOM      7  C   UNL     1       9.730 -31.078  18.001  1.00  0.00    -0.028 C 
ATOM      8  C   UNL     1       8.397 -32.838  19.079  1.00  0.00     0.039 C 
ATOM      9  C   UNL     1       8.706 -31.954  17.898  1.00  0.00    -0.080 C 
ATOM     10  C   UNL     1       7.869 -32.062  16.645  1.00  0.00     0.039 C 
ENDBRANCH   6   7
ENDBRANCH   5   6
ENDBRANCH   3   5
ENDBRANCH   1   2
BRANCH   1  11
ATOM     11  C   UNL     1       9.568 -32.941  12.876  1.00  0.00     0.034 C 
BRANCH  11  12
ATOM     12  C   UNL     1       9.624 -34.438  13.117  1.00  0.00    -0.077 C 
ATOM     13  C   UNL     1       8.470 -35.141  13.150  1.00  0.00    -0.028 C 
ATOM     14  C   UNL     1      10.967 -35.101  13.320  1.00  0.00     0.039 C 
BRANCH  13  15
ATOM     15  C   UNL     1       8.379 -36.625  13.419  1.00  0.00     0.035 C 
BRANCH  15  16
ATOM     16  C   UNL     1       7.008 -37.021  13.982  1.00  0.00     0.079 C 
BRANCH  16  17
ATOM     17  C   UNL     1       6.567 -36.085  15.077  1.00  0.00     0.130 C 
ATOM     18  O   UNL     1       6.790 -36.372  16.243  1.00  0.00    -0.300 OA
ATOM     19  C   UNL     1       5.879 -34.790  14.762  1.00  0.00     0.087 C 
ENDBRANCH  16  17
ENDBRANCH  15  16
ENDBRANCH  13  15
ENDBRANCH  11  12
ENDBRANCH   1  11
TORSDOF 9
ENDMDL
MODEL 7
REMARK VINA RESULT:    -0.461      2.157      5.362
REMARK INTER + INTRA:          -1.416
REMARK INTER:                  -1.094
REMARK INTRA:                  -0.322
REMARK UNBOUND:                -0.713
REMARK SMILES CC(=O)CCC=C(C)CCC=C(C)CCC=C(C)C
REMARK SMILES IDX 10 1 11 2 12 3 13 4 14 5 15 6 16 7 18 8 17 9 19 10 9 11 7 12
REMARK SMILES IDX 6 13 8 14 5 15 4 16 2 17 3 18 1 19
REMARK H PARENT
REMARK Flexibility Score: inf
ROOT
ATOM      1  C   UNL     1       7.741 -32.293  17.360  1.00  0.00     0.032 C 
ENDROOT
BRANCH   1   2
ATOM      2  C   UNL     1       7.384 -32.162  15.897  1.00  0.00    -0.028 C 
ATOM      3  C   UNL     1       6.861 -33.175  15.172  1.00  0.00    -0.077 C 
ATOM      4  C   UNL     1       6.608 -34.532  15.784  1.00  0.00     0.039 C 
BRANCH   3   5
ATOM      5  C   UNL     1       6.549 -32.949  13.708  1.00  0.00     0.034 C 
BRANCH   5   6
ATOM      6  C   UNL     1       6.901 -34.186  12.875  1.00  0.00     0.032 C 
BRANCH   6   7
ATOM      7  C   UNL     1       8.391 -34.420  12.875  1.00  0.00    -0.028 C 
ATOM      8  C   UNL     1      10.475 -35.721  12.918  1.00  0.00     0.039 C 
ATOM      9  C   UNL     1       8.972 -35.636  12.989  1.00  0.00    -0.080 C 
ATOM     10  C   UNL     1       8.162 -36.894  13.191  1.00  0.00     0.039 C 
ENDBRANCH   6   7
ENDBRANCH   5   6
ENDBRANCH   3   5
ENDBRANCH   1   2
BRANCH   1  11
ATOM     11  C   UNL     1       9.258 -32.238  17.592  1.00  0.00     0.034 C 
BRANCH  11  12
ATOM     12  C   UNL     1       9.990 -31.596  16.429  1.00  0.00    -0.077 C 
ATOM     13  C   UNL     1       9.874 -32.144  15.198  1.00  0.00    -0.028 C 
ATOM     14  C   UNL     1      10.833 -30.366  16.677  1.00  0.00     0.039 C 
BRANCH  13  15
ATOM     15  C   UNL     1      10.577 -31.631  13.963  1.00  0.00     0.035 C 
BRANCH  15  16
ATOM     16  C   UNL     1      11.878 -32.396  13.686  1.00  0.00     0.079 C 
BRANCH  16  17
ATOM     17  C   UNL     1      13.091 -31.539  13.941  1.00  0.00     0.130 C 
ATOM     18  O   UNL     1      12.976 -30.509  14.588  1.00  0.00    -0.300 OA
ATOM     19  C   UNL     1      14.445 -31.939  13.436  1.00  0.00     0.087 C 
ENDBRANCH  16  17
ENDBRANCH  15  16
ENDBRANCH  13  15
ENDBRANCH  11  12
ENDBRANCH   1  11
TORSDOF 9
ENDMDL
