MODEL 1
REMARK VINA RESULT:    -4.685      0.000      0.000
REMARK INTER + INTRA:          -7.496
REMARK INTER:                  -7.150
REMARK INTRA:                  -0.347
REMARK UNBOUND:                -0.347
REMARK SMILES O=C([O-])CCCCCCCCC(=O)[O-]
REMARK SMILES IDX 7 1 6 2 5 3 4 4 2 5 1 6 3 7 8 8 9 9 10 10 11 11 12 12 13 13
REMARK SMILES IDX 14 14
REMARK H PARENT
REMARK Flexibility Score: inf
ROOT
ATOM      1  C   UNL     1      39.810 118.982  12.666  1.00  0.00     0.000 C 
ENDROOT
BRANCH   1   2
ATOM      2  C   UNL     1      38.945 119.312  13.896  1.00  0.00     0.000 C 
BRANCH   2   3
ATOM      3  C   UNL     1      37.688 120.127  13.529  1.00  0.00     0.006 C 
BRANCH   3   4
ATOM      4  C   UNL     1      36.392 119.563  14.135  1.00  0.00     0.053 C 
BRANCH   4   5
ATOM      5  C   UNL     1      35.761 118.524  13.263  1.00  0.00     0.041 C 
ATOM      6  O   UNL     1      34.754 118.809  12.563  1.00  0.00    -0.550 OA
ATOM      7  O   UNL     1      36.301 117.245  13.202  1.00  0.00    -0.550 OA
ENDBRANCH   4   5
ENDBRANCH   3   4
ENDBRANCH   2   3
ENDBRANCH   1   2
BRANCH   1   8
ATOM      8  C   UNL     1      39.762 117.491  12.293  1.00  0.00     0.000 C 
BRANCH   8   9
ATOM      9  C   UNL     1      41.146 116.927  11.932  1.00  0.00     0.000 C 
BRANCH   9  10
ATOM     10  C   UNL     1      41.714 117.537  10.640  1.00  0.00     0.006 C 
BRANCH  10  11
ATOM     11  C   UNL     1      43.075 116.941  10.257  1.00  0.00     0.053 C 
BRANCH  11  12
ATOM     12  C   UNL     1      43.172 116.775   8.773  1.00  0.00     0.041 C 
ATOM     13  O   UNL     1      44.204 116.269   8.258  1.00  0.00    -0.550 OA
ATOM     14  O   UNL     1      42.102 117.131   7.962  1.00  0.00    -0.550 OA
ENDBRANCH  11  12
ENDBRANCH  10  11
ENDBRANCH   9  10
ENDBRANCH   8   9
ENDBRANCH   1   8
TORSDOF 9
ENDMDL
MODEL 2
REMARK VINA RESULT:    -4.603      1.734      7.466
REMARK INTER + INTRA:          -7.371
REMARK INTER:                  -7.082
REMARK INTRA:                  -0.289
REMARK UNBOUND:                -0.347
REMARK SMILES O=C([O-])CCCCCCCCC(=O)[O-]
REMARK SMILES IDX 7 1 6 2 5 3 4 4 2 5 1 6 3 7 8 8 9 9 10 10 11 11 12 12 13 13
REMARK SMILES IDX 14 14
REMARK H PARENT
REMARK Flexibility Score: inf
ROOT
ATOM      1  C   UNL     1      39.285 117.153  11.877  1.00  0.00     0.000 C 
ENDROOT
BRANCH   1   2
ATOM      2  C   UNL     1      40.785 117.476  11.995  1.00  0.00     0.000 C 
BRANCH   2   3
ATOM      3  C   UNL     1      41.432 117.773  10.626  1.00  0.00     0.006 C 
BRANCH   3   4
ATOM      4  C   UNL     1      42.747 117.012  10.390  1.00  0.00     0.053 C 
BRANCH   4   5
ATOM      5  C   UNL     1      43.029 116.800   8.936  1.00  0.00     0.041 C 
ATOM      6  O   UNL     1      42.157 117.085   8.073  1.00  0.00    -0.550 OA
ATOM      7  O   UNL     1      44.265 116.312   8.531  1.00  0.00    -0.550 OA
ENDBRANCH   4   5
ENDBRANCH   3   4
ENDBRANCH   2   3
ENDBRANCH   1   2
BRANCH   1   8
ATOM      8  C   UNL     1      38.478 117.640  13.091  1.00  0.00     0.000 C 
BRANCH   8   9
ATOM      9  C   UNL     1      36.978 117.321  12.973  1.00  0.00     0.000 C 
BRANCH   9  10
ATOM     10  C   UNL     1      36.092 118.405  13.608  1.00  0.00     0.006 C 
BRANCH  10  11
ATOM     11  C   UNL     1      36.625 119.821  13.357  1.00  0.00     0.053 C 
BRANCH  11  12
ATOM     12  C   UNL     1      36.696 120.587  14.641  1.00  0.00     0.041 C 
ATOM     13  O   UNL     1      37.094 121.782  14.645  1.00  0.00    -0.550 OA
ATOM     14  O   UNL     1      36.277 119.997  15.826  1.00  0.00    -0.550 OA
ENDBRANCH  11  12
ENDBRANCH  10  11
ENDBRANCH   9  10
ENDBRANCH   8   9
ENDBRANCH   1   8
TORSDOF 9
ENDMDL
MODEL 3
REMARK VINA RESULT:    -4.582      1.210      7.821
REMARK INTER + INTRA:          -7.339
REMARK INTER:                  -7.135
REMARK INTRA:                  -0.205
REMARK UNBOUND:                -0.347
REMARK SMILES O=C([O-])CCCCCCCCC(=O)[O-]
REMARK SMILES IDX 7 1 6 2 5 3 4 4 2 5 1 6 3 7 8 8 9 9 10 10 11 11 12 12 13 13
REMARK SMILES IDX 14 14
REMARK H PARENT
REMARK Flexibility Score: inf
ROOT
ATOM      1  C   UNL     1      40.429 117.685  12.068  1.00  0.00     0.000 C 
ENDROOT
BRANCH   1   2
ATOM      2  C   UNL     1      41.080 117.865  10.685  1.00  0.00     0.000 C 
BRANCH   2   3
ATOM      3  C   UNL     1      42.420 117.110  10.564  1.00  0.00     0.006 C 
BRANCH   3   4
ATOM      4  C   UNL     1      42.864 116.876   9.111  1.00  0.00     0.053 C 
BRANCH   4   5
ATOM      5  C   UNL     1      43.865 115.770   8.992  1.00  0.00     0.041 C 
ATOM      6  O   UNL     1      44.922 115.940   8.329  1.00  0.00    -0.550 OA
ATOM      7  O   UNL     1      43.643 114.558   9.635  1.00  0.00    -0.550 OA
ENDBRANCH   4   5
ENDBRANCH   3   4
ENDBRANCH   2   3
ENDBRANCH   1   2
BRANCH   1   8
ATOM      8  C   UNL     1      39.987 119.019  12.691  1.00  0.00     0.000 C 
BRANCH   8   9
ATOM      9  C   UNL     1      38.706 118.886  13.531  1.00  0.00     0.000 C 
BRANCH   9  10
ATOM     10  C   UNL     1      37.729 120.052  13.307  1.00  0.00     0.006 C 
BRANCH  10  11
ATOM     11  C   UNL     1      36.736 120.217  14.464  1.00  0.00     0.053 C 
BRANCH  11  12
ATOM     12  C   UNL     1      35.621 119.227  14.339  1.00  0.00     0.041 C 
ATOM     13  O   UNL     1      35.175 118.913  13.204  1.00  0.00    -0.550 OA
ATOM     14  O   UNL     1      35.106 118.612  15.473  1.00  0.00    -0.550 OA
ENDBRANCH  11  12
ENDBRANCH  10  11
ENDBRANCH   9  10
ENDBRANCH   8   9
ENDBRANCH   1   8
TORSDOF 9
ENDMDL
MODEL 4
REMARK VINA RESULT:    -4.541      5.230      8.116
REMARK INTER + INTRA:          -7.276
REMARK INTER:                  -6.814
REMARK INTRA:                  -0.463
REMARK UNBOUND:                -0.347
REMARK SMILES O=C([O-])CCCCCCCCC(=O)[O-]
REMARK SMILES IDX 7 1 6 2 5 3 4 4 2 5 1 6 3 7 8 8 9 9 10 10 11 11 12 12 13 13
REMARK SMILES IDX 14 14
REMARK H PARENT
REMARK Flexibility Score: inf
ROOT
ATOM      1  C   UNL     1      45.522 113.436   8.541  1.00  0.00     0.000 C 
ENDROOT
BRANCH   1   2
ATOM      2  C   UNL     1      44.351 114.343   8.959  1.00  0.00     0.000 C 
BRANCH   2   3
ATOM      3  C   UNL     1      44.664 115.839   8.755  1.00  0.00     0.006 C 
BRANCH   3   4
ATOM      4  C   UNL     1      43.955 116.758   9.764  1.00  0.00     0.053 C 
BRANCH   4   5
ATOM      5  C   UNL     1      42.645 117.266   9.250  1.00  0.00     0.041 C 
ATOM      6  O   UNL     1      41.887 117.936   9.999  1.00  0.00    -0.550 OA
ATOM      7  O   UNL     1      42.272 117.021   7.934  1.00  0.00    -0.550 OA
ENDBRANCH   4   5
ENDBRANCH   3   4
ENDBRANCH   2   3
ENDBRANCH   1   2
BRANCH   1   8
ATOM      8  C   UNL     1      45.394 112.936   7.093  1.00  0.00     0.000 C 
BRANCH   8   9
ATOM      9  C   UNL     1      46.710 112.355   6.547  1.00  0.00     0.000 C 
BRANCH   9  10
ATOM     10  C   UNL     1      47.516 113.381   5.734  1.00  0.00     0.006 C 
BRANCH  10  11
ATOM     11  C   UNL     1      46.669 114.585   5.302  1.00  0.00     0.053 C 
BRANCH  11  12
ATOM     12  C   UNL     1      46.936 114.922   3.869  1.00  0.00     0.041 C 
ATOM     13  O   UNL     1      47.956 114.464   3.289  1.00  0.00    -0.550 OA
ATOM     14  O   UNL     1      46.033 115.702   3.158  1.00  0.00    -0.550 OA
ENDBRANCH  11  12
ENDBRANCH  10  11
ENDBRANCH   9  10
ENDBRANCH   8   9
ENDBRANCH   1   8
TORSDOF 9
ENDMDL
MODEL 5
REMARK VINA RESULT:    -4.506      1.479      2.023
REMARK INTER + INTRA:          -7.223
REMARK INTER:                  -6.891
REMARK INTRA:                  -0.332
REMARK UNBOUND:                -0.347
REMARK SMILES O=C([O-])CCCCCCCCC(=O)[O-]
REMARK SMILES IDX 7 1 6 2 5 3 4 4 2 5 1 6 3 7 8 8 9 9 10 10 11 11 12 12 13 13
REMARK SMILES IDX 14 14
REMARK H PARENT
REMARK Flexibility Score: inf
ROOT
ATOM      1  C   UNL     1      40.219 117.707  12.011  1.00  0.00     0.000 C 
ENDROOT
BRANCH   1   2
ATOM      2  C   UNL     1      39.875 118.993  12.785  1.00  0.00     0.000 C 
BRANCH   2   3
ATOM      3  C   UNL     1      38.746 118.775  13.814  1.00  0.00     0.006 C 
BRANCH   3   4
ATOM      4  C   UNL     1      37.460 119.552  13.488  1.00  0.00     0.053 C 
BRANCH   4   5
ATOM      5  C   UNL     1      36.321 118.647  13.139  1.00  0.00     0.041 C 
ATOM      6  O   UNL     1      35.133 119.052  13.247  1.00  0.00    -0.550 OA
ATOM      7  O   UNL     1      36.570 117.364  12.668  1.00  0.00    -0.550 OA
ENDBRANCH   4   5
ENDBRANCH   3   4
ENDBRANCH   2   3
ENDBRANCH   1   2
BRANCH   1   8
ATOM      8  C   UNL     1      41.051 117.983  10.749  1.00  0.00     0.000 C 
BRANCH   8   9
ATOM      9  C   UNL     1      42.324 117.121  10.678  1.00  0.00     0.000 C 
BRANCH   9  10
ATOM     10  C   UNL     1      42.987 117.160   9.292  1.00  0.00     0.006 C 
BRANCH  10  11
ATOM     11  C   UNL     1      43.330 115.761   8.766  1.00  0.00     0.053 C 
BRANCH  11  12
ATOM     12  C   UNL     1      44.228 115.048   9.727  1.00  0.00     0.041 C 
ATOM     13  O   UNL     1      43.900 113.921  10.185  1.00  0.00    -0.550 OA
ATOM     14  O   UNL     1      45.451 115.604  10.079  1.00  0.00    -0.550 OA
ENDBRANCH  11  12
ENDBRANCH  10  11
ENDBRANCH   9  10
ENDBRANCH   8   9
ENDBRANCH   1   8
TORSDOF 9
ENDMDL
MODEL 6
REMARK VINA RESULT:    -4.493      1.155      1.606
REMARK INTER + INTRA:          -7.204
REMARK INTER:                  -6.828
REMARK INTRA:                  -0.376
REMARK UNBOUND:                -0.347
REMARK SMILES O=C([O-])CCCCCCCCC(=O)[O-]
REMARK SMILES IDX 7 1 6 2 5 3 4 4 2 5 1 6 3 7 8 8 9 9 10 10 11 11 12 12 13 13
REMARK SMILES IDX 14 14
REMARK H PARENT
REMARK Flexibility Score: inf
ROOT
ATOM      1  C   UNL     1      40.131 117.429  13.582  1.00  0.00     0.000 C 
ENDROOT
BRANCH   1   2
ATOM      2  C   UNL     1      38.666 117.862  13.396  1.00  0.00     0.000 C 
BRANCH   2   3
ATOM      3  C   UNL     1      38.426 119.324  13.827  1.00  0.00     0.006 C 
BRANCH   3   4
ATOM      4  C   UNL     1      37.058 119.876  13.393  1.00  0.00     0.053 C 
BRANCH   4   5
ATOM      5  C   UNL     1      35.963 118.869  13.546  1.00  0.00     0.041 C 
ATOM      6  O   UNL     1      35.491 118.613  14.685  1.00  0.00    -0.550 OA
ATOM      7  O   UNL     1      35.443 118.229  12.427  1.00  0.00    -0.550 OA
ENDBRANCH   4   5
ENDBRANCH   3   4
ENDBRANCH   2   3
ENDBRANCH   1   2
BRANCH   1   8
ATOM      8  C   UNL     1      40.754 116.882  12.288  1.00  0.00     0.000 C 
BRANCH   8   9
ATOM      9  C   UNL     1      40.718 117.902  11.136  1.00  0.00     0.000 C 
BRANCH   9  10
ATOM     10  C   UNL     1      41.859 117.693  10.127  1.00  0.00     0.006 C 
BRANCH  10  11
ATOM     11  C   UNL     1      43.005 116.850  10.701  1.00  0.00     0.053 C 
BRANCH  11  12
ATOM     12  C   UNL     1      43.934 116.421   9.609  1.00  0.00     0.041 C 
ATOM     13  O   UNL     1      43.556 116.451   8.408  1.00  0.00    -0.550 OA
ATOM     14  O   UNL     1      45.233 116.037   9.912  1.00  0.00    -0.550 OA
ENDBRANCH  11  12
ENDBRANCH  10  11
ENDBRANCH   9  10
ENDBRANCH   8   9
ENDBRANCH   1   8
TORSDOF 9
ENDMDL
MODEL 7
REMARK VINA RESULT:    -4.480      1.690      2.390
REMARK INTER + INTRA:          -7.183
REMARK INTER:                  -6.962
REMARK INTRA:                  -0.221
REMARK UNBOUND:                -0.347
REMARK SMILES O=C([O-])CCCCCCCCC(=O)[O-]
REMARK SMILES IDX 7 1 6 2 5 3 4 4 2 5 1 6 3 7 8 8 9 9 10 10 11 11 12 12 13 13
REMARK SMILES IDX 14 14
REMARK H PARENT
REMARK Flexibility Score: inf
ROOT
ATOM      1  C   UNL     1      40.060 117.514  11.484  1.00  0.00     0.000 C 
ENDROOT
BRANCH   1   2
ATOM      2  C   UNL     1      40.121 117.774  13.000  1.00  0.00     0.000 C 
BRANCH   2   3
ATOM      3  C   UNL     1      39.455 119.109  13.394  1.00  0.00     0.006 C 
BRANCH   3   4
ATOM      4  C   UNL     1      38.087 118.936  14.075  1.00  0.00     0.053 C 
BRANCH   4   5
ATOM      5  C   UNL     1      37.095 119.964  13.630  1.00  0.00     0.041 C 
ATOM      6  O   UNL     1      36.116 119.631  12.911  1.00  0.00    -0.550 OA
ATOM      7  O   UNL     1      37.236 121.287  14.031  1.00  0.00    -0.550 OA
ENDBRANCH   4   5
ENDBRANCH   3   4
ENDBRANCH   2   3
ENDBRANCH   1   2
BRANCH   1   8
ATOM      8  C   UNL     1      41.371 117.880  10.770  1.00  0.00     0.000 C 
BRANCH   8   9
ATOM      9  C   UNL     1      42.486 116.848  11.011  1.00  0.00     0.000 C 
BRANCH   9  10
ATOM     10  C   UNL     1      43.314 116.567   9.747  1.00  0.00     0.006 C 
BRANCH  10  11
ATOM     11  C   UNL     1      43.680 115.085   9.601  1.00  0.00     0.053 C 
BRANCH  11  12
ATOM     12  C   UNL     1      44.671 114.899   8.495  1.00  0.00     0.041 C 
ATOM     13  O   UNL     1      45.034 113.741   8.157  1.00  0.00    -0.550 OA
ATOM     14  O   UNL     1      45.157 116.001   7.804  1.00  0.00    -0.550 OA
ENDBRANCH  11  12
ENDBRANCH  10  11
ENDBRANCH   9  10
ENDBRANCH   8   9
ENDBRANCH   1   8
TORSDOF 9
ENDMDL
MODEL 8
REMARK VINA RESULT:    -4.390      5.635     10.490
REMARK INTER + INTRA:          -7.046
REMARK INTER:                  -6.511
REMARK INTRA:                  -0.535
REMARK UNBOUND:                -0.347
REMARK SMILES O=C([O-])CCCCCCCCC(=O)[O-]
REMARK SMILES IDX 7 1 6 2 5 3 4 4 2 5 1 6 3 7 8 8 9 9 10 10 11 11 12 12 13 13
REMARK SMILES IDX 14 14
REMARK H PARENT
REMARK Flexibility Score: inf
ROOT
ATOM      1  C   UNL     1      45.966 112.947   7.120  1.00  0.00     0.000 C 
ENDROOT
BRANCH   1   2
ATOM      2  C   UNL     1      47.274 112.487   6.449  1.00  0.00     0.000 C 
BRANCH   2   3
ATOM      3  C   UNL     1      47.863 113.562   5.513  1.00  0.00     0.006 C 
BRANCH   3   4
ATOM      4  C   UNL     1      46.864 114.673   5.148  1.00  0.00     0.053 C 
BRANCH   4   5
ATOM      5  C   UNL     1      46.910 115.026   3.695  1.00  0.00     0.041 C 
ATOM      6  O   UNL     1      46.023 115.766   3.194  1.00  0.00    -0.550 OA
ATOM      7  O   UNL     1      47.947 114.559   2.897  1.00  0.00    -0.550 OA
ENDBRANCH   4   5
ENDBRANCH   3   4
ENDBRANCH   2   3
ENDBRANCH   1   2
BRANCH   1   8
ATOM      8  C   UNL     1      46.001 112.792   8.649  1.00  0.00     0.000 C 
BRANCH   8   9
ATOM      9  C   UNL     1      45.043 113.760   9.364  1.00  0.00     0.000 C 
BRANCH   9  10
ATOM     10  C   UNL     1      44.597 114.923   8.464  1.00  0.00     0.006 C 
BRANCH  10  11
ATOM     11  C   UNL     1      44.558 116.262   9.211  1.00  0.00     0.053 C 
BRANCH  11  12
ATOM     12  C   UNL     1      43.160 116.794   9.255  1.00  0.00     0.041 C 
ATOM     13  O   UNL     1      42.662 117.180  10.345  1.00  0.00    -0.550 OA
ATOM     14  O   UNL     1      42.422 116.910   8.083  1.00  0.00    -0.550 OA
ENDBRANCH  11  12
ENDBRANCH  10  11
ENDBRANCH   9  10
ENDBRANCH   8   9
ENDBRANCH   1   8
TORSDOF 9
ENDMDL
MODEL 9
REMARK VINA RESULT:    -4.386      3.383      7.690
REMARK INTER + INTRA:          -7.041
REMARK INTER:                  -6.422
REMARK INTRA:                  -0.618
REMARK UNBOUND:                -0.347
REMARK SMILES O=C([O-])CCCCCCCCC(=O)[O-]
REMARK SMILES IDX 7 1 6 2 5 3 4 4 2 5 1 6 3 7 8 8 9 9 10 10 11 11 12 12 13 13
REMARK SMILES IDX 14 14
REMARK H PARENT
REMARK Flexibility Score: inf
ROOT
ATOM      1  C   UNL     1      44.559 116.033   8.515  1.00  0.00     0.000 C 
ENDROOT
BRANCH   1   2
ATOM      2  C   UNL     1      45.056 115.196   9.708  1.00  0.00     0.000 C 
BRANCH   2   3
ATOM      3  C   UNL     1      44.192 113.941   9.946  1.00  0.00     0.006 C 
BRANCH   3   4
ATOM      4  C   UNL     1      43.846 113.705  11.425  1.00  0.00     0.053 C 
BRANCH   4   5
ATOM      5  C   UNL     1      44.819 112.791  12.099  1.00  0.00     0.041 C 
ATOM      6  O   UNL     1      44.897 112.763  13.356  1.00  0.00    -0.550 OA
ATOM      7  O   UNL     1      45.625 111.950  11.341  1.00  0.00    -0.550 OA
ENDBRANCH   4   5
ENDBRANCH   3   4
ENDBRANCH   2   3
ENDBRANCH   1   2
BRANCH   1   8
ATOM      8  C   UNL     1      43.043 116.280   8.559  1.00  0.00     0.000 C 
BRANCH   8   9
ATOM      9  C   UNL     1      42.662 117.475   9.449  1.00  0.00     0.000 C 
BRANCH   9  10
ATOM     10  C   UNL     1      42.046 117.042  10.789  1.00  0.00     0.006 C 
BRANCH  10  11
ATOM     11  C   UNL     1      40.771 117.823  11.131  1.00  0.00     0.053 C 
BRANCH  11  12
ATOM     12  C   UNL     1      40.110 117.239  12.340  1.00  0.00     0.041 C 
ATOM     13  O   UNL     1      38.875 117.396  12.525  1.00  0.00    -0.550 OA
ATOM     14  O   UNL     1      40.849 116.478  13.237  1.00  0.00    -0.550 OA
ENDBRANCH  11  12
ENDBRANCH  10  11
ENDBRANCH   9  10
ENDBRANCH   8   9
ENDBRANCH   1   8
TORSDOF 9
ENDMDL
