MODEL 1
REMARK VINA RESULT:    -3.530      0.000      0.000
REMARK INTER + INTRA:          -6.197
REMARK INTER:                  -5.388
REMARK INTRA:                  -0.809
REMARK UNBOUND:                -0.809
REMARK SMILES O=C([O-])CCCCCCCCC(=O)[O-]
REMARK SMILES IDX 7 1 6 2 5 3 4 4 2 5 1 6 3 7 8 8 9 9 10 10 11 11 12 12 13 13
REMARK SMILES IDX 14 14
REMARK H PARENT
REMARK Flexibility Score: inf
ROOT
ATOM      1  C   UNL     1     -17.441  32.136 -39.676  1.00  0.00     0.000 C 
ENDROOT
BRANCH   1   2
ATOM      2  C   UNL     1     -18.434  33.303 -39.775  1.00  0.00     0.000 C 
BRANCH   2   3
ATOM      3  C   UNL     1     -19.791  32.992 -39.118  1.00  0.00     0.006 C 
BRANCH   3   4
ATOM      4  C   UNL     1     -20.958  33.844 -39.644  1.00  0.00     0.053 C 
BRANCH   4   5
ATOM      5  C   UNL     1     -22.073  33.944 -38.650  1.00  0.00     0.041 C 
ATOM      6  O   UNL     1     -21.963  34.698 -37.648  1.00  0.00    -0.550 OA
ATOM      7  O   UNL     1     -23.249  33.232 -38.851  1.00  0.00    -0.550 OA
ENDBRANCH   4   5
ENDBRANCH   3   4
ENDBRANCH   2   3
ENDBRANCH   1   2
BRANCH   1   8
ATOM      8  C   UNL     1     -17.334  31.392 -41.016  1.00  0.00     0.000 C 
BRANCH   8   9
ATOM      9  C   UNL     1     -17.901  32.199 -42.198  1.00  0.00     0.000 C 
BRANCH   9  10
ATOM     10  C   UNL     1     -19.065  31.524 -42.951  1.00  0.00     0.006 C 
BRANCH  10  11
ATOM     11  C   UNL     1     -19.755  30.391 -42.175  1.00  0.00     0.053 C 
BRANCH  11  12
ATOM     12  C   UNL     1     -21.242  30.423 -42.343  1.00  0.00     0.041 C 
ATOM     13  O   UNL     1     -21.933  31.269 -41.716  1.00  0.00    -0.550 OA
ATOM     14  O   UNL     1     -21.869  29.497 -43.168  1.00  0.00    -0.550 OA
ENDBRANCH  11  12
ENDBRANCH  10  11
ENDBRANCH   9  10
ENDBRANCH   8   9
ENDBRANCH   1   8
TORSDOF 9
ENDMDL
MODEL 2
REMARK VINA RESULT:    -3.504      2.243      4.009
REMARK INTER + INTRA:          -6.156
REMARK INTER:                  -5.319
REMARK INTRA:                  -0.837
REMARK UNBOUND:                -0.809
REMARK SMILES O=C([O-])CCCCCCCCC(=O)[O-]
REMARK SMILES IDX 7 1 6 2 5 3 4 4 2 5 1 6 3 7 8 8 9 9 10 10 11 11 12 12 13 13
REMARK SMILES IDX 14 14
REMARK H PARENT
REMARK Flexibility Score: inf
ROOT
ATOM      1  C   UNL     1     -23.953  31.184 -41.511  1.00  0.00     0.000 C 
ENDROOT
BRANCH   1   2
ATOM      2  C   UNL     1     -24.516  31.499 -40.117  1.00  0.00     0.000 C 
BRANCH   2   3
ATOM      3  C   UNL     1     -23.415  31.731 -39.066  1.00  0.00     0.006 C 
BRANCH   3   4
ATOM      4  C   UNL     1     -22.226  32.566 -39.570  1.00  0.00     0.053 C 
BRANCH   4   5
ATOM      5  C   UNL     1     -22.001  33.786 -38.731  1.00  0.00     0.041 C 
ATOM      6  O   UNL     1     -22.981  34.428 -38.271  1.00  0.00    -0.550 OA
ATOM      7  O   UNL     1     -20.707  34.193 -38.429  1.00  0.00    -0.550 OA
ENDBRANCH   4   5
ENDBRANCH   3   4
ENDBRANCH   2   3
ENDBRANCH   1   2
BRANCH   1   8
ATOM      8  C   UNL     1     -23.717  29.676 -41.680  1.00  0.00     0.000 C 
BRANCH   8   9
ATOM      9  C   UNL     1     -22.446  29.353 -42.486  1.00  0.00     0.000 C 
BRANCH   9  10
ATOM     10  C   UNL     1     -21.472  30.535 -42.671  1.00  0.00     0.006 C 
BRANCH  10  11
ATOM     11  C   UNL     1     -20.162  30.411 -41.876  1.00  0.00     0.053 C 
BRANCH  11  12
ATOM     12  C   UNL     1     -19.276  31.601 -42.071  1.00  0.00     0.041 C 
ATOM     13  O   UNL     1     -19.013  32.362 -41.102  1.00  0.00    -0.550 OA
ATOM     14  O   UNL     1     -18.765  31.890 -43.330  1.00  0.00    -0.550 OA
ENDBRANCH  11  12
ENDBRANCH  10  11
ENDBRANCH   9  10
ENDBRANCH   8   9
ENDBRANCH   1   8
TORSDOF 9
ENDMDL
MODEL 3
REMARK VINA RESULT:    -3.430      4.404      6.469
REMARK INTER + INTRA:          -6.044
REMARK INTER:                  -5.608
REMARK INTRA:                  -0.436
REMARK UNBOUND:                -0.809
REMARK SMILES O=C([O-])CCCCCCCCC(=O)[O-]
REMARK SMILES IDX 7 1 6 2 5 3 4 4 2 5 1 6 3 7 8 8 9 9 10 10 11 11 12 12 13 13
REMARK SMILES IDX 14 14
REMARK H PARENT
REMARK Flexibility Score: inf
ROOT
ATOM      1  C   UNL     1     -23.499  30.489 -41.867  1.00  0.00     0.000 C 
ENDROOT
BRANCH   1   2
ATOM      2  C   UNL     1     -22.335  30.794 -40.912  1.00  0.00     0.000 C 
BRANCH   2   3
ATOM      3  C   UNL     1     -21.049  30.029 -41.273  1.00  0.00     0.006 C 
BRANCH   3   4
ATOM      4  C   UNL     1     -20.417  30.450 -42.610  1.00  0.00     0.053 C 
BRANCH   4   5
ATOM      5  C   UNL     1     -19.330  31.462 -42.424  1.00  0.00     0.041 C 
ATOM      6  O   UNL     1     -18.698  31.903 -43.420  1.00  0.00    -0.550 OA
ATOM      7  O   UNL     1     -19.040  31.945 -41.154  1.00  0.00    -0.550 OA
ENDBRANCH   4   5
ENDBRANCH   3   4
ENDBRANCH   2   3
ENDBRANCH   1   2
BRANCH   1   8
ATOM      8  C   UNL     1     -23.663  28.974 -42.064  1.00  0.00     0.000 C 
BRANCH   8   9
ATOM      9  C   UNL     1     -25.081  28.475 -41.728  1.00  0.00     0.000 C 
BRANCH   9  10
ATOM     10  C   UNL     1     -26.100  29.583 -41.392  1.00  0.00     0.006 C 
BRANCH  10  11
ATOM     11  C   UNL     1     -27.460  29.430 -42.090  1.00  0.00     0.053 C 
BRANCH  11  12
ATOM     12  C   UNL     1     -27.988  28.032 -41.986  1.00  0.00     0.041 C 
ATOM     13  O   UNL     1     -28.347  27.571 -40.870  1.00  0.00    -0.550 OA
ATOM     14  O   UNL     1     -28.052  27.227 -43.116  1.00  0.00    -0.550 OA
ENDBRANCH  11  12
ENDBRANCH  10  11
ENDBRANCH   9  10
ENDBRANCH   8   9
ENDBRANCH   1   8
TORSDOF 9
ENDMDL
MODEL 4
REMARK VINA RESULT:    -3.422     14.445     15.762
REMARK INTER + INTRA:          -6.031
REMARK INTER:                  -5.612
REMARK INTRA:                  -0.420
REMARK UNBOUND:                -0.809
REMARK SMILES O=C([O-])CCCCCCCCC(=O)[O-]
REMARK SMILES IDX 7 1 6 2 5 3 4 4 2 5 1 6 3 7 8 8 9 9 10 10 11 11 12 12 13 13
REMARK SMILES IDX 14 14
REMARK H PARENT
REMARK Flexibility Score: inf
ROOT
ATOM      1  C   UNL     1     -25.490  19.022 -34.993  1.00  0.00     0.000 C 
ENDROOT
BRANCH   1   2
ATOM      2  C   UNL     1     -25.511  17.598 -34.419  1.00  0.00     0.000 C 
BRANCH   2   3
ATOM      3  C   UNL     1     -25.484  17.573 -32.880  1.00  0.00     0.006 C 
BRANCH   3   4
ATOM      4  C   UNL     1     -24.619  18.674 -32.245  1.00  0.00     0.053 C 
BRANCH   4   5
ATOM      5  C   UNL     1     -23.858  18.175 -31.056  1.00  0.00     0.041 C 
ATOM      6  O   UNL     1     -23.001  17.263 -31.189  1.00  0.00    -0.550 OA
ATOM      7  O   UNL     1     -24.070  18.744 -29.806  1.00  0.00    -0.550 OA
ENDBRANCH   4   5
ENDBRANCH   3   4
ENDBRANCH   2   3
ENDBRANCH   1   2
BRANCH   1   8
ATOM      8  C   UNL     1     -26.691  19.258 -35.921  1.00  0.00     0.000 C 
BRANCH   8   9
ATOM      9  C   UNL     1     -26.763  18.246 -37.079  1.00  0.00     0.000 C 
BRANCH   9  10
ATOM     10  C   UNL     1     -26.407  18.814 -38.468  1.00  0.00     0.006 C 
BRANCH  10  11
ATOM     11  C   UNL     1     -26.125  20.324 -38.484  1.00  0.00     0.053 C 
BRANCH  11  12
ATOM     12  C   UNL     1     -27.207  21.088 -39.182  1.00  0.00     0.041 C 
ATOM     13  O   UNL     1     -27.575  20.752 -40.339  1.00  0.00    -0.550 OA
ATOM     14  O   UNL     1     -27.789  22.190 -38.568  1.00  0.00    -0.550 OA
ENDBRANCH  11  12
ENDBRANCH  10  11
ENDBRANCH   9  10
ENDBRANCH   8   9
ENDBRANCH   1   8
TORSDOF 9
ENDMDL
MODEL 5
REMARK VINA RESULT:    -3.422      2.335      5.298
REMARK INTER + INTRA:          -6.031
REMARK INTER:                  -5.276
REMARK INTRA:                  -0.756
REMARK UNBOUND:                -0.809
REMARK SMILES O=C([O-])CCCCCCCCC(=O)[O-]
REMARK SMILES IDX 7 1 6 2 5 3 4 4 2 5 1 6 3 7 8 8 9 9 10 10 11 11 12 12 13 13
REMARK SMILES IDX 14 14
REMARK H PARENT
REMARK Flexibility Score: inf
ROOT
ATOM      1  C   UNL     1     -20.607  33.614 -38.264  1.00  0.00     0.000 C 
ENDROOT
BRANCH   1   2
ATOM      2  C   UNL     1     -20.604  33.493 -39.794  1.00  0.00     0.000 C 
BRANCH   2   3
ATOM      3  C   UNL     1     -20.145  32.107 -40.284  1.00  0.00     0.006 C 
BRANCH   3   4
ATOM      4  C   UNL     1     -18.916  32.138 -41.208  1.00  0.00     0.053 C 
BRANCH   4   5
ATOM      5  C   UNL     1     -19.207  31.540 -42.550  1.00  0.00     0.041 C 
ATOM      6  O   UNL     1     -18.615  31.966 -43.576  1.00  0.00    -0.550 OA
ATOM      7  O   UNL     1     -20.106  30.487 -42.661  1.00  0.00    -0.550 OA
ENDBRANCH   4   5
ENDBRANCH   3   4
ENDBRANCH   2   3
ENDBRANCH   1   2
BRANCH   1   8
ATOM      8  C   UNL     1     -21.763  34.506 -37.785  1.00  0.00     0.000 C 
BRANCH   8   9
ATOM      9  C   UNL     1     -23.113  34.132 -38.424  1.00  0.00     0.000 C 
BRANCH   9  10
ATOM     10  C   UNL     1     -23.903  33.032 -37.687  1.00  0.00     0.006 C 
BRANCH  10  11
ATOM     11  C   UNL     1     -24.077  31.730 -38.483  1.00  0.00     0.053 C 
BRANCH  11  12
ATOM     12  C   UNL     1     -23.074  30.692 -38.083  1.00  0.00     0.041 C 
ATOM     13  O   UNL     1     -22.880  29.684 -38.812  1.00  0.00    -0.550 OA
ATOM     14  O   UNL     1     -22.376  30.823 -36.889  1.00  0.00    -0.550 OA
ENDBRANCH  11  12
ENDBRANCH  10  11
ENDBRANCH   9  10
ENDBRANCH   8   9
ENDBRANCH   1   8
TORSDOF 9
ENDMDL
MODEL 6
REMARK VINA RESULT:    -3.407      4.139      6.288
REMARK INTER + INTRA:          -6.008
REMARK INTER:                  -5.551
REMARK INTRA:                  -0.456
REMARK UNBOUND:                -0.809
REMARK SMILES O=C([O-])CCCCCCCCC(=O)[O-]
REMARK SMILES IDX 7 1 6 2 5 3 4 4 2 5 1 6 3 7 8 8 9 9 10 10 11 11 12 12 13 13
REMARK SMILES IDX 14 14
REMARK H PARENT
REMARK Flexibility Score: inf
ROOT
ATOM      1  C   UNL     1     -23.897  30.329 -41.568  1.00  0.00     0.000 C 
ENDROOT
BRANCH   1   2
ATOM      2  C   UNL     1     -23.870  28.822 -41.865  1.00  0.00     0.000 C 
BRANCH   2   3
ATOM      3  C   UNL     1     -25.277  28.197 -41.915  1.00  0.00     0.006 C 
BRANCH   3   4
ATOM      4  C   UNL     1     -26.424  29.208 -41.749  1.00  0.00     0.053 C 
BRANCH   4   5
ATOM      5  C   UNL     1     -27.764  28.541 -41.746  1.00  0.00     0.041 C 
ATOM      6  O   UNL     1     -27.971  27.530 -42.468  1.00  0.00    -0.550 OA
ATOM      7  O   UNL     1     -28.775  29.016 -40.919  1.00  0.00    -0.550 OA
ENDBRANCH   4   5
ENDBRANCH   3   4
ENDBRANCH   2   3
ENDBRANCH   1   2
BRANCH   1   8
ATOM      8  C   UNL     1     -22.640  31.019 -42.119  1.00  0.00     0.000 C 
BRANCH   8   9
ATOM      9  C   UNL     1     -21.574  30.023 -42.609  1.00  0.00     0.000 C 
BRANCH   9  10
ATOM     10  C   UNL     1     -20.124  30.547 -42.572  1.00  0.00     0.006 C 
BRANCH  10  11
ATOM     11  C   UNL     1     -19.533  30.690 -41.161  1.00  0.00     0.053 C 
BRANCH  11  12
ATOM     12  C   UNL     1     -19.260  32.120 -40.812  1.00  0.00     0.041 C 
ATOM     13  O   UNL     1     -18.088  32.578 -40.886  1.00  0.00    -0.550 OA
ATOM     14  O   UNL     1     -20.292  32.940 -40.375  1.00  0.00    -0.550 OA
ENDBRANCH  11  12
ENDBRANCH  10  11
ENDBRANCH   9  10
ENDBRANCH   8   9
ENDBRANCH   1   8
TORSDOF 9
ENDMDL
MODEL 7
REMARK VINA RESULT:    -3.405      1.513      2.226
REMARK INTER + INTRA:          -6.005
REMARK INTER:                  -5.321
REMARK INTRA:                  -0.684
REMARK UNBOUND:                -0.809
REMARK SMILES O=C([O-])CCCCCCCCC(=O)[O-]
REMARK SMILES IDX 7 1 6 2 5 3 4 4 2 5 1 6 3 7 8 8 9 9 10 10 11 11 12 12 13 13
REMARK SMILES IDX 14 14
REMARK H PARENT
REMARK Flexibility Score: inf
ROOT
ATOM      1  C   UNL     1     -17.651  31.825 -41.842  1.00  0.00     0.000 C 
ENDROOT
BRANCH   1   2
ATOM      2  C   UNL     1     -18.181  31.824 -40.400  1.00  0.00     0.000 C 
BRANCH   2   3
ATOM      3  C   UNL     1     -18.699  33.203 -39.953  1.00  0.00     0.006 C 
BRANCH   3   4
ATOM      4  C   UNL     1     -20.229  33.293 -39.824  1.00  0.00     0.053 C 
BRANCH   4   5
ATOM      5  C   UNL     1     -20.663  33.485 -38.404  1.00  0.00     0.041 C 
ATOM      6  O   UNL     1     -20.255  32.703 -37.506  1.00  0.00    -0.550 OA
ATOM      7  O   UNL     1     -21.491  34.549 -38.068  1.00  0.00    -0.550 OA
ENDBRANCH   4   5
ENDBRANCH   3   4
ENDBRANCH   2   3
ENDBRANCH   1   2
BRANCH   1   8
ATOM      8  C   UNL     1     -18.776  31.512 -42.840  1.00  0.00     0.000 C 
BRANCH   8   9
ATOM      9  C   UNL     1     -19.794  30.493 -42.298  1.00  0.00     0.000 C 
BRANCH   9  10
ATOM     10  C   UNL     1     -21.265  30.782 -42.660  1.00  0.00     0.006 C 
BRANCH  10  11
ATOM     11  C   UNL     1     -22.290  29.948 -41.877  1.00  0.00     0.053 C 
BRANCH  11  12
ATOM     12  C   UNL     1     -23.579  30.685 -41.681  1.00  0.00     0.041 C 
ATOM     13  O   UNL     1     -23.581  31.940 -41.577  1.00  0.00    -0.550 OA
ATOM     14  O   UNL     1     -24.774  29.984 -41.583  1.00  0.00    -0.550 OA
ENDBRANCH  11  12
ENDBRANCH  10  11
ENDBRANCH   9  10
ENDBRANCH   8   9
ENDBRANCH   1   8
TORSDOF 9
ENDMDL
MODEL 8
REMARK VINA RESULT:    -3.385      2.412      5.110
REMARK INTER + INTRA:          -5.975
REMARK INTER:                  -5.101
REMARK INTRA:                  -0.875
REMARK UNBOUND:                -0.809
REMARK SMILES O=C([O-])CCCCCCCCC(=O)[O-]
REMARK SMILES IDX 7 1 6 2 5 3 4 4 2 5 1 6 3 7 8 8 9 9 10 10 11 11 12 12 13 13
REMARK SMILES IDX 14 14
REMARK H PARENT
REMARK Flexibility Score: inf
ROOT
ATOM      1  C   UNL     1     -24.146  33.284 -37.954  1.00  0.00     0.000 C 
ENDROOT
BRANCH   1   2
ATOM      2  C   UNL     1     -23.931  31.850 -38.459  1.00  0.00     0.000 C 
BRANCH   2   3
ATOM      3  C   UNL     1     -24.377  31.657 -39.920  1.00  0.00     0.006 C 
BRANCH   3   4
ATOM      4  C   UNL     1     -23.290  31.972 -40.961  1.00  0.00     0.053 C 
BRANCH   4   5
ATOM      5  C   UNL     1     -23.071  30.833 -41.908  1.00  0.00     0.041 C 
ATOM      6  O   UNL     1     -22.081  30.837 -42.685  1.00  0.00    -0.550 OA
ATOM      7  O   UNL     1     -23.943  29.751 -41.906  1.00  0.00    -0.550 OA
ENDBRANCH   4   5
ENDBRANCH   3   4
ENDBRANCH   2   3
ENDBRANCH   1   2
BRANCH   1   8
ATOM      8  C   UNL     1     -22.912  33.787 -37.190  1.00  0.00     0.000 C 
BRANCH   8   9
ATOM      9  C   UNL     1     -21.791  34.285 -38.120  1.00  0.00     0.000 C 
BRANCH   9  10
ATOM     10  C   UNL     1     -20.596  33.322 -38.276  1.00  0.00     0.006 C 
BRANCH  10  11
ATOM     11  C   UNL     1     -19.825  33.472 -39.596  1.00  0.00     0.053 C 
BRANCH  11  12
ATOM     12  C   UNL     1     -19.710  32.171 -40.328  1.00  0.00     0.041 C 
ATOM     13  O   UNL     1     -20.042  31.095 -39.764  1.00  0.00    -0.550 OA
ATOM     14  O   UNL     1     -19.205  32.142 -41.622  1.00  0.00    -0.550 OA
ENDBRANCH  11  12
ENDBRANCH  10  11
ENDBRANCH   9  10
ENDBRANCH   8   9
ENDBRANCH   1   8
TORSDOF 9
ENDMDL
MODEL 9
REMARK VINA RESULT:    -3.357      1.967      3.746
REMARK INTER + INTRA:          -5.932
REMARK INTER:                  -5.234
REMARK INTRA:                  -0.697
REMARK UNBOUND:                -0.809
REMARK SMILES O=C([O-])CCCCCCCCC(=O)[O-]
REMARK SMILES IDX 7 1 6 2 5 3 4 4 2 5 1 6 3 7 8 8 9 9 10 10 11 11 12 12 13 13
REMARK SMILES IDX 14 14
REMARK H PARENT
REMARK Flexibility Score: inf
ROOT
ATOM      1  C   UNL     1     -21.699  34.271 -38.049  1.00  0.00     0.000 C 
ENDROOT
BRANCH   1   2
ATOM      2  C   UNL     1     -23.212  34.019 -38.130  1.00  0.00     0.000 C 
BRANCH   2   3
ATOM      3  C   UNL     1     -23.572  32.522 -38.100  1.00  0.00     0.006 C 
BRANCH   3   4
ATOM      4  C   UNL     1     -24.384  32.043 -39.314  1.00  0.00     0.053 C 
BRANCH   4   5
ATOM      5  C   UNL     1     -23.512  31.437 -40.370  1.00  0.00     0.041 C 
ATOM      6  O   UNL     1     -22.576  30.659 -40.049  1.00  0.00    -0.550 OA
ATOM      7  O   UNL     1     -23.756  31.705 -41.711  1.00  0.00    -0.550 OA
ENDBRANCH   4   5
ENDBRANCH   3   4
ENDBRANCH   2   3
ENDBRANCH   1   2
BRANCH   1   8
ATOM      8  C   UNL     1     -21.004  33.864 -39.357  1.00  0.00     0.000 C 
BRANCH   8   9
ATOM      9  C   UNL     1     -19.891  32.821 -39.147  1.00  0.00     0.000 C 
BRANCH   9  10
ATOM     10  C   UNL     1     -18.922  32.652 -40.334  1.00  0.00     0.006 C 
BRANCH  10  11
ATOM     11  C   UNL     1     -18.963  31.267 -40.998  1.00  0.00     0.053 C 
BRANCH  11  12
ATOM     12  C   UNL     1     -19.476  31.335 -42.403  1.00  0.00     0.041 C 
ATOM     13  O   UNL     1     -20.580  30.808 -42.701  1.00  0.00    -0.550 OA
ATOM     14  O   UNL     1     -18.721  31.955 -43.390  1.00  0.00    -0.550 OA
ENDBRANCH  11  12
ENDBRANCH  10  11
ENDBRANCH   9  10
ENDBRANCH   8   9
ENDBRANCH   1   8
TORSDOF 9
ENDMDL
