MODEL 1
REMARK VINA RESULT:    -2.840      0.000      0.000
REMARK INTER + INTRA:          -4.292
REMARK INTER:                  -3.754
REMARK INTRA:                  -0.538
REMARK UNBOUND:                -0.538
REMARK SMILES C=C[C@H](O)CCCCC
REMARK SMILES IDX 6 1 7 2 8 3 9 4 5 5 3 6 2 7 1 8 4 9
REMARK H PARENT 4 10
REMARK Flexibility Score: inf
ROOT
ATOM      1  C   UNL     1      -3.448  -3.643   6.019  1.00  0.00     0.003 C 
ENDROOT
BRANCH   1   2
ATOM      2  C   UNL     1      -2.525  -4.412   6.976  1.00  0.00    -0.000 C 
BRANCH   2   3
ATOM      3  C   UNL     1      -1.200  -4.824   6.316  1.00  0.00    -0.003 C 
ATOM      4  C   UNL     1      -1.120  -6.324   6.035  1.00  0.00     0.004 C 
ENDBRANCH   2   3
ENDBRANCH   1   2
BRANCH   1   5
ATOM      5  C   UNL     1      -4.623  -4.521   5.564  1.00  0.00     0.036 C 
BRANCH   5   6
ATOM      6  C   UNL     1      -4.787  -4.514   4.034  1.00  0.00     0.136 C 
BRANCH   6   7
ATOM      7  C   UNL     1      -3.679  -5.302   3.383  1.00  0.00    -0.004 C 
ATOM      8  C   UNL     1      -3.690  -6.638   3.381  1.00  0.00     0.007 C 
ENDBRANCH   6   7
BRANCH   6   9
ATOM      9  O   UNL     1      -4.749  -3.196   3.551  1.00  0.00    -0.389 OA
ATOM     10  H   UNL     1      -5.227  -3.189   2.681  1.00  0.00     0.211 HD
ENDBRANCH   6   9
ENDBRANCH   5   6
ENDBRANCH   1   5
TORSDOF 6
ENDMDL
MODEL 2
REMARK VINA RESULT:    -2.775     12.821     13.873
REMARK INTER + INTRA:          -4.205
REMARK INTER:                  -4.011
REMARK INTRA:                  -0.195
REMARK UNBOUND:                -0.538
REMARK SMILES C=C[C@H](O)CCCCC
REMARK SMILES IDX 6 1 7 2 8 3 9 4 5 5 3 6 2 7 1 8 4 9
REMARK H PARENT 4 10
REMARK Flexibility Score: inf
ROOT
ATOM      1  C   UNL     1      -1.573   7.539  -0.648  1.00  0.00     0.003 C 
ENDROOT
BRANCH   1   2
ATOM      2  C   UNL     1      -2.495   6.482  -1.274  1.00  0.00    -0.000 C 
BRANCH   2   3
ATOM      3  C   UNL     1      -1.721   5.428  -2.081  1.00  0.00    -0.003 C 
ATOM      4  C   UNL     1      -1.574   4.102  -1.336  1.00  0.00     0.004 C 
ENDBRANCH   2   3
ENDBRANCH   1   2
BRANCH   1   5
ATOM      5  C   UNL     1      -1.089   7.095   0.740  1.00  0.00     0.036 C 
BRANCH   5   6
ATOM      6  C   UNL     1      -0.671   8.290   1.614  1.00  0.00     0.136 C 
BRANCH   6   7
ATOM      7  C   UNL     1       0.222   9.223   0.836  1.00  0.00    -0.004 C 
ATOM      8  C   UNL     1       1.309   9.763   1.394  1.00  0.00     0.007 C 
ENDBRANCH   6   7
BRANCH   6   9
ATOM      9  O   UNL     1       0.024   7.838   2.747  1.00  0.00    -0.389 OA
ATOM     10  H   UNL     1      -0.586   7.231   3.242  1.00  0.00     0.211 HD
ENDBRANCH   6   9
ENDBRANCH   5   6
ENDBRANCH   1   5
TORSDOF 6
ENDMDL
MODEL 3
REMARK VINA RESULT:    -2.703     14.087     14.921
REMARK INTER + INTRA:          -4.110
REMARK INTER:                  -3.566
REMARK INTRA:                  -0.544
REMARK UNBOUND:                -0.538
REMARK SMILES C=C[C@H](O)CCCCC
REMARK SMILES IDX 6 1 7 2 8 3 9 4 5 5 3 6 2 7 1 8 4 9
REMARK H PARENT 4 10
REMARK Flexibility Score: inf
ROOT
ATOM      1  C   UNL     1       5.721   3.523  -1.206  1.00  0.00     0.003 C 
ENDROOT
BRANCH   1   2
ATOM      2  C   UNL     1       6.008   3.351   0.293  1.00  0.00    -0.000 C 
BRANCH   2   3
ATOM      3  C   UNL     1       6.653   1.995   0.620  1.00  0.00    -0.003 C 
ATOM      4  C   UNL     1       7.600   2.064   1.817  1.00  0.00     0.004 C 
ENDBRANCH   2   3
ENDBRANCH   1   2
BRANCH   1   5
ATOM      5  C   UNL     1       6.793   2.824  -2.054  1.00  0.00     0.036 C 
BRANCH   5   6
ATOM      6  C   UNL     1       7.587   3.822  -2.915  1.00  0.00     0.136 C 
BRANCH   6   7
ATOM      7  C   UNL     1       8.911   4.137  -2.268  1.00  0.00    -0.004 C 
ATOM      8  C   UNL     1       9.476   3.292  -1.401  1.00  0.00     0.007 C 
ENDBRANCH   6   7
BRANCH   6   9
ATOM      9  O   UNL     1       6.860   5.015  -3.063  1.00  0.00    -0.389 OA
ATOM     10  H   UNL     1       7.105   5.400  -3.944  1.00  0.00     0.211 HD
ENDBRANCH   6   9
ENDBRANCH   5   6
ENDBRANCH   1   5
TORSDOF 6
ENDMDL
MODEL 4
REMARK VINA RESULT:    -2.694     11.444     12.342
REMARK INTER + INTRA:          -4.098
REMARK INTER:                  -3.546
REMARK INTRA:                  -0.552
REMARK UNBOUND:                -0.538
REMARK SMILES C=C[C@H](O)CCCCC
REMARK SMILES IDX 6 1 7 2 8 3 9 4 5 5 3 6 2 7 1 8 4 9
REMARK H PARENT 4 10
REMARK Flexibility Score: inf
ROOT
ATOM      1  C   UNL     1      -1.419   4.279  -1.397  1.00  0.00     0.003 C 
ENDROOT
BRANCH   1   2
ATOM      2  C   UNL     1      -1.555   5.633  -0.686  1.00  0.00    -0.000 C 
BRANCH   2   3
ATOM      3  C   UNL     1      -2.271   6.684  -1.549  1.00  0.00    -0.003 C 
ATOM      4  C   UNL     1      -3.772   6.753  -1.272  1.00  0.00     0.004 C 
ENDBRANCH   2   3
ENDBRANCH   1   2
BRANCH   1   5
ATOM      5  C   UNL     1      -1.269   4.467  -2.914  1.00  0.00     0.036 C 
BRANCH   5   6
ATOM      6  C   UNL     1      -2.108   3.449  -3.706  1.00  0.00     0.136 C 
BRANCH   6   7
ATOM      7  C   UNL     1      -3.498   3.984  -3.941  1.00  0.00    -0.004 C 
ATOM      8  C   UNL     1      -4.530   3.576  -3.198  1.00  0.00     0.007 C 
ENDBRANCH   6   7
BRANCH   6   9
ATOM      9  O   UNL     1      -2.202   2.243  -2.992  1.00  0.00    -0.389 OA
ATOM     10  H   UNL     1      -2.369   1.523  -3.655  1.00  0.00     0.211 HD
ENDBRANCH   6   9
ENDBRANCH   5   6
ENDBRANCH   1   5
TORSDOF 6
ENDMDL
MODEL 5
REMARK VINA RESULT:    -2.692     12.999     13.979
REMARK INTER + INTRA:          -4.096
REMARK INTER:                  -3.436
REMARK INTRA:                  -0.660
REMARK UNBOUND:                -0.538
REMARK SMILES C=C[C@H](O)CCCCC
REMARK SMILES IDX 6 1 7 2 8 3 9 4 5 5 3 6 2 7 1 8 4 9
REMARK H PARENT 4 10
REMARK Flexibility Score: inf
ROOT
ATOM      1  C   UNL     1       5.271   2.807  -0.513  1.00  0.00     0.003 C 
ENDROOT
BRANCH   1   2
ATOM      2  C   UNL     1       5.464   3.593  -1.819  1.00  0.00    -0.000 C 
BRANCH   2   3
ATOM      3  C   UNL     1       5.950   2.706  -2.975  1.00  0.00    -0.003 C 
ATOM      4  C   UNL     1       5.737   1.217  -2.708  1.00  0.00     0.004 C 
ENDBRANCH   2   3
ENDBRANCH   1   2
BRANCH   1   5
ATOM      5  C   UNL     1       6.389   3.126   0.491  1.00  0.00     0.036 C 
BRANCH   5   6
ATOM      6  C   UNL     1       7.210   1.877   0.853  1.00  0.00     0.136 C 
BRANCH   6   7
ATOM      7  C   UNL     1       8.365   1.711  -0.101  1.00  0.00    -0.004 C 
ATOM      8  C   UNL     1       8.948   2.770  -0.671  1.00  0.00     0.007 C 
ENDBRANCH   6   7
BRANCH   6   9
ATOM      9  O   UNL     1       6.400   0.731   0.786  1.00  0.00    -0.389 OA
ATOM     10  H   UNL     1       6.505   0.351  -0.125  1.00  0.00     0.211 HD
ENDBRANCH   6   9
ENDBRANCH   5   6
ENDBRANCH   1   5
TORSDOF 6
ENDMDL
MODEL 6
REMARK VINA RESULT:    -2.690     11.737     12.515
REMARK INTER + INTRA:          -4.093
REMARK INTER:                  -3.933
REMARK INTRA:                  -0.160
REMARK UNBOUND:                -0.538
REMARK SMILES C=C[C@H](O)CCCCC
REMARK SMILES IDX 6 1 7 2 8 3 9 4 5 5 3 6 2 7 1 8 4 9
REMARK H PARENT 4 10
REMARK Flexibility Score: inf
ROOT
ATOM      1  C   UNL     1      -1.888   6.045  -1.114  1.00  0.00     0.003 C 
ENDROOT
BRANCH   1   2
ATOM      2  C   UNL     1      -1.195   6.680   0.100  1.00  0.00    -0.000 C 
BRANCH   2   3
ATOM      3  C   UNL     1      -0.930   8.182  -0.089  1.00  0.00    -0.003 C 
ATOM      4  C   UNL     1      -0.174   8.801   1.085  1.00  0.00     0.004 C 
ENDBRANCH   2   3
ENDBRANCH   1   2
BRANCH   1   5
ATOM      5  C   UNL     1      -1.602   4.538  -1.185  1.00  0.00     0.036 C 
BRANCH   5   6
ATOM      6  C   UNL     1      -1.850   3.970  -2.592  1.00  0.00     0.136 C 
BRANCH   6   7
ATOM      7  C   UNL     1      -3.177   4.448  -3.126  1.00  0.00    -0.004 C 
ATOM      8  C   UNL     1      -4.315   3.824  -2.809  1.00  0.00     0.007 C 
ENDBRANCH   6   7
BRANCH   6   9
ATOM      9  O   UNL     1      -1.859   2.566  -2.551  1.00  0.00    -0.389 OA
ATOM     10  H   UNL     1      -2.787   2.273  -2.744  1.00  0.00     0.211 HD
ENDBRANCH   6   9
ENDBRANCH   5   6
ENDBRANCH   1   5
TORSDOF 6
ENDMDL
MODEL 7
REMARK VINA RESULT:    -2.640     13.976     14.555
REMARK INTER + INTRA:          -4.027
REMARK INTER:                  -3.717
REMARK INTRA:                  -0.310
REMARK UNBOUND:                -0.538
REMARK SMILES C=C[C@H](O)CCCCC
REMARK SMILES IDX 6 1 7 2 8 3 9 4 5 5 3 6 2 7 1 8 4 9
REMARK H PARENT 4 10
REMARK Flexibility Score: inf
ROOT
ATOM      1  C   UNL     1       5.910   2.649  -2.034  1.00  0.00     0.003 C 
ENDROOT
BRANCH   1   2
ATOM      2  C   UNL     1       5.289   2.873  -0.647  1.00  0.00    -0.000 C 
BRANCH   2   3
ATOM      3  C   UNL     1       6.323   3.318   0.398  1.00  0.00    -0.003 C 
ATOM      4  C   UNL     1       7.215   2.172   0.874  1.00  0.00     0.004 C 
ENDBRANCH   2   3
ENDBRANCH   1   2
BRANCH   1   5
ATOM      5  C   UNL     1       6.501   3.953  -2.589  1.00  0.00     0.036 C 
BRANCH   5   6
ATOM      6  C   UNL     1       5.407   4.940  -3.029  1.00  0.00     0.136 C 
BRANCH   6   7
ATOM      7  C   UNL     1       4.763   4.473  -4.310  1.00  0.00    -0.004 C 
ATOM      8  C   UNL     1       3.434   4.470  -4.454  1.00  0.00     0.007 C 
ENDBRANCH   6   7
BRANCH   6   9
ATOM      9  O   UNL     1       5.962   6.212  -3.240  1.00  0.00    -0.389 OA
ATOM     10  H   UNL     1       6.059   6.640  -2.350  1.00  0.00     0.211 HD
ENDBRANCH   6   9
ENDBRANCH   5   6
ENDBRANCH   1   5
TORSDOF 6
ENDMDL
MODEL 8
REMARK VINA RESULT:    -2.628     13.790     14.677
REMARK INTER + INTRA:          -4.011
REMARK INTER:                  -3.650
REMARK INTRA:                  -0.361
REMARK UNBOUND:                -0.538
REMARK SMILES C=C[C@H](O)CCCCC
REMARK SMILES IDX 6 1 7 2 8 3 9 4 5 5 3 6 2 7 1 8 4 9
REMARK H PARENT 4 10
REMARK Flexibility Score: inf
ROOT
ATOM      1  C   UNL     1       7.295   2.833  -2.375  1.00  0.00     0.003 C 
ENDROOT
BRANCH   1   2
ATOM      2  C   UNL     1       6.995   4.055  -3.257  1.00  0.00    -0.000 C 
BRANCH   2   3
ATOM      3  C   UNL     1       5.543   4.540  -3.119  1.00  0.00    -0.003 C 
ATOM      4  C   UNL     1       5.361   5.991  -3.561  1.00  0.00     0.004 C 
ENDBRANCH   2   3
ENDBRANCH   1   2
BRANCH   1   5
ATOM      5  C   UNL     1       7.690   3.264  -0.955  1.00  0.00     0.036 C 
BRANCH   5   6
ATOM      6  C   UNL     1       6.599   2.925   0.074  1.00  0.00     0.136 C 
BRANCH   6   7
ATOM      7  C   UNL     1       5.635   1.916  -0.496  1.00  0.00    -0.004 C 
ATOM      8  C   UNL     1       5.579   0.668  -0.021  1.00  0.00     0.007 C 
ENDBRANCH   6   7
BRANCH   6   9
ATOM      9  O   UNL     1       5.887   4.085   0.421  1.00  0.00    -0.389 OA
ATOM     10  H   UNL     1       5.947   4.707  -0.350  1.00  0.00     0.211 HD
ENDBRANCH   6   9
ENDBRANCH   5   6
ENDBRANCH   1   5
TORSDOF 6
ENDMDL
MODEL 9
REMARK VINA RESULT:    -2.594     10.393     11.071
REMARK INTER + INTRA:          -3.966
REMARK INTER:                  -3.644
REMARK INTRA:                  -0.321
REMARK UNBOUND:                -0.538
REMARK SMILES C=C[C@H](O)CCCCC
REMARK SMILES IDX 6 1 7 2 8 3 9 4 5 5 3 6 2 7 1 8 4 9
REMARK H PARENT 4 10
REMARK Flexibility Score: inf
ROOT
ATOM      1  C   UNL     1      -2.161  -5.406  -6.626  1.00  0.00     0.003 C 
ENDROOT
BRANCH   1   2
ATOM      2  C   UNL     1      -1.868  -6.048  -5.262  1.00  0.00    -0.000 C 
BRANCH   2   3
ATOM      3  C   UNL     1      -0.489  -6.724  -5.211  1.00  0.00    -0.003 C 
ATOM      4  C   UNL     1       0.639  -5.743  -4.894  1.00  0.00     0.004 C 
ENDBRANCH   2   3
ENDBRANCH   1   2
BRANCH   1   5
ATOM      5  C   UNL     1      -2.197  -3.875  -6.517  1.00  0.00     0.036 C 
BRANCH   5   6
ATOM      6  C   UNL     1      -2.932  -3.405  -5.250  1.00  0.00     0.136 C 
BRANCH   6   7
ATOM      7  C   UNL     1      -4.210  -2.694  -5.617  1.00  0.00    -0.004 C 
ATOM      8  C   UNL     1      -4.649  -2.668  -6.878  1.00  0.00     0.007 C 
ENDBRANCH   6   7
BRANCH   6   9
ATOM      9  O   UNL     1      -2.118  -2.525  -4.519  1.00  0.00    -0.389 OA
ATOM     10  H   UNL     1      -2.481  -2.488  -3.596  1.00  0.00     0.211 HD
ENDBRANCH   6   9
ENDBRANCH   5   6
ENDBRANCH   1   5
TORSDOF 6
ENDMDL
