MODEL 1
REMARK VINA RESULT:    -4.322      0.000      0.000
REMARK INTER + INTRA:         -10.020
REMARK INTER:                  -8.365
REMARK INTRA:                  -1.655
REMARK UNBOUND:                -1.655
REMARK SMILES CCCCCCCCCCCCCCCCCC(=O)[O-]
REMARK SMILES IDX 10 1 11 2 12 3 13 4 14 5 15 6 16 7 17 8 18 9 19 10 20 11
REMARK SMILES IDX 9 12 8 13 7 14 6 15 5 16 4 17 3 18 2 19 1 20
REMARK H PARENT
REMARK Flexibility Score: inf
ROOT
ATOM      1  C   UNL     1      16.781 -11.001  13.172  1.00  0.00     0.000 C 
ENDROOT
BRANCH   1   2
ATOM      2  C   UNL     1      15.515 -11.413  12.400  1.00  0.00     0.000 C 
BRANCH   2   3
ATOM      3  C   UNL     1      14.699 -10.209  11.899  1.00  0.00     0.000 C 
BRANCH   3   4
ATOM      4  C   UNL     1      13.439  -9.881  12.721  1.00  0.00     0.000 C 
BRANCH   4   5
ATOM      5  C   UNL     1      13.169  -8.370  12.828  1.00  0.00     0.000 C 
BRANCH   5   6
ATOM      6  C   UNL     1      14.311  -7.525  12.239  1.00  0.00     0.000 C 
BRANCH   6   7
ATOM      7  C   UNL     1      14.269  -6.062  12.717  1.00  0.00     0.006 C 
BRANCH   7   8
ATOM      8  C   UNL     1      13.860  -5.946  14.191  1.00  0.00     0.053 C 
BRANCH   8   9
ATOM      9  C   UNL     1      13.188  -4.638  14.483  1.00  0.00     0.041 C 
ATOM     10  O   UNL     1      13.204  -4.164  15.649  1.00  0.00    -0.550 OA
ATOM     11  O   UNL     1      12.569  -3.930  13.460  1.00  0.00    -0.550 OA
ENDBRANCH   8   9
ENDBRANCH   7   8
ENDBRANCH   6   7
ENDBRANCH   5   6
ENDBRANCH   4   5
ENDBRANCH   3   4
ENDBRANCH   2   3
ENDBRANCH   1   2
BRANCH   1  12
ATOM     12  C   UNL     1      17.443  -9.741  12.590  1.00  0.00     0.000 C 
BRANCH  12  13
ATOM     13  C   UNL     1      18.560  -9.191  13.488  1.00  0.00    -0.000 C 
BRANCH  13  14
ATOM     14  C   UNL     1      17.976  -8.416  14.680  1.00  0.00    -0.000 C 
BRANCH  14  15
ATOM     15  C   UNL     1      17.193  -7.169  14.241  1.00  0.00    -0.000 C 
BRANCH  15  16
ATOM     16  C   UNL     1      17.357  -5.993  15.222  1.00  0.00    -0.000 C 
BRANCH  16  17
ATOM     17  C   UNL     1      17.163  -6.426  16.689  1.00  0.00    -0.000 C 
BRANCH  17  18
ATOM     18  C   UNL     1      16.165  -5.553  17.476  1.00  0.00    -0.000 C 
BRANCH  18  19
ATOM     19  C   UNL     1      16.723  -5.002  18.804  1.00  0.00    -0.003 C 
ATOM     20  C   UNL     1      15.851  -3.893  19.393  1.00  0.00     0.004 C 
ENDBRANCH  18  19
ENDBRANCH  17  18
ENDBRANCH  16  17
ENDBRANCH  15  16
ENDBRANCH  14  15
ENDBRANCH  13  14
ENDBRANCH  12  13
ENDBRANCH   1  12
TORSDOF 16
ENDMDL
MODEL 2
REMARK VINA RESULT:    -3.945      2.935      4.847
REMARK INTER + INTRA:          -9.290
REMARK INTER:                  -7.572
REMARK INTRA:                  -1.719
REMARK UNBOUND:                -1.655
REMARK SMILES CCCCCCCCCCCCCCCCCC(=O)[O-]
REMARK SMILES IDX 10 1 11 2 12 3 13 4 14 5 15 6 16 7 17 8 18 9 19 10 20 11
REMARK SMILES IDX 9 12 8 13 7 14 6 15 5 16 4 17 3 18 2 19 1 20
REMARK H PARENT
REMARK Flexibility Score: inf
ROOT
ATOM      1  C   UNL     1      17.481  -7.929  14.035  1.00  0.00     0.000 C 
ENDROOT
BRANCH   1   2
ATOM      2  C   UNL     1      18.208  -9.250  13.727  1.00  0.00     0.000 C 
BRANCH   2   3
ATOM      3  C   UNL     1      17.502 -10.084  12.643  1.00  0.00     0.000 C 
BRANCH   3   4
ATOM      4  C   UNL     1      16.244  -9.438  12.033  1.00  0.00     0.000 C 
BRANCH   4   5
ATOM      5  C   UNL     1      15.046 -10.402  11.968  1.00  0.00     0.000 C 
BRANCH   5   6
ATOM      6  C   UNL     1      15.410 -11.825  12.424  1.00  0.00     0.000 C 
BRANCH   6   7
ATOM      7  C   UNL     1      14.380 -12.873  11.965  1.00  0.00     0.006 C 
BRANCH   7   8
ATOM      8  C   UNL     1      13.260 -13.072  12.995  1.00  0.00     0.053 C 
BRANCH   8   9
ATOM      9  C   UNL     1      12.065 -12.221  12.691  1.00  0.00     0.041 C 
ATOM     10  O   UNL     1      11.158 -12.650  11.932  1.00  0.00    -0.550 OA
ATOM     11  O   UNL     1      11.939 -10.964  13.271  1.00  0.00    -0.550 OA
ENDBRANCH   8   9
ENDBRANCH   7   8
ENDBRANCH   6   7
ENDBRANCH   5   6
ENDBRANCH   4   5
ENDBRANCH   3   4
ENDBRANCH   2   3
ENDBRANCH   1   2
BRANCH   1  12
ATOM     12  C   UNL     1      18.154  -6.717  13.373  1.00  0.00     0.000 C 
BRANCH  12  13
ATOM     13  C   UNL     1      17.399  -6.228  12.128  1.00  0.00    -0.000 C 
BRANCH  13  14
ATOM     14  C   UNL     1      16.222  -5.321  12.521  1.00  0.00    -0.000 C 
BRANCH  14  15
ATOM     15  C   UNL     1      14.864  -6.025  12.372  1.00  0.00    -0.000 C 
BRANCH  15  16
ATOM     16  C   UNL     1      14.186  -6.292  13.729  1.00  0.00    -0.000 C 
BRANCH  16  17
ATOM     17  C   UNL     1      14.025  -5.007  14.565  1.00  0.00    -0.000 C 
BRANCH  17  18
ATOM     18  C   UNL     1      14.448  -5.159  16.040  1.00  0.00    -0.000 C 
BRANCH  18  19
ATOM     19  C   UNL     1      15.870  -5.721  16.233  1.00  0.00    -0.003 C 
ATOM     20  C   UNL     1      16.191  -6.018  17.698  1.00  0.00     0.004 C 
ENDBRANCH  18  19
ENDBRANCH  17  18
ENDBRANCH  16  17
ENDBRANCH  15  16
ENDBRANCH  14  15
ENDBRANCH  13  14
ENDBRANCH  12  13
ENDBRANCH   1  12
TORSDOF 16
ENDMDL
MODEL 3
REMARK VINA RESULT:    -3.925      3.147      5.935
REMARK INTER + INTRA:          -9.251
REMARK INTER:                  -7.658
REMARK INTRA:                  -1.593
REMARK UNBOUND:                -1.655
REMARK SMILES CCCCCCCCCCCCCCCCCC(=O)[O-]
REMARK SMILES IDX 10 1 11 2 12 3 13 4 14 5 15 6 16 7 17 8 18 9 19 10 20 11
REMARK SMILES IDX 9 12 8 13 7 14 6 15 5 16 4 17 3 18 2 19 1 20
REMARK H PARENT
REMARK Flexibility Score: inf
ROOT
ATOM      1  C   UNL     1      13.600  -4.650  15.263  1.00  0.00     0.000 C 
ENDROOT
BRANCH   1   2
ATOM      2  C   UNL     1      13.504  -4.404  13.747  1.00  0.00     0.000 C 
BRANCH   2   3
ATOM      3  C   UNL     1      14.660  -5.046  12.960  1.00  0.00     0.000 C 
BRANCH   3   4
ATOM      4  C   UNL     1      14.271  -6.256  12.090  1.00  0.00     0.000 C 
BRANCH   4   5
ATOM      5  C   UNL     1      13.997  -7.525  12.917  1.00  0.00     0.000 C 
BRANCH   5   6
ATOM      6  C   UNL     1      14.171  -8.812  12.095  1.00  0.00     0.000 C 
BRANCH   6   7
ATOM      7  C   UNL     1      13.475 -10.024  12.742  1.00  0.00     0.006 C 
BRANCH   7   8
ATOM      8  C   UNL     1      14.031 -11.356  12.221  1.00  0.00     0.053 C 
BRANCH   8   9
ATOM      9  C   UNL     1      13.199 -12.520  12.665  1.00  0.00     0.041 C 
ATOM     10  O   UNL     1      11.943 -12.446  12.645  1.00  0.00    -0.550 OA
ATOM     11  O   UNL     1      13.812 -13.699  13.075  1.00  0.00    -0.550 OA
ENDBRANCH   8   9
ENDBRANCH   7   8
ENDBRANCH   6   7
ENDBRANCH   5   6
ENDBRANCH   4   5
ENDBRANCH   3   4
ENDBRANCH   2   3
ENDBRANCH   1   2
BRANCH   1  12
ATOM     12  C   UNL     1      14.568  -5.791  15.615  1.00  0.00     0.000 C 
BRANCH  12  13
ATOM     13  C   UNL     1      15.579  -5.395  16.702  1.00  0.00    -0.000 C 
BRANCH  13  14
ATOM     14  C   UNL     1      16.909  -6.140  16.513  1.00  0.00    -0.000 C 
BRANCH  14  15
ATOM     15  C   UNL     1      17.074  -6.696  15.089  1.00  0.00    -0.000 C 
BRANCH  15  16
ATOM     16  C   UNL     1      17.874  -5.750  14.175  1.00  0.00    -0.000 C 
BRANCH  16  17
ATOM     17  C   UNL     1      18.385  -6.458  12.905  1.00  0.00    -0.000 C 
BRANCH  17  18
ATOM     18  C   UNL     1      17.661  -7.781  12.587  1.00  0.00    -0.000 C 
BRANCH  18  19
ATOM     19  C   UNL     1      18.226  -9.004  13.336  1.00  0.00    -0.003 C 
ATOM     20  C   UNL     1      17.483 -10.296  12.997  1.00  0.00     0.004 C 
ENDBRANCH  18  19
ENDBRANCH  17  18
ENDBRANCH  16  17
ENDBRANCH  15  16
ENDBRANCH  14  15
ENDBRANCH  13  14
ENDBRANCH  12  13
ENDBRANCH   1  12
TORSDOF 16
ENDMDL
MODEL 4
REMARK VINA RESULT:    -3.895      2.276      6.054
REMARK INTER + INTRA:          -9.193
REMARK INTER:                  -8.048
REMARK INTRA:                  -1.146
REMARK UNBOUND:                -1.655
REMARK SMILES CCCCCCCCCCCCCCCCCC(=O)[O-]
REMARK SMILES IDX 10 1 11 2 12 3 13 4 14 5 15 6 16 7 17 8 18 9 19 10 20 11
REMARK SMILES IDX 9 12 8 13 7 14 6 15 5 16 4 17 3 18 2 19 1 20
REMARK H PARENT
REMARK Flexibility Score: inf
ROOT
ATOM      1  C   UNL     1      16.427  -6.896  13.274  1.00  0.00     0.000 C 
ENDROOT
BRANCH   1   2
ATOM      2  C   UNL     1      16.394  -5.488  12.655  1.00  0.00     0.000 C 
BRANCH   2   3
ATOM      3  C   UNL     1      14.971  -4.912  12.551  1.00  0.00     0.000 C 
BRANCH   3   4
ATOM      4  C   UNL     1      13.893  -5.676  13.341  1.00  0.00     0.000 C 
BRANCH   4   5
ATOM      5  C   UNL     1      12.977  -4.748  14.158  1.00  0.00     0.000 C 
BRANCH   5   6
ATOM      6  C   UNL     1      13.547  -4.434  15.550  1.00  0.00     0.000 C 
BRANCH   6   7
ATOM      7  C   UNL     1      14.674  -5.400  15.959  1.00  0.00     0.006 C 
BRANCH   7   8
ATOM      8  C   UNL     1      15.177  -5.132  17.383  1.00  0.00     0.053 C 
BRANCH   8   9
ATOM      9  C   UNL     1      16.551  -5.690  17.604  1.00  0.00     0.041 C 
ATOM     10  O   UNL     1      17.062  -6.468  16.757  1.00  0.00    -0.550 OA
ATOM     11  O   UNL     1      17.277  -5.327  18.732  1.00  0.00    -0.550 OA
ENDBRANCH   8   9
ENDBRANCH   7   8
ENDBRANCH   6   7
ENDBRANCH   5   6
ENDBRANCH   4   5
ENDBRANCH   3   4
ENDBRANCH   2   3
ENDBRANCH   1   2
BRANCH   1  12
ATOM     12  C   UNL     1      17.858  -7.426  13.460  1.00  0.00     0.000 C 
BRANCH  12  13
ATOM     13  C   UNL     1      18.050  -8.831  12.872  1.00  0.00    -0.000 C 
BRANCH  13  14
ATOM     14  C   UNL     1      16.708  -9.426  12.419  1.00  0.00    -0.000 C 
BRANCH  14  15
ATOM     15  C   UNL     1      16.565 -10.909  12.795  1.00  0.00    -0.000 C 
BRANCH  15  16
ATOM     16  C   UNL     1      15.407 -11.598  12.051  1.00  0.00    -0.000 C 
BRANCH  16  17
ATOM     17  C   UNL     1      15.279 -13.089  12.423  1.00  0.00    -0.000 C 
BRANCH  17  18
ATOM     18  C   UNL     1      13.829 -13.558  12.655  1.00  0.00    -0.000 C 
BRANCH  18  19
ATOM     19  C   UNL     1      12.874 -12.442  13.125  1.00  0.00    -0.003 C 
ATOM     20  C   UNL     1      11.612 -12.348  12.267  1.00  0.00     0.004 C 
ENDBRANCH  18  19
ENDBRANCH  17  18
ENDBRANCH  16  17
ENDBRANCH  15  16
ENDBRANCH  14  15
ENDBRANCH  13  14
ENDBRANCH  12  13
ENDBRANCH   1  12
TORSDOF 16
ENDMDL
MODEL 5
REMARK VINA RESULT:    -3.895      2.750      4.360
REMARK INTER + INTRA:          -9.193
REMARK INTER:                  -7.955
REMARK INTRA:                  -1.238
REMARK UNBOUND:                -1.655
REMARK SMILES CCCCCCCCCCCCCCCCCC(=O)[O-]
REMARK SMILES IDX 10 1 11 2 12 3 13 4 14 5 15 6 16 7 17 8 18 9 19 10 20 11
REMARK SMILES IDX 9 12 8 13 7 14 6 15 5 16 4 17 3 18 2 19 1 20
REMARK H PARENT
REMARK Flexibility Score: inf
ROOT
ATOM      1  C   UNL     1      13.145  -8.975  13.013  1.00  0.00     0.000 C 
ENDROOT
BRANCH   1   2
ATOM      2  C   UNL     1      12.710 -10.122  12.084  1.00  0.00     0.000 C 
BRANCH   2   3
ATOM      3  C   UNL     1      12.156 -11.337  12.850  1.00  0.00     0.000 C 
BRANCH   3   4
ATOM      4  C   UNL     1      13.066 -12.579  12.857  1.00  0.00     0.000 C 
BRANCH   4   5
ATOM      5  C   UNL     1      14.248 -12.462  11.878  1.00  0.00     0.000 C 
BRANCH   5   6
ATOM      6  C   UNL     1      15.603 -12.709  12.560  1.00  0.00     0.000 C 
BRANCH   6   7
ATOM      7  C   UNL     1      16.692 -11.732  12.081  1.00  0.00     0.006 C 
BRANCH   7   8
ATOM      8  C   UNL     1      16.473 -10.312  12.621  1.00  0.00     0.053 C 
BRANCH   8   9
ATOM      9  C   UNL     1      17.713  -9.759  13.256  1.00  0.00     0.041 C 
ATOM     10  O   UNL     1      18.151 -10.255  14.326  1.00  0.00    -0.550 OA
ATOM     11  O   UNL     1      18.400  -8.714  12.649  1.00  0.00    -0.550 OA
ENDBRANCH   8   9
ENDBRANCH   7   8
ENDBRANCH   6   7
ENDBRANCH   5   6
ENDBRANCH   4   5
ENDBRANCH   3   4
ENDBRANCH   2   3
ENDBRANCH   1   2
BRANCH   1  12
ATOM     12  C   UNL     1      14.004  -7.924  12.291  1.00  0.00     0.000 C 
BRANCH  12  13
ATOM     13  C   UNL     1      14.781  -7.025  13.264  1.00  0.00    -0.000 C 
BRANCH  13  14
ATOM     14  C   UNL     1      15.937  -6.310  12.548  1.00  0.00    -0.000 C 
BRANCH  14  15
ATOM     15  C   UNL     1      17.021  -5.825  13.523  1.00  0.00    -0.000 C 
BRANCH  15  16
ATOM     16  C   UNL     1      16.960  -6.548  14.881  1.00  0.00    -0.000 C 
BRANCH  16  17
ATOM     17  C   UNL     1      16.181  -5.740  15.939  1.00  0.00    -0.000 C 
BRANCH  17  18
ATOM     18  C   UNL     1      16.461  -6.170  17.392  1.00  0.00    -0.000 C 
BRANCH  18  19
ATOM     19  C   UNL     1      16.984  -5.035  18.295  1.00  0.00    -0.003 C 
ATOM     20  C   UNL     1      16.018  -4.694  19.429  1.00  0.00     0.004 C 
ENDBRANCH  18  19
ENDBRANCH  17  18
ENDBRANCH  16  17
ENDBRANCH  15  16
ENDBRANCH  14  15
ENDBRANCH  13  14
ENDBRANCH  12  13
ENDBRANCH   1  12
TORSDOF 16
ENDMDL
MODEL 6
REMARK VINA RESULT:    -3.821      2.258      5.674
REMARK INTER + INTRA:          -9.051
REMARK INTER:                  -7.996
REMARK INTRA:                  -1.055
REMARK UNBOUND:                -1.655
REMARK SMILES CCCCCCCCCCCCCCCCCC(=O)[O-]
REMARK SMILES IDX 10 1 11 2 12 3 13 4 14 5 15 6 16 7 17 8 18 9 19 10 20 11
REMARK SMILES IDX 9 12 8 13 7 14 6 15 5 16 4 17 3 18 2 19 1 20
REMARK H PARENT
REMARK Flexibility Score: inf
ROOT
ATOM      1  C   UNL     1      17.439  -9.999  13.333  1.00  0.00     0.000 C 
ENDROOT
BRANCH   1   2
ATOM      2  C   UNL     1      18.160  -8.786  12.719  1.00  0.00     0.000 C 
BRANCH   2   3
ATOM      3  C   UNL     1      17.200  -7.814  12.009  1.00  0.00     0.000 C 
BRANCH   3   4
ATOM      4  C   UNL     1      17.125  -6.402  12.619  1.00  0.00     0.000 C 
BRANCH   4   5
ATOM      5  C   UNL     1      17.577  -6.359  14.089  1.00  0.00     0.000 C 
BRANCH   5   6
ATOM      6  C   UNL     1      16.419  -6.055  15.052  1.00  0.00     0.000 C 
BRANCH   6   7
ATOM      7  C   UNL     1      16.831  -6.180  16.530  1.00  0.00     0.006 C 
BRANCH   7   8
ATOM      8  C   UNL     1      15.863  -5.444  17.466  1.00  0.00     0.053 C 
BRANCH   8   9
ATOM      9  C   UNL     1      16.553  -4.929  18.693  1.00  0.00     0.041 C 
ATOM     10  O   UNL     1      15.940  -4.183  19.499  1.00  0.00    -0.550 OA
ATOM     11  O   UNL     1      17.866  -5.300  18.959  1.00  0.00    -0.550 OA
ENDBRANCH   8   9
ENDBRANCH   7   8
ENDBRANCH   6   7
ENDBRANCH   5   6
ENDBRANCH   4   5
ENDBRANCH   3   4
ENDBRANCH   2   3
ENDBRANCH   1   2
BRANCH   1  12
ATOM     12  C   UNL     1      17.049 -11.049  12.280  1.00  0.00     0.000 C 
BRANCH  12  13
ATOM     13  C   UNL     1      15.529 -11.246  12.175  1.00  0.00    -0.000 C 
BRANCH  13  14
ATOM     14  C   UNL     1      15.177 -12.735  12.032  1.00  0.00    -0.000 C 
BRANCH  14  15
ATOM     15  C   UNL     1      13.802 -13.073  12.630  1.00  0.00    -0.000 C 
BRANCH  15  16
ATOM     16  C   UNL     1      12.673 -12.212  12.037  1.00  0.00    -0.000 C 
BRANCH  16  17
ATOM     17  C   UNL     1      12.223 -11.093  12.998  1.00  0.00    -0.000 C 
BRANCH  17  18
ATOM     18  C   UNL     1      12.425  -9.669  12.446  1.00  0.00    -0.000 C 
BRANCH  18  19
ATOM     19  C   UNL     1      13.719  -8.984  12.929  1.00  0.00    -0.003 C 
ATOM     20  C   UNL     1      13.555  -7.474  13.106  1.00  0.00     0.004 C 
ENDBRANCH  18  19
ENDBRANCH  17  18
ENDBRANCH  16  17
ENDBRANCH  15  16
ENDBRANCH  14  15
ENDBRANCH  13  14
ENDBRANCH  12  13
ENDBRANCH   1  12
TORSDOF 16
ENDMDL
MODEL 7
REMARK VINA RESULT:    -3.640      2.214      5.575
REMARK INTER + INTRA:          -8.701
REMARK INTER:                  -6.721
REMARK INTRA:                  -1.980
REMARK UNBOUND:                -1.655
REMARK SMILES CCCCCCCCCCCCCCCCCC(=O)[O-]
REMARK SMILES IDX 10 1 11 2 12 3 13 4 14 5 15 6 16 7 17 8 18 9 19 10 20 11
REMARK SMILES IDX 9 12 8 13 7 14 6 15 5 16 4 17 3 18 2 19 1 20
REMARK H PARENT
REMARK Flexibility Score: inf
ROOT
ATOM      1  C   UNL     1      14.932  -4.863  17.107  1.00  0.00     0.000 C 
ENDROOT
BRANCH   1   2
ATOM      2  C   UNL     1      14.088  -5.265  15.885  1.00  0.00     0.000 C 
BRANCH   2   3
ATOM      3  C   UNL     1      13.331  -4.078  15.262  1.00  0.00     0.000 C 
BRANCH   3   4
ATOM      4  C   UNL     1      13.203  -4.113  13.728  1.00  0.00     0.000 C 
BRANCH   4   5
ATOM      5  C   UNL     1      14.493  -4.578  13.029  1.00  0.00     0.000 C 
BRANCH   5   6
ATOM      6  C   UNL     1      14.266  -5.802  12.127  1.00  0.00     0.000 C 
BRANCH   6   7
ATOM      7  C   UNL     1      14.281  -7.126  12.912  1.00  0.00     0.006 C 
BRANCH   7   8
ATOM      8  C   UNL     1      14.112  -8.344  11.995  1.00  0.00     0.053 C 
BRANCH   8   9
ATOM      9  C   UNL     1      13.300  -9.424  12.645  1.00  0.00     0.041 C 
ATOM     10  O   UNL     1      12.160  -9.165  13.110  1.00  0.00    -0.550 OA
ATOM     11  O   UNL     1      13.792 -10.722  12.709  1.00  0.00    -0.550 OA
ENDBRANCH   8   9
ENDBRANCH   7   8
ENDBRANCH   6   7
ENDBRANCH   5   6
ENDBRANCH   4   5
ENDBRANCH   3   4
ENDBRANCH   2   3
ENDBRANCH   1   2
BRANCH   1  12
ATOM     12  C   UNL     1      15.881  -5.983  17.563  1.00  0.00     0.000 C 
BRANCH  12  13
ATOM     13  C   UNL     1      17.277  -5.869  16.932  1.00  0.00    -0.000 C 
BRANCH  13  14
ATOM     14  C   UNL     1      17.382  -6.740  15.670  1.00  0.00    -0.000 C 
BRANCH  14  15
ATOM     15  C   UNL     1      17.273  -5.915  14.378  1.00  0.00    -0.000 C 
BRANCH  15  16
ATOM     16  C   UNL     1      18.319  -6.327  13.325  1.00  0.00    -0.000 C 
BRANCH  16  17
ATOM     17  C   UNL     1      17.840  -7.506  12.455  1.00  0.00    -0.000 C 
BRANCH  17  18
ATOM     18  C   UNL     1      18.334  -8.885  12.934  1.00  0.00    -0.000 C 
BRANCH  18  19
ATOM     19  C   UNL     1      17.203  -9.879  13.265  1.00  0.00    -0.003 C 
ATOM     20  C   UNL     1      17.010 -10.933  12.176  1.00  0.00     0.004 C 
ENDBRANCH  18  19
ENDBRANCH  17  18
ENDBRANCH  16  17
ENDBRANCH  15  16
ENDBRANCH  14  15
ENDBRANCH  13  14
ENDBRANCH  12  13
ENDBRANCH   1  12
TORSDOF 16
ENDMDL
MODEL 8
REMARK VINA RESULT:    -3.572      1.810      5.561
REMARK INTER + INTRA:          -8.568
REMARK INTER:                  -7.544
REMARK INTRA:                  -1.024
REMARK UNBOUND:                -1.655
REMARK SMILES CCCCCCCCCCCCCCCCCC(=O)[O-]
REMARK SMILES IDX 10 1 11 2 12 3 13 4 14 5 15 6 16 7 17 8 18 9 19 10 20 11
REMARK SMILES IDX 9 12 8 13 7 14 6 15 5 16 4 17 3 18 2 19 1 20
REMARK H PARENT
REMARK Flexibility Score: inf
ROOT
ATOM      1  C   UNL     1      17.518 -10.002  13.640  1.00  0.00     0.000 C 
ENDROOT
BRANCH   1   2
ATOM      2  C   UNL     1      18.347  -8.706  13.628  1.00  0.00     0.000 C 
BRANCH   2   3
ATOM      3  C   UNL     1      18.263  -7.953  12.289  1.00  0.00     0.000 C 
BRANCH   3   4
ATOM      4  C   UNL     1      17.038  -7.032  12.128  1.00  0.00     0.000 C 
BRANCH   4   5
ATOM      5  C   UNL     1      17.182  -5.705  12.893  1.00  0.00     0.000 C 
BRANCH   5   6
ATOM      6  C   UNL     1      17.375  -5.913  14.403  1.00  0.00     0.000 C 
BRANCH   6   7
ATOM      7  C   UNL     1      16.050  -5.836  15.184  1.00  0.00     0.006 C 
BRANCH   7   8
ATOM      8  C   UNL     1      14.829  -6.009  14.271  1.00  0.00     0.053 C 
BRANCH   8   9
ATOM      9  C   UNL     1      13.949  -4.796  14.280  1.00  0.00     0.041 C 
ATOM     10  O   UNL     1      13.183  -4.576  15.255  1.00  0.00    -0.550 OA
ATOM     11  O   UNL     1      13.996  -3.893  13.225  1.00  0.00    -0.550 OA
ENDBRANCH   8   9
ENDBRANCH   7   8
ENDBRANCH   6   7
ENDBRANCH   5   6
ENDBRANCH   4   5
ENDBRANCH   3   4
ENDBRANCH   2   3
ENDBRANCH   1   2
BRANCH   1  12
ATOM     12  C   UNL     1      17.265 -10.554  12.228  1.00  0.00     0.000 C 
BRANCH  12  13
ATOM     13  C   UNL     1      15.771 -10.615  11.876  1.00  0.00    -0.000 C 
BRANCH  13  14
ATOM     14  C   UNL     1      14.972  -9.585  12.690  1.00  0.00    -0.000 C 
BRANCH  14  15
ATOM     15  C   UNL     1      13.723  -9.089  11.945  1.00  0.00    -0.000 C 
BRANCH  15  16
ATOM     16  C   UNL     1      12.418  -9.640  12.549  1.00  0.00    -0.000 C 
BRANCH  16  17
ATOM     17  C   UNL     1      12.085 -11.053  12.029  1.00  0.00    -0.000 C 
BRANCH  17  18
ATOM     18  C   UNL     1      12.502 -12.189  12.984  1.00  0.00    -0.000 C 
BRANCH  18  19
ATOM     19  C   UNL     1      13.132 -13.406  12.277  1.00  0.00    -0.003 C 
ATOM     20  C   UNL     1      14.610 -13.586  12.624  1.00  0.00     0.004 C 
ENDBRANCH  18  19
ENDBRANCH  17  18
ENDBRANCH  16  17
ENDBRANCH  15  16
ENDBRANCH  14  15
ENDBRANCH  13  14
ENDBRANCH  12  13
ENDBRANCH   1  12
TORSDOF 16
ENDMDL
MODEL 9
REMARK VINA RESULT:    -3.453      1.929      5.673
REMARK INTER + INTRA:          -8.339
REMARK INTER:                  -7.412
REMARK INTRA:                  -0.926
REMARK UNBOUND:                -1.655
REMARK SMILES CCCCCCCCCCCCCCCCCC(=O)[O-]
REMARK SMILES IDX 10 1 11 2 12 3 13 4 14 5 15 6 16 7 17 8 18 9 19 10 20 11
REMARK SMILES IDX 9 12 8 13 7 14 6 15 5 16 4 17 3 18 2 19 1 20
REMARK H PARENT
REMARK Flexibility Score: inf
ROOT
ATOM      1  C   UNL     1      17.770  -8.270  14.499  1.00  0.00     0.000 C 
ENDROOT
BRANCH   1   2
ATOM      2  C   UNL     1      18.054  -6.898  13.863  1.00  0.00     0.000 C 
BRANCH   2   3
ATOM      3  C   UNL     1      17.342  -5.742  14.588  1.00  0.00     0.000 C 
BRANCH   3   4
ATOM      4  C   UNL     1      16.588  -6.137  15.872  1.00  0.00     0.000 C 
BRANCH   4   5
ATOM      5  C   UNL     1      15.216  -5.451  15.996  1.00  0.00     0.000 C 
BRANCH   5   6
ATOM      6  C   UNL     1      14.300  -5.746  14.797  1.00  0.00     0.000 C 
BRANCH   6   7
ATOM      7  C   UNL     1      13.288  -4.614  14.535  1.00  0.00     0.006 C 
BRANCH   7   8
ATOM      8  C   UNL     1      13.552  -3.900  13.203  1.00  0.00     0.053 C 
BRANCH   8   9
ATOM      9  C   UNL     1      14.501  -4.669  12.335  1.00  0.00     0.041 C 
ATOM     10  O   UNL     1      15.624  -4.185  12.040  1.00  0.00    -0.550 OA
ATOM     11  O   UNL     1      14.154  -5.935  11.875  1.00  0.00    -0.550 OA
ENDBRANCH   8   9
ENDBRANCH   7   8
ENDBRANCH   6   7
ENDBRANCH   5   6
ENDBRANCH   4   5
ENDBRANCH   3   4
ENDBRANCH   2   3
ENDBRANCH   1   2
BRANCH   1  12
ATOM     12  C   UNL     1      18.094  -9.438  13.554  1.00  0.00     0.000 C 
BRANCH  12  13
ATOM     13  C   UNL     1      17.320  -9.359  12.229  1.00  0.00    -0.000 C 
BRANCH  13  14
ATOM     14  C   UNL     1      15.844  -9.011  12.475  1.00  0.00    -0.000 C 
BRANCH  14  15
ATOM     15  C   UNL     1      14.898 -10.161  12.095  1.00  0.00    -0.000 C 
BRANCH  15  16
ATOM     16  C   UNL     1      13.433  -9.704  11.970  1.00  0.00    -0.000 C 
BRANCH  16  17
ATOM     17  C   UNL     1      12.502 -10.453  12.944  1.00  0.00    -0.000 C 
BRANCH  17  18
ATOM     18  C   UNL     1      12.109 -11.868  12.477  1.00  0.00    -0.000 C 
BRANCH  18  19
ATOM     19  C   UNL     1      12.761 -13.003  13.293  1.00  0.00    -0.003 C 
ATOM     20  C   UNL     1      14.036 -13.538  12.641  1.00  0.00     0.004 C 
ENDBRANCH  18  19
ENDBRANCH  17  18
ENDBRANCH  16  17
ENDBRANCH  15  16
ENDBRANCH  14  15
ENDBRANCH  13  14
ENDBRANCH  12  13
ENDBRANCH   1  12
TORSDOF 16
ENDMDL
