MODEL 1
REMARK VINA RESULT:    -3.700      0.000      0.000
REMARK INTER + INTRA:          -4.524
REMARK INTER:                  -4.349
REMARK INTRA:                  -0.175
REMARK UNBOUND:                -0.175
REMARK SMILES O=C([O-])CCC(=O)[O-]
REMARK SMILES IDX 4 1 2 2 1 3 3 4 5 5 6 6 7 7 8 8
REMARK H PARENT
REMARK Flexibility Score: inf
ROOT
ATOM      1  C   UNL     1      48.757  33.654  17.397  1.00  0.00     0.059 C 
ENDROOT
BRANCH   1   2
ATOM      2  C   UNL     1      47.774  33.874  16.290  1.00  0.00     0.042 C 
ATOM      3  O   UNL     1      46.645  34.374  16.535  1.00  0.00    -0.550 OA
ATOM      4  O   UNL     1      48.087  33.481  14.995  1.00  0.00    -0.550 OA
ENDBRANCH   1   2
BRANCH   1   5
ATOM      5  C   UNL     1      49.230  32.200  17.413  1.00  0.00     0.059 C 
BRANCH   5   6
ATOM      6  C   UNL     1      48.103  31.287  17.777  1.00  0.00     0.042 C 
ATOM      7  O   UNL     1      47.668  31.256  18.958  1.00  0.00    -0.550 OA
ATOM      8  O   UNL     1      47.564  30.433  16.822  1.00  0.00    -0.550 OA
ENDBRANCH   5   6
ENDBRANCH   1   5
TORSDOF 3
ENDMDL
MODEL 2
REMARK VINA RESULT:    -3.696      0.069      3.182
REMARK INTER + INTRA:          -4.520
REMARK INTER:                  -4.344
REMARK INTRA:                  -0.175
REMARK UNBOUND:                -0.175
REMARK SMILES O=C([O-])CCC(=O)[O-]
REMARK SMILES IDX 4 1 2 2 1 3 3 4 5 5 6 6 7 7 8 8
REMARK H PARENT
REMARK Flexibility Score: inf
ROOT
ATOM      1  C   UNL     1      49.271  32.135  17.400  1.00  0.00     0.059 C 
ENDROOT
BRANCH   1   2
ATOM      2  C   UNL     1      48.115  31.250  17.744  1.00  0.00     0.042 C 
ATOM      3  O   UNL     1      47.656  31.231  18.916  1.00  0.00    -0.550 OA
ATOM      4  O   UNL     1      47.575  30.406  16.780  1.00  0.00    -0.550 OA
ENDBRANCH   1   2
BRANCH   1   5
ATOM      5  C   UNL     1      48.839  33.602  17.393  1.00  0.00     0.059 C 
BRANCH   5   6
ATOM      6  C   UNL     1      47.837  33.847  16.310  1.00  0.00     0.042 C 
ATOM      7  O   UNL     1      46.722  34.365  16.583  1.00  0.00    -0.550 OA
ATOM      8  O   UNL     1      48.114  33.459  15.005  1.00  0.00    -0.550 OA
ENDBRANCH   5   6
ENDBRANCH   1   5
TORSDOF 3
ENDMDL
MODEL 3
REMARK VINA RESULT:    -3.668      0.329      1.191
REMARK INTER + INTRA:          -4.486
REMARK INTER:                  -4.324
REMARK INTRA:                  -0.162
REMARK UNBOUND:                -0.175
REMARK SMILES O=C([O-])CCC(=O)[O-]
REMARK SMILES IDX 4 1 2 2 1 3 3 4 5 5 6 6 7 7 8 8
REMARK H PARENT
REMARK Flexibility Score: inf
ROOT
ATOM      1  C   UNL     1      48.786  33.282  17.352  1.00  0.00     0.059 C 
ENDROOT
BRANCH   1   2
ATOM      2  C   UNL     1      47.844  33.644  16.247  1.00  0.00     0.042 C 
ATOM      3  O   UNL     1      48.115  33.335  15.057  1.00  0.00    -0.550 OA
ATOM      4  O   UNL     1      46.691  34.368  16.525  1.00  0.00    -0.550 OA
ENDBRANCH   1   2
BRANCH   1   5
ATOM      5  C   UNL     1      49.165  31.803  17.270  1.00  0.00     0.059 C 
BRANCH   5   6
ATOM      6  C   UNL     1      47.994  30.942  17.623  1.00  0.00     0.042 C 
ATOM      7  O   UNL     1      47.581  30.889  18.811  1.00  0.00    -0.550 OA
ATOM      8  O   UNL     1      47.388  30.158  16.648  1.00  0.00    -0.550 OA
ENDBRANCH   5   6
ENDBRANCH   1   5
TORSDOF 3
ENDMDL
MODEL 4
REMARK VINA RESULT:    -3.636      0.385      1.659
REMARK INTER + INTRA:          -4.449
REMARK INTER:                  -4.303
REMARK INTRA:                  -0.145
REMARK UNBOUND:                -0.175
REMARK SMILES O=C([O-])CCC(=O)[O-]
REMARK SMILES IDX 4 1 2 2 1 3 3 4 5 5 6 6 7 7 8 8
REMARK H PARENT
REMARK Flexibility Score: inf
ROOT
ATOM      1  C   UNL     1      48.588  33.242  17.353  1.00  0.00     0.059 C 
ENDROOT
BRANCH   1   2
ATOM      2  C   UNL     1      47.717  33.572  16.181  1.00  0.00     0.042 C 
ATOM      3  O   UNL     1      48.019  33.158  15.031  1.00  0.00    -0.550 OA
ATOM      4  O   UNL     1      46.600  34.381  16.351  1.00  0.00    -0.550 OA
ENDBRANCH   1   2
BRANCH   1   5
ATOM      5  C   UNL     1      49.049  31.786  17.284  1.00  0.00     0.059 C 
BRANCH   5   6
ATOM      6  C   UNL     1      47.953  30.867  17.722  1.00  0.00     0.042 C 
ATOM      7  O   UNL     1      47.388  30.111  16.888  1.00  0.00    -0.550 OA
ATOM      8  O   UNL     1      47.521  30.880  19.043  1.00  0.00    -0.550 OA
ENDBRANCH   5   6
ENDBRANCH   1   5
TORSDOF 3
ENDMDL
MODEL 5
REMARK VINA RESULT:    -3.631      1.585      2.150
REMARK INTER + INTRA:          -4.443
REMARK INTER:                  -4.334
REMARK INTRA:                  -0.109
REMARK UNBOUND:                -0.175
REMARK SMILES O=C([O-])CCC(=O)[O-]
REMARK SMILES IDX 4 1 2 2 1 3 3 4 5 5 6 6 7 7 8 8
REMARK H PARENT
REMARK Flexibility Score: inf
ROOT
ATOM      1  C   UNL     1      47.504  33.766  15.931  1.00  0.00     0.059 C 
ENDROOT
BRANCH   1   2
ATOM      2  C   UNL     1      48.139  33.376  14.634  1.00  0.00     0.042 C 
ATOM      3  O   UNL     1      48.422  34.254  13.777  1.00  0.00    -0.550 OA
ATOM      4  O   UNL     1      48.372  32.036  14.349  1.00  0.00    -0.550 OA
ENDBRANCH   1   2
BRANCH   1   5
ATOM      5  C   UNL     1      48.566  33.939  17.017  1.00  0.00     0.059 C 
BRANCH   5   6
ATOM      6  C   UNL     1      48.881  32.624  17.657  1.00  0.00     0.042 C 
ATOM      7  O   UNL     1      50.068  32.334  17.960  1.00  0.00    -0.550 OA
ATOM      8  O   UNL     1      47.868  31.698  17.875  1.00  0.00    -0.550 OA
ENDBRANCH   5   6
ENDBRANCH   1   5
TORSDOF 3
ENDMDL
MODEL 6
REMARK VINA RESULT:    -3.603      1.617      3.614
REMARK INTER + INTRA:          -4.409
REMARK INTER:                  -4.311
REMARK INTRA:                  -0.098
REMARK UNBOUND:                -0.175
REMARK SMILES O=C([O-])CCC(=O)[O-]
REMARK SMILES IDX 4 1 2 2 1 3 3 4 5 5 6 6 7 7 8 8
REMARK H PARENT
REMARK Flexibility Score: inf
ROOT
ATOM      1  C   UNL     1      48.742  33.907  17.013  1.00  0.00     0.059 C 
ENDROOT
BRANCH   1   2
ATOM      2  C   UNL     1      49.034  32.611  17.700  1.00  0.00     0.042 C 
ATOM      3  O   UNL     1      50.219  32.302  17.995  1.00  0.00    -0.550 OA
ATOM      4  O   UNL     1      48.002  31.720  17.971  1.00  0.00    -0.550 OA
ENDBRANCH   1   2
BRANCH   1   5
ATOM      5  C   UNL     1      47.595  33.739  16.017  1.00  0.00     0.059 C 
BRANCH   5   6
ATOM      6  C   UNL     1      48.120  33.335  14.676  1.00  0.00     0.042 C 
ATOM      7  O   UNL     1      48.325  32.121  14.414  1.00  0.00    -0.550 OA
ATOM      8  O   UNL     1      48.430  34.305  13.730  1.00  0.00    -0.550 OA
ENDBRANCH   5   6
ENDBRANCH   1   5
TORSDOF 3
ENDMDL
MODEL 7
REMARK VINA RESULT:    -3.539      1.711      2.392
REMARK INTER + INTRA:          -4.334
REMARK INTER:                  -4.193
REMARK INTRA:                  -0.142
REMARK UNBOUND:                -0.175
REMARK SMILES O=C([O-])CCC(=O)[O-]
REMARK SMILES IDX 4 1 2 2 1 3 3 4 5 5 6 6 7 7 8 8
REMARK H PARENT
REMARK Flexibility Score: inf
ROOT
ATOM      1  C   UNL     1      48.110  32.119  17.644  1.00  0.00     0.059 C 
ENDROOT
BRANCH   1   2
ATOM      2  C   UNL     1      48.109  33.549  17.203  1.00  0.00     0.042 C 
ATOM      3  O   UNL     1      49.101  34.286  17.441  1.00  0.00    -0.550 OA
ATOM      4  O   UNL     1      46.991  34.081  16.573  1.00  0.00    -0.550 OA
ENDBRANCH   1   2
BRANCH   1   5
ATOM      5  C   UNL     1      48.964  31.268  16.703  1.00  0.00     0.059 C 
BRANCH   5   6
ATOM      6  C   UNL     1      48.209  30.955  15.451  1.00  0.00     0.042 C 
ATOM      7  O   UNL     1      48.531  31.502  14.363  1.00  0.00    -0.550 OA
ATOM      8  O   UNL     1      47.117  30.096  15.493  1.00  0.00    -0.550 OA
ENDBRANCH   5   6
ENDBRANCH   1   5
TORSDOF 3
ENDMDL
MODEL 8
REMARK VINA RESULT:    -3.515      1.693      3.047
REMARK INTER + INTRA:          -4.306
REMARK INTER:                  -4.168
REMARK INTRA:                  -0.138
REMARK UNBOUND:                -0.175
REMARK SMILES O=C([O-])CCC(=O)[O-]
REMARK SMILES IDX 4 1 2 2 1 3 3 4 5 5 6 6 7 7 8 8
REMARK H PARENT
REMARK Flexibility Score: inf
ROOT
ATOM      1  C   UNL     1      48.891  31.218  16.599  1.00  0.00     0.059 C 
ENDROOT
BRANCH   1   2
ATOM      2  C   UNL     1      48.119  30.933  15.350  1.00  0.00     0.042 C 
ATOM      3  O   UNL     1      47.188  30.085  15.360  1.00  0.00    -0.550 OA
ATOM      4  O   UNL     1      48.460  31.567  14.161  1.00  0.00    -0.550 OA
ENDBRANCH   1   2
BRANCH   1   5
ATOM      5  C   UNL     1      48.062  32.072  17.558  1.00  0.00     0.059 C 
BRANCH   5   6
ATOM      6  C   UNL     1      48.103  33.510  17.148  1.00  0.00     0.042 C 
ATOM      7  O   UNL     1      49.083  34.233  17.468  1.00  0.00    -0.550 OA
ATOM      8  O   UNL     1      47.035  34.065  16.454  1.00  0.00    -0.550 OA
ENDBRANCH   5   6
ENDBRANCH   1   5
TORSDOF 3
ENDMDL
MODEL 9
REMARK VINA RESULT:    -3.352      1.588      3.751
REMARK INTER + INTRA:          -4.115
REMARK INTER:                  -4.017
REMARK INTRA:                  -0.098
REMARK UNBOUND:                -0.175
REMARK SMILES O=C([O-])CCC(=O)[O-]
REMARK SMILES IDX 4 1 2 2 1 3 3 4 5 5 6 6 7 7 8 8
REMARK H PARENT
REMARK Flexibility Score: inf
ROOT
ATOM      1  C   UNL     1      47.836  30.869  17.829  1.00  0.00     0.059 C 
ENDROOT
BRANCH   1   2
ATOM      2  C   UNL     1      47.871  29.714  16.878  1.00  0.00     0.042 C 
ATOM      3  O   UNL     1      48.714  28.792  17.030  1.00  0.00    -0.550 OA
ATOM      4  O   UNL     1      47.003  29.682  15.793  1.00  0.00    -0.550 OA
ENDBRANCH   1   2
BRANCH   1   5
ATOM      5  C   UNL     1      49.003  31.819  17.561  1.00  0.00     0.059 C 
BRANCH   5   6
ATOM      6  C   UNL     1      48.516  33.076  16.913  1.00  0.00     0.042 C 
ATOM      7  O   UNL     1      47.812  33.021  15.871  1.00  0.00    -0.550 OA
ATOM      8  O   UNL     1      48.881  34.313  17.433  1.00  0.00    -0.550 OA
ENDBRANCH   5   6
ENDBRANCH   1   5
TORSDOF 3
ENDMDL
