MODEL 1
REMARK VINA RESULT:    -6.515      0.000      0.000
REMARK INTER + INTRA:          -7.951
REMARK INTER:                  -7.657
REMARK INTRA:                  -0.294
REMARK UNBOUND:                -0.294
REMARK SMILES O=c1c(O)c(-c2ccc(O)cc2)oc2cc(O)cc(O)c12
REMARK SMILES IDX 5 1 3 2 2 3 1 4 21 5 19 6 18 7 16 8 15 9 14 10 13 11 6 12
REMARK SMILES IDX 7 13 8 14 9 15 12 16 11 17 10 18 4 20 20 22 17 24
REMARK H PARENT 10 19 4 21 20 23 17 25
REMARK Flexibility Score: inf
ROOT
ATOM      1  C   UNL     1     126.646 132.369 130.592  1.00  0.00     0.180 A 
ATOM      2  C   UNL     1     125.512 132.580 131.396  1.00  0.00     0.208 A 
ATOM      3  C   UNL     1     124.558 133.528 130.993  1.00  0.00     0.238 A 
ATOM      4  O   UNL     1     123.574 133.752 131.744  1.00  0.00    -0.285 OA
ATOM      5  C   UNL     1     124.740 134.239 129.783  1.00  0.00     0.111 A 
ATOM      6  C   UNL     1     123.816 135.193 129.257  1.00  0.00     0.134 A 
ATOM      7  C   UNL     1     124.161 135.932 128.118  1.00  0.00     0.093 A 
ATOM      8  C   UNL     1     125.363 135.707 127.449  1.00  0.00     0.123 A 
ATOM      9  C   UNL     1     126.247 134.734 127.921  1.00  0.00     0.094 A 
ATOM     10  C   UNL     1     125.948 134.007 129.075  1.00  0.00     0.146 A 
ATOM     11  O   UNL     1     126.820 133.098 129.497  1.00  0.00    -0.452 OA
ENDROOT
BRANCH   1  12
ATOM     12  C   UNL     1     127.683 131.370 130.939  1.00  0.00     0.021 A 
ATOM     13  C   UNL     1     127.543 130.015 130.584  1.00  0.00     0.016 A 
ATOM     14  C   UNL     1     128.548 129.095 130.901  1.00  0.00     0.047 A 
ATOM     15  C   UNL     1     129.708 129.519 131.562  1.00  0.00     0.115 A 
ATOM     16  C   UNL     1     128.859 131.790 131.582  1.00  0.00     0.016 A 
ATOM     17  C   UNL     1     129.860 130.867 131.898  1.00  0.00     0.047 A 
BRANCH  15  18
ATOM     18  O   UNL     1     130.715 128.611 131.884  1.00  0.00    -0.508 OA
ATOM     19  H   UNL     1     130.701 127.660 131.533  1.00  0.00     0.293 HD
ENDBRANCH  15  18
ENDBRANCH   1  12
BRANCH   2  20
ATOM     20  O   UNL     1     125.364 131.883 132.599  1.00  0.00    -0.502 OA
ATOM     21  H   UNL     1     125.767 130.965 132.747  1.00  0.00     0.293 HD
ENDBRANCH   2  20
BRANCH   6  22
ATOM     22  O   UNL     1     122.548 135.429 129.794  1.00  0.00    -0.507 OA
ATOM     23  H   UNL     1     122.348 135.515 130.779  1.00  0.00     0.293 HD
ENDBRANCH   6  22
BRANCH   8  24
ATOM     24  O   UNL     1     125.666 136.449 126.311  1.00  0.00    -0.508 OA
ATOM     25  H   UNL     1     125.205 137.330 126.114  1.00  0.00     0.293 HD
ENDBRANCH   8  24
TORSDOF 5
ENDMDL
MODEL 2
REMARK VINA RESULT:    -6.441      2.021      3.765
REMARK INTER + INTRA:          -7.864
REMARK INTER:                  -7.568
REMARK INTRA:                  -0.297
REMARK UNBOUND:                -0.294
REMARK SMILES O=c1c(O)c(-c2ccc(O)cc2)oc2cc(O)cc(O)c12
REMARK SMILES IDX 5 1 3 2 2 3 1 4 21 5 19 6 18 7 16 8 15 9 14 10 13 11 6 12
REMARK SMILES IDX 7 13 8 14 9 15 12 16 11 17 10 18 4 20 20 22 17 24
REMARK H PARENT 10 19 4 21 20 23 17 25
REMARK Flexibility Score: inf
ROOT
ATOM      1  C   UNL     1     127.887 133.569 128.897  1.00  0.00     0.180 A 
ATOM      2  C   UNL     1     127.792 134.321 127.713  1.00  0.00     0.208 A 
ATOM      3  C   UNL     1     126.597 135.004 127.434  1.00  0.00     0.238 A 
ATOM      4  O   UNL     1     126.498 135.630 126.347  1.00  0.00    -0.285 OA
ATOM      5  C   UNL     1     125.521 134.942 128.351  1.00  0.00     0.111 A 
ATOM      6  C   UNL     1     124.279 135.629 128.189  1.00  0.00     0.134 A 
ATOM      7  C   UNL     1     123.236 135.390 129.093  1.00  0.00     0.093 A 
ATOM      8  C   UNL     1     123.409 134.544 130.188  1.00  0.00     0.123 A 
ATOM      9  C   UNL     1     124.639 133.914 130.387  1.00  0.00     0.094 A 
ATOM     10  C   UNL     1     125.687 134.103 129.483  1.00  0.00     0.146 A 
ATOM     11  O   UNL     1     126.837 133.478 129.704  1.00  0.00    -0.452 OA
ENDROOT
BRANCH   1  12
ATOM     12  C   UNL     1     129.121 132.842 129.272  1.00  0.00     0.021 A 
ATOM     13  C   UNL     1     130.132 133.456 130.035  1.00  0.00     0.016 A 
ATOM     14  C   UNL     1     131.278 132.741 130.396  1.00  0.00     0.047 A 
ATOM     15  C   UNL     1     131.422 131.401 130.014  1.00  0.00     0.115 A 
ATOM     16  C   UNL     1     129.265 131.492 128.910  1.00  0.00     0.016 A 
ATOM     17  C   UNL     1     130.412 130.780 129.273  1.00  0.00     0.047 A 
BRANCH  15  18
ATOM     18  O   UNL     1     132.560 130.679 130.367  1.00  0.00    -0.508 OA
ATOM     19  H   UNL     1     133.477 131.109 130.375  1.00  0.00     0.293 HD
ENDBRANCH  15  18
ENDBRANCH   1  12
BRANCH   2  20
ATOM     20  O   UNL     1     128.860 134.350 126.812  1.00  0.00    -0.502 OA
ATOM     21  H   UNL     1     129.162 133.529 126.301  1.00  0.00     0.293 HD
ENDBRANCH   2  20
BRANCH   6  22
ATOM     22  O   UNL     1     124.031 136.567 127.183  1.00  0.00    -0.507 OA
ATOM     23  H   UNL     1     124.513 136.601 126.298  1.00  0.00     0.293 HD
ENDBRANCH   6  22
BRANCH   8  24
ATOM     24  O   UNL     1     122.356 134.342 131.075  1.00  0.00    -0.508 OA
ATOM     25  H   UNL     1     121.693 133.585 130.949  1.00  0.00     0.293 HD
ENDBRANCH   8  24
TORSDOF 5
ENDMDL
MODEL 3
REMARK VINA RESULT:    -6.391      1.738      1.899
REMARK INTER + INTRA:          -7.806
REMARK INTER:                  -7.507
REMARK INTRA:                  -0.299
REMARK UNBOUND:                -0.294
REMARK SMILES O=c1c(O)c(-c2ccc(O)cc2)oc2cc(O)cc(O)c12
REMARK SMILES IDX 5 1 3 2 2 3 1 4 21 5 19 6 18 7 16 8 15 9 14 10 13 11 6 12
REMARK SMILES IDX 7 13 8 14 9 15 12 16 11 17 10 18 4 20 20 22 17 24
REMARK H PARENT 10 19 4 21 20 23 17 25
REMARK Flexibility Score: inf
ROOT
ATOM      1  C   UNL     1     127.869 133.432 129.720  1.00  0.00     0.180 A 
ATOM      2  C   UNL     1     126.958 133.734 130.748  1.00  0.00     0.208 A 
ATOM      3  C   UNL     1     125.801 134.466 130.439  1.00  0.00     0.238 A 
ATOM      4  O   UNL     1     125.017 134.781 131.372  1.00  0.00    -0.285 OA
ATOM      5  C   UNL     1     125.560 134.872 129.104  1.00  0.00     0.111 A 
ATOM      6  C   UNL     1     124.400 135.583 128.671  1.00  0.00     0.134 A 
ATOM      7  C   UNL     1     124.329 136.048 127.351  1.00  0.00     0.093 A 
ATOM      8  C   UNL     1     125.342 135.773 126.434  1.00  0.00     0.123 A 
ATOM      9  C   UNL     1     126.453 135.027 126.833  1.00  0.00     0.094 A 
ATOM     10  C   UNL     1     126.570 134.581 128.151  1.00  0.00     0.146 A 
ATOM     11  O   UNL     1     127.647 133.883 128.492  1.00  0.00    -0.452 OA
ENDROOT
BRANCH   1  12
ATOM     12  C   UNL     1     129.099 132.643 129.964  1.00  0.00     0.021 A 
ATOM     13  C   UNL     1     129.092 131.237 129.903  1.00  0.00     0.016 A 
ATOM     14  C   UNL     1     130.271 130.515 130.113  1.00  0.00     0.047 A 
ATOM     15  C   UNL     1     131.473 131.188 130.370  1.00  0.00     0.115 A 
ATOM     16  C   UNL     1     130.312 133.311 130.202  1.00  0.00     0.016 A 
ATOM     17  C   UNL     1     131.489 132.586 130.412  1.00  0.00     0.047 A 
BRANCH  15  18
ATOM     18  O   UNL     1     132.653 130.480 130.582  1.00  0.00    -0.508 OA
ATOM     19  H   UNL     1     133.505 130.710 130.083  1.00  0.00     0.293 HD
ENDBRANCH  15  18
ENDBRANCH   1  12
BRANCH   2  20
ATOM     20  O   UNL     1     127.227 133.342 132.062  1.00  0.00    -0.502 OA
ATOM     21  H   UNL     1     127.528 133.997 132.774  1.00  0.00     0.293 HD
ENDBRANCH   2  20
BRANCH   6  22
ATOM     22  O   UNL     1     123.289 135.832 129.482  1.00  0.00    -0.507 OA
ATOM     23  H   UNL     1     123.335 136.086 130.457  1.00  0.00     0.293 HD
ENDBRANCH   6  22
BRANCH   8  24
ATOM     24  O   UNL     1     125.230 136.237 125.126  1.00  0.00    -0.508 OA
ATOM     25  H   UNL     1     125.008 135.613 124.359  1.00  0.00     0.293 HD
ENDBRANCH   8  24
TORSDOF 5
ENDMDL
MODEL 4
REMARK VINA RESULT:    -6.301      2.310      6.436
REMARK INTER + INTRA:          -7.699
REMARK INTER:                  -7.426
REMARK INTRA:                  -0.273
REMARK UNBOUND:                -0.294
REMARK SMILES O=c1c(O)c(-c2ccc(O)cc2)oc2cc(O)cc(O)c12
REMARK SMILES IDX 5 1 3 2 2 3 1 4 21 5 19 6 18 7 16 8 15 9 14 10 13 11 6 12
REMARK SMILES IDX 7 13 8 14 9 15 12 16 11 17 10 18 4 20 20 22 17 24
REMARK H PARENT 10 19 4 21 20 23 17 25
REMARK Flexibility Score: inf
ROOT
ATOM      1  C   UNL     1     126.618 133.880 128.270  1.00  0.00     0.180 A 
ATOM      2  C   UNL     1     125.748 133.453 129.288  1.00  0.00     0.208 A 
ATOM      3  C   UNL     1     126.288 133.037 130.515  1.00  0.00     0.238 A 
ATOM      4  O   UNL     1     125.508 132.605 131.404  1.00  0.00    -0.285 OA
ATOM      5  C   UNL     1     127.689 133.069 130.715  1.00  0.00     0.111 A 
ATOM      6  C   UNL     1     128.342 132.709 131.933  1.00  0.00     0.134 A 
ATOM      7  C   UNL     1     129.741 132.653 131.975  1.00  0.00     0.093 A 
ATOM      8  C   UNL     1     130.510 133.006 130.867  1.00  0.00     0.123 A 
ATOM      9  C   UNL     1     129.882 133.418 129.691  1.00  0.00     0.094 A 
ATOM     10  C   UNL     1     128.488 133.448 129.605  1.00  0.00     0.146 A 
ATOM     11  O   UNL     1     127.930 133.836 128.465  1.00  0.00    -0.452 OA
ENDROOT
BRANCH   1  12
ATOM     12  C   UNL     1     126.122 134.355 126.957  1.00  0.00     0.021 A 
ATOM     13  C   UNL     1     125.785 133.454 125.930  1.00  0.00     0.016 A 
ATOM     14  C   UNL     1     125.296 133.927 124.708  1.00  0.00     0.047 A 
ATOM     15  C   UNL     1     125.123 135.302 124.503  1.00  0.00     0.115 A 
ATOM     16  C   UNL     1     125.926 135.731 126.750  1.00  0.00     0.016 A 
ATOM     17  C   UNL     1     125.438 136.200 125.527  1.00  0.00     0.047 A 
BRANCH  15  18
ATOM     18  O   UNL     1     124.638 135.784 123.289  1.00  0.00    -0.508 OA
ATOM     19  H   UNL     1     124.785 136.746 123.006  1.00  0.00     0.293 HD
ENDBRANCH  15  18
ENDBRANCH   1  12
BRANCH   2  20
ATOM     20  O   UNL     1     124.369 133.409 129.061  1.00  0.00    -0.502 OA
ATOM     21  H   UNL     1     123.741 134.132 129.392  1.00  0.00     0.293 HD
ENDBRANCH   2  20
BRANCH   6  22
ATOM     22  O   UNL     1     127.669 132.426 133.125  1.00  0.00    -0.507 OA
ATOM     23  H   UNL     1     126.952 133.007 133.532  1.00  0.00     0.293 HD
ENDBRANCH   6  22
BRANCH   8  24
ATOM     24  O   UNL     1     131.899 132.954 130.950  1.00  0.00    -0.508 OA
ATOM     25  H   UNL     1     132.472 133.775 130.787  1.00  0.00     0.293 HD
ENDBRANCH   8  24
TORSDOF 5
ENDMDL
MODEL 5
REMARK VINA RESULT:    -6.292      2.796      4.292
REMARK INTER + INTRA:          -7.689
REMARK INTER:                  -7.421
REMARK INTRA:                  -0.268
REMARK UNBOUND:                -0.294
REMARK SMILES O=c1c(O)c(-c2ccc(O)cc2)oc2cc(O)cc(O)c12
REMARK SMILES IDX 5 1 3 2 2 3 1 4 21 5 19 6 18 7 16 8 15 9 14 10 13 11 6 12
REMARK SMILES IDX 7 13 8 14 9 15 12 16 11 17 10 18 4 20 20 22 17 24
REMARK H PARENT 10 19 4 21 20 23 17 25
REMARK Flexibility Score: inf
ROOT
ATOM      1  C   UNL     1     129.761 129.526 130.011  1.00  0.00     0.180 A 
ATOM      2  C   UNL     1     128.536 129.354 130.680  1.00  0.00     0.208 A 
ATOM      3  C   UNL     1     127.567 130.366 130.597  1.00  0.00     0.238 A 
ATOM      4  O   UNL     1     126.495 130.231 131.242  1.00  0.00    -0.285 OA
ATOM      5  C   UNL     1     127.827 131.529 129.833  1.00  0.00     0.111 A 
ATOM      6  C   UNL     1     126.901 132.600 129.646  1.00  0.00     0.134 A 
ATOM      7  C   UNL     1     127.313 133.760 128.979  1.00  0.00     0.093 A 
ATOM      8  C   UNL     1     128.593 133.863 128.435  1.00  0.00     0.123 A 
ATOM      9  C   UNL     1     129.486 132.798 128.560  1.00  0.00     0.094 A 
ATOM     10  C   UNL     1     129.117 131.642 129.252  1.00  0.00     0.146 A 
ATOM     11  O   UNL     1     130.000 130.656 129.358  1.00  0.00    -0.452 OA
ENDROOT
BRANCH   1  12
ATOM     12  C   UNL     1     130.822 128.493 130.033  1.00  0.00     0.021 A 
ATOM     13  C   UNL     1     130.751 127.352 129.211  1.00  0.00     0.016 A 
ATOM     14  C   UNL     1     131.778 126.403 129.230  1.00  0.00     0.047 A 
ATOM     15  C   UNL     1     132.892 126.587 130.059  1.00  0.00     0.115 A 
ATOM     16  C   UNL     1     131.953 128.680 130.845  1.00  0.00     0.016 A 
ATOM     17  C   UNL     1     132.977 127.728 130.862  1.00  0.00     0.047 A 
BRANCH  15  18
ATOM     18  O   UNL     1     133.920 125.647 130.087  1.00  0.00    -0.508 OA
ATOM     19  H   UNL     1     134.893 125.928 130.091  1.00  0.00     0.293 HD
ENDBRANCH  15  18
ENDBRANCH   1  12
BRANCH   2  20
ATOM     20  O   UNL     1     128.309 128.207 131.447  1.00  0.00    -0.502 OA
ATOM     21  H   UNL     1     127.487 128.096 132.027  1.00  0.00     0.293 HD
ENDBRANCH   2  20
BRANCH   6  22
ATOM     22  O   UNL     1     125.569 132.562 130.069  1.00  0.00    -0.507 OA
ATOM     23  H   UNL     1     124.770 132.605 129.456  1.00  0.00     0.293 HD
ENDBRANCH   6  22
BRANCH   8  24
ATOM     24  O   UNL     1     128.963 135.026 127.764  1.00  0.00    -0.508 OA
ATOM     25  H   UNL     1     128.672 135.941 128.089  1.00  0.00     0.293 HD
ENDBRANCH   8  24
TORSDOF 5
ENDMDL
MODEL 6
REMARK VINA RESULT:    -6.243      2.904      7.808
REMARK INTER + INTRA:          -7.632
REMARK INTER:                  -7.339
REMARK INTRA:                  -0.293
REMARK UNBOUND:                -0.294
REMARK SMILES O=c1c(O)c(-c2ccc(O)cc2)oc2cc(O)cc(O)c12
REMARK SMILES IDX 5 1 3 2 2 3 1 4 21 5 19 6 18 7 16 8 15 9 14 10 13 11 6 12
REMARK SMILES IDX 7 13 8 14 9 15 12 16 11 17 10 18 4 20 20 22 17 24
REMARK H PARENT 10 19 4 21 20 23 17 25
REMARK Flexibility Score: inf
ROOT
ATOM      1  C   UNL     1     129.596 132.284 129.326  1.00  0.00     0.180 A 
ATOM      2  C   UNL     1     130.674 132.768 130.088  1.00  0.00     0.208 A 
ATOM      3  C   UNL     1     131.594 131.853 130.624  1.00  0.00     0.238 A 
ATOM      4  O   UNL     1     132.525 132.288 131.350  1.00  0.00    -0.285 OA
ATOM      5  C   UNL     1     131.434 130.469 130.378  1.00  0.00     0.111 A 
ATOM      6  C   UNL     1     132.329 129.455 130.838  1.00  0.00     0.134 A 
ATOM      7  C   UNL     1     132.003 128.107 130.647  1.00  0.00     0.093 A 
ATOM      8  C   UNL     1     130.849 127.735 129.956  1.00  0.00     0.123 A 
ATOM      9  C   UNL     1     129.998 128.720 129.450  1.00  0.00     0.094 A 
ATOM     10  C   UNL     1     130.278 130.072 129.657  1.00  0.00     0.146 A 
ATOM     11  O   UNL     1     129.438 130.976 129.168  1.00  0.00    -0.452 OA
ENDROOT
BRANCH   1  12
ATOM     12  C   UNL     1     128.600 133.189 128.707  1.00  0.00     0.021 A 
ATOM     13  C   UNL     1     128.834 133.794 127.458  1.00  0.00     0.016 A 
ATOM     14  C   UNL     1     127.867 134.625 126.884  1.00  0.00     0.047 A 
ATOM     15  C   UNL     1     126.651 134.850 127.541  1.00  0.00     0.115 A 
ATOM     16  C   UNL     1     127.369 133.404 129.350  1.00  0.00     0.016 A 
ATOM     17  C   UNL     1     126.405 134.236 128.773  1.00  0.00     0.047 A 
BRANCH  15  18
ATOM     18  O   UNL     1     125.681 135.678 126.979  1.00  0.00    -0.508 OA
ATOM     19  H   UNL     1     124.707 135.400 126.940  1.00  0.00     0.293 HD
ENDBRANCH  15  18
ENDBRANCH   1  12
BRANCH   2  20
ATOM     20  O   UNL     1     130.800 134.138 130.337  1.00  0.00    -0.502 OA
ATOM     21  H   UNL     1     131.692 134.575 130.531  1.00  0.00     0.293 HD
ENDBRANCH   2  20
BRANCH   6  22
ATOM     22  O   UNL     1     133.554 129.719 131.458  1.00  0.00    -0.507 OA
ATOM     23  H   UNL     1     134.453 129.442 131.096  1.00  0.00     0.293 HD
ENDBRANCH   6  22
BRANCH   8  24
ATOM     24  O   UNL     1     130.564 126.385 129.771  1.00  0.00    -0.508 OA
ATOM     25  H   UNL     1     130.470 125.985 128.844  1.00  0.00     0.293 HD
ENDBRANCH   8  24
TORSDOF 5
ENDMDL
MODEL 7
REMARK VINA RESULT:    -6.096     10.883     14.351
REMARK INTER + INTRA:          -7.459
REMARK INTER:                  -7.242
REMARK INTRA:                  -0.216
REMARK UNBOUND:                -0.294
REMARK SMILES O=c1c(O)c(-c2ccc(O)cc2)oc2cc(O)cc(O)c12
REMARK SMILES IDX 5 1 3 2 2 3 1 4 21 5 19 6 18 7 16 8 15 9 14 10 13 11 6 12
REMARK SMILES IDX 7 13 8 14 9 15 12 16 11 17 10 18 4 20 20 22 17 24
REMARK H PARENT 10 19 4 21 20 23 17 25
REMARK Flexibility Score: inf
ROOT
ATOM      1  C   UNL     1     126.204 136.508 116.805  1.00  0.00     0.180 A 
ATOM      2  C   UNL     1     125.488 135.558 116.055  1.00  0.00     0.208 A 
ATOM      3  C   UNL     1     124.347 134.966 116.618  1.00  0.00     0.238 A 
ATOM      4  O   UNL     1     123.742 134.077 115.965  1.00  0.00    -0.285 OA
ATOM      5  C   UNL     1     123.925 135.345 117.915  1.00  0.00     0.111 A 
ATOM      6  C   UNL     1     122.759 134.840 118.568  1.00  0.00     0.134 A 
ATOM      7  C   UNL     1     122.510 135.186 119.902  1.00  0.00     0.093 A 
ATOM      8  C   UNL     1     123.346 136.068 120.586  1.00  0.00     0.123 A 
ATOM      9  C   UNL     1     124.456 136.614 119.938  1.00  0.00     0.094 A 
ATOM     10  C   UNL     1     124.751 136.260 118.619  1.00  0.00     0.146 A 
ATOM     11  O   UNL     1     125.821 136.793 118.043  1.00  0.00    -0.452 OA
ENDROOT
BRANCH   1  12
ATOM     12  C   UNL     1     127.404 137.192 116.269  1.00  0.00     0.021 A 
ATOM     13  C   UNL     1     128.699 136.841 116.694  1.00  0.00     0.016 A 
ATOM     14  C   UNL     1     129.818 137.485 116.155  1.00  0.00     0.047 A 
ATOM     15  C   UNL     1     129.658 138.475 115.177  1.00  0.00     0.115 A 
ATOM     16  C   UNL     1     127.254 138.172 115.273  1.00  0.00     0.016 A 
ATOM     17  C   UNL     1     128.375 138.814 114.738  1.00  0.00     0.047 A 
BRANCH  15  18
ATOM     18  O   UNL     1     130.765 139.124 114.635  1.00  0.00    -0.508 OA
ATOM     19  H   UNL     1     131.535 139.432 115.218  1.00  0.00     0.293 HD
ENDBRANCH  15  18
ENDBRANCH   1  12
BRANCH   2  20
ATOM     20  O   UNL     1     125.936 135.183 114.785  1.00  0.00    -0.502 OA
ATOM     21  H   UNL     1     126.906 134.960 114.595  1.00  0.00     0.293 HD
ENDBRANCH   2  20
BRANCH   6  22
ATOM     22  O   UNL     1     121.808 134.026 117.946  1.00  0.00    -0.507 OA
ATOM     23  H   UNL     1     121.425 134.187 117.027  1.00  0.00     0.293 HD
ENDBRANCH   6  22
BRANCH   8  24
ATOM     24  O   UNL     1     123.059 136.402 121.907  1.00  0.00    -0.508 OA
ATOM     25  H   UNL     1     122.724 135.711 122.568  1.00  0.00     0.293 HD
ENDBRANCH   8  24
TORSDOF 5
ENDMDL
MODEL 8
REMARK VINA RESULT:    -6.085     11.128     13.615
REMARK INTER + INTRA:          -7.446
REMARK INTER:                  -7.167
REMARK INTRA:                  -0.279
REMARK UNBOUND:                -0.294
REMARK SMILES O=c1c(O)c(-c2ccc(O)cc2)oc2cc(O)cc(O)c12
REMARK SMILES IDX 5 1 3 2 2 3 1 4 21 5 19 6 18 7 16 8 15 9 14 10 13 11 6 12
REMARK SMILES IDX 7 13 8 14 9 15 12 16 11 17 10 18 4 20 20 22 17 24
REMARK H PARENT 10 19 4 21 20 23 17 25
REMARK Flexibility Score: inf
ROOT
ATOM      1  C   UNL     1     125.458 136.912 117.877  1.00  0.00     0.180 A 
ATOM      2  C   UNL     1     124.575 137.734 118.600  1.00  0.00     0.208 A 
ATOM      3  C   UNL     1     123.587 137.135 119.397  1.00  0.00     0.238 A 
ATOM      4  O   UNL     1     122.765 137.875 119.999  1.00  0.00    -0.285 OA
ATOM      5  C   UNL     1     123.504 135.724 119.475  1.00  0.00     0.111 A 
ATOM      6  C   UNL     1     122.568 135.011 120.284  1.00  0.00     0.134 A 
ATOM      7  C   UNL     1     122.491 133.616 120.182  1.00  0.00     0.093 A 
ATOM      8  C   UNL     1     123.357 132.904 119.353  1.00  0.00     0.123 A 
ATOM      9  C   UNL     1     124.316 133.588 118.604  1.00  0.00     0.094 A 
ATOM     10  C   UNL     1     124.393 134.982 118.655  1.00  0.00     0.146 A 
ATOM     11  O   UNL     1     125.313 135.594 117.919  1.00  0.00    -0.452 OA
ENDROOT
BRANCH   1  12
ATOM     12  C   UNL     1     126.541 137.470 117.034  1.00  0.00     0.021 A 
ATOM     13  C   UNL     1     126.301 137.882 115.709  1.00  0.00     0.016 A 
ATOM     14  C   UNL     1     127.334 138.428 114.942  1.00  0.00     0.047 A 
ATOM     15  C   UNL     1     128.614 138.583 115.491  1.00  0.00     0.115 A 
ATOM     16  C   UNL     1     127.822 137.649 117.583  1.00  0.00     0.016 A 
ATOM     17  C   UNL     1     128.852 138.194 116.812  1.00  0.00     0.047 A 
BRANCH  15  18
ATOM     18  O   UNL     1     129.651 139.125 114.735  1.00  0.00    -0.508 OA
ATOM     19  H   UNL     1     129.476 139.826 114.024  1.00  0.00     0.293 HD
ENDBRANCH  15  18
ENDBRANCH   1  12
BRANCH   2  20
ATOM     20  O   UNL     1     124.661 139.125 118.491  1.00  0.00    -0.502 OA
ATOM     21  H   UNL     1     125.296 139.581 117.848  1.00  0.00     0.293 HD
ENDBRANCH   2  20
BRANCH   6  22
ATOM     22  O   UNL     1     121.719 135.617 121.214  1.00  0.00    -0.507 OA
ATOM     23  H   UNL     1     121.061 135.124 121.799  1.00  0.00     0.293 HD
ENDBRANCH   6  22
BRANCH   8  24
ATOM     24  O   UNL     1     123.262 131.517 119.289  1.00  0.00    -0.508 OA
ATOM     25  H   UNL     1     122.824 130.980 120.030  1.00  0.00     0.293 HD
ENDBRANCH   8  24
TORSDOF 5
ENDMDL
MODEL 9
REMARK VINA RESULT:    -6.078     11.046     14.750
REMARK INTER + INTRA:          -7.438
REMARK INTER:                  -7.149
REMARK INTRA:                  -0.288
REMARK UNBOUND:                -0.294
REMARK SMILES O=c1c(O)c(-c2ccc(O)cc2)oc2cc(O)cc(O)c12
REMARK SMILES IDX 5 1 3 2 2 3 1 4 21 5 19 6 18 7 16 8 15 9 14 10 13 11 6 12
REMARK SMILES IDX 7 13 8 14 9 15 12 16 11 17 10 18 4 20 20 22 17 24
REMARK H PARENT 10 19 4 21 20 23 17 25
REMARK Flexibility Score: inf
ROOT
ATOM      1  C   UNL     1     125.398 136.912 117.489  1.00  0.00     0.180 A 
ATOM      2  C   UNL     1     125.152 135.850 116.601  1.00  0.00     0.208 A 
ATOM      3  C   UNL     1     126.069 135.600 115.568  1.00  0.00     0.238 A 
ATOM      4  O   UNL     1     125.816 134.684 114.743  1.00  0.00    -0.285 OA
ATOM      5  C   UNL     1     127.229 136.402 115.447  1.00  0.00     0.111 A 
ATOM      6  C   UNL     1     128.246 136.212 114.463  1.00  0.00     0.134 A 
ATOM      7  C   UNL     1     129.284 137.146 114.355  1.00  0.00     0.093 A 
ATOM      8  C   UNL     1     129.379 138.225 115.234  1.00  0.00     0.123 A 
ATOM      9  C   UNL     1     128.422 138.385 116.238  1.00  0.00     0.094 A 
ATOM     10  C   UNL     1     127.354 137.492 116.348  1.00  0.00     0.146 A 
ATOM     11  O   UNL     1     126.460 137.686 117.310  1.00  0.00    -0.452 OA
ENDROOT
BRANCH   1  12
ATOM     12  C   UNL     1     124.489 137.222 118.617  1.00  0.00     0.021 A 
ATOM     13  C   UNL     1     123.397 138.096 118.461  1.00  0.00     0.016 A 
ATOM     14  C   UNL     1     122.539 138.354 119.534  1.00  0.00     0.047 A 
ATOM     15  C   UNL     1     122.751 137.731 120.771  1.00  0.00     0.115 A 
ATOM     16  C   UNL     1     124.682 136.586 119.855  1.00  0.00     0.016 A 
ATOM     17  C   UNL     1     123.822 136.847 120.926  1.00  0.00     0.047 A 
BRANCH  15  18
ATOM     18  O   UNL     1     121.903 137.982 121.848  1.00  0.00    -0.508 OA
ATOM     19  H   UNL     1     121.481 137.227 122.375  1.00  0.00     0.293 HD
ENDBRANCH  15  18
ENDBRANCH   1  12
BRANCH   2  20
ATOM     20  O   UNL     1     123.988 135.085 116.725  1.00  0.00    -0.502 OA
ATOM     21  H   UNL     1     123.083 135.419 116.418  1.00  0.00     0.293 HD
ENDBRANCH   2  20
BRANCH   6  22
ATOM     22  O   UNL     1     128.297 135.118 113.595  1.00  0.00    -0.507 OA
ATOM     23  H   UNL     1     127.627 134.365 113.579  1.00  0.00     0.293 HD
ENDBRANCH   6  22
BRANCH   8  24
ATOM     24  O   UNL     1     130.433 139.125 115.107  1.00  0.00    -0.508 OA
ATOM     25  H   UNL     1     130.827 139.356 114.201  1.00  0.00     0.293 HD
ENDBRANCH   8  24
TORSDOF 5
ENDMDL
