MODEL 1
REMARK VINA RESULT:    -4.452      0.000      0.000
REMARK INTER + INTRA:          -5.057
REMARK INTER:                  -4.972
REMARK INTRA:                  -0.085
REMARK UNBOUND:                -0.085
REMARK SMILES CCc1ccc(O)cc1O
REMARK SMILES IDX 3 1 9 2 8 3 6 4 5 5 4 6 2 7 1 8 10 9 7 11
REMARK H PARENT 10 10 7 12
REMARK Flexibility Score: inf
ROOT
ATOM      1  C   UNL     1      30.051  23.510  13.037  1.00  0.00    -0.006 A 
ATOM      2  C   UNL     1      30.574  24.647  12.371  1.00  0.00     0.122 A 
ATOM      3  C   UNL     1      29.702  25.631  11.890  1.00  0.00     0.092 A 
ATOM      4  C   UNL     1      28.322  25.512  12.071  1.00  0.00     0.119 A 
ATOM      5  C   UNL     1      27.803  24.401  12.743  1.00  0.00     0.047 A 
ATOM      6  C   UNL     1      28.661  23.410  13.226  1.00  0.00     0.011 A 
ENDROOT
BRANCH   1   7
ATOM      7  C   UNL     1      30.940  22.420  13.589  1.00  0.00     0.036 C 
ATOM      8  C   UNL     1      30.147  21.140  13.832  1.00  0.00     0.009 C 
ENDBRANCH   1   7
BRANCH   2   9
ATOM      9  O   UNL     1      31.944  24.836  12.177  1.00  0.00    -0.508 OA
ATOM     10  H   UNL     1      32.609  24.932  12.932  1.00  0.00     0.293 HD
ENDBRANCH   2   9
BRANCH   4  11
ATOM     11  O   UNL     1      27.475  26.506  11.583  1.00  0.00    -0.508 OA
ATOM     12  H   UNL     1      27.391  27.404  12.044  1.00  0.00     0.293 HD
ENDBRANCH   4  11
TORSDOF 3
ENDMDL
MODEL 2
REMARK VINA RESULT:    -4.413      1.582      2.346
REMARK INTER + INTRA:          -5.014
REMARK INTER:                  -4.929
REMARK INTRA:                  -0.085
REMARK UNBOUND:                -0.085
REMARK SMILES CCc1ccc(O)cc1O
REMARK SMILES IDX 3 1 9 2 8 3 6 4 5 5 4 6 2 7 1 8 10 9 7 11
REMARK H PARENT 10 10 7 12
REMARK Flexibility Score: inf
ROOT
ATOM      1  C   UNL     1      29.692  23.094  12.879  1.00  0.00    -0.006 A 
ATOM      2  C   UNL     1      28.574  23.946  13.063  1.00  0.00     0.122 A 
ATOM      3  C   UNL     1      28.411  25.065  12.236  1.00  0.00     0.092 A 
ATOM      4  C   UNL     1      29.331  25.342  11.221  1.00  0.00     0.119 A 
ATOM      5  C   UNL     1      30.426  24.493  11.026  1.00  0.00     0.047 A 
ATOM      6  C   UNL     1      30.602  23.377  11.845  1.00  0.00     0.011 A 
ENDROOT
BRANCH   1   7
ATOM      7  C   UNL     1      29.917  21.867  13.731  1.00  0.00     0.036 C 
ATOM      8  C   UNL     1      31.013  20.986  13.140  1.00  0.00     0.009 C 
ENDBRANCH   1   7
BRANCH   2   9
ATOM      9  O   UNL     1      27.607  23.713  14.044  1.00  0.00    -0.508 OA
ATOM     10  H   UNL     1      27.047  24.442  14.463  1.00  0.00     0.293 HD
ENDBRANCH   2   9
BRANCH   4  11
ATOM     11  O   UNL     1      29.147  26.461  10.412  1.00  0.00    -0.508 OA
ATOM     12  H   UNL     1      29.742  26.640   9.612  1.00  0.00     0.293 HD
ENDBRANCH   4  11
TORSDOF 3
ENDMDL
MODEL 3
REMARK VINA RESULT:    -4.228      2.019      3.420
REMARK INTER + INTRA:          -4.807
REMARK INTER:                  -4.705
REMARK INTRA:                  -0.101
REMARK UNBOUND:                -0.085
REMARK SMILES CCc1ccc(O)cc1O
REMARK SMILES IDX 3 1 9 2 8 3 6 4 5 5 4 6 2 7 1 8 10 9 7 11
REMARK H PARENT 10 10 7 12
REMARK Flexibility Score: inf
ROOT
ATOM      1  C   UNL     1      29.666  25.552  11.995  1.00  0.00    -0.006 A 
ATOM      2  C   UNL     1      28.511  26.359  11.840  1.00  0.00     0.122 A 
ATOM      3  C   UNL     1      28.617  27.751  11.960  1.00  0.00     0.092 A 
ATOM      4  C   UNL     1      29.851  28.353  12.214  1.00  0.00     0.119 A 
ATOM      5  C   UNL     1      30.996  27.561  12.349  1.00  0.00     0.047 A 
ATOM      6  C   UNL     1      30.904  26.172  12.236  1.00  0.00     0.011 A 
ENDROOT
BRANCH   1   7
ATOM      7  C   UNL     1      29.619  24.047  11.867  1.00  0.00     0.036 C 
ATOM      8  C   UNL     1      29.272  23.397  13.203  1.00  0.00     0.009 C 
ENDBRANCH   1   7
BRANCH   2   9
ATOM      9  O   UNL     1      27.252  25.821  11.563  1.00  0.00    -0.508 OA
ATOM     10  H   UNL     1      27.052  24.831  11.577  1.00  0.00     0.293 HD
ENDBRANCH   2   9
BRANCH   4  11
ATOM     11  O   UNL     1      29.930  29.740  12.327  1.00  0.00    -0.508 OA
ATOM     12  H   UNL     1      30.602  30.184  12.941  1.00  0.00     0.293 HD
ENDBRANCH   4  11
TORSDOF 3
ENDMDL
MODEL 4
REMARK VINA RESULT:    -4.216      2.426      3.269
REMARK INTER + INTRA:          -4.793
REMARK INTER:                  -4.694
REMARK INTRA:                  -0.100
REMARK UNBOUND:                -0.085
REMARK SMILES CCc1ccc(O)cc1O
REMARK SMILES IDX 3 1 9 2 8 3 6 4 5 5 4 6 2 7 1 8 10 9 7 11
REMARK H PARENT 10 10 7 12
REMARK Flexibility Score: inf
ROOT
ATOM      1  C   UNL     1      28.640  25.559  11.888  1.00  0.00    -0.006 A 
ATOM      2  C   UNL     1      29.879  25.412  11.213  1.00  0.00     0.122 A 
ATOM      3  C   UNL     1      30.436  26.508  10.542  1.00  0.00     0.092 A 
ATOM      4  C   UNL     1      29.792  27.748  10.542  1.00  0.00     0.119 A 
ATOM      5  C   UNL     1      28.579  27.900  11.221  1.00  0.00     0.047 A 
ATOM      6  C   UNL     1      28.010  26.816  11.892  1.00  0.00     0.011 A 
ENDROOT
BRANCH   1   7
ATOM      7  C   UNL     1      27.993  24.418  12.639  1.00  0.00     0.036 C 
ATOM      8  C   UNL     1      26.861  23.801  11.823  1.00  0.00     0.009 C 
ENDBRANCH   1   7
BRANCH   2   9
ATOM      9  O   UNL     1      30.583  24.206  11.194  1.00  0.00    -0.508 OA
ATOM     10  H   UNL     1      31.587  24.143  11.293  1.00  0.00     0.293 HD
ENDBRANCH   2   9
BRANCH   4  11
ATOM     11  O   UNL     1      30.368  28.822   9.867  1.00  0.00    -0.508 OA
ATOM     12  H   UNL     1      31.315  29.124  10.063  1.00  0.00     0.293 HD
ENDBRANCH   4  11
TORSDOF 3
ENDMDL
MODEL 5
REMARK VINA RESULT:    -4.134      1.761      2.941
REMARK INTER + INTRA:          -4.701
REMARK INTER:                  -4.598
REMARK INTRA:                  -0.103
REMARK UNBOUND:                -0.085
REMARK SMILES CCc1ccc(O)cc1O
REMARK SMILES IDX 3 1 9 2 8 3 6 4 5 5 4 6 2 7 1 8 10 9 7 11
REMARK H PARENT 10 10 7 12
REMARK Flexibility Score: inf
ROOT
ATOM      1  C   UNL     1      30.419  24.648  11.640  1.00  0.00    -0.006 A 
ATOM      2  C   UNL     1      29.255  25.412  11.374  1.00  0.00     0.122 A 
ATOM      3  C   UNL     1      28.062  25.116  12.046  1.00  0.00     0.092 A 
ATOM      4  C   UNL     1      28.012  24.084  12.987  1.00  0.00     0.119 A 
ATOM      5  C   UNL     1      29.163  23.341  13.265  1.00  0.00     0.047 A 
ATOM      6  C   UNL     1      30.358  23.623  12.600  1.00  0.00     0.011 A 
ENDROOT
BRANCH   1   7
ATOM      7  C   UNL     1      31.738  24.926  10.956  1.00  0.00     0.036 C 
ATOM      8  C   UNL     1      31.900  24.059   9.711  1.00  0.00     0.009 C 
ENDBRANCH   1   7
BRANCH   2   9
ATOM      9  O   UNL     1      29.245  26.470  10.461  1.00  0.00    -0.508 OA
ATOM     10  H   UNL     1      29.201  27.442  10.732  1.00  0.00     0.293 HD
ENDBRANCH   2   9
BRANCH   4  11
ATOM     11  O   UNL     1      26.813  23.810  13.643  1.00  0.00    -0.508 OA
ATOM     12  H   UNL     1      26.433  22.872  13.681  1.00  0.00     0.293 HD
ENDBRANCH   4  11
TORSDOF 3
ENDMDL
MODEL 6
REMARK VINA RESULT:    -4.111      1.816      4.426
REMARK INTER + INTRA:          -4.677
REMARK INTER:                  -4.576
REMARK INTRA:                  -0.101
REMARK UNBOUND:                -0.085
REMARK SMILES CCc1ccc(O)cc1O
REMARK SMILES IDX 3 1 9 2 8 3 6 4 5 5 4 6 2 7 1 8 10 9 7 11
REMARK H PARENT 10 10 7 12
REMARK Flexibility Score: inf
ROOT
ATOM      1  C   UNL     1      29.727  26.602  11.859  1.00  0.00    -0.006 A 
ATOM      2  C   UNL     1      28.506  25.887  11.963  1.00  0.00     0.122 A 
ATOM      3  C   UNL     1      28.518  24.554  12.394  1.00  0.00     0.092 A 
ATOM      4  C   UNL     1      29.718  23.926  12.737  1.00  0.00     0.119 A 
ATOM      5  C   UNL     1      30.921  24.634  12.653  1.00  0.00     0.047 A 
ATOM      6  C   UNL     1      30.925  25.962  12.222  1.00  0.00     0.011 A 
ENDROOT
BRANCH   1   7
ATOM      7  C   UNL     1      29.779  28.044  11.411  1.00  0.00     0.036 C 
ATOM      8  C   UNL     1      29.554  28.988  12.588  1.00  0.00     0.009 C 
ENDBRANCH   1   7
BRANCH   2   9
ATOM      9  O   UNL     1      27.272  26.464  11.655  1.00  0.00    -0.508 OA
ATOM     10  H   UNL     1      26.407  25.944  11.613  1.00  0.00     0.293 HD
ENDBRANCH   2   9
BRANCH   4  11
ATOM     11  O   UNL     1      29.702  22.600  13.164  1.00  0.00    -0.508 OA
ATOM     12  H   UNL     1      30.140  21.864  12.623  1.00  0.00     0.293 HD
ENDBRANCH   4  11
TORSDOF 3
ENDMDL
MODEL 7
REMARK VINA RESULT:    -4.102      1.478      2.019
REMARK INTER + INTRA:          -4.666
REMARK INTER:                  -4.581
REMARK INTRA:                  -0.085
REMARK UNBOUND:                -0.085
REMARK SMILES CCc1ccc(O)cc1O
REMARK SMILES IDX 3 1 9 2 8 3 6 4 5 5 4 6 2 7 1 8 10 9 7 11
REMARK H PARENT 10 10 7 12
REMARK Flexibility Score: inf
ROOT
ATOM      1  C   UNL     1      29.677  24.838  11.702  1.00  0.00    -0.006 A 
ATOM      2  C   UNL     1      30.399  25.782  10.928  1.00  0.00     0.122 A 
ATOM      3  C   UNL     1      29.836  27.038  10.665  1.00  0.00     0.092 A 
ATOM      4  C   UNL     1      28.577  27.375  11.169  1.00  0.00     0.119 A 
ATOM      5  C   UNL     1      27.871  26.453  11.947  1.00  0.00     0.047 A 
ATOM      6  C   UNL     1      28.418  25.196  12.215  1.00  0.00     0.011 A 
ENDROOT
BRANCH   1   7
ATOM      7  C   UNL     1      30.234  23.472  12.030  1.00  0.00     0.036 C 
ATOM      8  C   UNL     1      29.566  22.895  13.273  1.00  0.00     0.009 C 
ENDBRANCH   1   7
BRANCH   2   9
ATOM      9  O   UNL     1      31.670  25.515  10.415  1.00  0.00    -0.508 OA
ATOM     10  H   UNL     1      32.526  25.827  10.850  1.00  0.00     0.293 HD
ENDBRANCH   2   9
BRANCH   4  11
ATOM     11  O   UNL     1      28.040  28.631  10.893  1.00  0.00    -0.508 OA
ATOM     12  H   UNL     1      27.438  29.106  11.555  1.00  0.00     0.293 HD
ENDBRANCH   4  11
TORSDOF 3
ENDMDL
MODEL 8
REMARK VINA RESULT:    -4.068      3.031      5.552
REMARK INTER + INTRA:          -4.628
REMARK INTER:                  -4.541
REMARK INTRA:                  -0.087
REMARK UNBOUND:                -0.085
REMARK SMILES CCc1ccc(O)cc1O
REMARK SMILES IDX 3 1 9 2 8 3 6 4 5 5 4 6 2 7 1 8 10 9 7 11
REMARK H PARENT 10 10 7 12
REMARK Flexibility Score: inf
ROOT
ATOM      1  C   UNL     1      30.057  28.755  11.480  1.00  0.00    -0.006 A 
ATOM      2  C   UNL     1      28.839  28.068  11.246  1.00  0.00     0.122 A 
ATOM      3  C   UNL     1      28.747  26.701  11.538  1.00  0.00     0.092 A 
ATOM      4  C   UNL     1      29.839  26.011  12.072  1.00  0.00     0.119 A 
ATOM      5  C   UNL     1      31.035  26.690  12.320  1.00  0.00     0.047 A 
ATOM      6  C   UNL     1      31.142  28.052  12.031  1.00  0.00     0.011 A 
ENDROOT
BRANCH   1   7
ATOM      7  C   UNL     1      30.215  30.231  11.196  1.00  0.00     0.036 C 
ATOM      8  C   UNL     1      31.473  30.497  10.376  1.00  0.00     0.009 C 
ENDBRANCH   1   7
BRANCH   2   9
ATOM      9  O   UNL     1      27.705  28.704  10.736  1.00  0.00    -0.508 OA
ATOM     10  H   UNL     1      27.069  29.251  11.299  1.00  0.00     0.293 HD
ENDBRANCH   2   9
BRANCH   4  11
ATOM     11  O   UNL     1      29.721  24.651  12.354  1.00  0.00    -0.508 OA
ATOM     12  H   UNL     1      28.817  24.198  12.412  1.00  0.00     0.293 HD
ENDBRANCH   4  11
TORSDOF 3
ENDMDL
MODEL 9
REMARK VINA RESULT:    -4.024      1.809      3.835
REMARK INTER + INTRA:          -4.579
REMARK INTER:                  -4.488
REMARK INTRA:                  -0.091
REMARK UNBOUND:                -0.085
REMARK SMILES CCc1ccc(O)cc1O
REMARK SMILES IDX 3 1 9 2 8 3 6 4 5 5 4 6 2 7 1 8 10 9 7 11
REMARK H PARENT 10 10 7 12
REMARK Flexibility Score: inf
ROOT
ATOM      1  C   UNL     1      29.013  26.095  11.825  1.00  0.00    -0.006 A 
ATOM      2  C   UNL     1      30.318  25.561  11.981  1.00  0.00     0.122 A 
ATOM      3  C   UNL     1      30.480  24.269  12.500  1.00  0.00     0.092 A 
ATOM      4  C   UNL     1      29.371  23.496  12.850  1.00  0.00     0.119 A 
ATOM      5  C   UNL     1      28.083  24.014  12.681  1.00  0.00     0.047 A 
ATOM      6  C   UNL     1      27.905  25.300  12.168  1.00  0.00     0.011 A 
ENDROOT
BRANCH   1   7
ATOM      7  C   UNL     1      28.772  27.476  11.261  1.00  0.00     0.036 C 
ATOM      8  C   UNL     1      28.912  28.539  12.345  1.00  0.00     0.009 C 
ENDBRANCH   1   7
BRANCH   2   9
ATOM      9  O   UNL     1      31.466  26.273  11.629  1.00  0.00    -0.508 OA
ATOM     10  H   UNL     1      32.404  25.917  11.748  1.00  0.00     0.293 HD
ENDBRANCH   2   9
BRANCH   4  11
ATOM     11  O   UNL     1      29.560  22.215  13.363  1.00  0.00    -0.508 OA
ATOM     12  H   UNL     1      29.593  22.043  14.361  1.00  0.00     0.293 HD
ENDBRANCH   4  11
TORSDOF 3
ENDMDL
