MODEL 1
REMARK VINA RESULT:    -3.534      0.000      0.000
REMARK INTER + INTRA:          -5.061
REMARK INTER:                  -4.773
REMARK INTRA:                  -0.288
REMARK UNBOUND:                -0.288
REMARK SMILES CCCCCCC=CC(=O)[O-]
REMARK SMILES IDX 5 1 6 2 7 3 8 4 9 5 10 6 11 7 4 8 3 9 2 10 1 11
REMARK H PARENT
REMARK Flexibility Score: inf
ROOT
ATOM      1  C   UNL     1       7.817   1.237   5.280  1.00  0.00     0.004 C 
ENDROOT
BRANCH   1   2
ATOM      2  C   UNL     1       7.237   1.486   6.678  1.00  0.00     0.027 C 
BRANCH   2   3
ATOM      3  C   UNL     1       6.172   2.545   6.643  1.00  0.00    -0.025 C 
ATOM      4  C   UNL     1       6.253   3.592   5.815  1.00  0.00     0.020 C 
BRANCH   4   5
ATOM      5  C   UNL     1       5.230   4.647   5.776  1.00  0.00     0.064 C 
ATOM      6  O   UNL     1       5.323   5.674   6.501  1.00  0.00    -0.545 OA
ATOM      7  O   UNL     1       4.141   4.511   4.925  1.00  0.00    -0.545 OA
ENDBRANCH   4   5
ENDBRANCH   2   3
ENDBRANCH   1   2
BRANCH   1   8
ATOM      8  C   UNL     1       9.172   0.524   5.365  1.00  0.00     0.000 C 
BRANCH   8   9
ATOM      9  C   UNL     1       9.121  -0.632   6.376  1.00  0.00    -0.000 C 
BRANCH   9  10
ATOM     10  C   UNL     1      10.031  -1.804   5.977  1.00  0.00    -0.003 C 
ATOM     11  C   UNL     1       9.527  -2.551   4.742  1.00  0.00     0.004 C 
ENDBRANCH   9  10
ENDBRANCH   8   9
ENDBRANCH   1   8
TORSDOF 6
ENDMDL
MODEL 2
REMARK VINA RESULT:    -3.488     12.429     14.168
REMARK INTER + INTRA:          -5.000
REMARK INTER:                  -4.663
REMARK INTRA:                  -0.336
REMARK UNBOUND:                -0.288
REMARK SMILES CCCCCCC=CC(=O)[O-]
REMARK SMILES IDX 5 1 6 2 7 3 8 4 9 5 10 6 11 7 4 8 3 9 2 10 1 11
REMARK H PARENT
REMARK Flexibility Score: inf
ROOT
ATOM      1  C   UNL     1       4.001  -6.723  -5.846  1.00  0.00     0.004 C 
ENDROOT
BRANCH   1   2
ATOM      2  C   UNL     1       5.276  -6.441  -5.043  1.00  0.00     0.027 C 
BRANCH   2   3
ATOM      3  C   UNL     1       5.517  -4.965  -4.906  1.00  0.00    -0.025 C 
ATOM      4  C   UNL     1       5.928  -4.427  -3.751  1.00  0.00     0.020 C 
BRANCH   4   5
ATOM      5  C   UNL     1       6.156  -2.983  -3.591  1.00  0.00     0.064 C 
ATOM      6  O   UNL     1       5.558  -2.144  -4.317  1.00  0.00    -0.545 OA
ATOM      7  O   UNL     1       7.046  -2.535  -2.623  1.00  0.00    -0.545 OA
ENDBRANCH   4   5
ENDBRANCH   2   3
ENDBRANCH   1   2
BRANCH   1   8
ATOM      8  C   UNL     1       3.607  -5.510  -6.697  1.00  0.00     0.000 C 
BRANCH   8   9
ATOM      9  C   UNL     1       2.238  -5.725  -7.360  1.00  0.00    -0.000 C 
BRANCH   9  10
ATOM     10  C   UNL     1       1.719  -7.161  -7.187  1.00  0.00    -0.003 C 
ATOM     11  C   UNL     1       1.377  -7.830  -8.518  1.00  0.00     0.004 C 
ENDBRANCH   9  10
ENDBRANCH   8   9
ENDBRANCH   1   8
TORSDOF 6
ENDMDL
MODEL 3
REMARK VINA RESULT:    -3.462     13.095     14.406
REMARK INTER + INTRA:          -4.965
REMARK INTER:                  -4.606
REMARK INTRA:                  -0.359
REMARK UNBOUND:                -0.288
REMARK SMILES CCCCCCC=CC(=O)[O-]
REMARK SMILES IDX 5 1 6 2 7 3 8 4 9 5 10 6 11 7 4 8 3 9 2 10 1 11
REMARK H PARENT
REMARK Flexibility Score: inf
ROOT
ATOM      1  C   UNL     1       3.524  -5.612  -6.830  1.00  0.00     0.004 C 
ENDROOT
BRANCH   1   2
ATOM      2  C   UNL     1       2.114  -5.418  -7.403  1.00  0.00     0.027 C 
BRANCH   2   3
ATOM      3  C   UNL     1       1.779  -3.960  -7.543  1.00  0.00    -0.025 C 
ATOM      4  C   UNL     1       2.665  -3.007  -7.234  1.00  0.00     0.020 C 
BRANCH   4   5
ATOM      5  C   UNL     1       2.354  -1.574  -7.349  1.00  0.00     0.064 C 
ATOM      6  O   UNL     1       1.380  -1.067  -6.730  1.00  0.00    -0.545 OA
ATOM      7  O   UNL     1       3.146  -0.765  -8.154  1.00  0.00    -0.545 OA
ENDBRANCH   4   5
ENDBRANCH   2   3
ENDBRANCH   1   2
BRANCH   1   8
ATOM      8  C   UNL     1       3.660  -6.983  -6.157  1.00  0.00     0.000 C 
BRANCH   8   9
ATOM      9  C   UNL     1       4.721  -6.946  -5.046  1.00  0.00    -0.000 C 
BRANCH   9  10
ATOM     10  C   UNL     1       5.431  -5.587  -4.954  1.00  0.00    -0.003 C 
ATOM     11  C   UNL     1       6.254  -5.435  -3.675  1.00  0.00     0.004 C 
ENDBRANCH   9  10
ENDBRANCH   8   9
ENDBRANCH   1   8
TORSDOF 6
ENDMDL
MODEL 4
REMARK VINA RESULT:    -3.432      1.634      2.717
REMARK INTER + INTRA:          -4.924
REMARK INTER:                  -4.295
REMARK INTRA:                  -0.629
REMARK UNBOUND:                -0.288
REMARK SMILES CCCCCCC=CC(=O)[O-]
REMARK SMILES IDX 5 1 6 2 7 3 8 4 9 5 10 6 11 7 4 8 3 9 2 10 1 11
REMARK H PARENT
REMARK Flexibility Score: inf
ROOT
ATOM      1  C   UNL     1       7.735   1.172   5.415  1.00  0.00     0.004 C 
ENDROOT
BRANCH   1   2
ATOM      2  C   UNL     1       8.404   2.513   5.088  1.00  0.00     0.027 C 
BRANCH   2   3
ATOM      3  C   UNL     1       7.405   3.635   5.093  1.00  0.00    -0.025 C 
ATOM      4  C   UNL     1       6.271   3.558   5.799  1.00  0.00     0.020 C 
BRANCH   4   5
ATOM      5  C   UNL     1       5.273   4.638   5.807  1.00  0.00     0.064 C 
ATOM      6  O   UNL     1       5.417   5.654   6.538  1.00  0.00    -0.545 OA
ATOM      7  O   UNL     1       4.151   4.537   4.995  1.00  0.00    -0.545 OA
ENDBRANCH   4   5
ENDBRANCH   2   3
ENDBRANCH   1   2
BRANCH   1   8
ATOM      8  C   UNL     1       8.438   0.477   6.587  1.00  0.00     0.000 C 
BRANCH   8   9
ATOM      9  C   UNL     1       7.701   0.746   7.907  1.00  0.00    -0.000 C 
BRANCH   9  10
ATOM     10  C   UNL     1       8.634   1.279   9.005  1.00  0.00    -0.003 C 
ATOM     11  C   UNL     1       9.256   2.629   8.650  1.00  0.00     0.004 C 
ENDBRANCH   9  10
ENDBRANCH   8   9
ENDBRANCH   1   8
TORSDOF 6
ENDMDL
MODEL 5
REMARK VINA RESULT:    -3.397     12.670     13.991
REMARK INTER + INTRA:          -4.877
REMARK INTER:                  -4.412
REMARK INTRA:                  -0.465
REMARK UNBOUND:                -0.288
REMARK SMILES CCCCCCC=CC(=O)[O-]
REMARK SMILES IDX 5 1 6 2 7 3 8 4 9 5 10 6 11 7 4 8 3 9 2 10 1 11
REMARK H PARENT
REMARK Flexibility Score: inf
ROOT
ATOM      1  C   UNL     1       4.024  -6.147  -6.249  1.00  0.00     0.004 C 
ENDROOT
BRANCH   1   2
ATOM      2  C   UNL     1       2.929  -5.489  -7.098  1.00  0.00     0.027 C 
BRANCH   2   3
ATOM      3  C   UNL     1       3.031  -3.990  -7.048  1.00  0.00    -0.025 C 
ATOM      4  C   UNL     1       2.013  -3.208  -7.423  1.00  0.00     0.020 C 
BRANCH   4   5
ATOM      5  C   UNL     1       2.095  -1.740  -7.397  1.00  0.00     0.064 C 
ATOM      6  O   UNL     1       1.246  -1.050  -6.770  1.00  0.00    -0.545 OA
ATOM      7  O   UNL     1       3.126  -1.101  -8.074  1.00  0.00    -0.545 OA
ENDBRANCH   4   5
ENDBRANCH   2   3
ENDBRANCH   1   2
BRANCH   1   8
ATOM      8  C   UNL     1       5.164  -5.164  -5.961  1.00  0.00     0.000 C 
BRANCH   8   9
ATOM      9  C   UNL     1       5.696  -5.342  -4.531  1.00  0.00    -0.000 C 
BRANCH   9  10
ATOM     10  C   UNL     1       6.001  -4.002  -3.845  1.00  0.00    -0.003 C 
ATOM     11  C   UNL     1       5.841  -2.806  -4.783  1.00  0.00     0.004 C 
ENDBRANCH   9  10
ENDBRANCH   8   9
ENDBRANCH   1   8
TORSDOF 6
ENDMDL
MODEL 6
REMARK VINA RESULT:    -3.374     12.037     13.752
REMARK INTER + INTRA:          -4.845
REMARK INTER:                  -4.366
REMARK INTRA:                  -0.480
REMARK UNBOUND:                -0.288
REMARK SMILES CCCCCCC=CC(=O)[O-]
REMARK SMILES IDX 5 1 6 2 7 3 8 4 9 5 10 6 11 7 4 8 3 9 2 10 1 11
REMARK H PARENT
REMARK Flexibility Score: inf
ROOT
ATOM      1  C   UNL     1       3.962  -6.395  -6.153  1.00  0.00     0.004 C 
ENDROOT
BRANCH   1   2
ATOM      2  C   UNL     1       5.069  -6.267  -5.100  1.00  0.00     0.027 C 
BRANCH   2   3
ATOM      3  C   UNL     1       5.539  -4.845  -4.975  1.00  0.00    -0.025 C 
ATOM      4  C   UNL     1       6.008  -4.362  -3.820  1.00  0.00     0.020 C 
BRANCH   4   5
ATOM      5  C   UNL     1       6.460  -2.971  -3.671  1.00  0.00     0.064 C 
ATOM      6  O   UNL     1       6.938  -2.553  -2.582  1.00  0.00    -0.545 OA
ATOM      7  O   UNL     1       6.357  -2.100  -4.748  1.00  0.00    -0.545 OA
ENDBRANCH   4   5
ENDBRANCH   2   3
ENDBRANCH   1   2
BRANCH   1   8
ATOM      8  C   UNL     1       3.819  -5.100  -6.962  1.00  0.00     0.000 C 
BRANCH   8   9
ATOM      9  C   UNL     1       2.341  -4.777  -7.226  1.00  0.00    -0.000 C 
BRANCH   9  10
ATOM     10  C   UNL     1       2.093  -3.274  -7.426  1.00  0.00    -0.003 C 
ATOM     11  C   UNL     1       3.301  -2.419  -7.045  1.00  0.00     0.004 C 
ENDBRANCH   9  10
ENDBRANCH   8   9
ENDBRANCH   1   8
TORSDOF 6
ENDMDL
MODEL 7
REMARK VINA RESULT:    -3.348     13.066     14.412
REMARK INTER + INTRA:          -4.811
REMARK INTER:                  -4.469
REMARK INTRA:                  -0.342
REMARK UNBOUND:                -0.288
REMARK SMILES CCCCCCC=CC(=O)[O-]
REMARK SMILES IDX 5 1 6 2 7 3 8 4 9 5 10 6 11 7 4 8 3 9 2 10 1 11
REMARK H PARENT
REMARK Flexibility Score: inf
ROOT
ATOM      1  C   UNL     1       4.491  -4.754  -6.617  1.00  0.00     0.004 C 
ENDROOT
BRANCH   1   2
ATOM      2  C   UNL     1       3.208  -5.496  -7.011  1.00  0.00     0.027 C 
BRANCH   2   3
ATOM      3  C   UNL     1       2.102  -4.532  -7.339  1.00  0.00    -0.025 C 
ATOM      4  C   UNL     1       2.314  -3.212  -7.379  1.00  0.00     0.020 C 
BRANCH   4   5
ATOM      5  C   UNL     1       1.244  -2.251  -7.683  1.00  0.00     0.064 C 
ATOM      6  O   UNL     1       0.440  -2.449  -8.634  1.00  0.00    -0.545 OA
ATOM      7  O   UNL     1       1.115  -1.104  -6.910  1.00  0.00    -0.545 OA
ENDBRANCH   4   5
ENDBRANCH   2   3
ENDBRANCH   1   2
BRANCH   1   8
ATOM      8  C   UNL     1       5.109  -5.358  -5.351  1.00  0.00     0.000 C 
BRANCH   8   9
ATOM      9  C   UNL     1       4.705  -6.832  -5.191  1.00  0.00    -0.000 C 
BRANCH   9  10
ATOM     10  C   UNL     1       5.480  -7.537  -4.068  1.00  0.00    -0.003 C 
ATOM     11  C   UNL     1       6.242  -6.561  -3.171  1.00  0.00     0.004 C 
ENDBRANCH   9  10
ENDBRANCH   8   9
ENDBRANCH   1   8
TORSDOF 6
ENDMDL
MODEL 8
REMARK VINA RESULT:    -3.263     14.271     15.538
REMARK INTER + INTRA:          -4.696
REMARK INTER:                  -4.204
REMARK INTRA:                  -0.492
REMARK UNBOUND:                -0.288
REMARK SMILES CCCCCCC=CC(=O)[O-]
REMARK SMILES IDX 5 1 6 2 7 3 8 4 9 5 10 6 11 7 4 8 3 9 2 10 1 11
REMARK H PARENT
REMARK Flexibility Score: inf
ROOT
ATOM      1  C   UNL     1       4.059  -5.763  -7.119  1.00  0.00     0.004 C 
ENDROOT
BRANCH   1   2
ATOM      2  C   UNL     1       4.559  -4.406  -6.610  1.00  0.00     0.027 C 
BRANCH   2   3
ATOM      3  C   UNL     1       3.547  -3.324  -6.860  1.00  0.00    -0.025 C 
ATOM      4  C   UNL     1       2.357  -3.594  -7.409  1.00  0.00     0.020 C 
BRANCH   4   5
ATOM      5  C   UNL     1       1.357  -2.549  -7.676  1.00  0.00     0.064 C 
ATOM      6  O   UNL     1       0.520  -2.671  -8.611  1.00  0.00    -0.545 OA
ATOM      7  O   UNL     1       1.333  -1.408  -6.885  1.00  0.00    -0.545 OA
ENDBRANCH   4   5
ENDBRANCH   2   3
ENDBRANCH   1   2
BRANCH   1   8
ATOM      8  C   UNL     1       3.864  -6.748  -5.960  1.00  0.00     0.000 C 
BRANCH   8   9
ATOM      9  C   UNL     1       2.832  -7.826  -6.323  1.00  0.00    -0.000 C 
BRANCH   9  10
ATOM     10  C   UNL     1       1.654  -7.266  -7.133  1.00  0.00    -0.003 C 
ATOM     11  C   UNL     1       1.305  -8.129  -8.345  1.00  0.00     0.004 C 
ENDBRANCH   9  10
ENDBRANCH   8   9
ENDBRANCH   1   8
TORSDOF 6
ENDMDL
MODEL 9
REMARK VINA RESULT:    -3.230      3.216      5.527
REMARK INTER + INTRA:          -4.651
REMARK INTER:                  -3.969
REMARK INTRA:                  -0.682
REMARK UNBOUND:                -0.288
REMARK SMILES CCCCCCC=CC(=O)[O-]
REMARK SMILES IDX 5 1 6 2 7 3 8 4 9 5 10 6 11 7 4 8 3 9 2 10 1 11
REMARK H PARENT
REMARK Flexibility Score: inf
ROOT
ATOM      1  C   UNL     1       5.502   2.573   7.259  1.00  0.00     0.004 C 
ENDROOT
BRANCH   1   2
ATOM      2  C   UNL     1       6.666   1.614   7.537  1.00  0.00     0.027 C 
BRANCH   2   3
ATOM      3  C   UNL     1       7.310   1.155   6.259  1.00  0.00    -0.025 C 
ATOM      4  C   UNL     1       8.609   0.840   6.204  1.00  0.00     0.020 C 
BRANCH   4   5
ATOM      5  C   UNL     1       9.262   0.403   4.962  1.00  0.00     0.064 C 
ATOM      6  O   UNL     1       9.740   1.238   4.148  1.00  0.00    -0.545 OA
ATOM      7  O   UNL     1       9.354  -0.953   4.678  1.00  0.00    -0.545 OA
ENDBRANCH   4   5
ENDBRANCH   2   3
ENDBRANCH   1   2
BRANCH   1   8
ATOM      8  C   UNL     1       5.999   4.017   7.125  1.00  0.00     0.000 C 
BRANCH   8   9
ATOM      9  C   UNL     1       5.785   4.542   5.698  1.00  0.00    -0.000 C 
BRANCH   9  10
ATOM     10  C   UNL     1       7.100   4.666   4.912  1.00  0.00    -0.003 C 
ATOM     11  C   UNL     1       8.330   4.699   5.819  1.00  0.00     0.004 C 
ENDBRANCH   9  10
ENDBRANCH   8   9
ENDBRANCH   1   8
TORSDOF 6
ENDMDL
