MODEL 1
REMARK VINA RESULT:    -4.492      0.000      0.000
REMARK INTER + INTRA:         -10.568
REMARK INTER:                  -8.168
REMARK INTRA:                  -2.399
REMARK UNBOUND:                -2.399
REMARK SMILES CCCCCCCCCCCCCC[C@@H](C)C(=O)[O-]
REMARK SMILES IDX 9 1 10 2 11 3 12 4 13 5 14 6 15 7 16 8 17 9 18 10 19 11 8 12
REMARK SMILES IDX 7 13 6 14 5 15 4 16 3 17 2 18 1 19
REMARK H PARENT
REMARK Flexibility Score: inf
ROOT
ATOM      1  C   UNL     1     -52.429  15.575 -27.823  1.00  0.00     0.000 C 
ENDROOT
BRANCH   1   2
ATOM      2  C   UNL     1     -53.625  14.662 -28.141  1.00  0.00     0.000 C 
BRANCH   2   3
ATOM      3  C   UNL     1     -53.925  14.536 -29.650  1.00  0.00     0.000 C 
BRANCH   3   4
ATOM      4  C   UNL     1     -53.568  13.142 -30.197  1.00  0.00     0.000 C 
BRANCH   4   5
ATOM      5  C   UNL     1     -52.424  12.475 -29.418  1.00  0.00     0.001 C 
BRANCH   5   6
ATOM      6  C   UNL     1     -51.467  11.688 -30.330  1.00  0.00     0.009 C 
BRANCH   6   7
ATOM      7  C   UNL     1     -49.985  12.050 -30.092  1.00  0.00     0.032 C 
ATOM      8  C   UNL     1     -49.827  13.357 -29.303  1.00  0.00     0.014 C 
BRANCH   7   9
ATOM      9  C   UNL     1     -49.300  10.932 -29.356  1.00  0.00     0.044 C 
ATOM     10  O   UNL     1     -49.413   9.745 -29.761  1.00  0.00    -0.550 OA
ATOM     11  O   UNL     1     -48.539  11.199 -28.224  1.00  0.00    -0.550 OA
ENDBRANCH   7   9
ENDBRANCH   6   7
ENDBRANCH   5   6
ENDBRANCH   4   5
ENDBRANCH   3   4
ENDBRANCH   2   3
ENDBRANCH   1   2
BRANCH   1  12
ATOM     12  C   UNL     1     -52.843  16.872 -27.109  1.00  0.00     0.000 C 
BRANCH  12  13
ATOM     13  C   UNL     1     -54.008  17.600 -27.805  1.00  0.00    -0.000 C 
BRANCH  13  14
ATOM     14  C   UNL     1     -53.604  18.735 -28.765  1.00  0.00    -0.000 C 
BRANCH  14  15
ATOM     15  C   UNL     1     -54.055  18.486 -30.214  1.00  0.00    -0.000 C 
BRANCH  15  16
ATOM     16  C   UNL     1     -52.978  17.793 -31.068  1.00  0.00    -0.000 C 
BRANCH  16  17
ATOM     17  C   UNL     1     -51.538  17.916 -30.536  1.00  0.00    -0.000 C 
BRANCH  17  18
ATOM     18  C   UNL     1     -50.725  16.623 -30.697  1.00  0.00    -0.003 C 
ATOM     19  C   UNL     1     -51.278  15.763 -31.830  1.00  0.00     0.004 C 
ENDBRANCH  17  18
ENDBRANCH  16  17
ENDBRANCH  15  16
ENDBRANCH  14  15
ENDBRANCH  13  14
ENDBRANCH  12  13
ENDBRANCH   1  12
TORSDOF 14
ENDMDL
MODEL 2
REMARK VINA RESULT:    -4.399     14.919     16.589
REMARK INTER + INTRA:         -10.399
REMARK INTER:                  -7.744
REMARK INTRA:                  -2.655
REMARK UNBOUND:                -2.399
REMARK SMILES CCCCCCCCCCCCCC[C@@H](C)C(=O)[O-]
REMARK SMILES IDX 9 1 10 2 11 3 12 4 13 5 14 6 15 7 16 8 17 9 18 10 19 11 8 12
REMARK SMILES IDX 7 13 6 14 5 15 4 16 3 17 2 18 1 19
REMARK H PARENT
REMARK Flexibility Score: inf
ROOT
ATOM      1  C   UNL     1     -38.868  22.312 -28.488  1.00  0.00     0.000 C 
ENDROOT
BRANCH   1   2
ATOM      2  C   UNL     1     -39.372  20.972 -29.050  1.00  0.00     0.000 C 
BRANCH   2   3
ATOM      3  C   UNL     1     -38.999  20.741 -30.530  1.00  0.00     0.000 C 
BRANCH   3   4
ATOM      4  C   UNL     1     -38.387  19.349 -30.762  1.00  0.00     0.000 C 
BRANCH   4   5
ATOM      5  C   UNL     1     -38.831  18.322 -29.709  1.00  0.00     0.001 C 
BRANCH   5   6
ATOM      6  C   UNL     1     -37.670  17.851 -28.815  1.00  0.00     0.009 C 
BRANCH   6   7
ATOM      7  C   UNL     1     -36.378  18.666 -29.040  1.00  0.00     0.032 C 
ATOM      8  C   UNL     1     -35.874  19.323 -27.748  1.00  0.00     0.014 C 
BRANCH   7   9
ATOM      9  C   UNL     1     -35.305  17.774 -29.603  1.00  0.00     0.044 C 
ATOM     10  O   UNL     1     -34.096  17.988 -29.327  1.00  0.00    -0.550 OA
ATOM     11  O   UNL     1     -35.641  16.710 -30.432  1.00  0.00    -0.550 OA
ENDBRANCH   7   9
ENDBRANCH   6   7
ENDBRANCH   5   6
ENDBRANCH   4   5
ENDBRANCH   3   4
ENDBRANCH   2   3
ENDBRANCH   1   2
BRANCH   1  12
ATOM     12  C   UNL     1     -37.492  22.712 -29.044  1.00  0.00     0.000 C 
BRANCH  12  13
ATOM     13  C   UNL     1     -36.448  22.974 -27.943  1.00  0.00    -0.000 C 
BRANCH  13  14
ATOM     14  C   UNL     1     -34.982  23.016 -28.413  1.00  0.00    -0.000 C 
BRANCH  14  15
ATOM     15  C   UNL     1     -34.837  22.904 -29.941  1.00  0.00    -0.000 C 
BRANCH  15  16
ATOM     16  C   UNL     1     -34.129  21.611 -30.384  1.00  0.00    -0.000 C 
BRANCH  16  17
ATOM     17  C   UNL     1     -34.797  20.863 -31.553  1.00  0.00    -0.000 C 
BRANCH  17  18
ATOM     18  C   UNL     1     -35.911  21.676 -32.228  1.00  0.00    -0.003 C 
ATOM     19  C   UNL     1     -35.514  22.084 -33.644  1.00  0.00     0.004 C 
ENDBRANCH  17  18
ENDBRANCH  16  17
ENDBRANCH  15  16
ENDBRANCH  14  15
ENDBRANCH  13  14
ENDBRANCH  12  13
ENDBRANCH   1  12
TORSDOF 14
ENDMDL
MODEL 3
REMARK VINA RESULT:    -4.352      1.546      3.320
REMARK INTER + INTRA:         -10.312
REMARK INTER:                  -8.293
REMARK INTRA:                  -2.020
REMARK UNBOUND:                -2.399
REMARK SMILES CCCCCCCCCCCCCC[C@@H](C)C(=O)[O-]
REMARK SMILES IDX 9 1 10 2 11 3 12 4 13 5 14 6 15 7 16 8 17 9 18 10 19 11 8 12
REMARK SMILES IDX 7 13 6 14 5 15 4 16 3 17 2 18 1 19
REMARK H PARENT
REMARK Flexibility Score: inf
ROOT
ATOM      1  C   UNL     1     -50.504  13.850 -28.935  1.00  0.00     0.000 C 
ENDROOT
BRANCH   1   2
ATOM      2  C   UNL     1     -51.714  12.907 -28.829  1.00  0.00     0.000 C 
BRANCH   2   3
ATOM      3  C   UNL     1     -52.330  12.532 -30.193  1.00  0.00     0.000 C 
BRANCH   3   4
ATOM      4  C   UNL     1     -52.346  11.011 -30.424  1.00  0.00     0.000 C 
BRANCH   4   5
ATOM      5  C   UNL     1     -51.512  10.587 -31.643  1.00  0.00     0.001 C 
BRANCH   5   6
ATOM      6  C   UNL     1     -50.008  10.503 -31.330  1.00  0.00     0.009 C 
BRANCH   6   7
ATOM      7  C   UNL     1     -49.682   9.451 -30.249  1.00  0.00     0.032 C 
ATOM      8  C   UNL     1     -50.230   8.063 -30.606  1.00  0.00     0.014 C 
BRANCH   7   9
ATOM      9  C   UNL     1     -48.193   9.368 -30.051  1.00  0.00     0.044 C 
ATOM     10  O   UNL     1     -47.487   8.687 -30.839  1.00  0.00    -0.550 OA
ATOM     11  O   UNL     1     -47.587  10.042 -28.997  1.00  0.00    -0.550 OA
ENDBRANCH   7   9
ENDBRANCH   6   7
ENDBRANCH   5   6
ENDBRANCH   4   5
ENDBRANCH   3   4
ENDBRANCH   2   3
ENDBRANCH   1   2
BRANCH   1  12
ATOM     12  C   UNL     1     -50.106  14.147 -30.390  1.00  0.00     0.000 C 
BRANCH  12  13
ATOM     13  C   UNL     1     -50.306  15.623 -30.783  1.00  0.00    -0.000 C 
BRANCH  13  14
ATOM     14  C   UNL     1     -51.502  15.907 -31.712  1.00  0.00    -0.000 C 
BRANCH  14  15
ATOM     15  C   UNL     1     -52.360  17.094 -31.242  1.00  0.00    -0.000 C 
BRANCH  15  16
ATOM     16  C   UNL     1     -51.741  17.848 -30.051  1.00  0.00    -0.000 C 
BRANCH  16  17
ATOM     17  C   UNL     1     -52.652  17.987 -28.817  1.00  0.00    -0.000 C 
BRANCH  17  18
ATOM     18  C   UNL     1     -52.613  16.758 -27.899  1.00  0.00    -0.003 C 
ATOM     19  C   UNL     1     -53.840  15.874 -28.111  1.00  0.00     0.004 C 
ENDBRANCH  17  18
ENDBRANCH  16  17
ENDBRANCH  15  16
ENDBRANCH  14  15
ENDBRANCH  13  14
ENDBRANCH  12  13
ENDBRANCH   1  12
TORSDOF 14
ENDMDL
MODEL 4
REMARK VINA RESULT:    -4.339     15.004     17.109
REMARK INTER + INTRA:         -10.290
REMARK INTER:                  -7.973
REMARK INTRA:                  -2.317
REMARK UNBOUND:                -2.399
REMARK SMILES CCCCCCCCCCCCCC[C@@H](C)C(=O)[O-]
REMARK SMILES IDX 9 1 10 2 11 3 12 4 13 5 14 6 15 7 16 8 17 9 18 10 19 11 8 12
REMARK SMILES IDX 7 13 6 14 5 15 4 16 3 17 2 18 1 19
REMARK H PARENT
REMARK Flexibility Score: inf
ROOT
ATOM      1  C   UNL     1     -39.154  21.167 -29.368  1.00  0.00     0.000 C 
ENDROOT
BRANCH   1   2
ATOM      2  C   UNL     1     -37.985  21.658 -28.498  1.00  0.00     0.000 C 
BRANCH   2   3
ATOM      3  C   UNL     1     -37.174  22.803 -29.139  1.00  0.00     0.000 C 
BRANCH   3   4
ATOM      4  C   UNL     1     -35.667  22.678 -28.850  1.00  0.00     0.000 C 
BRANCH   4   5
ATOM      5  C   UNL     1     -34.912  21.926 -29.957  1.00  0.00     0.001 C 
BRANCH   5   6
ATOM      6  C   UNL     1     -34.985  22.643 -31.316  1.00  0.00     0.009 C 
BRANCH   6   7
ATOM      7  C   UNL     1     -35.458  21.714 -32.455  1.00  0.00     0.032 C 
ATOM      8  C   UNL     1     -36.871  21.168 -32.209  1.00  0.00     0.014 C 
BRANCH   7   9
ATOM      9  C   UNL     1     -35.425  22.455 -33.763  1.00  0.00     0.044 C 
ATOM     10  O   UNL     1     -36.139  22.071 -34.726  1.00  0.00    -0.550 OA
ATOM     11  O   UNL     1     -34.607  23.568 -33.919  1.00  0.00    -0.550 OA
ENDBRANCH   7   9
ENDBRANCH   6   7
ENDBRANCH   5   6
ENDBRANCH   4   5
ENDBRANCH   3   4
ENDBRANCH   2   3
ENDBRANCH   1   2
BRANCH   1  12
ATOM     12  C   UNL     1     -40.016  20.105 -28.666  1.00  0.00     0.000 C 
BRANCH  12  13
ATOM     13  C   UNL     1     -39.727  18.673 -29.153  1.00  0.00    -0.000 C 
BRANCH  13  14
ATOM     14  C   UNL     1     -38.699  18.555 -30.294  1.00  0.00    -0.000 C 
BRANCH  14  15
ATOM     15  C   UNL     1     -38.159  17.125 -30.472  1.00  0.00    -0.000 C 
BRANCH  15  16
ATOM     16  C   UNL     1     -36.688  16.982 -30.045  1.00  0.00    -0.000 C 
BRANCH  16  17
ATOM     17  C   UNL     1     -35.890  18.298 -29.983  1.00  0.00    -0.000 C 
BRANCH  17  18
ATOM     18  C   UNL     1     -35.163  18.498 -28.646  1.00  0.00    -0.003 C 
ATOM     19  C   UNL     1     -36.149  18.817 -27.526  1.00  0.00     0.004 C 
ENDBRANCH  17  18
ENDBRANCH  16  17
ENDBRANCH  15  16
ENDBRANCH  14  15
ENDBRANCH  13  14
ENDBRANCH  12  13
ENDBRANCH   1  12
TORSDOF 14
ENDMDL
MODEL 5
REMARK VINA RESULT:    -4.268      1.563      3.291
REMARK INTER + INTRA:         -10.161
REMARK INTER:                  -8.094
REMARK INTRA:                  -2.066
REMARK UNBOUND:                -2.399
REMARK SMILES CCCCCCCCCCCCCC[C@@H](C)C(=O)[O-]
REMARK SMILES IDX 9 1 10 2 11 3 12 4 13 5 14 6 15 7 16 8 17 9 18 10 19 11 8 12
REMARK SMILES IDX 7 13 6 14 5 15 4 16 3 17 2 18 1 19
REMARK H PARENT
REMARK Flexibility Score: inf
ROOT
ATOM      1  C   UNL     1     -50.541  13.875 -28.970  1.00  0.00     0.000 C 
ENDROOT
BRANCH   1   2
ATOM      2  C   UNL     1     -52.003  14.285 -28.723  1.00  0.00     0.000 C 
BRANCH   2   3
ATOM      3  C   UNL     1     -53.007  13.123 -28.877  1.00  0.00     0.000 C 
BRANCH   3   4
ATOM      4  C   UNL     1     -53.572  13.031 -30.306  1.00  0.00     0.000 C 
BRANCH   4   5
ATOM      5  C   UNL     1     -53.321  11.662 -30.956  1.00  0.00     0.001 C 
BRANCH   5   6
ATOM      6  C   UNL     1     -52.397  10.766 -30.112  1.00  0.00     0.009 C 
BRANCH   6   7
ATOM      7  C   UNL     1     -51.410   9.951 -30.974  1.00  0.00     0.032 C 
ATOM      8  C   UNL     1     -50.050  10.647 -31.115  1.00  0.00     0.014 C 
BRANCH   7   9
ATOM      9  C   UNL     1     -51.217   8.586 -30.372  1.00  0.00     0.044 C 
ATOM     10  O   UNL     1     -50.111   7.994 -30.487  1.00  0.00    -0.550 OA
ATOM     11  O   UNL     1     -52.256   7.968 -29.687  1.00  0.00    -0.550 OA
ENDBRANCH   7   9
ENDBRANCH   6   7
ENDBRANCH   5   6
ENDBRANCH   4   5
ENDBRANCH   3   4
ENDBRANCH   2   3
ENDBRANCH   1   2
BRANCH   1  12
ATOM     12  C   UNL     1     -50.041  14.267 -30.370  1.00  0.00     0.000 C 
BRANCH  12  13
ATOM     13  C   UNL     1     -50.363  15.727 -30.739  1.00  0.00    -0.000 C 
BRANCH  13  14
ATOM     14  C   UNL     1     -51.526  15.920 -31.731  1.00  0.00    -0.000 C 
BRANCH  14  15
ATOM     15  C   UNL     1     -52.578  16.927 -31.237  1.00  0.00    -0.000 C 
BRANCH  15  16
ATOM     16  C   UNL     1     -52.036  17.878 -30.154  1.00  0.00    -0.000 C 
BRANCH  16  17
ATOM     17  C   UNL     1     -53.105  18.537 -29.263  1.00  0.00    -0.000 C 
BRANCH  17  18
ATOM     18  C   UNL     1     -53.635  17.602 -28.168  1.00  0.00    -0.003 C 
ATOM     19  C   UNL     1     -52.635  17.473 -27.022  1.00  0.00     0.004 C 
ENDBRANCH  17  18
ENDBRANCH  16  17
ENDBRANCH  15  16
ENDBRANCH  14  15
ENDBRANCH  13  14
ENDBRANCH  12  13
ENDBRANCH   1  12
TORSDOF 14
ENDMDL
MODEL 6
REMARK VINA RESULT:    -4.256      3.329      7.814
REMARK INTER + INTRA:         -10.138
REMARK INTER:                  -8.193
REMARK INTRA:                  -1.945
REMARK UNBOUND:                -2.399
REMARK SMILES CCCCCCCCCCCCCC[C@@H](C)C(=O)[O-]
REMARK SMILES IDX 9 1 10 2 11 3 12 4 13 5 14 6 15 7 16 8 17 9 18 10 19 11 8 12
REMARK SMILES IDX 7 13 6 14 5 15 4 16 3 17 2 18 1 19
REMARK H PARENT
REMARK Flexibility Score: inf
ROOT
ATOM      1  C   UNL     1     -47.292   9.647 -29.260  1.00  0.00     0.000 C 
ENDROOT
BRANCH   1   2
ATOM      2  C   UNL     1     -48.721  10.214 -29.231  1.00  0.00     0.000 C 
BRANCH   2   3
ATOM      3  C   UNL     1     -48.854  11.516 -28.412  1.00  0.00     0.000 C 
BRANCH   3   4
ATOM      4  C   UNL     1     -49.940  12.448 -28.978  1.00  0.00     0.000 C 
BRANCH   4   5
ATOM      5  C   UNL     1     -49.368  13.530 -29.906  1.00  0.00     0.001 C 
BRANCH   5   6
ATOM      6  C   UNL     1     -50.374  14.660 -30.189  1.00  0.00     0.009 C 
BRANCH   6   7
ATOM      7  C   UNL     1     -51.767  14.380 -29.586  1.00  0.00     0.032 C 
ATOM      8  C   UNL     1     -52.154  15.411 -28.517  1.00  0.00     0.014 C 
BRANCH   7   9
ATOM      9  C   UNL     1     -52.802  14.374 -30.678  1.00  0.00     0.044 C 
ATOM     10  O   UNL     1     -53.628  15.319 -30.771  1.00  0.00    -0.550 OA
ATOM     11  O   UNL     1     -52.854  13.326 -31.589  1.00  0.00    -0.550 OA
ENDBRANCH   7   9
ENDBRANCH   6   7
ENDBRANCH   5   6
ENDBRANCH   4   5
ENDBRANCH   3   4
ENDBRANCH   2   3
ENDBRANCH   1   2
BRANCH   1  12
ATOM     12  C   UNL     1     -47.115   8.531 -30.303  1.00  0.00     0.000 C 
BRANCH  12  13
ATOM     13  C   UNL     1     -47.947   7.274 -29.991  1.00  0.00    -0.000 C 
BRANCH  13  14
ATOM     14  C   UNL     1     -48.744   6.694 -31.175  1.00  0.00    -0.000 C 
BRANCH  14  15
ATOM     15  C   UNL     1     -48.574   7.507 -32.470  1.00  0.00    -0.000 C 
BRANCH  15  16
ATOM     16  C   UNL     1     -49.853   8.262 -32.876  1.00  0.00    -0.000 C 
BRANCH  16  17
ATOM     17  C   UNL     1     -49.751   9.798 -32.829  1.00  0.00    -0.000 C 
BRANCH  17  18
ATOM     18  C   UNL     1     -50.874  10.451 -32.011  1.00  0.00    -0.003 C 
ATOM     19  C   UNL     1     -51.686   9.402 -31.257  1.00  0.00     0.004 C 
ENDBRANCH  17  18
ENDBRANCH  16  17
ENDBRANCH  15  16
ENDBRANCH  14  15
ENDBRANCH  13  14
ENDBRANCH  12  13
ENDBRANCH   1  12
TORSDOF 14
ENDMDL
MODEL 7
REMARK VINA RESULT:    -4.226      3.967      8.503
REMARK INTER + INTRA:         -10.085
REMARK INTER:                  -8.090
REMARK INTRA:                  -1.995
REMARK UNBOUND:                -2.399
REMARK SMILES CCCCCCCCCCCCCC[C@@H](C)C(=O)[O-]
REMARK SMILES IDX 9 1 10 2 11 3 12 4 13 5 14 6 15 7 16 8 17 9 18 10 19 11 8 12
REMARK SMILES IDX 7 13 6 14 5 15 4 16 3 17 2 18 1 19
REMARK H PARENT
REMARK Flexibility Score: inf
ROOT
ATOM      1  C   UNL     1     -52.445   7.127 -32.162  1.00  0.00     0.000 C 
ENDROOT
BRANCH   1   2
ATOM      2  C   UNL     1     -52.493   8.622 -31.806  1.00  0.00     0.000 C 
BRANCH   2   3
ATOM      3  C   UNL     1     -51.684   9.515 -32.770  1.00  0.00     0.000 C 
BRANCH   3   4
ATOM      4  C   UNL     1     -50.446  10.128 -32.091  1.00  0.00     0.000 C 
BRANCH   4   5
ATOM      5  C   UNL     1     -50.648  10.355 -30.585  1.00  0.00     0.001 C 
BRANCH   5   6
ATOM      6  C   UNL     1     -51.235  11.742 -30.268  1.00  0.00     0.009 C 
BRANCH   6   7
ATOM      7  C   UNL     1     -50.573  12.401 -29.039  1.00  0.00     0.032 C 
ATOM      8  C   UNL     1     -49.241  11.733 -28.669  1.00  0.00     0.014 C 
BRANCH   7   9
ATOM      9  C   UNL     1     -50.345  13.864 -29.307  1.00  0.00     0.044 C 
ATOM     10  O   UNL     1     -50.972  14.733 -28.647  1.00  0.00    -0.550 OA
ATOM     11  O   UNL     1     -49.443  14.266 -30.285  1.00  0.00    -0.550 OA
ENDBRANCH   7   9
ENDBRANCH   6   7
ENDBRANCH   5   6
ENDBRANCH   4   5
ENDBRANCH   3   4
ENDBRANCH   2   3
ENDBRANCH   1   2
BRANCH   1  12
ATOM     12  C   UNL     1     -52.147   6.877 -33.649  1.00  0.00     0.000 C 
BRANCH  12  13
ATOM     13  C   UNL     1     -50.886   6.024 -33.879  1.00  0.00    -0.000 C 
BRANCH  13  14
ATOM     14  C   UNL     1     -49.553   6.693 -33.492  1.00  0.00    -0.000 C 
BRANCH  14  15
ATOM     15  C   UNL     1     -48.865   6.015 -32.294  1.00  0.00    -0.000 C 
BRANCH  15  16
ATOM     16  C   UNL     1     -49.153   6.721 -30.957  1.00  0.00    -0.000 C 
BRANCH  16  17
ATOM     17  C   UNL     1     -47.909   7.204 -30.188  1.00  0.00    -0.000 C 
BRANCH  17  18
ATOM     18  C   UNL     1     -47.367   8.545 -30.703  1.00  0.00    -0.003 C 
ATOM     19  C   UNL     1     -46.713   9.342 -29.578  1.00  0.00     0.004 C 
ENDBRANCH  17  18
ENDBRANCH  16  17
ENDBRANCH  15  16
ENDBRANCH  14  15
ENDBRANCH  13  14
ENDBRANCH  12  13
ENDBRANCH   1  12
TORSDOF 14
ENDMDL
MODEL 8
REMARK VINA RESULT:    -4.214      3.062      6.610
REMARK INTER + INTRA:         -10.063
REMARK INTER:                  -7.849
REMARK INTRA:                  -2.213
REMARK UNBOUND:                -2.399
REMARK SMILES CCCCCCCCCCCCCC[C@@H](C)C(=O)[O-]
REMARK SMILES IDX 9 1 10 2 11 3 12 4 13 5 14 6 15 7 16 8 17 9 18 10 19 11 8 12
REMARK SMILES IDX 7 13 6 14 5 15 4 16 3 17 2 18 1 19
REMARK H PARENT
REMARK Flexibility Score: inf
ROOT
ATOM      1  C   UNL     1     -49.528  13.349 -29.760  1.00  0.00     0.000 C 
ENDROOT
BRANCH   1   2
ATOM      2  C   UNL     1     -50.502  14.536 -29.656  1.00  0.00     0.000 C 
BRANCH   2   3
ATOM      3  C   UNL     1     -50.338  15.572 -30.788  1.00  0.00     0.000 C 
BRANCH   3   4
ATOM      4  C   UNL     1     -51.661  15.834 -31.530  1.00  0.00     0.000 C 
BRANCH   4   5
ATOM      5  C   UNL     1     -52.886  15.325 -30.754  1.00  0.00     0.001 C 
BRANCH   5   6
ATOM      6  C   UNL     1     -53.696  16.466 -30.113  1.00  0.00     0.009 C 
BRANCH   6   7
ATOM      7  C   UNL     1     -53.841  16.305 -28.585  1.00  0.00     0.032 C 
ATOM      8  C   UNL     1     -53.750  14.838 -28.144  1.00  0.00     0.014 C 
BRANCH   7   9
ATOM      9  C   UNL     1     -52.779  17.108 -27.885  1.00  0.00     0.044 C 
ATOM     10  O   UNL     1     -52.495  16.870 -26.683  1.00  0.00    -0.550 OA
ATOM     11  O   UNL     1     -52.104  18.118 -28.561  1.00  0.00    -0.550 OA
ENDBRANCH   7   9
ENDBRANCH   6   7
ENDBRANCH   5   6
ENDBRANCH   4   5
ENDBRANCH   3   4
ENDBRANCH   2   3
ENDBRANCH   1   2
BRANCH   1  12
ATOM     12  C   UNL     1     -50.167  12.109 -30.405  1.00  0.00     0.000 C 
BRANCH  12  13
ATOM     13  C   UNL     1     -51.645  11.918 -30.016  1.00  0.00    -0.000 C 
BRANCH  13  14
ATOM     14  C   UNL     1     -52.609  11.639 -31.185  1.00  0.00    -0.000 C 
BRANCH  14  15
ATOM     15  C   UNL     1     -51.927  10.935 -32.372  1.00  0.00    -0.000 C 
BRANCH  15  16
ATOM     16  C   UNL     1     -52.312   9.449 -32.489  1.00  0.00    -0.000 C 
BRANCH  16  17
ATOM     17  C   UNL     1     -51.130   8.477 -32.670  1.00  0.00    -0.000 C 
BRANCH  17  18
ATOM     18  C   UNL     1     -50.084   8.588 -31.552  1.00  0.00    -0.003 C 
ATOM     19  C   UNL     1     -50.690   8.239 -30.195  1.00  0.00     0.004 C 
ENDBRANCH  17  18
ENDBRANCH  16  17
ENDBRANCH  15  16
ENDBRANCH  14  15
ENDBRANCH  13  14
ENDBRANCH  12  13
ENDBRANCH   1  12
TORSDOF 14
ENDMDL
MODEL 9
REMARK VINA RESULT:    -4.129      3.780      7.751
REMARK INTER + INTRA:          -9.908
REMARK INTER:                  -7.586
REMARK INTRA:                  -2.322
REMARK UNBOUND:                -2.399
REMARK SMILES CCCCCCCCCCCCCC[C@@H](C)C(=O)[O-]
REMARK SMILES IDX 9 1 10 2 11 3 12 4 13 5 14 6 15 7 16 8 17 9 18 10 19 11 8 12
REMARK SMILES IDX 7 13 6 14 5 15 4 16 3 17 2 18 1 19
REMARK H PARENT
REMARK Flexibility Score: inf
ROOT
ATOM      1  C   UNL     1     -50.296  10.434 -31.886  1.00  0.00     0.000 C 
ENDROOT
BRANCH   1   2
ATOM      2  C   UNL     1     -50.387  10.051 -30.399  1.00  0.00     0.000 C 
BRANCH   2   3
ATOM      3  C   UNL     1     -49.021  10.029 -29.681  1.00  0.00     0.000 C 
BRANCH   3   4
ATOM      4  C   UNL     1     -48.812  11.271 -28.796  1.00  0.00     0.000 C 
BRANCH   4   5
ATOM      5  C   UNL     1     -50.039  12.194 -28.770  1.00  0.00     0.001 C 
BRANCH   5   6
ATOM      6  C   UNL     1     -49.755  13.574 -29.390  1.00  0.00     0.009 C 
BRANCH   6   7
ATOM      7  C   UNL     1     -50.879  14.043 -30.338  1.00  0.00     0.032 C 
ATOM      8  C   UNL     1     -52.201  13.309 -30.079  1.00  0.00     0.014 C 
BRANCH   7   9
ATOM      9  C   UNL     1     -51.087  15.525 -30.187  1.00  0.00     0.044 C 
ATOM     10  O   UNL     1     -50.332  16.334 -30.787  1.00  0.00    -0.550 OA
ATOM     11  O   UNL     1     -52.111  16.011 -29.384  1.00  0.00    -0.550 OA
ENDBRANCH   7   9
ENDBRANCH   6   7
ENDBRANCH   5   6
ENDBRANCH   4   5
ENDBRANCH   3   4
ENDBRANCH   2   3
ENDBRANCH   1   2
BRANCH   1  12
ATOM     12  C   UNL     1     -51.655  10.374 -32.601  1.00  0.00     0.000 C 
BRANCH  12  13
ATOM     13  C   UNL     1     -52.675   9.469 -31.886  1.00  0.00    -0.000 C 
BRANCH  13  14
ATOM     14  C   UNL     1     -53.357   8.408 -32.770  1.00  0.00    -0.000 C 
BRANCH  14  15
ATOM     15  C   UNL     1     -52.416   7.256 -33.162  1.00  0.00    -0.000 C 
BRANCH  15  16
ATOM     16  C   UNL     1     -51.656   6.666 -31.961  1.00  0.00    -0.000 C 
BRANCH  16  17
ATOM     17  C   UNL     1     -50.121   6.662 -32.091  1.00  0.00    -0.000 C 
BRANCH  17  18
ATOM     18  C   UNL     1     -49.640   6.851 -33.537  1.00  0.00    -0.003 C 
ATOM     19  C   UNL     1     -48.579   7.944 -33.626  1.00  0.00     0.004 C 
ENDBRANCH  17  18
ENDBRANCH  16  17
ENDBRANCH  15  16
ENDBRANCH  14  15
ENDBRANCH  13  14
ENDBRANCH  12  13
ENDBRANCH   1  12
TORSDOF 14
ENDMDL
