MODEL 1
REMARK VINA RESULT:    -3.320      0.000      0.000
REMARK INTER + INTRA:          -9.606
REMARK INTER:                  -6.232
REMARK INTRA:                  -3.373
REMARK UNBOUND:                -3.373
REMARK SMILES CCCCCC=CCC=CCCCCCCCC(=O)OC
REMARK SMILES IDX 11 1 10 2 9 3 8 4 7 5 6 6 5 7 4 8 3 9 2 10 1 11 12 12 13 13
REMARK SMILES IDX 14 14 15 15 16 16 17 17 18 18 19 19 20 20 21 21
REMARK H PARENT
REMARK Flexibility Score: inf
ROOT
ATOM      1  C   UNL     1       4.219 -16.918  15.461  1.00  0.00     0.027 C 
ENDROOT
BRANCH   1   2
ATOM      2  C   UNL     1       3.648 -16.046  14.371  1.00  0.00    -0.031 C 
ATOM      3  C   UNL     1       2.724 -15.094  14.595  1.00  0.00    -0.027 C 
BRANCH   3   4
ATOM      4  C   UNL     1       2.154 -14.768  15.951  1.00  0.00     0.054 C 
BRANCH   4   5
ATOM      5  C   UNL     1       2.928 -13.656  16.619  1.00  0.00    -0.027 C 
ATOM      6  C   UNL     1       3.624 -13.814  17.763  1.00  0.00    -0.031 C 
BRANCH   6   7
ATOM      7  C   UNL     1       3.652 -15.092  18.570  1.00  0.00     0.027 C 
BRANCH   7   8
ATOM      8  C   UNL     1       5.087 -15.430  18.992  1.00  0.00     0.004 C 
BRANCH   8   9
ATOM      9  C   UNL     1       5.311 -16.951  19.011  1.00  0.00     0.000 C 
BRANCH   9  10
ATOM     10  C   UNL     1       4.009 -17.736  19.229  1.00  0.00    -0.003 C 
ATOM     11  C   UNL     1       3.964 -19.042  18.440  1.00  0.00     0.004 C 
ENDBRANCH   9  10
ENDBRANCH   8   9
ENDBRANCH   7   8
ENDBRANCH   6   7
ENDBRANCH   4   5
ENDBRANCH   3   4
ENDBRANCH   1   2
BRANCH   1  12
ATOM     12  C   UNL     1       5.752 -16.957  15.386  1.00  0.00     0.004 C 
BRANCH  12  13
ATOM     13  C   UNL     1       6.313 -15.655  14.795  1.00  0.00     0.000 C 
BRANCH  13  14
ATOM     14  C   UNL     1       6.767 -14.658  15.874  1.00  0.00     0.000 C 
BRANCH  14  15
ATOM     15  C   UNL     1       6.642 -13.193  15.419  1.00  0.00     0.001 C 
BRANCH  15  16
ATOM     16  C   UNL     1       5.715 -13.030  14.200  1.00  0.00     0.012 C 
BRANCH  16  17
ATOM     17  C   UNL     1       4.866 -11.750  14.219  1.00  0.00     0.123 C 
BRANCH  17  18
ATOM     18  C   UNL     1       5.489 -10.654  13.412  1.00  0.00     0.305 C 
ATOM     19  O   UNL     1       5.049  -9.473  13.514  1.00  0.00    -0.252 OA
BRANCH  18  20
ATOM     20  O   UNL     1       6.528 -10.959  12.528  1.00  0.00    -0.469 OA
ATOM     21  C   UNL     1       7.539 -10.020  12.180  1.00  0.00     0.282 C 
ENDBRANCH  18  20
ENDBRANCH  17  18
ENDBRANCH  16  17
ENDBRANCH  15  16
ENDBRANCH  14  15
ENDBRANCH  13  14
ENDBRANCH  12  13
ENDBRANCH   1  12
TORSDOF 15
ENDMDL
MODEL 2
REMARK VINA RESULT:    -3.282      1.751      3.958
REMARK INTER + INTRA:          -9.533
REMARK INTER:                  -6.743
REMARK INTRA:                  -2.790
REMARK UNBOUND:                -3.373
REMARK SMILES CCCCCC=CCC=CCCCCCCCC(=O)OC
REMARK SMILES IDX 11 1 10 2 9 3 8 4 7 5 6 6 5 7 4 8 3 9 2 10 1 11 12 12 13 13
REMARK SMILES IDX 14 14 15 15 16 16 17 17 18 18 19 19 20 20 21 21
REMARK H PARENT
REMARK Flexibility Score: inf
ROOT
ATOM      1  C   UNL     1       3.511 -16.044  14.720  1.00  0.00     0.027 C 
ENDROOT
BRANCH   1   2
ATOM      2  C   UNL     1       3.763 -17.112  15.755  1.00  0.00    -0.031 C 
ATOM      3  C   UNL     1       4.765 -17.050  16.650  1.00  0.00    -0.027 C 
BRANCH   3   4
ATOM      4  C   UNL     1       5.748 -15.912  16.745  1.00  0.00     0.054 C 
BRANCH   4   5
ATOM      5  C   UNL     1       7.170 -16.404  16.611  1.00  0.00    -0.027 C 
ATOM      6  C   UNL     1       7.839 -16.442  15.440  1.00  0.00    -0.031 C 
BRANCH   6   7
ATOM      7  C   UNL     1       7.233 -16.080  14.104  1.00  0.00     0.027 C 
BRANCH   7   8
ATOM      8  C   UNL     1       7.356 -17.251  13.122  1.00  0.00     0.004 C 
BRANCH   8   9
ATOM      9  C   UNL     1       6.147 -18.193  13.232  1.00  0.00     0.000 C 
BRANCH   9  10
ATOM     10  C   UNL     1       6.547 -19.620  13.638  1.00  0.00    -0.003 C 
ATOM     11  C   UNL     1       6.331 -19.897  15.124  1.00  0.00     0.004 C 
ENDBRANCH   9  10
ENDBRANCH   8   9
ENDBRANCH   7   8
ENDBRANCH   6   7
ENDBRANCH   4   5
ENDBRANCH   3   4
ENDBRANCH   1   2
BRANCH   1  12
ATOM     12  C   UNL     1       2.172 -15.338  14.975  1.00  0.00     0.004 C 
BRANCH  12  13
ATOM     13  C   UNL     1       2.372 -13.833  15.205  1.00  0.00     0.000 C 
BRANCH  13  14
ATOM     14  C   UNL     1       3.086 -13.523  16.530  1.00  0.00     0.000 C 
BRANCH  14  15
ATOM     15  C   UNL     1       4.227 -12.501  16.366  1.00  0.00     0.001 C 
BRANCH  15  16
ATOM     16  C   UNL     1       4.976 -12.664  15.030  1.00  0.00     0.012 C 
BRANCH  16  17
ATOM     17  C   UNL     1       4.688 -11.554  14.007  1.00  0.00     0.123 C 
BRANCH  17  18
ATOM     18  C   UNL     1       5.946 -10.930  13.489  1.00  0.00     0.305 C 
ATOM     19  O   UNL     1       5.879 -10.013  12.620  1.00  0.00    -0.252 OA
BRANCH  18  20
ATOM     20  O   UNL     1       7.181 -11.394  13.949  1.00  0.00    -0.469 OA
ATOM     21  C   UNL     1       8.053 -10.595  14.741  1.00  0.00     0.282 C 
ENDBRANCH  18  20
ENDBRANCH  17  18
ENDBRANCH  16  17
ENDBRANCH  15  16
ENDBRANCH  14  15
ENDBRANCH  13  14
ENDBRANCH  12  13
ENDBRANCH   1  12
TORSDOF 15
ENDMDL
MODEL 3
REMARK VINA RESULT:    -3.227      1.698      3.689
REMARK INTER + INTRA:          -9.430
REMARK INTER:                  -6.202
REMARK INTRA:                  -3.228
REMARK UNBOUND:                -3.373
REMARK SMILES CCCCCC=CCC=CCCCCCCCC(=O)OC
REMARK SMILES IDX 11 1 10 2 9 3 8 4 7 5 6 6 5 7 4 8 3 9 2 10 1 11 12 12 13 13
REMARK SMILES IDX 14 14 15 15 16 16 17 17 18 18 19 19 20 20 21 21
REMARK H PARENT
REMARK Flexibility Score: inf
ROOT
ATOM      1  C   UNL     1       5.029 -18.353  15.510  1.00  0.00     0.027 C 
ENDROOT
BRANCH   1   2
ATOM      2  C   UNL     1       5.110 -18.440  14.006  1.00  0.00    -0.031 C 
ATOM      3  C   UNL     1       6.238 -18.201  13.313  1.00  0.00    -0.027 C 
BRANCH   3   4
ATOM      4  C   UNL     1       7.557 -17.830  13.940  1.00  0.00     0.054 C 
BRANCH   4   5
ATOM      5  C   UNL     1       7.724 -16.331  14.019  1.00  0.00    -0.027 C 
ATOM      6  C   UNL     1       7.948 -15.665  15.170  1.00  0.00    -0.031 C 
BRANCH   6   7
ATOM      7  C   UNL     1       7.976 -16.313  16.535  1.00  0.00     0.027 C 
BRANCH   7   8
ATOM      8  C   UNL     1       6.941 -15.664  17.461  1.00  0.00     0.004 C 
BRANCH   8   9
ATOM      9  C   UNL     1       6.883 -14.144  17.244  1.00  0.00     0.000 C 
BRANCH   9  10
ATOM     10  C   UNL     1       5.737 -13.481  18.023  1.00  0.00    -0.003 C 
ATOM     11  C   UNL     1       4.666 -14.476  18.466  1.00  0.00     0.004 C 
ENDBRANCH   9  10
ENDBRANCH   8   9
ENDBRANCH   7   8
ENDBRANCH   6   7
ENDBRANCH   4   5
ENDBRANCH   3   4
ENDBRANCH   1   2
BRANCH   1  12
ATOM     12  C   UNL     1       4.081 -17.225  15.943  1.00  0.00     0.004 C 
BRANCH  12  13
ATOM     13  C   UNL     1       3.675 -16.351  14.748  1.00  0.00     0.000 C 
BRANCH  13  14
ATOM     14  C   UNL     1       4.362 -14.975  14.755  1.00  0.00     0.000 C 
BRANCH  14  15
ATOM     15  C   UNL     1       3.380 -13.821  15.027  1.00  0.00     0.001 C 
BRANCH  15  16
ATOM     16  C   UNL     1       4.043 -12.438  14.890  1.00  0.00     0.012 C 
BRANCH  16  17
ATOM     17  C   UNL     1       5.422 -12.464  14.215  1.00  0.00     0.123 C 
BRANCH  17  18
ATOM     18  C   UNL     1       5.669 -11.233  13.399  1.00  0.00     0.305 C 
ATOM     19  O   UNL     1       6.680 -11.176  12.641  1.00  0.00    -0.252 OA
BRANCH  18  20
ATOM     20  O   UNL     1       4.796 -10.149  13.513  1.00  0.00    -0.469 OA
ATOM     21  C   UNL     1       5.162  -8.935  14.160  1.00  0.00     0.282 C 
ENDBRANCH  18  20
ENDBRANCH  17  18
ENDBRANCH  16  17
ENDBRANCH  15  16
ENDBRANCH  14  15
ENDBRANCH  13  14
ENDBRANCH  12  13
ENDBRANCH   1  12
TORSDOF 15
ENDMDL
MODEL 4
REMARK VINA RESULT:    -3.221      1.786      3.705
REMARK INTER + INTRA:          -9.418
REMARK INTER:                  -6.897
REMARK INTRA:                  -2.521
REMARK UNBOUND:                -3.373
REMARK SMILES CCCCCC=CCC=CCCCCCCCC(=O)OC
REMARK SMILES IDX 11 1 10 2 9 3 8 4 7 5 6 6 5 7 4 8 3 9 2 10 1 11 12 12 13 13
REMARK SMILES IDX 14 14 15 15 16 16 17 17 18 18 19 19 20 20 21 21
REMARK H PARENT
REMARK Flexibility Score: inf
ROOT
ATOM      1  C   UNL     1       6.210 -18.106  13.614  1.00  0.00     0.027 C 
ENDROOT
BRANCH   1   2
ATOM      2  C   UNL     1       6.196 -19.579  13.940  1.00  0.00    -0.031 C 
ATOM      3  C   UNL     1       6.383 -20.061  15.182  1.00  0.00    -0.027 C 
BRANCH   3   4
ATOM      4  C   UNL     1       6.617 -19.204  16.399  1.00  0.00     0.054 C 
BRANCH   4   5
ATOM      5  C   UNL     1       5.523 -19.397  17.423  1.00  0.00    -0.027 C 
ATOM      6  C   UNL     1       4.394 -18.661  17.457  1.00  0.00    -0.031 C 
BRANCH   6   7
ATOM      7  C   UNL     1       4.111 -17.498  16.535  1.00  0.00     0.027 C 
BRANCH   7   8
ATOM      8  C   UNL     1       4.102 -16.179  17.317  1.00  0.00     0.004 C 
BRANCH   8   9
ATOM      9  C   UNL     1       3.356 -15.083  16.541  1.00  0.00     0.000 C 
BRANCH   9  10
ATOM     10  C   UNL     1       2.867 -15.563  15.165  1.00  0.00    -0.003 C 
ATOM     11  C   UNL     1       1.691 -14.746  14.635  1.00  0.00     0.004 C 
ENDBRANCH   9  10
ENDBRANCH   8   9
ENDBRANCH   7   8
ENDBRANCH   6   7
ENDBRANCH   4   5
ENDBRANCH   3   4
ENDBRANCH   1   2
BRANCH   1  12
ATOM     12  C   UNL     1       7.619 -17.648  13.208  1.00  0.00     0.004 C 
BRANCH  12  13
ATOM     13  C   UNL     1       8.091 -16.471  14.073  1.00  0.00     0.000 C 
BRANCH  13  14
ATOM     14  C   UNL     1       6.959 -15.856  14.912  1.00  0.00     0.000 C 
BRANCH  14  15
ATOM     15  C   UNL     1       6.337 -14.613  14.250  1.00  0.00     0.001 C 
BRANCH  15  16
ATOM     16  C   UNL     1       6.290 -13.400  15.199  1.00  0.00     0.012 C 
BRANCH  16  17
ATOM     17  C   UNL     1       5.249 -12.338  14.813  1.00  0.00     0.123 C 
BRANCH  17  18
ATOM     18  C   UNL     1       5.797 -11.346  13.835  1.00  0.00     0.305 C 
ATOM     19  O   UNL     1       5.005 -10.607  13.183  1.00  0.00    -0.252 OA
BRANCH  18  20
ATOM     20  O   UNL     1       7.177 -11.276  13.631  1.00  0.00    -0.469 OA
ATOM     21  C   UNL     1       7.970 -10.197  14.111  1.00  0.00     0.282 C 
ENDBRANCH  18  20
ENDBRANCH  17  18
ENDBRANCH  16  17
ENDBRANCH  15  16
ENDBRANCH  14  15
ENDBRANCH  13  14
ENDBRANCH  12  13
ENDBRANCH   1  12
TORSDOF 15
ENDMDL
MODEL 5
REMARK VINA RESULT:    -3.167      1.778      4.351
REMARK INTER + INTRA:          -9.318
REMARK INTER:                  -6.609
REMARK INTRA:                  -2.709
REMARK UNBOUND:                -3.373
REMARK SMILES CCCCCC=CCC=CCCCCCCCC(=O)OC
REMARK SMILES IDX 11 1 10 2 9 3 8 4 7 5 6 6 5 7 4 8 3 9 2 10 1 11 12 12 13 13
REMARK SMILES IDX 14 14 15 15 16 16 17 17 18 18 19 19 20 20 21 21
REMARK H PARENT
REMARK Flexibility Score: inf
ROOT
ATOM      1  C   UNL     1       3.226 -16.348  15.406  1.00  0.00     0.027 C 
ENDROOT
BRANCH   1   2
ATOM      2  C   UNL     1       3.827 -16.112  16.769  1.00  0.00    -0.031 C 
ATOM      3  C   UNL     1       4.351 -17.094  17.525  1.00  0.00    -0.027 C 
BRANCH   3   4
ATOM      4  C   UNL     1       4.418 -18.541  17.109  1.00  0.00     0.054 C 
BRANCH   4   5
ATOM      5  C   UNL     1       5.845 -18.980  16.883  1.00  0.00    -0.027 C 
ATOM      6  C   UNL     1       6.352 -19.271  15.667  1.00  0.00    -0.031 C 
BRANCH   6   7
ATOM      7  C   UNL     1       5.545 -19.279  14.390  1.00  0.00     0.027 C 
BRANCH   7   8
ATOM      8  C   UNL     1       5.724 -17.959  13.631  1.00  0.00     0.004 C 
BRANCH   8   9
ATOM      9  C   UNL     1       7.163 -17.436  13.768  1.00  0.00     0.000 C 
BRANCH   9  10
ATOM     10  C   UNL     1       7.216 -15.931  14.071  1.00  0.00    -0.003 C 
ATOM     11  C   UNL     1       7.216 -15.626  15.567  1.00  0.00     0.004 C 
ENDBRANCH   9  10
ENDBRANCH   8   9
ENDBRANCH   7   8
ENDBRANCH   6   7
ENDBRANCH   4   5
ENDBRANCH   3   4
ENDBRANCH   1   2
BRANCH   1  12
ATOM     12  C   UNL     1       3.363 -15.100  14.522  1.00  0.00     0.004 C 
BRANCH  12  13
ATOM     13  C   UNL     1       2.521 -13.938  15.068  1.00  0.00     0.000 C 
BRANCH  13  14
ATOM     14  C   UNL     1       3.353 -12.672  15.332  1.00  0.00     0.000 C 
BRANCH  14  15
ATOM     15  C   UNL     1       4.810 -12.808  14.853  1.00  0.00     0.001 C 
BRANCH  15  16
ATOM     16  C   UNL     1       5.122 -11.902  13.647  1.00  0.00     0.012 C 
BRANCH  16  17
ATOM     17  C   UNL     1       5.984 -10.676  13.986  1.00  0.00     0.123 C 
BRANCH  17  18
ATOM     18  C   UNL     1       5.151  -9.504  14.400  1.00  0.00     0.305 C 
ATOM     19  O   UNL     1       5.651  -8.610  15.142  1.00  0.00    -0.252 OA
BRANCH  18  20
ATOM     20  O   UNL     1       3.817  -9.431  13.989  1.00  0.00    -0.469 OA
ATOM     21  C   UNL     1       2.793  -8.873  14.803  1.00  0.00     0.282 C 
ENDBRANCH  18  20
ENDBRANCH  17  18
ENDBRANCH  16  17
ENDBRANCH  15  16
ENDBRANCH  14  15
ENDBRANCH  13  14
ENDBRANCH  12  13
ENDBRANCH   1  12
TORSDOF 15
ENDMDL
MODEL 6
REMARK VINA RESULT:    -3.152      1.633      3.367
REMARK INTER + INTRA:          -9.290
REMARK INTER:                  -6.169
REMARK INTRA:                  -3.120
REMARK UNBOUND:                -3.373
REMARK SMILES CCCCCC=CCC=CCCCCCCCC(=O)OC
REMARK SMILES IDX 11 1 10 2 9 3 8 4 7 5 6 6 5 7 4 8 3 9 2 10 1 11 12 12 13 13
REMARK SMILES IDX 14 14 15 15 16 16 17 17 18 18 19 19 20 20 21 21
REMARK H PARENT
REMARK Flexibility Score: inf
ROOT
ATOM      1  C   UNL     1       3.406 -12.691  17.799  1.00  0.00     0.027 C 
ENDROOT
BRANCH   1   2
ATOM      2  C   UNL     1       3.146 -12.163  16.410  1.00  0.00    -0.031 C 
ATOM      3  C   UNL     1       2.624 -12.911  15.422  1.00  0.00    -0.027 C 
BRANCH   3   4
ATOM      4  C   UNL     1       2.221 -14.355  15.573  1.00  0.00     0.054 C 
BRANCH   4   5
ATOM      5  C   UNL     1       2.825 -15.209  14.484  1.00  0.00    -0.027 C 
ATOM      6  C   UNL     1       3.546 -16.323  14.722  1.00  0.00    -0.031 C 
BRANCH   6   7
ATOM      7  C   UNL     1       3.916 -16.816  16.102  1.00  0.00     0.027 C 
BRANCH   7   8
ATOM      8  C   UNL     1       4.840 -18.036  16.009  1.00  0.00     0.004 C 
BRANCH   8   9
ATOM      9  C   UNL     1       6.314 -17.623  16.144  1.00  0.00     0.000 C 
BRANCH   9  10
ATOM     10  C   UNL     1       7.181 -18.148  14.990  1.00  0.00    -0.003 C 
ATOM     11  C   UNL     1       6.795 -17.550  13.638  1.00  0.00     0.004 C 
ENDBRANCH   9  10
ENDBRANCH   8   9
ENDBRANCH   7   8
ENDBRANCH   6   7
ENDBRANCH   4   5
ENDBRANCH   3   4
ENDBRANCH   1   2
BRANCH   1  12
ATOM     12  C   UNL     1       4.897 -12.596  18.151  1.00  0.00     0.004 C 
BRANCH  12  13
ATOM     13  C   UNL     1       5.665 -13.832  17.658  1.00  0.00     0.000 C 
BRANCH  13  14
ATOM     14  C   UNL     1       6.723 -13.491  16.597  1.00  0.00     0.000 C 
BRANCH  14  15
ATOM     15  C   UNL     1       6.465 -14.195  15.252  1.00  0.00     0.001 C 
BRANCH  15  16
ATOM     16  C   UNL     1       5.944 -13.229  14.171  1.00  0.00     0.012 C 
BRANCH  16  17
ATOM     17  C   UNL     1       6.243 -11.748  14.452  1.00  0.00     0.123 C 
BRANCH  17  18
ATOM     18  C   UNL     1       6.037 -10.896  13.238  1.00  0.00     0.305 C 
ATOM     19  O   UNL     1       6.768 -11.068  12.221  1.00  0.00    -0.252 OA
BRANCH  18  20
ATOM     20  O   UNL     1       5.060  -9.897  13.260  1.00  0.00    -0.469 OA
ATOM     21  C   UNL     1       4.589  -9.311  14.468  1.00  0.00     0.282 C 
ENDBRANCH  18  20
ENDBRANCH  17  18
ENDBRANCH  16  17
ENDBRANCH  15  16
ENDBRANCH  14  15
ENDBRANCH  13  14
ENDBRANCH  12  13
ENDBRANCH   1  12
TORSDOF 15
ENDMDL
MODEL 7
REMARK VINA RESULT:    -3.092      2.227      4.226
REMARK INTER + INTRA:          -9.177
REMARK INTER:                  -6.251
REMARK INTRA:                  -2.926
REMARK UNBOUND:                -3.373
REMARK SMILES CCCCCC=CCC=CCCCCCCCC(=O)OC
REMARK SMILES IDX 11 1 10 2 9 3 8 4 7 5 6 6 5 7 4 8 3 9 2 10 1 11 12 12 13 13
REMARK SMILES IDX 14 14 15 15 16 16 17 17 18 18 19 19 20 20 21 21
REMARK H PARENT
REMARK Flexibility Score: inf
ROOT
ATOM      1  C   UNL     1       6.270 -14.372  14.410  1.00  0.00     0.027 C 
ENDROOT
BRANCH   1   2
ATOM      2  C   UNL     1       6.870 -15.756  14.396  1.00  0.00    -0.031 C 
ATOM      3  C   UNL     1       6.138 -16.879  14.518  1.00  0.00    -0.027 C 
BRANCH   3   4
ATOM      4  C   UNL     1       4.639 -16.902  14.670  1.00  0.00     0.054 C 
BRANCH   4   5
ATOM      5  C   UNL     1       4.228 -17.615  15.937  1.00  0.00    -0.027 C 
ATOM      6  C   UNL     1       4.079 -16.997  17.126  1.00  0.00    -0.031 C 
BRANCH   6   7
ATOM      7  C   UNL     1       4.382 -15.537  17.368  1.00  0.00     0.027 C 
BRANCH   7   8
ATOM      8  C   UNL     1       3.100 -14.700  17.290  1.00  0.00     0.004 C 
BRANCH   8   9
ATOM      9  C   UNL     1       3.305 -13.457  16.410  1.00  0.00     0.000 C 
BRANCH   9  10
ATOM     10  C   UNL     1       2.669 -13.608  15.019  1.00  0.00    -0.003 C 
ATOM     11  C   UNL     1       1.659 -14.751  14.950  1.00  0.00     0.004 C 
ENDBRANCH   9  10
ENDBRANCH   8   9
ENDBRANCH   7   8
ENDBRANCH   6   7
ENDBRANCH   4   5
ENDBRANCH   3   4
ENDBRANCH   1   2
BRANCH   1  12
ATOM     12  C   UNL     1       6.866 -13.528  15.546  1.00  0.00     0.004 C 
BRANCH  12  13
ATOM     13  C   UNL     1       6.641 -12.029  15.301  1.00  0.00     0.000 C 
BRANCH  13  14
ATOM     14  C   UNL     1       6.053 -11.734  13.912  1.00  0.00     0.000 C 
BRANCH  14  15
ATOM     15  C   UNL     1       4.872 -10.747  13.962  1.00  0.00     0.001 C 
BRANCH  15  16
ATOM     16  C   UNL     1       4.765 -10.025  15.319  1.00  0.00     0.012 C 
BRANCH  16  17
ATOM     17  C   UNL     1       3.753  -8.869  15.339  1.00  0.00     0.123 C 
BRANCH  17  18
ATOM     18  C   UNL     1       2.355  -9.345  15.090  1.00  0.00     0.305 C 
ATOM     19  O   UNL     1       1.848 -10.223  15.846  1.00  0.00    -0.252 OA
BRANCH  18  20
ATOM     20  O   UNL     1       1.642  -8.837  14.001  1.00  0.00    -0.469 OA
ATOM     21  C   UNL     1       0.220  -8.830  13.951  1.00  0.00     0.282 C 
ENDBRANCH  18  20
ENDBRANCH  17  18
ENDBRANCH  16  17
ENDBRANCH  15  16
ENDBRANCH  14  15
ENDBRANCH  13  14
ENDBRANCH  12  13
ENDBRANCH   1  12
TORSDOF 15
ENDMDL
MODEL 8
REMARK VINA RESULT:    -3.061      1.374      3.312
REMARK INTER + INTRA:          -9.119
REMARK INTER:                  -6.259
REMARK INTRA:                  -2.860
REMARK UNBOUND:                -3.373
REMARK SMILES CCCCCC=CCC=CCCCCCCCC(=O)OC
REMARK SMILES IDX 11 1 10 2 9 3 8 4 7 5 6 6 5 7 4 8 3 9 2 10 1 11 12 12 13 13
REMARK SMILES IDX 14 14 15 15 16 16 17 17 18 18 19 19 20 20 21 21
REMARK H PARENT
REMARK Flexibility Score: inf
ROOT
ATOM      1  C   UNL     1       3.234 -16.194  15.326  1.00  0.00     0.027 C 
ENDROOT
BRANCH   1   2
ATOM      2  C   UNL     1       4.574 -16.089  14.642  1.00  0.00    -0.031 C 
ATOM      3  C   UNL     1       5.358 -17.152  14.386  1.00  0.00    -0.027 C 
BRANCH   3   4
ATOM      4  C   UNL     1       4.999 -18.574  14.733  1.00  0.00     0.054 C 
BRANCH   4   5
ATOM      5  C   UNL     1       5.935 -19.137  15.775  1.00  0.00    -0.027 C 
ATOM      6  C   UNL     1       5.601 -19.295  17.072  1.00  0.00    -0.031 C 
BRANCH   6   7
ATOM      7  C   UNL     1       4.284 -18.856  17.668  1.00  0.00     0.027 C 
BRANCH   7   8
ATOM      8  C   UNL     1       4.518 -17.949  18.882  1.00  0.00     0.004 C 
BRANCH   8   9
ATOM      9  C   UNL     1       4.277 -16.475  18.522  1.00  0.00     0.000 C 
BRANCH   9  10
ATOM     10  C   UNL     1       5.518 -15.600  18.758  1.00  0.00    -0.003 C 
ATOM     11  C   UNL     1       6.593 -15.797  17.692  1.00  0.00     0.004 C 
ENDBRANCH   9  10
ENDBRANCH   8   9
ENDBRANCH   7   8
ENDBRANCH   6   7
ENDBRANCH   4   5
ENDBRANCH   3   4
ENDBRANCH   1   2
BRANCH   1  12
ATOM     12  C   UNL     1       2.241 -15.176  14.748  1.00  0.00     0.004 C 
BRANCH  12  13
ATOM     13  C   UNL     1       2.658 -13.737  15.091  1.00  0.00     0.000 C 
BRANCH  13  14
ATOM     14  C   UNL     1       2.946 -13.541  16.588  1.00  0.00     0.000 C 
BRANCH  14  15
ATOM     15  C   UNL     1       4.206 -12.695  16.846  1.00  0.00     0.001 C 
BRANCH  15  16
ATOM     16  C   UNL     1       5.074 -12.531  15.584  1.00  0.00     0.012 C 
BRANCH  16  17
ATOM     17  C   UNL     1       5.532 -11.089  15.317  1.00  0.00     0.123 C 
BRANCH  17  18
ATOM     18  C   UNL     1       4.752 -10.450  14.211  1.00  0.00     0.305 C 
ATOM     19  O   UNL     1       3.603  -9.978  14.446  1.00  0.00    -0.252 OA
BRANCH  18  20
ATOM     20  O   UNL     1       5.292 -10.417  12.922  1.00  0.00    -0.469 OA
ATOM     21  C   UNL     1       6.692 -10.361  12.679  1.00  0.00     0.282 C 
ENDBRANCH  18  20
ENDBRANCH  17  18
ENDBRANCH  16  17
ENDBRANCH  15  16
ENDBRANCH  14  15
ENDBRANCH  13  14
ENDBRANCH  12  13
ENDBRANCH   1  12
TORSDOF 15
ENDMDL
MODEL 9
REMARK VINA RESULT:    -3.059      1.787      3.734
REMARK INTER + INTRA:          -9.114
REMARK INTER:                  -6.279
REMARK INTRA:                  -2.836
REMARK UNBOUND:                -3.373
REMARK SMILES CCCCCC=CCC=CCCCCCCCC(=O)OC
REMARK SMILES IDX 11 1 10 2 9 3 8 4 7 5 6 6 5 7 4 8 3 9 2 10 1 11 12 12 13 13
REMARK SMILES IDX 14 14 15 15 16 16 17 17 18 18 19 19 20 20 21 21
REMARK H PARENT
REMARK Flexibility Score: inf
ROOT
ATOM      1  C   UNL     1       7.826 -16.687  13.810  1.00  0.00     0.027 C 
ENDROOT
BRANCH   1   2
ATOM      2  C   UNL     1       7.616 -18.149  13.503  1.00  0.00    -0.031 C 
ATOM      3  C   UNL     1       6.401 -18.725  13.449  1.00  0.00    -0.027 C 
BRANCH   3   4
ATOM      4  C   UNL     1       5.104 -17.992  13.673  1.00  0.00     0.054 C 
BRANCH   4   5
ATOM      5  C   UNL     1       4.694 -18.035  15.126  1.00  0.00    -0.027 C 
ATOM      6  C   UNL     1       3.821 -17.170  15.681  1.00  0.00    -0.031 C 
BRANCH   6   7
ATOM      7  C   UNL     1       3.206 -15.998  14.951  1.00  0.00     0.027 C 
BRANCH   7   8
ATOM      8  C   UNL     1       2.812 -14.894  15.939  1.00  0.00     0.004 C 
BRANCH   8   9
ATOM      9  C   UNL     1       3.515 -15.088  17.291  1.00  0.00     0.000 C 
BRANCH   9  10
ATOM     10  C   UNL     1       4.224 -13.814  17.775  1.00  0.00    -0.003 C 
ATOM     11  C   UNL     1       3.342 -12.571  17.681  1.00  0.00     0.004 C 
ENDBRANCH   9  10
ENDBRANCH   8   9
ENDBRANCH   7   8
ENDBRANCH   6   7
ENDBRANCH   4   5
ENDBRANCH   3   4
ENDBRANCH   1   2
BRANCH   1  12
ATOM     12  C   UNL     1       8.036 -16.467  15.315  1.00  0.00     0.004 C 
BRANCH  12  13
ATOM     13  C   UNL     1       7.202 -15.283  15.826  1.00  0.00     0.000 C 
BRANCH  13  14
ATOM     14  C   UNL     1       6.442 -14.561  14.702  1.00  0.00     0.000 C 
BRANCH  14  15
ATOM     15  C   UNL     1       6.269 -13.055  14.972  1.00  0.00     0.001 C 
BRANCH  15  16
ATOM     16  C   UNL     1       5.028 -12.469  14.273  1.00  0.00     0.012 C 
BRANCH  16  17
ATOM     17  C   UNL     1       5.288 -11.148  13.532  1.00  0.00     0.123 C 
BRANCH  17  18
ATOM     18  C   UNL     1       4.626  -9.988  14.209  1.00  0.00     0.305 C 
ATOM     19  O   UNL     1       5.077  -8.820  14.033  1.00  0.00    -0.252 OA
BRANCH  18  20
ATOM     20  O   UNL     1       3.540 -10.218  15.057  1.00  0.00    -0.469 OA
ATOM     21  C   UNL     1       2.321  -9.492  14.954  1.00  0.00     0.282 C 
ENDBRANCH  18  20
ENDBRANCH  17  18
ENDBRANCH  16  17
ENDBRANCH  15  16
ENDBRANCH  14  15
ENDBRANCH  13  14
ENDBRANCH  12  13
ENDBRANCH   1  12
TORSDOF 15
ENDMDL
