MODEL 1
REMARK VINA RESULT:    -3.562      0.000      0.000
REMARK INTER + INTRA:          -4.250
REMARK INTER:                  -4.187
REMARK INTRA:                  -0.063
REMARK UNBOUND:                -0.063
REMARK SMILES O=C([O-])CCC(=O)[O-]
REMARK SMILES IDX 4 1 2 2 1 3 3 4 5 5 6 6 7 7 8 8
REMARK H PARENT
REMARK Flexibility Score: inf
ROOT
ATOM      1  C   UNL     1      13.071 -29.448  23.342  1.00  0.00     0.059 C 
ENDROOT
BRANCH   1   2
ATOM      2  C   UNL     1      12.074 -28.391  23.707  1.00  0.00     0.042 C 
ATOM      3  O   UNL     1      10.958 -28.345  23.125  1.00  0.00    -0.550 OA
ATOM      4  O   UNL     1      12.360 -27.482  24.717  1.00  0.00    -0.550 OA
ENDBRANCH   1   2
BRANCH   1   5
ATOM      5  C   UNL     1      12.484 -30.463  22.355  1.00  0.00     0.059 C 
BRANCH   5   6
ATOM      6  C   UNL     1      13.445 -30.774  21.247  1.00  0.00     0.042 C 
ATOM      7  O   UNL     1      14.540 -30.159  21.166  1.00  0.00    -0.550 OA
ATOM      8  O   UNL     1      13.111 -31.716  20.283  1.00  0.00    -0.550 OA
ENDBRANCH   5   6
ENDBRANCH   1   5
TORSDOF 3
ENDMDL
MODEL 2
REMARK VINA RESULT:    -3.548      0.136      4.283
REMARK INTER + INTRA:          -4.234
REMARK INTER:                  -4.164
REMARK INTRA:                  -0.070
REMARK UNBOUND:                -0.063
REMARK SMILES O=C([O-])CCC(=O)[O-]
REMARK SMILES IDX 4 1 2 2 1 3 3 4 5 5 6 6 7 7 8 8
REMARK H PARENT
REMARK Flexibility Score: inf
ROOT
ATOM      1  C   UNL     1      12.418 -30.422  22.308  1.00  0.00     0.059 C 
ENDROOT
BRANCH   1   2
ATOM      2  C   UNL     1      13.392 -30.716  21.209  1.00  0.00     0.042 C 
ATOM      3  O   UNL     1      14.456 -30.049  21.109  1.00  0.00    -0.550 OA
ATOM      4  O   UNL     1      13.145 -31.754  20.319  1.00  0.00    -0.550 OA
ENDBRANCH   1   2
BRANCH   1   5
ATOM      5  C   UNL     1      13.047 -29.554  23.404  1.00  0.00     0.059 C 
BRANCH   5   6
ATOM      6  C   UNL     1      12.168 -28.394  23.761  1.00  0.00     0.042 C 
ATOM      7  O   UNL     1      11.078 -28.214  23.156  1.00  0.00    -0.550 OA
ATOM      8  O   UNL     1      12.572 -27.491  24.736  1.00  0.00    -0.550 OA
ENDBRANCH   5   6
ENDBRANCH   1   5
TORSDOF 3
ENDMDL
MODEL 3
REMARK VINA RESULT:    -3.408      9.371     10.491
REMARK INTER + INTRA:          -4.069
REMARK INTER:                  -3.946
REMARK INTRA:                  -0.123
REMARK UNBOUND:                -0.063
REMARK SMILES O=C([O-])CCC(=O)[O-]
REMARK SMILES IDX 4 1 2 2 1 3 3 4 5 5 6 6 7 7 8 8
REMARK H PARENT
REMARK Flexibility Score: inf
ROOT
ATOM      1  C   UNL     1      20.665 -25.540  20.037  1.00  0.00     0.059 C 
ENDROOT
BRANCH   1   2
ATOM      2  C   UNL     1      20.471 -26.911  20.608  1.00  0.00     0.042 C 
ATOM      3  O   UNL     1      19.367 -27.234  21.120  1.00  0.00    -0.550 OA
ATOM      4  O   UNL     1      21.496 -27.846  20.537  1.00  0.00    -0.550 OA
ENDBRANCH   1   2
BRANCH   1   5
ATOM      5  C   UNL     1      21.890 -24.843  20.640  1.00  0.00     0.059 C 
BRANCH   5   6
ATOM      6  C   UNL     1      22.969 -24.645  19.619  1.00  0.00     0.042 C 
ATOM      7  O   UNL     1      23.101 -25.460  18.669  1.00  0.00    -0.550 OA
ATOM      8  O   UNL     1      23.851 -23.580  19.741  1.00  0.00    -0.550 OA
ENDBRANCH   5   6
ENDBRANCH   1   5
TORSDOF 3
ENDMDL
MODEL 4
REMARK VINA RESULT:    -3.378      2.081      2.873
REMARK INTER + INTRA:          -4.034
REMARK INTER:                  -3.936
REMARK INTRA:                  -0.098
REMARK UNBOUND:                -0.063
REMARK SMILES O=C([O-])CCC(=O)[O-]
REMARK SMILES IDX 4 1 2 2 1 3 3 4 5 5 6 6 7 7 8 8
REMARK H PARENT
REMARK Flexibility Score: inf
ROOT
ATOM      1  C   UNL     1      13.893 -30.515  21.362  1.00  0.00     0.059 C 
ENDROOT
BRANCH   1   2
ATOM      2  C   UNL     1      13.035 -30.254  22.563  1.00  0.00     0.042 C 
ATOM      3  O   UNL     1      13.467 -30.513  23.717  1.00  0.00    -0.550 OA
ATOM      4  O   UNL     1      11.777 -29.687  22.410  1.00  0.00    -0.550 OA
ENDBRANCH   1   2
BRANCH   1   5
ATOM      5  C   UNL     1      13.340 -31.663  20.510  1.00  0.00     0.059 C 
BRANCH   5   6
ATOM      6  C   UNL     1      14.169 -32.903  20.653  1.00  0.00     0.042 C 
ATOM      7  O   UNL     1      14.412 -33.623  19.649  1.00  0.00    -0.550 OA
ATOM      8  O   UNL     1      14.641 -33.283  21.903  1.00  0.00    -0.550 OA
ENDBRANCH   5   6
ENDBRANCH   1   5
TORSDOF 3
ENDMDL
MODEL 5
REMARK VINA RESULT:    -3.348      8.904      9.865
REMARK INTER + INTRA:          -3.998
REMARK INTER:                  -3.883
REMARK INTRA:                  -0.115
REMARK UNBOUND:                -0.063
REMARK SMILES O=C([O-])CCC(=O)[O-]
REMARK SMILES IDX 4 1 2 2 1 3 3 4 5 5 6 6 7 7 8 8
REMARK H PARENT
REMARK Flexibility Score: inf
ROOT
ATOM      1  C   UNL     1      20.371 -25.712  20.115  1.00  0.00     0.059 C 
ENDROOT
BRANCH   1   2
ATOM      2  C   UNL     1      20.081 -26.842  21.055  1.00  0.00     0.042 C 
ATOM      3  O   UNL     1      19.064 -27.565  20.881  1.00  0.00    -0.550 OA
ATOM      4  O   UNL     1      20.954 -27.124  22.097  1.00  0.00    -0.550 OA
ENDBRANCH   1   2
BRANCH   1   5
ATOM      5  C   UNL     1      21.722 -25.057  20.419  1.00  0.00     0.059 C 
BRANCH   5   6
ATOM      6  C   UNL     1      22.782 -25.512  19.462  1.00  0.00     0.042 C 
ATOM      7  O   UNL     1      23.256 -24.713  18.612  1.00  0.00    -0.550 OA
ATOM      8  O   UNL     1      23.218 -26.830  19.484  1.00  0.00    -0.550 OA
ENDBRANCH   5   6
ENDBRANCH   1   5
TORSDOF 3
ENDMDL
MODEL 6
REMARK VINA RESULT:    -3.346      8.932     10.227
REMARK INTER + INTRA:          -3.997
REMARK INTER:                  -3.881
REMARK INTRA:                  -0.116
REMARK UNBOUND:                -0.063
REMARK SMILES O=C([O-])CCC(=O)[O-]
REMARK SMILES IDX 4 1 2 2 1 3 3 4 5 5 6 6 7 7 8 8
REMARK H PARENT
REMARK Flexibility Score: inf
ROOT
ATOM      1  C   UNL     1      21.662 -25.017  20.491  1.00  0.00     0.059 C 
ENDROOT
BRANCH   1   2
ATOM      2  C   UNL     1      22.755 -25.320  19.513  1.00  0.00     0.042 C 
ATOM      3  O   UNL     1      23.310 -24.387  18.874  1.00  0.00    -0.550 OA
ATOM      4  O   UNL     1      23.190 -26.627  19.337  1.00  0.00    -0.550 OA
ENDBRANCH   1   2
BRANCH   1   5
ATOM      5  C   UNL     1      20.354 -25.722  20.115  1.00  0.00     0.059 C 
BRANCH   5   6
ATOM      6  C   UNL     1      20.084 -26.895  21.009  1.00  0.00     0.042 C 
ATOM      7  O   UNL     1      19.053 -27.597  20.840  1.00  0.00    -0.550 OA
ATOM      8  O   UNL     1      20.953 -27.186  22.052  1.00  0.00    -0.550 OA
ENDBRANCH   5   6
ENDBRANCH   1   5
TORSDOF 3
ENDMDL
MODEL 7
REMARK VINA RESULT:    -3.296      9.687     10.805
REMARK INTER + INTRA:          -3.938
REMARK INTER:                  -3.841
REMARK INTRA:                  -0.096
REMARK UNBOUND:                -0.063
REMARK SMILES O=C([O-])CCC(=O)[O-]
REMARK SMILES IDX 4 1 2 2 1 3 3 4 5 5 6 6 7 7 8 8
REMARK H PARENT
REMARK Flexibility Score: inf
ROOT
ATOM      1  C   UNL     1      22.384 -24.615  21.050  1.00  0.00     0.059 C 
ENDROOT
BRANCH   1   2
ATOM      2  C   UNL     1      23.231 -24.338  19.846  1.00  0.00     0.042 C 
ATOM      3  O   UNL     1      24.037 -23.370  19.847  1.00  0.00    -0.550 OA
ATOM      4  O   UNL     1      23.160 -25.172  18.738  1.00  0.00    -0.550 OA
ENDBRANCH   1   2
BRANCH   1   5
ATOM      5  C   UNL     1      21.917 -26.073  21.090  1.00  0.00     0.059 C 
BRANCH   5   6
ATOM      6  C   UNL     1      20.464 -26.196  20.740  1.00  0.00     0.042 C 
ATOM      7  O   UNL     1      19.932 -25.381  19.942  1.00  0.00    -0.550 OA
ATOM      8  O   UNL     1      19.691 -27.189  21.327  1.00  0.00    -0.550 OA
ENDBRANCH   5   6
ENDBRANCH   1   5
TORSDOF 3
ENDMDL
MODEL 8
REMARK VINA RESULT:    -3.251      1.888      4.235
REMARK INTER + INTRA:          -3.885
REMARK INTER:                  -3.763
REMARK INTRA:                  -0.122
REMARK UNBOUND:                -0.063
REMARK SMILES O=C([O-])CCC(=O)[O-]
REMARK SMILES IDX 4 1 2 2 1 3 3 4 5 5 6 6 7 7 8 8
REMARK H PARENT
REMARK Flexibility Score: inf
ROOT
ATOM      1  C   UNL     1      13.890 -31.800  23.326  1.00  0.00     0.059 C 
ENDROOT
BRANCH   1   2
ATOM      2  C   UNL     1      14.186 -32.573  22.077  1.00  0.00     0.042 C 
ATOM      3  O   UNL     1      13.797 -32.142  20.959  1.00  0.00    -0.550 OA
ATOM      4  O   UNL     1      14.927 -33.746  22.142  1.00  0.00    -0.550 OA
ENDBRANCH   1   2
BRANCH   1   5
ATOM      5  C   UNL     1      14.066 -30.293  23.113  1.00  0.00     0.059 C 
BRANCH   5   6
ATOM      6  C   UNL     1      12.758 -29.567  23.211  1.00  0.00     0.042 C 
ATOM      7  O   UNL     1      12.574 -28.710  24.115  1.00  0.00    -0.550 OA
ATOM      8  O   UNL     1      11.730 -29.867  22.327  1.00  0.00    -0.550 OA
ENDBRANCH   5   6
ENDBRANCH   1   5
TORSDOF 3
ENDMDL
MODEL 9
REMARK VINA RESULT:    -3.239     10.647     11.966
REMARK INTER + INTRA:          -3.871
REMARK INTER:                  -3.793
REMARK INTRA:                  -0.078
REMARK UNBOUND:                -0.063
REMARK SMILES O=C([O-])CCC(=O)[O-]
REMARK SMILES IDX 4 1 2 2 1 3 3 4 5 5 6 6 7 7 8 8
REMARK H PARENT
REMARK Flexibility Score: inf
ROOT
ATOM      1  C   UNL     1      22.159 -25.290  19.788  1.00  0.00     0.059 C 
ENDROOT
BRANCH   1   2
ATOM      2  C   UNL     1      22.653 -26.666  20.112  1.00  0.00     0.042 C 
ATOM      3  O   UNL     1      23.889 -26.906  20.136  1.00  0.00    -0.550 OA
ATOM      4  O   UNL     1      21.751 -27.674  20.427  1.00  0.00    -0.550 OA
ENDBRANCH   1   2
BRANCH   1   5
ATOM      5  C   UNL     1      23.280 -24.249  19.881  1.00  0.00     0.059 C 
BRANCH   5   6
ATOM      6  C   UNL     1      23.228 -23.497  21.176  1.00  0.00     0.042 C 
ATOM      7  O   UNL     1      22.448 -23.865  22.093  1.00  0.00    -0.550 OA
ATOM      8  O   UNL     1      24.013 -22.365  21.353  1.00  0.00    -0.550 OA
ENDBRANCH   5   6
ENDBRANCH   1   5
TORSDOF 3
ENDMDL
