MODEL 1
REMARK VINA RESULT:    -6.189      0.000      0.000
REMARK INTER + INTRA:         -13.884
REMARK INTER:                 -11.254
REMARK INTRA:                  -2.630
REMARK UNBOUND:                -2.630
REMARK SMILES CCCCCCCCCCCCCC[C@@H](C)C(=O)[O-]
REMARK SMILES IDX 9 1 10 2 11 3 12 4 13 5 14 6 15 7 16 8 17 9 18 10 19 11 8 12
REMARK SMILES IDX 7 13 6 14 5 15 4 16 3 17 2 18 1 19
REMARK H PARENT
REMARK Flexibility Score: inf
ROOT
ATOM      1  C   UNL     1     -18.749 -12.972  -2.282  1.00  0.00     0.000 C 
ENDROOT
BRANCH   1   2
ATOM      2  C   UNL     1     -19.015 -12.850  -0.774  1.00  0.00     0.000 C 
BRANCH   2   3
ATOM      3  C   UNL     1     -19.019 -11.383  -0.332  1.00  0.00     0.000 C 
BRANCH   3   4
ATOM      4  C   UNL     1     -18.889 -10.445  -1.540  1.00  0.00     0.000 C 
BRANCH   4   5
ATOM      5  C   UNL     1     -17.864  -9.319  -1.313  1.00  0.00     0.001 C 
BRANCH   5   6
ATOM      6  C   UNL     1     -17.146  -8.869  -2.606  1.00  0.00     0.009 C 
BRANCH   6   7
ATOM      7  C   UNL     1     -15.886  -8.012  -2.337  1.00  0.00     0.032 C 
ATOM      8  C   UNL     1     -15.731  -7.680  -0.846  1.00  0.00     0.014 C 
BRANCH   7   9
ATOM      9  C   UNL     1     -14.659  -8.737  -2.820  1.00  0.00     0.044 C 
ATOM     10  O   UNL     1     -13.593  -8.687  -2.153  1.00  0.00    -0.550 OA
ATOM     11  O   UNL     1     -14.694  -9.463  -4.005  1.00  0.00    -0.550 OA
ENDBRANCH   7   9
ENDBRANCH   6   7
ENDBRANCH   5   6
ENDBRANCH   4   5
ENDBRANCH   3   4
ENDBRANCH   2   3
ENDBRANCH   1   2
BRANCH   1  12
ATOM     12  C   UNL     1     -17.828 -14.165  -2.619  1.00  0.00     0.000 C 
BRANCH  12  13
ATOM     13  C   UNL     1     -16.698 -13.816  -3.608  1.00  0.00    -0.000 C 
BRANCH  13  14
ATOM     14  C   UNL     1     -15.732 -12.721  -3.125  1.00  0.00    -0.000 C 
BRANCH  14  15
ATOM     15  C   UNL     1     -15.065 -13.064  -1.784  1.00  0.00    -0.000 C 
BRANCH  15  16
ATOM     16  C   UNL     1     -15.160 -11.881  -0.809  1.00  0.00    -0.000 C 
BRANCH  16  17
ATOM     17  C   UNL     1     -15.642 -12.303   0.588  1.00  0.00    -0.000 C 
BRANCH  17  18
ATOM     18  C   UNL     1     -15.720 -13.827   0.751  1.00  0.00    -0.003 C 
ATOM     19  C   UNL     1     -15.559 -14.233   2.214  1.00  0.00     0.004 C 
ENDBRANCH  17  18
ENDBRANCH  16  17
ENDBRANCH  15  16
ENDBRANCH  14  15
ENDBRANCH  13  14
ENDBRANCH  12  13
ENDBRANCH   1  12
TORSDOF 14
ENDMDL
MODEL 2
REMARK VINA RESULT:    -6.077      1.338      2.672
REMARK INTER + INTRA:         -13.681
REMARK INTER:                 -11.572
REMARK INTRA:                  -2.109
REMARK UNBOUND:                -2.630
REMARK SMILES CCCCCCCCCCCCCC[C@@H](C)C(=O)[O-]
REMARK SMILES IDX 9 1 10 2 11 3 12 4 13 5 14 6 15 7 16 8 17 9 18 10 19 11 8 12
REMARK SMILES IDX 7 13 6 14 5 15 4 16 3 17 2 18 1 19
REMARK H PARENT
REMARK Flexibility Score: inf
ROOT
ATOM      1  C   UNL     1     -18.928 -10.385  -1.161  1.00  0.00     0.000 C 
ENDROOT
BRANCH   1   2
ATOM      2  C   UNL     1     -19.075  -9.139  -0.274  1.00  0.00     0.000 C 
BRANCH   2   3
ATOM      3  C   UNL     1     -18.008  -9.118   0.826  1.00  0.00     0.000 C 
BRANCH   3   4
ATOM      4  C   UNL     1     -17.244  -7.787   0.825  1.00  0.00     0.000 C 
BRANCH   4   5
ATOM      5  C   UNL     1     -15.877  -7.886   0.124  1.00  0.00     0.001 C 
BRANCH   5   6
ATOM      6  C   UNL     1     -15.965  -7.766  -1.416  1.00  0.00     0.009 C 
BRANCH   6   7
ATOM      7  C   UNL     1     -15.116  -8.825  -2.159  1.00  0.00     0.032 C 
ATOM      8  C   UNL     1     -15.275 -10.220  -1.537  1.00  0.00     0.014 C 
BRANCH   7   9
ATOM      9  C   UNL     1     -15.512  -8.874  -3.609  1.00  0.00     0.044 C 
ATOM     10  O   UNL     1     -14.987  -9.720  -4.379  1.00  0.00    -0.550 OA
ATOM     11  O   UNL     1     -16.456  -7.985  -4.110  1.00  0.00    -0.550 OA
ENDBRANCH   7   9
ENDBRANCH   6   7
ENDBRANCH   5   6
ENDBRANCH   4   5
ENDBRANCH   3   4
ENDBRANCH   2   3
ENDBRANCH   1   2
BRANCH   1  12
ATOM     12  C   UNL     1     -18.759 -11.677  -0.333  1.00  0.00     0.000 C 
BRANCH  12  13
ATOM     13  C   UNL     1     -18.803 -12.966  -1.177  1.00  0.00    -0.000 C 
BRANCH  13  14
ATOM     14  C   UNL     1     -17.789 -13.017  -2.331  1.00  0.00    -0.000 C 
BRANCH  14  15
ATOM     15  C   UNL     1     -17.177 -14.414  -2.526  1.00  0.00    -0.000 C 
BRANCH  15  16
ATOM     16  C   UNL     1     -16.323 -14.809  -1.312  1.00  0.00    -0.000 C 
BRANCH  16  17
ATOM     17  C   UNL     1     -14.979 -14.065  -1.267  1.00  0.00    -0.000 C 
BRANCH  17  18
ATOM     18  C   UNL     1     -14.613 -13.591   0.147  1.00  0.00    -0.003 C 
ATOM     19  C   UNL     1     -15.820 -13.656   1.078  1.00  0.00     0.004 C 
ENDBRANCH  17  18
ENDBRANCH  16  17
ENDBRANCH  15  16
ENDBRANCH  14  15
ENDBRANCH  13  14
ENDBRANCH  12  13
ENDBRANCH   1  12
TORSDOF 14
ENDMDL
MODEL 3
REMARK VINA RESULT:    -6.071      2.582      5.664
REMARK INTER + INTRA:         -13.669
REMARK INTER:                 -11.317
REMARK INTRA:                  -2.352
REMARK UNBOUND:                -2.630
REMARK SMILES CCCCCCCCCCCCCC[C@@H](C)C(=O)[O-]
REMARK SMILES IDX 9 1 10 2 11 3 12 4 13 5 14 6 15 7 16 8 17 9 18 10 19 11 8 12
REMARK SMILES IDX 7 13 6 14 5 15 4 16 3 17 2 18 1 19
REMARK H PARENT
REMARK Flexibility Score: inf
ROOT
ATOM      1  C   UNL     1     -18.261  -8.469   0.984  1.00  0.00     0.000 C 
ENDROOT
BRANCH   1   2
ATOM      2  C   UNL     1     -18.503  -9.063  -0.412  1.00  0.00     0.000 C 
BRANCH   2   3
ATOM      3  C   UNL     1     -18.635 -10.588  -0.346  1.00  0.00     0.000 C 
BRANCH   3   4
ATOM      4  C   UNL     1     -18.297 -11.229  -1.699  1.00  0.00     0.000 C 
BRANCH   4   5
ATOM      5  C   UNL     1     -17.613 -12.600  -1.555  1.00  0.00     0.001 C 
BRANCH   5   6
ATOM      6  C   UNL     1     -17.241 -12.952  -0.095  1.00  0.00     0.009 C 
BRANCH   6   7
ATOM      7  C   UNL     1     -16.062 -13.948   0.010  1.00  0.00     0.032 C 
ATOM      8  C   UNL     1     -15.140 -13.870  -1.216  1.00  0.00     0.014 C 
BRANCH   7   9
ATOM      9  C   UNL     1     -15.265 -13.672   1.255  1.00  0.00     0.044 C 
ATOM     10  O   UNL     1     -14.278 -12.892   1.215  1.00  0.00    -0.550 OA
ATOM     11  O   UNL     1     -15.610 -14.278   2.458  1.00  0.00    -0.550 OA
ENDBRANCH   7   9
ENDBRANCH   6   7
ENDBRANCH   5   6
ENDBRANCH   4   5
ENDBRANCH   3   4
ENDBRANCH   2   3
ENDBRANCH   1   2
BRANCH   1  12
ATOM     12  C   UNL     1     -16.925  -7.699   1.069  1.00  0.00     0.000 C 
BRANCH  12  13
ATOM     13  C   UNL     1     -15.937  -8.042  -0.063  1.00  0.00    -0.000 C 
BRANCH  13  14
ATOM     14  C   UNL     1     -15.080  -9.295   0.185  1.00  0.00    -0.000 C 
BRANCH  14  15
ATOM     15  C   UNL     1     -14.857 -10.126  -1.088  1.00  0.00    -0.000 C 
BRANCH  15  16
ATOM     16  C   UNL     1     -14.544  -9.217  -2.286  1.00  0.00    -0.000 C 
BRANCH  16  17
ATOM     17  C   UNL     1     -15.471  -9.477  -3.484  1.00  0.00    -0.000 C 
BRANCH  17  18
ATOM     18  C   UNL     1     -16.594  -8.437  -3.599  1.00  0.00    -0.003 C 
ATOM     19  C   UNL     1     -16.710  -7.909  -5.026  1.00  0.00     0.004 C 
ENDBRANCH  17  18
ENDBRANCH  16  17
ENDBRANCH  15  16
ENDBRANCH  14  15
ENDBRANCH  13  14
ENDBRANCH  12  13
ENDBRANCH   1  12
TORSDOF 14
ENDMDL
MODEL 4
REMARK VINA RESULT:    -5.965      2.228      5.319
REMARK INTER + INTRA:         -13.477
REMARK INTER:                 -11.112
REMARK INTRA:                  -2.365
REMARK UNBOUND:                -2.630
REMARK SMILES CCCCCCCCCCCCCC[C@@H](C)C(=O)[O-]
REMARK SMILES IDX 9 1 10 2 11 3 12 4 13 5 14 6 15 7 16 8 17 9 18 10 19 11 8 12
REMARK SMILES IDX 7 13 6 14 5 15 4 16 3 17 2 18 1 19
REMARK H PARENT
REMARK Flexibility Score: inf
ROOT
ATOM      1  C   UNL     1     -18.489 -10.522  -0.968  1.00  0.00     0.000 C 
ENDROOT
BRANCH   1   2
ATOM      2  C   UNL     1     -18.997 -11.778  -0.244  1.00  0.00     0.000 C 
BRANCH   2   3
ATOM      3  C   UNL     1     -18.941 -13.004  -1.162  1.00  0.00     0.000 C 
BRANCH   3   4
ATOM      4  C   UNL     1     -18.105 -12.713  -2.416  1.00  0.00     0.000 C 
BRANCH   4   5
ATOM      5  C   UNL     1     -16.991 -13.750  -2.642  1.00  0.00     0.001 C 
BRANCH   5   6
ATOM      6  C   UNL     1     -16.691 -14.615  -1.396  1.00  0.00     0.009 C 
BRANCH   6   7
ATOM      7  C   UNL     1     -15.348 -14.258  -0.715  1.00  0.00     0.032 C 
ATOM      8  C   UNL     1     -14.397 -13.533  -1.677  1.00  0.00     0.014 C 
BRANCH   7   9
ATOM      9  C   UNL     1     -15.597 -13.394   0.491  1.00  0.00     0.044 C 
ATOM     10  O   UNL     1     -15.916 -13.919   1.590  1.00  0.00    -0.550 OA
ATOM     11  O   UNL     1     -15.480 -12.012   0.400  1.00  0.00    -0.550 OA
ENDBRANCH   7   9
ENDBRANCH   6   7
ENDBRANCH   5   6
ENDBRANCH   4   5
ENDBRANCH   3   4
ENDBRANCH   2   3
ENDBRANCH   1   2
BRANCH   1  12
ATOM     12  C   UNL     1     -19.066  -9.224  -0.364  1.00  0.00     0.000 C 
BRANCH  12  13
ATOM     13  C   UNL     1     -18.197  -8.620   0.757  1.00  0.00    -0.000 C 
BRANCH  13  14
ATOM     14  C   UNL     1     -16.680  -8.764   0.547  1.00  0.00    -0.000 C 
BRANCH  14  15
ATOM     15  C   UNL     1     -16.058  -7.550  -0.162  1.00  0.00    -0.000 C 
BRANCH  15  16
ATOM     16  C   UNL     1     -15.441  -7.961  -1.507  1.00  0.00    -0.000 C 
BRANCH  16  17
ATOM     17  C   UNL     1     -16.457  -7.926  -2.659  1.00  0.00    -0.000 C 
BRANCH  17  18
ATOM     18  C   UNL     1     -16.239  -9.056  -3.674  1.00  0.00    -0.003 C 
ATOM     19  C   UNL     1     -15.464 -10.213  -3.051  1.00  0.00     0.004 C 
ENDBRANCH  17  18
ENDBRANCH  16  17
ENDBRANCH  15  16
ENDBRANCH  14  15
ENDBRANCH  13  14
ENDBRANCH  12  13
ENDBRANCH   1  12
TORSDOF 14
ENDMDL
MODEL 5
REMARK VINA RESULT:    -5.965      2.036      5.316
REMARK INTER + INTRA:         -13.476
REMARK INTER:                 -11.520
REMARK INTRA:                  -1.956
REMARK UNBOUND:                -2.630
REMARK SMILES CCCCCCCCCCCCCC[C@@H](C)C(=O)[O-]
REMARK SMILES IDX 9 1 10 2 11 3 12 4 13 5 14 6 15 7 16 8 17 9 18 10 19 11 8 12
REMARK SMILES IDX 7 13 6 14 5 15 4 16 3 17 2 18 1 19
REMARK H PARENT
REMARK Flexibility Score: inf
ROOT
ATOM      1  C   UNL     1     -18.155  -9.341   0.848  1.00  0.00     0.000 C 
ENDROOT
BRANCH   1   2
ATOM      2  C   UNL     1     -19.162  -9.223  -0.305  1.00  0.00     0.000 C 
BRANCH   2   3
ATOM      3  C   UNL     1     -19.196 -10.507  -1.140  1.00  0.00     0.000 C 
BRANCH   3   4
ATOM      4  C   UNL     1     -18.917 -11.738  -0.267  1.00  0.00     0.000 C 
BRANCH   4   5
ATOM      5  C   UNL     1     -18.372 -12.929  -1.074  1.00  0.00     0.001 C 
BRANCH   5   6
ATOM      6  C   UNL     1     -17.173 -13.635  -0.397  1.00  0.00     0.009 C 
BRANCH   6   7
ATOM      7  C   UNL     1     -15.898 -12.760  -0.348  1.00  0.00     0.032 C 
ATOM      8  C   UNL     1     -15.068 -13.035   0.914  1.00  0.00     0.014 C 
BRANCH   7   9
ATOM      9  C   UNL     1     -15.056 -13.011  -1.568  1.00  0.00     0.044 C 
ATOM     10  O   UNL     1     -14.030 -13.737  -1.490  1.00  0.00    -0.550 OA
ATOM     11  O   UNL     1     -15.400 -12.441  -2.788  1.00  0.00    -0.550 OA
ENDBRANCH   7   9
ENDBRANCH   6   7
ENDBRANCH   5   6
ENDBRANCH   4   5
ENDBRANCH   3   4
ENDBRANCH   2   3
ENDBRANCH   1   2
BRANCH   1  12
ATOM     12  C   UNL     1     -17.518  -7.983   1.212  1.00  0.00     0.000 C 
BRANCH  12  13
ATOM     13  C   UNL     1     -15.989  -7.942   1.020  1.00  0.00    -0.000 C 
BRANCH  13  14
ATOM     14  C   UNL     1     -15.385  -9.205   0.383  1.00  0.00    -0.000 C 
BRANCH  14  15
ATOM     15  C   UNL     1     -14.763  -8.936  -0.997  1.00  0.00    -0.000 C 
BRANCH  15  16
ATOM     16  C   UNL     1     -15.518  -7.816  -1.727  1.00  0.00    -0.000 C 
BRANCH  16  17
ATOM     17  C   UNL     1     -16.660  -8.349  -2.607  1.00  0.00    -0.000 C 
BRANCH  17  18
ATOM     18  C   UNL     1     -16.175  -8.817  -3.986  1.00  0.00    -0.003 C 
ATOM     19  C   UNL     1     -16.680  -7.891  -5.090  1.00  0.00     0.004 C 
ENDBRANCH  17  18
ENDBRANCH  16  17
ENDBRANCH  15  16
ENDBRANCH  14  15
ENDBRANCH  13  14
ENDBRANCH  12  13
ENDBRANCH   1  12
TORSDOF 14
ENDMDL
MODEL 6
REMARK VINA RESULT:    -5.911      1.360      3.271
REMARK INTER + INTRA:         -13.378
REMARK INTER:                 -11.120
REMARK INTRA:                  -2.258
REMARK UNBOUND:                -2.630
REMARK SMILES CCCCCCCCCCCCCC[C@@H](C)C(=O)[O-]
REMARK SMILES IDX 9 1 10 2 11 3 12 4 13 5 14 6 15 7 16 8 17 9 18 10 19 11 8 12
REMARK SMILES IDX 7 13 6 14 5 15 4 16 3 17 2 18 1 19
REMARK H PARENT
REMARK Flexibility Score: inf
ROOT
ATOM      1  C   UNL     1     -18.229 -10.614  -1.128  1.00  0.00     0.000 C 
ENDROOT
BRANCH   1   2
ATOM      2  C   UNL     1     -18.827  -9.335  -0.522  1.00  0.00     0.000 C 
BRANCH   2   3
ATOM      3  C   UNL     1     -18.251  -9.065   0.872  1.00  0.00     0.000 C 
BRANCH   3   4
ATOM      4  C   UNL     1     -17.348  -7.824   0.863  1.00  0.00     0.000 C 
BRANCH   4   5
ATOM      5  C   UNL     1     -15.973  -8.092   0.226  1.00  0.00     0.001 C 
BRANCH   5   6
ATOM      6  C   UNL     1     -15.846  -7.550  -1.218  1.00  0.00     0.009 C 
BRANCH   6   7
ATOM      7  C   UNL     1     -14.965  -8.438  -2.128  1.00  0.00     0.032 C 
ATOM      8  C   UNL     1     -14.561  -9.744  -1.429  1.00  0.00     0.014 C 
BRANCH   7   9
ATOM      9  C   UNL     1     -15.700  -8.758  -3.400  1.00  0.00     0.044 C 
ATOM     10  O   UNL     1     -16.871  -8.332  -3.579  1.00  0.00    -0.550 OA
ATOM     11  O   UNL     1     -15.093  -9.526  -4.387  1.00  0.00    -0.550 OA
ENDBRANCH   7   9
ENDBRANCH   6   7
ENDBRANCH   5   6
ENDBRANCH   4   5
ENDBRANCH   3   4
ENDBRANCH   2   3
ENDBRANCH   1   2
BRANCH   1  12
ATOM     12  C   UNL     1     -18.049 -11.731  -0.078  1.00  0.00     0.000 C 
BRANCH  12  13
ATOM     13  C   UNL     1     -16.596 -12.231   0.054  1.00  0.00    -0.000 C 
BRANCH  13  14
ATOM     14  C   UNL     1     -16.454 -13.738   0.327  1.00  0.00    -0.000 C 
BRANCH  14  15
ATOM     15  C   UNL     1     -16.040 -14.534  -0.921  1.00  0.00    -0.000 C 
BRANCH  15  16
ATOM     16  C   UNL     1     -15.703 -13.589  -2.084  1.00  0.00    -0.000 C 
BRANCH  16  17
ATOM     17  C   UNL     1     -16.768 -13.613  -3.192  1.00  0.00    -0.000 C 
BRANCH  17  18
ATOM     18  C   UNL     1     -17.899 -14.609  -2.904  1.00  0.00    -0.003 C 
ATOM     19  C   UNL     1     -19.259 -13.918  -2.924  1.00  0.00     0.004 C 
ENDBRANCH  17  18
ENDBRANCH  16  17
ENDBRANCH  15  16
ENDBRANCH  14  15
ENDBRANCH  13  14
ENDBRANCH  12  13
ENDBRANCH   1  12
TORSDOF 14
ENDMDL
MODEL 7
REMARK VINA RESULT:    -5.798      1.462      3.537
REMARK INTER + INTRA:         -13.173
REMARK INTER:                 -10.952
REMARK INTRA:                  -2.221
REMARK UNBOUND:                -2.630
REMARK SMILES CCCCCCCCCCCCCC[C@@H](C)C(=O)[O-]
REMARK SMILES IDX 9 1 10 2 11 3 12 4 13 5 14 6 15 7 16 8 17 9 18 10 19 11 8 12
REMARK SMILES IDX 7 13 6 14 5 15 4 16 3 17 2 18 1 19
REMARK H PARENT
REMARK Flexibility Score: inf
ROOT
ATOM      1  C   UNL     1     -16.486 -14.636  -1.259  1.00  0.00     0.000 C 
ENDROOT
BRANCH   1   2
ATOM      2  C   UNL     1     -15.031 -14.144  -1.256  1.00  0.00     0.000 C 
BRANCH   2   3
ATOM      3  C   UNL     1     -14.961 -12.629  -1.473  1.00  0.00     0.000 C 
BRANCH   3   4
ATOM      4  C   UNL     1     -15.483 -11.873  -0.243  1.00  0.00     0.000 C 
BRANCH   4   5
ATOM      5  C   UNL     1     -15.176 -10.366  -0.297  1.00  0.00     0.001 C 
BRANCH   5   6
ATOM      6  C   UNL     1     -14.845  -9.854  -1.719  1.00  0.00     0.009 C 
BRANCH   6   7
ATOM      7  C   UNL     1     -16.010  -9.075  -2.374  1.00  0.00     0.032 C 
ATOM      8  C   UNL     1     -16.124  -7.649  -1.817  1.00  0.00     0.014 C 
BRANCH   7   9
ATOM      9  C   UNL     1     -15.815  -9.018  -3.864  1.00  0.00     0.044 C 
ATOM     10  O   UNL     1     -14.938  -9.732  -4.416  1.00  0.00    -0.550 OA
ATOM     11  O   UNL     1     -16.601  -8.175  -4.643  1.00  0.00    -0.550 OA
ENDBRANCH   7   9
ENDBRANCH   6   7
ENDBRANCH   5   6
ENDBRANCH   4   5
ENDBRANCH   3   4
ENDBRANCH   2   3
ENDBRANCH   1   2
BRANCH   1  12
ATOM     12  C   UNL     1     -17.072 -14.722  -2.685  1.00  0.00     0.000 C 
BRANCH  12  13
ATOM     13  C   UNL     1     -18.441 -14.029  -2.837  1.00  0.00    -0.000 C 
BRANCH  13  14
ATOM     14  C   UNL     1     -18.510 -12.603  -2.266  1.00  0.00    -0.000 C 
BRANCH  14  15
ATOM     15  C   UNL     1     -19.215 -12.541  -0.901  1.00  0.00    -0.000 C 
BRANCH  15  16
ATOM     16  C   UNL     1     -18.845 -11.251  -0.154  1.00  0.00    -0.000 C 
BRANCH  16  17
ATOM     17  C   UNL     1     -19.278  -9.985  -0.911  1.00  0.00    -0.000 C 
BRANCH  17  18
ATOM     18  C   UNL     1     -19.153  -8.715  -0.057  1.00  0.00    -0.003 C 
ATOM     19  C   UNL     1     -18.149  -8.910   1.075  1.00  0.00     0.004 C 
ENDBRANCH  17  18
ENDBRANCH  16  17
ENDBRANCH  15  16
ENDBRANCH  14  15
ENDBRANCH  13  14
ENDBRANCH  12  13
ENDBRANCH   1  12
TORSDOF 14
ENDMDL
MODEL 8
REMARK VINA RESULT:    -5.661      1.145      2.841
REMARK INTER + INTRA:         -12.923
REMARK INTER:                 -10.705
REMARK INTRA:                  -2.218
REMARK UNBOUND:                -2.630
REMARK SMILES CCCCCCCCCCCCCC[C@@H](C)C(=O)[O-]
REMARK SMILES IDX 9 1 10 2 11 3 12 4 13 5 14 6 15 7 16 8 17 9 18 10 19 11 8 12
REMARK SMILES IDX 7 13 6 14 5 15 4 16 3 17 2 18 1 19
REMARK H PARENT
REMARK Flexibility Score: inf
ROOT
ATOM      1  C   UNL     1     -17.281 -12.115   0.118  1.00  0.00     0.000 C 
ENDROOT
BRANCH   1   2
ATOM      2  C   UNL     1     -18.780 -11.836  -0.066  1.00  0.00     0.000 C 
BRANCH   2   3
ATOM      3  C   UNL     1     -19.010 -10.706  -1.076  1.00  0.00     0.000 C 
BRANCH   3   4
ATOM      4  C   UNL     1     -17.678 -10.208  -1.655  1.00  0.00     0.000 C 
BRANCH   4   5
ATOM      5  C   UNL     1     -17.367  -8.752  -1.266  1.00  0.00     0.001 C 
BRANCH   5   6
ATOM      6  C   UNL     1     -16.537  -7.994  -2.328  1.00  0.00     0.009 C 
BRANCH   6   7
ATOM      7  C   UNL     1     -16.354  -8.790  -3.642  1.00  0.00     0.032 C 
ATOM      8  C   UNL     1     -16.699  -7.941  -4.874  1.00  0.00     0.014 C 
BRANCH   7   9
ATOM      9  C   UNL     1     -14.937  -9.281  -3.752  1.00  0.00     0.044 C 
ATOM     10  O   UNL     1     -14.045  -8.812  -2.999  1.00  0.00    -0.550 OA
ATOM     11  O   UNL     1     -14.602 -10.255  -4.687  1.00  0.00    -0.550 OA
ENDBRANCH   7   9
ENDBRANCH   6   7
ENDBRANCH   5   6
ENDBRANCH   4   5
ENDBRANCH   3   4
ENDBRANCH   2   3
ENDBRANCH   1   2
BRANCH   1  12
ATOM     12  C   UNL     1     -17.002 -13.581   0.516  1.00  0.00     0.000 C 
BRANCH  12  13
ATOM     13  C   UNL     1     -15.524 -13.865   0.846  1.00  0.00    -0.000 C 
BRANCH  13  14
ATOM     14  C   UNL     1     -14.520 -13.376  -0.212  1.00  0.00    -0.000 C 
BRANCH  14  15
ATOM     15  C   UNL     1     -14.720 -14.049  -1.579  1.00  0.00    -0.000 C 
BRANCH  15  16
ATOM     16  C   UNL     1     -15.013 -13.003  -2.665  1.00  0.00    -0.000 C 
BRANCH  16  17
ATOM     17  C   UNL     1     -16.367 -13.231  -3.356  1.00  0.00    -0.000 C 
BRANCH  17  18
ATOM     18  C   UNL     1     -17.092 -14.480  -2.837  1.00  0.00    -0.003 C 
ATOM     19  C   UNL     1     -18.606 -14.297  -2.887  1.00  0.00     0.004 C 
ENDBRANCH  17  18
ENDBRANCH  16  17
ENDBRANCH  15  16
ENDBRANCH  14  15
ENDBRANCH  13  14
ENDBRANCH  12  13
ENDBRANCH   1  12
TORSDOF 14
ENDMDL
MODEL 9
REMARK VINA RESULT:    -5.648      2.282      4.939
REMARK INTER + INTRA:         -12.899
REMARK INTER:                 -10.845
REMARK INTRA:                  -2.054
REMARK UNBOUND:                -2.630
REMARK SMILES CCCCCCCCCCCCCC[C@@H](C)C(=O)[O-]
REMARK SMILES IDX 9 1 10 2 11 3 12 4 13 5 14 6 15 7 16 8 17 9 18 10 19 11 8 12
REMARK SMILES IDX 7 13 6 14 5 15 4 16 3 17 2 18 1 19
REMARK H PARENT
REMARK Flexibility Score: inf
ROOT
ATOM      1  C   UNL     1     -18.604 -11.432  -0.841  1.00  0.00     0.000 C 
ENDROOT
BRANCH   1   2
ATOM      2  C   UNL     1     -18.999 -12.897  -1.078  1.00  0.00     0.000 C 
BRANCH   2   3
ATOM      3  C   UNL     1     -19.017 -13.227  -2.575  1.00  0.00     0.000 C 
BRANCH   3   4
ATOM      4  C   UNL     1     -18.312 -14.562  -2.852  1.00  0.00     0.000 C 
BRANCH   4   5
ATOM      5  C   UNL     1     -16.778 -14.448  -2.795  1.00  0.00     0.001 C 
BRANCH   5   6
ATOM      6  C   UNL     1     -16.182 -14.834  -1.421  1.00  0.00     0.009 C 
BRANCH   6   7
ATOM      7  C   UNL     1     -15.018 -13.914  -0.981  1.00  0.00     0.032 C 
ATOM      8  C   UNL     1     -14.874 -12.698  -1.906  1.00  0.00     0.014 C 
BRANCH   7   9
ATOM      9  C   UNL     1     -15.239 -13.447   0.432  1.00  0.00     0.044 C 
ATOM     10  O   UNL     1     -15.582 -14.268   1.323  1.00  0.00    -0.550 OA
ATOM     11  O   UNL     1     -15.067 -12.108   0.763  1.00  0.00    -0.550 OA
ENDBRANCH   7   9
ENDBRANCH   6   7
ENDBRANCH   5   6
ENDBRANCH   4   5
ENDBRANCH   3   4
ENDBRANCH   2   3
ENDBRANCH   1   2
BRANCH   1  12
ATOM     12  C   UNL     1     -17.830 -10.833  -2.035  1.00  0.00     0.000 C 
BRANCH  12  13
ATOM     13  C   UNL     1     -17.891  -9.295  -2.107  1.00  0.00    -0.000 C 
BRANCH  13  14
ATOM     14  C   UNL     1     -16.642  -8.625  -2.704  1.00  0.00    -0.000 C 
BRANCH  14  15
ATOM     15  C   UNL     1     -15.799  -7.889  -1.651  1.00  0.00    -0.000 C 
BRANCH  15  16
ATOM     16  C   UNL     1     -15.220  -8.877  -0.627  1.00  0.00    -0.000 C 
BRANCH  16  17
ATOM     17  C   UNL     1     -15.598  -8.520   0.819  1.00  0.00    -0.000 C 
BRANCH  17  18
ATOM     18  C   UNL     1     -16.734  -7.490   0.896  1.00  0.00    -0.003 C 
ATOM     19  C   UNL     1     -18.044  -8.147   1.319  1.00  0.00     0.004 C 
ENDBRANCH  17  18
ENDBRANCH  16  17
ENDBRANCH  15  16
ENDBRANCH  14  15
ENDBRANCH  13  14
ENDBRANCH  12  13
ENDBRANCH   1  12
TORSDOF 14
ENDMDL
