MODEL 1
REMARK VINA RESULT:    -4.707      0.000      0.000
REMARK INTER + INTRA:          -7.759
REMARK INTER:                  -7.183
REMARK INTRA:                  -0.576
REMARK UNBOUND:                -0.576
REMARK SMILES O=C([O-])CCCCCCCCC(=O)[O-]
REMARK SMILES IDX 7 1 6 2 5 3 4 4 2 5 1 6 3 7 8 8 9 9 10 10 11 11 12 12 13 13
REMARK SMILES IDX 14 14
REMARK H PARENT
REMARK Flexibility Score: inf
ROOT
ATOM      1  C   UNL     1      97.535 123.779 125.802  1.00  0.00     0.000 C 
ENDROOT
BRANCH   1   2
ATOM      2  C   UNL     1      97.145 124.937 124.869  1.00  0.00     0.000 C 
BRANCH   2   3
ATOM      3  C   UNL     1      95.996 124.568 123.916  1.00  0.00     0.006 C 
BRANCH   3   4
ATOM      4  C   UNL     1      95.891 123.053 123.697  1.00  0.00     0.053 C 
BRANCH   4   5
ATOM      5  C   UNL     1      94.466 122.595 123.647  1.00  0.00     0.041 C 
ATOM      6  O   UNL     1      93.737 122.674 124.671  1.00  0.00    -0.550 OA
ATOM      7  O   UNL     1      93.949 122.054 122.476  1.00  0.00    -0.550 OA
ENDBRANCH   4   5
ENDBRANCH   3   4
ENDBRANCH   2   3
ENDBRANCH   1   2
BRANCH   1   8
ATOM      8  C   UNL     1      98.893 123.999 126.484  1.00  0.00     0.000 C 
BRANCH   8   9
ATOM      9  C   UNL     1      99.763 122.740 126.393  1.00  0.00     0.000 C 
BRANCH   9  10
ATOM     10  C   UNL     1      98.900 121.488 126.176  1.00  0.00     0.006 C 
BRANCH  10  11
ATOM     11  C   UNL     1      99.637 120.199 126.563  1.00  0.00     0.053 C 
BRANCH  11  12
ATOM     12  C   UNL     1     100.799 119.928 125.658  1.00  0.00     0.041 C 
ATOM     13  O   UNL     1     100.605 119.654 124.444  1.00  0.00    -0.550 OA
ATOM     14  O   UNL     1     102.093 119.946 126.162  1.00  0.00    -0.550 OA
ENDBRANCH  11  12
ENDBRANCH  10  11
ENDBRANCH   9  10
ENDBRANCH   8   9
ENDBRANCH   1   8
TORSDOF 9
ENDMDL
MODEL 2
REMARK VINA RESULT:    -4.632     11.041     12.303
REMARK INTER + INTRA:          -7.645
REMARK INTER:                  -7.156
REMARK INTRA:                  -0.489
REMARK UNBOUND:                -0.576
REMARK SMILES O=C([O-])CCCCCCCCC(=O)[O-]
REMARK SMILES IDX 7 1 6 2 5 3 4 4 2 5 1 6 3 7 8 8 9 9 10 10 11 11 12 12 13 13
REMARK SMILES IDX 14 14
REMARK H PARENT
REMARK Flexibility Score: inf
ROOT
ATOM      1  C   UNL     1      85.240 125.201 127.825  1.00  0.00     0.000 C 
ENDROOT
BRANCH   1   2
ATOM      2  C   UNL     1      84.217 124.097 128.137  1.00  0.00     0.000 C 
BRANCH   2   3
ATOM      3  C   UNL     1      83.384 123.698 126.907  1.00  0.00     0.006 C 
BRANCH   3   4
ATOM      4  C   UNL     1      84.047 124.133 125.594  1.00  0.00     0.053 C 
BRANCH   4   5
ATOM      5  C   UNL     1      84.455 122.957 124.761  1.00  0.00     0.041 C 
ATOM      6  O   UNL     1      85.568 122.399 124.951  1.00  0.00    -0.550 OA
ATOM      7  O   UNL     1      83.617 122.494 123.754  1.00  0.00    -0.550 OA
ENDBRANCH   4   5
ENDBRANCH   3   4
ENDBRANCH   2   3
ENDBRANCH   1   2
BRANCH   1   8
ATOM      8  C   UNL     1      86.598 124.959 128.502  1.00  0.00     0.000 C 
BRANCH   8   9
ATOM      9  C   UNL     1      86.459 123.984 129.677  1.00  0.00     0.000 C 
BRANCH   9  10
ATOM     10  C   UNL     1      87.775 123.877 130.463  1.00  0.00     0.006 C 
BRANCH  10  11
ATOM     11  C   UNL     1      87.821 122.627 131.351  1.00  0.00     0.053 C 
BRANCH  11  12
ATOM     12  C   UNL     1      88.739 121.582 130.794  1.00  0.00     0.041 C 
ATOM     13  O   UNL     1      88.434 120.971 129.736  1.00  0.00    -0.550 OA
ATOM     14  O   UNL     1      89.914 121.259 131.461  1.00  0.00    -0.550 OA
ENDBRANCH  11  12
ENDBRANCH  10  11
ENDBRANCH   9  10
ENDBRANCH   8   9
ENDBRANCH   1   8
TORSDOF 9
ENDMDL
MODEL 3
REMARK VINA RESULT:    -4.628     11.000     13.432
REMARK INTER + INTRA:          -7.638
REMARK INTER:                  -7.118
REMARK INTRA:                  -0.520
REMARK UNBOUND:                -0.576
REMARK SMILES O=C([O-])CCCCCCCCC(=O)[O-]
REMARK SMILES IDX 7 1 6 2 5 3 4 4 2 5 1 6 3 7 8 8 9 9 10 10 11 11 12 12 13 13
REMARK SMILES IDX 14 14
REMARK H PARENT
REMARK Flexibility Score: inf
ROOT
ATOM      1  C   UNL     1      85.633 124.099 129.930  1.00  0.00     0.000 C 
ENDROOT
BRANCH   1   2
ATOM      2  C   UNL     1      86.483 124.378 131.180  1.00  0.00     0.000 C 
BRANCH   2   3
ATOM      3  C   UNL     1      87.889 123.762 131.089  1.00  0.00     0.006 C 
BRANCH   3   4
ATOM      4  C   UNL     1      88.066 122.909 129.825  1.00  0.00     0.053 C 
BRANCH   4   5
ATOM      5  C   UNL     1      88.530 121.522 130.151  1.00  0.00     0.041 C 
ATOM      6  O   UNL     1      89.381 121.334 131.059  1.00  0.00    -0.550 OA
ATOM      7  O   UNL     1      88.042 120.439 129.430  1.00  0.00    -0.550 OA
ENDBRANCH   4   5
ENDBRANCH   3   4
ENDBRANCH   2   3
ENDBRANCH   1   2
BRANCH   1   8
ATOM      8  C   UNL     1      85.043 125.378 129.317  1.00  0.00     0.000 C 
BRANCH   8   9
ATOM      9  C   UNL     1      85.181 125.368 127.790  1.00  0.00     0.000 C 
BRANCH   9  10
ATOM     10  C   UNL     1      84.759 124.010 127.208  1.00  0.00     0.006 C 
BRANCH  10  11
ATOM     11  C   UNL     1      84.056 124.152 125.852  1.00  0.00     0.053 C 
BRANCH  11  12
ATOM     12  C   UNL     1      84.328 122.982 124.958  1.00  0.00     0.041 C 
ATOM     13  O   UNL     1      85.508 122.573 124.792  1.00  0.00    -0.550 OA
ATOM     14  O   UNL     1      83.284 122.364 124.281  1.00  0.00    -0.550 OA
ENDBRANCH  11  12
ENDBRANCH  10  11
ENDBRANCH   9  10
ENDBRANCH   8   9
ENDBRANCH   1   8
TORSDOF 9
ENDMDL
MODEL 4
REMARK VINA RESULT:    -4.603     11.315     13.156
REMARK INTER + INTRA:          -7.600
REMARK INTER:                  -6.820
REMARK INTRA:                  -0.780
REMARK UNBOUND:                -0.576
REMARK SMILES O=C([O-])CCCCCCCCC(=O)[O-]
REMARK SMILES IDX 7 1 6 2 5 3 4 4 2 5 1 6 3 7 8 8 9 9 10 10 11 11 12 12 13 13
REMARK SMILES IDX 14 14
REMARK H PARENT
REMARK Flexibility Score: inf
ROOT
ATOM      1  C   UNL     1      87.831 123.193 130.340  1.00  0.00     0.000 C 
ENDROOT
BRANCH   1   2
ATOM      2  C   UNL     1      88.571 121.869 130.590  1.00  0.00     0.000 C 
BRANCH   2   3
ATOM      3  C   UNL     1      87.632 120.746 131.060  1.00  0.00     0.006 C 
BRANCH   3   4
ATOM      4  C   UNL     1      86.349 120.675 130.221  1.00  0.00     0.053 C 
BRANCH   4   5
ATOM      5  C   UNL     1      86.594 120.049 128.883  1.00  0.00     0.041 C 
ATOM      6  O   UNL     1      85.872 120.354 127.898  1.00  0.00    -0.550 OA
ATOM      7  O   UNL     1      87.603 119.107 128.730  1.00  0.00    -0.550 OA
ENDBRANCH   4   5
ENDBRANCH   3   4
ENDBRANCH   2   3
ENDBRANCH   1   2
BRANCH   1   8
ATOM      8  C   UNL     1      87.676 124.035 131.614  1.00  0.00     0.000 C 
BRANCH   8   9
ATOM      9  C   UNL     1      86.341 124.790 131.614  1.00  0.00     0.000 C 
BRANCH   9  10
ATOM     10  C   UNL     1      85.456 124.344 130.439  1.00  0.00     0.006 C 
BRANCH  10  11
ATOM     11  C   UNL     1      84.976 125.529 129.591  1.00  0.00     0.053 C 
BRANCH  11  12
ATOM     12  C   UNL     1      85.659 125.574 128.259  1.00  0.00     0.041 C 
ATOM     13  O   UNL     1      86.822 126.048 128.160  1.00  0.00    -0.550 OA
ATOM     14  O   UNL     1      85.000 125.125 127.122  1.00  0.00    -0.550 OA
ENDBRANCH  11  12
ENDBRANCH  10  11
ENDBRANCH   9  10
ENDBRANCH   8   9
ENDBRANCH   1   8
TORSDOF 9
ENDMDL
MODEL 5
REMARK VINA RESULT:    -4.583     11.107     12.819
REMARK INTER + INTRA:          -7.569
REMARK INTER:                  -6.838
REMARK INTRA:                  -0.732
REMARK UNBOUND:                -0.576
REMARK SMILES O=C([O-])CCCCCCCCC(=O)[O-]
REMARK SMILES IDX 7 1 6 2 5 3 4 4 2 5 1 6 3 7 8 8 9 9 10 10 11 11 12 12 13 13
REMARK SMILES IDX 14 14
REMARK H PARENT
REMARK Flexibility Score: inf
ROOT
ATOM      1  C   UNL     1      86.489 124.621 132.203  1.00  0.00     0.000 C 
ENDROOT
BRANCH   1   2
ATOM      2  C   UNL     1      85.152 125.329 131.930  1.00  0.00     0.000 C 
BRANCH   2   3
ATOM      3  C   UNL     1      84.787 125.348 130.436  1.00  0.00     0.006 C 
BRANCH   3   4
ATOM      4  C   UNL     1      85.998 125.051 129.541  1.00  0.00     0.053 C 
BRANCH   4   5
ATOM      5  C   UNL     1      85.878 125.716 128.204  1.00  0.00     0.041 C 
ATOM      6  O   UNL     1      86.496 126.787 127.970  1.00  0.00    -0.550 OA
ATOM      7  O   UNL     1      85.059 125.166 127.225  1.00  0.00    -0.550 OA
ENDBRANCH   4   5
ENDBRANCH   3   4
ENDBRANCH   2   3
ENDBRANCH   1   2
BRANCH   1   8
ATOM      8  C   UNL     1      86.331 123.375 133.086  1.00  0.00     0.000 C 
BRANCH   8   9
ATOM      9  C   UNL     1      85.697 122.222 132.300  1.00  0.00     0.000 C 
BRANCH   9  10
ATOM     10  C   UNL     1      86.686 121.058 132.132  1.00  0.00     0.006 C 
BRANCH  10  11
ATOM     11  C   UNL     1      87.179 120.918 130.686  1.00  0.00     0.053 C 
BRANCH  11  12
ATOM     12  C   UNL     1      88.487 121.616 130.473  1.00  0.00     0.041 C 
ATOM     13  O   UNL     1      89.494 121.294 131.156  1.00  0.00    -0.550 OA
ATOM     14  O   UNL     1      88.584 122.646 129.545  1.00  0.00    -0.550 OA
ENDBRANCH  11  12
ENDBRANCH  10  11
ENDBRANCH   9  10
ENDBRANCH   8   9
ENDBRANCH   1   8
TORSDOF 9
ENDMDL
MODEL 6
REMARK VINA RESULT:    -4.548     11.004     13.773
REMARK INTER + INTRA:          -7.516
REMARK INTER:                  -6.840
REMARK INTRA:                  -0.676
REMARK UNBOUND:                -0.576
REMARK SMILES O=C([O-])CCCCCCCCC(=O)[O-]
REMARK SMILES IDX 7 1 6 2 5 3 4 4 2 5 1 6 3 7 8 8 9 9 10 10 11 11 12 12 13 13
REMARK SMILES IDX 14 14
REMARK H PARENT
REMARK Flexibility Score: inf
ROOT
ATOM      1  C   UNL     1      85.504 123.755 132.414  1.00  0.00     0.000 C 
ENDROOT
BRANCH   1   2
ATOM      2  C   UNL     1      86.790 122.953 132.157  1.00  0.00     0.000 C 
BRANCH   2   3
ATOM      3  C   UNL     1      87.801 123.720 131.288  1.00  0.00     0.006 C 
BRANCH   3   4
ATOM      4  C   UNL     1      88.106 122.988 129.974  1.00  0.00     0.053 C 
BRANCH   4   5
ATOM      5  C   UNL     1      88.583 121.589 130.214  1.00  0.00     0.041 C 
ATOM      6  O   UNL     1      88.086 120.629 129.570  1.00  0.00    -0.550 OA
ATOM      7  O   UNL     1      89.559 121.342 131.172  1.00  0.00    -0.550 OA
ENDBRANCH   4   5
ENDBRANCH   3   4
ENDBRANCH   2   3
ENDBRANCH   1   2
BRANCH   1   8
ATOM      8  C   UNL     1      85.535 125.148 131.770  1.00  0.00     0.000 C 
BRANCH   8   9
ATOM      9  C   UNL     1      84.116 125.643 131.464  1.00  0.00     0.000 C 
BRANCH   9  10
ATOM     10  C   UNL     1      83.923 125.865 129.956  1.00  0.00     0.006 C 
BRANCH  10  11
ATOM     11  C   UNL     1      84.547 124.741 129.118  1.00  0.00     0.053 C 
BRANCH  11  12
ATOM     12  C   UNL     1      85.243 125.273 127.903  1.00  0.00     0.041 C 
ATOM     13  O   UNL     1      84.907 124.874 126.757  1.00  0.00    -0.550 OA
ATOM     14  O   UNL     1      86.283 126.184 128.038  1.00  0.00    -0.550 OA
ENDBRANCH  11  12
ENDBRANCH  10  11
ENDBRANCH   9  10
ENDBRANCH   8   9
ENDBRANCH   1   8
TORSDOF 9
ENDMDL
MODEL 7
REMARK VINA RESULT:    -4.468     11.296     12.387
REMARK INTER + INTRA:          -7.395
REMARK INTER:                  -6.871
REMARK INTRA:                  -0.525
REMARK UNBOUND:                -0.576
REMARK SMILES O=C([O-])CCCCCCCCC(=O)[O-]
REMARK SMILES IDX 7 1 6 2 5 3 4 4 2 5 1 6 3 7 8 8 9 9 10 10 11 11 12 12 13 13
REMARK SMILES IDX 14 14
REMARK H PARENT
REMARK Flexibility Score: inf
ROOT
ATOM      1  C   UNL     1      86.408 124.735 130.459  1.00  0.00     0.000 C 
ENDROOT
BRANCH   1   2
ATOM      2  C   UNL     1      86.764 125.025 128.992  1.00  0.00     0.000 C 
BRANCH   2   3
ATOM      3  C   UNL     1      85.581 125.607 128.200  1.00  0.00     0.006 C 
BRANCH   3   4
ATOM      4  C   UNL     1      84.454 124.584 128.007  1.00  0.00     0.053 C 
BRANCH   4   5
ATOM      5  C   UNL     1      84.503 123.952 126.650  1.00  0.00     0.041 C 
ATOM      6  O   UNL     1      85.253 122.964 126.436  1.00  0.00    -0.550 OA
ATOM      7  O   UNL     1      83.740 124.474 125.613  1.00  0.00    -0.550 OA
ENDBRANCH   4   5
ENDBRANCH   3   4
ENDBRANCH   2   3
ENDBRANCH   1   2
BRANCH   1   8
ATOM      8  C   UNL     1      87.463 123.871 131.166  1.00  0.00     0.000 C 
BRANCH   8   9
ATOM      9  C   UNL     1      88.226 123.005 130.158  1.00  0.00     0.000 C 
BRANCH   9  10
ATOM     10  C   UNL     1      88.624 121.657 130.779  1.00  0.00     0.006 C 
BRANCH  10  11
ATOM     11  C   UNL     1      87.405 120.847 131.240  1.00  0.00     0.053 C 
BRANCH  11  12
ATOM     12  C   UNL     1      86.891 119.949 130.156  1.00  0.00     0.041 C 
ATOM     13  O   UNL     1      87.604 119.704 129.147  1.00  0.00    -0.550 OA
ATOM     14  O   UNL     1      85.614 119.410 130.245  1.00  0.00    -0.550 OA
ENDBRANCH  11  12
ENDBRANCH  10  11
ENDBRANCH   9  10
ENDBRANCH   8   9
ENDBRANCH   1   8
TORSDOF 9
ENDMDL
MODEL 8
REMARK VINA RESULT:    -4.418     10.990     12.686
REMARK INTER + INTRA:          -7.318
REMARK INTER:                  -6.432
REMARK INTRA:                  -0.887
REMARK UNBOUND:                -0.576
REMARK SMILES O=C([O-])CCCCCCCCC(=O)[O-]
REMARK SMILES IDX 7 1 6 2 5 3 4 4 2 5 1 6 3 7 8 8 9 9 10 10 11 11 12 12 13 13
REMARK SMILES IDX 14 14
REMARK H PARENT
REMARK Flexibility Score: inf
ROOT
ATOM      1  C   UNL     1      84.666 125.578 129.939  1.00  0.00     0.000 C 
ENDROOT
BRANCH   1   2
ATOM      2  C   UNL     1      85.455 125.866 128.651  1.00  0.00     0.000 C 
BRANCH   2   3
ATOM      3  C   UNL     1      85.144 124.860 127.530  1.00  0.00     0.006 C 
BRANCH   3   4
ATOM      4  C   UNL     1      83.833 124.103 127.780  1.00  0.00     0.053 C 
BRANCH   4   5
ATOM      5  C   UNL     1      84.025 122.620 127.709  1.00  0.00     0.041 C 
ATOM      6  O   UNL     1      83.045 121.862 127.486  1.00  0.00    -0.550 OA
ATOM      7  O   UNL     1      85.284 122.071 127.918  1.00  0.00    -0.550 OA
ENDBRANCH   4   5
ENDBRANCH   3   4
ENDBRANCH   2   3
ENDBRANCH   1   2
BRANCH   1   8
ATOM      8  C   UNL     1      85.573 125.183 131.114  1.00  0.00     0.000 C 
BRANCH   8   9
ATOM      9  C   UNL     1      86.092 123.750 130.948  1.00  0.00     0.000 C 
BRANCH   9  10
ATOM     10  C   UNL     1      87.628 123.713 130.982  1.00  0.00     0.006 C 
BRANCH  10  11
ATOM     11  C   UNL     1      88.217 122.943 129.793  1.00  0.00     0.053 C 
BRANCH  11  12
ATOM     12  C   UNL     1      88.553 121.529 130.156  1.00  0.00     0.041 C 
ATOM     13  O   UNL     1      89.362 121.292 131.091  1.00  0.00    -0.550 OA
ATOM     14  O   UNL     1      87.999 120.475 129.440  1.00  0.00    -0.550 OA
ENDBRANCH  11  12
ENDBRANCH  10  11
ENDBRANCH   9  10
ENDBRANCH   8   9
ENDBRANCH   1   8
TORSDOF 9
ENDMDL
MODEL 9
REMARK VINA RESULT:    -4.364     11.949     13.063
REMARK INTER + INTRA:          -7.236
REMARK INTER:                  -6.154
REMARK INTRA:                  -1.083
REMARK UNBOUND:                -0.576
REMARK SMILES O=C([O-])CCCCCCCCC(=O)[O-]
REMARK SMILES IDX 7 1 6 2 5 3 4 4 2 5 1 6 3 7 8 8 9 9 10 10 11 11 12 12 13 13
REMARK SMILES IDX 14 14
REMARK H PARENT
REMARK Flexibility Score: inf
ROOT
ATOM      1  C   UNL     1      88.204 123.707 131.233  1.00  0.00     0.000 C 
ENDROOT
BRANCH   1   2
ATOM      2  C   UNL     1      86.863 124.206 131.795  1.00  0.00     0.000 C 
BRANCH   2   3
ATOM      3  C   UNL     1      85.956 124.812 130.711  1.00  0.00     0.006 C 
BRANCH   3   4
ATOM      4  C   UNL     1      86.544 124.643 129.304  1.00  0.00     0.053 C 
BRANCH   4   5
ATOM      5  C   UNL     1      85.756 125.398 128.278  1.00  0.00     0.041 C 
ATOM      6  O   UNL     1      84.834 124.826 127.638  1.00  0.00    -0.550 OA
ATOM      7  O   UNL     1      86.060 126.726 128.007  1.00  0.00    -0.550 OA
ENDBRANCH   4   5
ENDBRANCH   3   4
ENDBRANCH   2   3
ENDBRANCH   1   2
BRANCH   1   8
ATOM      8  C   UNL     1      88.392 122.193 131.405  1.00  0.00     0.000 C 
BRANCH   8   9
ATOM      9  C   UNL     1      88.408 121.484 130.046  1.00  0.00     0.000 C 
BRANCH   9  10
ATOM     10  C   UNL     1      87.300 120.421 129.966  1.00  0.00     0.006 C 
BRANCH  10  11
ATOM     11  C   UNL     1      86.070 120.921 129.197  1.00  0.00     0.053 C 
BRANCH  11  12
ATOM     12  C   UNL     1      84.960 121.320 130.122  1.00  0.00     0.041 C 
ATOM     13  O   UNL     1      84.997 120.985 131.335  1.00  0.00    -0.550 OA
ATOM     14  O   UNL     1      83.870 122.031 129.636  1.00  0.00    -0.550 OA
ENDBRANCH  11  12
ENDBRANCH  10  11
ENDBRANCH   9  10
ENDBRANCH   8   9
ENDBRANCH   1   8
TORSDOF 9
ENDMDL
