MODEL 1
REMARK VINA RESULT:    -3.370      0.000      0.000
REMARK INTER + INTRA:          -4.293
REMARK INTER:                  -4.159
REMARK INTRA:                  -0.135
REMARK UNBOUND:                -0.135
REMARK SMILES CCCCC=CC(C)=O
REMARK SMILES IDX 4 1 3 2 2 3 1 4 5 5 6 6 7 7 9 8 8 9
REMARK H PARENT
REMARK Flexibility Score: inf
ROOT
ATOM      1  C   UNL     1      -5.643  12.600   8.798  1.00  0.00     0.027 C 
ENDROOT
BRANCH   1   2
ATOM      2  C   UNL     1      -5.879  13.889   7.991  1.00  0.00     0.004 C 
BRANCH   2   3
ATOM      3  C   UNL     1      -5.199  13.899   6.610  1.00  0.00    -0.003 C 
ATOM      4  C   UNL     1      -5.423  15.203   5.848  1.00  0.00     0.004 C 
ENDBRANCH   2   3
ENDBRANCH   1   2
BRANCH   1   5
ATOM      5  C   UNL     1      -4.597  11.714   8.180  1.00  0.00    -0.023 C 
ATOM      6  C   UNL     1      -3.353  11.655   8.669  1.00  0.00     0.042 C 
BRANCH   6   7
ATOM      7  C   UNL     1      -2.312  10.798   8.075  1.00  0.00     0.152 C 
ATOM      8  O   UNL     1      -2.288  10.577   6.833  1.00  0.00    -0.295 OA
ATOM      9  C   UNL     1      -1.274  10.176   8.954  1.00  0.00     0.093 C 
ENDBRANCH   6   7
ENDBRANCH   1   5
TORSDOF 4
ENDMDL
MODEL 2
REMARK VINA RESULT:    -3.234      1.387      2.094
REMARK INTER + INTRA:          -4.125
REMARK INTER:                  -4.014
REMARK INTRA:                  -0.111
REMARK UNBOUND:                -0.135
REMARK SMILES CCCCC=CC(C)=O
REMARK SMILES IDX 4 1 3 2 2 3 1 4 5 5 6 6 7 7 9 8 8 9
REMARK H PARENT
REMARK Flexibility Score: inf
ROOT
ATOM      1  C   UNL     1      -3.557  13.621   6.424  1.00  0.00     0.027 C 
ENDROOT
BRANCH   1   2
ATOM      2  C   UNL     1      -5.020  14.089   6.520  1.00  0.00     0.004 C 
BRANCH   2   3
ATOM      3  C   UNL     1      -5.892  13.239   7.461  1.00  0.00    -0.003 C 
ATOM      4  C   UNL     1      -6.151  13.918   8.805  1.00  0.00     0.004 C 
ENDBRANCH   2   3
ENDBRANCH   1   2
BRANCH   1   5
ATOM      5  C   UNL     1      -3.193  12.640   7.504  1.00  0.00    -0.023 C 
ATOM      6  C   UNL     1      -2.697  11.432   7.213  1.00  0.00     0.042 C 
BRANCH   6   7
ATOM      7  C   UNL     1      -2.338  10.454   8.256  1.00  0.00     0.152 C 
ATOM      8  O   UNL     1      -3.181  10.099   9.125  1.00  0.00    -0.295 OA
ATOM      9  C   UNL     1      -0.959   9.879   8.289  1.00  0.00     0.093 C 
ENDBRANCH   6   7
ENDBRANCH   1   5
TORSDOF 4
ENDMDL
MODEL 3
REMARK VINA RESULT:    -3.233      2.253      4.940
REMARK INTER + INTRA:          -4.124
REMARK INTER:                  -3.962
REMARK INTRA:                  -0.162
REMARK UNBOUND:                -0.135
REMARK SMILES CCCCC=CC(C)=O
REMARK SMILES IDX 4 1 3 2 2 3 1 4 5 5 6 6 7 7 9 8 8 9
REMARK H PARENT
REMARK Flexibility Score: inf
ROOT
ATOM      1  C   UNL     1      -2.546  11.955   6.504  1.00  0.00     0.027 C 
ENDROOT
BRANCH   1   2
ATOM      2  C   UNL     1      -2.622  10.709   7.404  1.00  0.00     0.004 C 
BRANCH   2   3
ATOM      3  C   UNL     1      -2.014  10.907   8.804  1.00  0.00    -0.003 C 
ATOM      4  C   UNL     1      -0.919   9.892   9.125  1.00  0.00     0.004 C 
ENDBRANCH   2   3
ENDBRANCH   1   2
BRANCH   1   5
ATOM      5  C   UNL     1      -3.462  13.056   6.963  1.00  0.00    -0.023 C 
ATOM      6  C   UNL     1      -4.738  12.817   7.281  1.00  0.00     0.042 C 
BRANCH   6   7
ATOM      7  C   UNL     1      -5.653  13.882   7.729  1.00  0.00     0.152 C 
ATOM      8  O   UNL     1      -5.945  14.845   6.966  1.00  0.00    -0.295 OA
ATOM      9  C   UNL     1      -6.239  13.828   9.103  1.00  0.00     0.093 C 
ENDBRANCH   6   7
ENDBRANCH   1   5
TORSDOF 4
ENDMDL
MODEL 4
REMARK VINA RESULT:    -2.319      2.166      4.659
REMARK INTER + INTRA:          -2.996
REMARK INTER:                  -3.542
REMARK INTRA:                   0.546
REMARK UNBOUND:                -0.135
REMARK SMILES CCCCC=CC(C)=O
REMARK SMILES IDX 4 1 3 2 2 3 1 4 5 5 6 6 7 7 9 8 8 9
REMARK H PARENT
REMARK Flexibility Score: inf
ROOT
ATOM      1  C   UNL     1      -2.261  11.505   6.582  1.00  0.00     0.027 C 
ENDROOT
BRANCH   1   2
ATOM      2  C   UNL     1      -2.067  10.503   7.732  1.00  0.00     0.004 C 
BRANCH   2   3
ATOM      3  C   UNL     1      -2.612  10.987   9.088  1.00  0.00    -0.003 C 
ATOM      4  C   UNL     1      -4.138  11.052   9.125  1.00  0.00     0.004 C 
ENDBRANCH   2   3
ENDBRANCH   1   2
BRANCH   1   5
ATOM      5  C   UNL     1      -3.579  12.224   6.658  1.00  0.00    -0.023 C 
ATOM      6  C   UNL     1      -3.658  13.554   6.544  1.00  0.00     0.042 C 
BRANCH   6   7
ATOM      7  C   UNL     1      -4.940  14.279   6.621  1.00  0.00     0.152 C 
ATOM      8  O   UNL     1      -5.287  15.075   5.706  1.00  0.00    -0.295 OA
ATOM      9  C   UNL     1      -5.838  14.073   7.798  1.00  0.00     0.093 C 
ENDBRANCH   6   7
ENDBRANCH   1   5
TORSDOF 4
ENDMDL
MODEL 5
REMARK VINA RESULT:    -2.114      1.352      1.395
REMARK INTER + INTRA:          -2.744
REMARK INTER:                  -2.638
REMARK INTRA:                  -0.106
REMARK UNBOUND:                -0.135
REMARK SMILES CCCCC=CC(C)=O
REMARK SMILES IDX 4 1 3 2 2 3 1 4 5 5 6 6 7 7 9 8 8 9
REMARK H PARENT
REMARK Flexibility Score: inf
ROOT
ATOM      1  C   UNL     1      -5.893  11.837   6.777  1.00  0.00     0.027 C 
ENDROOT
BRANCH   1   2
ATOM      2  C   UNL     1      -6.403  13.274   6.980  1.00  0.00     0.004 C 
BRANCH   2   3
ATOM      3  C   UNL     1      -5.345  14.361   6.719  1.00  0.00    -0.003 C 
ATOM      4  C   UNL     1      -5.642  15.193   5.474  1.00  0.00     0.004 C 
ENDBRANCH   2   3
ENDBRANCH   1   2
BRANCH   1   5
ATOM      5  C   UNL     1      -4.754  11.493   7.696  1.00  0.00    -0.023 C 
ATOM      6  C   UNL     1      -3.492  11.439   7.257  1.00  0.00     0.042 C 
BRANCH   6   7
ATOM      7  C   UNL     1      -2.362  11.099   8.140  1.00  0.00     0.152 C 
ATOM      8  O   UNL     1      -2.069  11.832   9.125  1.00  0.00    -0.295 OA
ATOM      9  C   UNL     1      -1.549   9.875   7.866  1.00  0.00     0.093 C 
ENDBRANCH   6   7
ENDBRANCH   1   5
TORSDOF 4
ENDMDL
MODEL 6
REMARK VINA RESULT:    -1.244      2.498      4.727
REMARK INTER + INTRA:          -1.669
REMARK INTER:                  -1.982
REMARK INTRA:                   0.313
REMARK UNBOUND:                -0.135
REMARK SMILES CCCCC=CC(C)=O
REMARK SMILES IDX 4 1 3 2 2 3 1 4 5 5 6 6 7 7 9 8 8 9
REMARK H PARENT
REMARK Flexibility Score: inf
ROOT
ATOM      1  C   UNL     1      -2.648  12.426   7.215  1.00  0.00     0.027 C 
ENDROOT
BRANCH   1   2
ATOM      2  C   UNL     1      -3.042  11.550   8.417  1.00  0.00     0.004 C 
BRANCH   2   3
ATOM      3  C   UNL     1      -4.333  11.998   9.125  1.00  0.00    -0.003 C 
ATOM      4  C   UNL     1      -5.594  11.653   8.335  1.00  0.00     0.004 C 
ENDBRANCH   2   3
ENDBRANCH   1   2
BRANCH   1   5
ATOM      5  C   UNL     1      -3.759  13.337   6.775  1.00  0.00    -0.023 C 
ATOM      6  C   UNL     1      -3.588  14.225   5.789  1.00  0.00     0.042 C 
BRANCH   6   7
ATOM      7  C   UNL     1      -4.663  15.131   5.346  1.00  0.00     0.152 C 
ATOM      8  O   UNL     1      -4.486  15.914   4.372  1.00  0.00    -0.295 OA
ATOM      9  C   UNL     1      -5.976  15.128   6.060  1.00  0.00     0.093 C 
ENDBRANCH   6   7
ENDBRANCH   1   5
TORSDOF 4
ENDMDL
MODEL 7
REMARK VINA RESULT:    -1.227      2.035      4.477
REMARK INTER + INTRA:          -1.649
REMARK INTER:                  -1.371
REMARK INTRA:                  -0.278
REMARK UNBOUND:                -0.135
REMARK SMILES CCCCC=CC(C)=O
REMARK SMILES IDX 4 1 3 2 2 3 1 4 5 5 6 6 7 7 9 8 8 9
REMARK H PARENT
REMARK Flexibility Score: inf
ROOT
ATOM      1  C   UNL     1      -5.466  11.564   7.793  1.00  0.00     0.027 C 
ENDROOT
BRANCH   1   2
ATOM      2  C   UNL     1      -4.705  11.442   9.125  1.00  0.00     0.004 C 
BRANCH   2   3
ATOM      3  C   UNL     1      -3.236  11.008   8.972  1.00  0.00    -0.003 C 
ATOM      4  C   UNL     1      -2.261  12.182   9.032  1.00  0.00     0.004 C 
ENDBRANCH   2   3
ENDBRANCH   1   2
BRANCH   1   5
ATOM      5  C   UNL     1      -5.430  12.958   7.233  1.00  0.00    -0.023 C 
ATOM      6  C   UNL     1      -4.611  13.288   6.228  1.00  0.00     0.042 C 
BRANCH   6   7
ATOM      7  C   UNL     1      -4.556  14.650   5.668  1.00  0.00     0.152 C 
ATOM      8  O   UNL     1      -3.516  15.069   5.089  1.00  0.00    -0.295 OA
ATOM      9  C   UNL     1      -5.744  15.549   5.789  1.00  0.00     0.093 C 
ENDBRANCH   6   7
ENDBRANCH   1   5
TORSDOF 4
ENDMDL
MODEL 8
REMARK VINA RESULT:    -0.600      2.949      4.833
REMARK INTER + INTRA:          -0.875
REMARK INTER:                  -0.622
REMARK INTRA:                  -0.253
REMARK UNBOUND:                -0.135
REMARK SMILES CCCCC=CC(C)=O
REMARK SMILES IDX 4 1 3 2 2 3 1 4 5 5 6 6 7 7 9 8 8 9
REMARK H PARENT
REMARK Flexibility Score: inf
ROOT
ATOM      1  C   UNL     1      -3.525  12.806   7.271  1.00  0.00     0.027 C 
ENDROOT
BRANCH   1   2
ATOM      2  C   UNL     1      -4.848  12.020   7.253  1.00  0.00     0.004 C 
BRANCH   2   3
ATOM      3  C   UNL     1      -5.630  12.075   8.577  1.00  0.00    -0.003 C 
ATOM      4  C   UNL     1      -6.061  13.491   8.954  1.00  0.00     0.004 C 
ENDBRANCH   2   3
ENDBRANCH   1   2
BRANCH   1   5
ATOM      5  C   UNL     1      -3.486  13.895   6.235  1.00  0.00    -0.023 C 
ATOM      6  C   UNL     1      -4.598  14.522   5.837  1.00  0.00     0.042 C 
BRANCH   6   7
ATOM      7  C   UNL     1      -4.582  15.589   4.819  1.00  0.00     0.152 C 
ATOM      8  O   UNL     1      -5.250  16.647   4.982  1.00  0.00    -0.295 OA
ATOM      9  C   UNL     1      -3.770  15.415   3.576  1.00  0.00     0.093 C 
ENDBRANCH   6   7
ENDBRANCH   1   5
TORSDOF 4
ENDMDL
