MODEL 1
REMARK VINA RESULT:    -4.343      0.000      0.000
REMARK INTER + INTRA:          -6.625
REMARK INTER:                  -6.374
REMARK INTRA:                  -0.252
REMARK UNBOUND:                -0.252
REMARK SMILES O=C([O-])CCCCCCCC(=O)[O-]
REMARK SMILES IDX 7 1 6 2 5 3 4 4 2 5 1 6 3 7 8 8 9 9 10 10 11 11 12 12 13 13
REMARK H PARENT
REMARK Flexibility Score: inf
ROOT
ATOM      1  C   UNL     1      -3.400   0.979  -0.044  1.00  0.00     0.000 C 
ENDROOT
BRANCH   1   2
ATOM      2  C   UNL     1      -4.270  -0.093  -0.720  1.00  0.00     0.000 C 
BRANCH   2   3
ATOM      3  C   UNL     1      -3.439  -1.119  -1.507  1.00  0.00     0.006 C 
BRANCH   3   4
ATOM      4  C   UNL     1      -4.280  -1.910  -2.517  1.00  0.00     0.053 C 
BRANCH   4   5
ATOM      5  C   UNL     1      -3.825  -3.334  -2.574  1.00  0.00     0.041 C 
ATOM      6  O   UNL     1      -3.508  -3.854  -3.676  1.00  0.00    -0.550 OA
ATOM      7  O   UNL     1      -3.798  -4.102  -1.418  1.00  0.00    -0.550 OA
ENDBRANCH   4   5
ENDBRANCH   3   4
ENDBRANCH   2   3
ENDBRANCH   1   2
BRANCH   1   8
ATOM      8  C   UNL     1      -4.252   1.900   0.838  1.00  0.00     0.000 C 
BRANCH   8   9
ATOM      9  C   UNL     1      -3.761   3.353   0.753  1.00  0.00     0.006 C 
BRANCH   9  10
ATOM     10  C   UNL     1      -2.783   3.567  -0.411  1.00  0.00     0.053 C 
BRANCH  10  11
ATOM     11  C   UNL     1      -2.983   4.901  -1.063  1.00  0.00     0.041 C 
ATOM     12  O   UNL     1      -3.167   5.930  -0.362  1.00  0.00    -0.550 OA
ATOM     13  O   UNL     1      -2.934   5.012  -2.448  1.00  0.00    -0.550 OA
ENDBRANCH  10  11
ENDBRANCH   9  10
ENDBRANCH   8   9
ENDBRANCH   1   8
TORSDOF 8
ENDMDL
MODEL 2
REMARK VINA RESULT:    -4.253      0.126      7.177
REMARK INTER + INTRA:          -6.493
REMARK INTER:                  -6.254
REMARK INTRA:                  -0.239
REMARK UNBOUND:                -0.252
REMARK SMILES O=C([O-])CCCCCCCC(=O)[O-]
REMARK SMILES IDX 7 1 6 2 5 3 4 4 2 5 1 6 3 7 8 8 9 9 10 10 11 11 12 12 13 13
REMARK H PARENT
REMARK Flexibility Score: inf
ROOT
ATOM      1  C   UNL     1      -3.414   1.043  -0.275  1.00  0.00     0.000 C 
ENDROOT
BRANCH   1   2
ATOM      2  C   UNL     1      -4.154   1.871   0.787  1.00  0.00     0.000 C 
BRANCH   2   3
ATOM      3  C   UNL     1      -3.751   3.354   0.769  1.00  0.00     0.006 C 
BRANCH   3   4
ATOM      4  C   UNL     1      -2.698   3.666  -0.302  1.00  0.00     0.053 C 
BRANCH   4   5
ATOM      5  C   UNL     1      -3.028   4.946  -1.002  1.00  0.00     0.041 C 
ATOM      6  O   UNL     1      -3.330   5.972  -0.338  1.00  0.00    -0.550 OA
ATOM      7  O   UNL     1      -3.053   4.994  -2.390  1.00  0.00    -0.550 OA
ENDBRANCH   4   5
ENDBRANCH   3   4
ENDBRANCH   2   3
ENDBRANCH   1   2
BRANCH   1   8
ATOM      8  C   UNL     1      -4.296  -0.099  -0.792  1.00  0.00     0.000 C 
BRANCH   8   9
ATOM      9  C   UNL     1      -3.444  -1.202  -1.441  1.00  0.00     0.006 C 
BRANCH   9  10
ATOM     10  C   UNL     1      -4.209  -1.957  -2.536  1.00  0.00     0.053 C 
BRANCH  10  11
ATOM     11  C   UNL     1      -3.849  -3.411  -2.560  1.00  0.00     0.041 C 
ATOM     12  O   UNL     1      -3.524  -3.966  -3.642  1.00  0.00    -0.550 OA
ATOM     13  O   UNL     1      -3.844  -4.146  -1.381  1.00  0.00    -0.550 OA
ENDBRANCH  10  11
ENDBRANCH   9  10
ENDBRANCH   8   9
ENDBRANCH   1   8
TORSDOF 8
ENDMDL
MODEL 3
REMARK VINA RESULT:    -4.233      0.306      1.300
REMARK INTER + INTRA:          -6.464
REMARK INTER:                  -6.229
REMARK INTRA:                  -0.235
REMARK UNBOUND:                -0.252
REMARK SMILES O=C([O-])CCCCCCCC(=O)[O-]
REMARK SMILES IDX 7 1 6 2 5 3 4 4 2 5 1 6 3 7 8 8 9 9 10 10 11 11 12 12 13 13
REMARK H PARENT
REMARK Flexibility Score: inf
ROOT
ATOM      1  C   UNL     1      -3.355   0.913  -0.021  1.00  0.00     0.000 C 
ENDROOT
BRANCH   1   2
ATOM      2  C   UNL     1      -4.159   0.141  -1.079  1.00  0.00     0.000 C 
BRANCH   2   3
ATOM      3  C   UNL     1      -3.715  -1.324  -1.208  1.00  0.00     0.006 C 
BRANCH   3   4
ATOM      4  C   UNL     1      -3.855  -1.861  -2.638  1.00  0.00     0.053 C 
BRANCH   4   5
ATOM      5  C   UNL     1      -3.769  -3.354  -2.647  1.00  0.00     0.041 C 
ATOM      6  O   UNL     1      -3.866  -4.000  -1.570  1.00  0.00    -0.550 OA
ATOM      7  O   UNL     1      -3.532  -4.031  -3.836  1.00  0.00    -0.550 OA
ENDBRANCH   4   5
ENDBRANCH   3   4
ENDBRANCH   2   3
ENDBRANCH   1   2
BRANCH   1   8
ATOM      8  C   UNL     1      -4.274   1.801   0.825  1.00  0.00     0.000 C 
BRANCH   8   9
ATOM      9  C   UNL     1      -3.800   3.263   0.803  1.00  0.00     0.006 C 
BRANCH   9  10
ATOM     10  C   UNL     1      -2.809   3.533  -0.337  1.00  0.00     0.053 C 
BRANCH  10  11
ATOM     11  C   UNL     1      -2.915   4.940  -0.842  1.00  0.00     0.041 C 
ATOM     12  O   UNL     1      -3.039   5.164  -2.074  1.00  0.00    -0.550 OA
ATOM     13  O   UNL     1      -2.909   6.002   0.054  1.00  0.00    -0.550 OA
ENDBRANCH  10  11
ENDBRANCH   9  10
ENDBRANCH   8   9
ENDBRANCH   1   8
TORSDOF 8
ENDMDL
MODEL 4
REMARK VINA RESULT:    -4.123      0.666      7.058
REMARK INTER + INTRA:          -6.302
REMARK INTER:                  -5.935
REMARK INTRA:                  -0.367
REMARK UNBOUND:                -0.252
REMARK SMILES O=C([O-])CCCCCCCC(=O)[O-]
REMARK SMILES IDX 7 1 6 2 5 3 4 4 2 5 1 6 3 7 8 8 9 9 10 10 11 11 12 12 13 13
REMARK H PARENT
REMARK Flexibility Score: inf
ROOT
ATOM      1  C   UNL     1      -4.109   1.193   0.153  1.00  0.00     0.000 C 
ENDROOT
BRANCH   1   2
ATOM      2  C   UNL     1      -2.596   1.352  -0.060  1.00  0.00     0.000 C 
BRANCH   2   3
ATOM      3  C   UNL     1      -2.196   2.795  -0.406  1.00  0.00     0.006 C 
BRANCH   3   4
ATOM      4  C   UNL     1      -3.174   3.832   0.161  1.00  0.00     0.053 C 
BRANCH   4   5
ATOM      5  C   UNL     1      -2.983   5.154  -0.513  1.00  0.00     0.041 C 
ATOM      6  O   UNL     1      -3.022   5.236  -1.769  1.00  0.00    -0.550 OA
ATOM      7  O   UNL     1      -2.713   6.287   0.242  1.00  0.00    -0.550 OA
ENDBRANCH   4   5
ENDBRANCH   3   4
ENDBRANCH   2   3
ENDBRANCH   1   2
BRANCH   1   8
ATOM      8  C   UNL     1      -4.599  -0.157  -0.386  1.00  0.00     0.000 C 
BRANCH   8   9
ATOM      9  C   UNL     1      -3.490  -0.869  -1.175  1.00  0.00     0.006 C 
BRANCH   9  10
ATOM     10  C   UNL     1      -4.032  -1.589  -2.417  1.00  0.00     0.053 C 
BRANCH  10  11
ATOM     11  C   UNL     1      -3.828  -3.071  -2.332  1.00  0.00     0.041 C 
ATOM     12  O   UNL     1      -3.733  -3.760  -3.381  1.00  0.00    -0.550 OA
ATOM     13  O   UNL     1      -3.713  -3.686  -1.091  1.00  0.00    -0.550 OA
ENDBRANCH  10  11
ENDBRANCH   9  10
ENDBRANCH   8   9
ENDBRANCH   1   8
TORSDOF 8
ENDMDL
MODEL 5
REMARK VINA RESULT:    -3.792      1.584      7.337
REMARK INTER + INTRA:          -5.817
REMARK INTER:                  -5.536
REMARK INTRA:                  -0.281
REMARK UNBOUND:                -0.252
REMARK SMILES O=C([O-])CCCCCCCC(=O)[O-]
REMARK SMILES IDX 7 1 6 2 5 3 4 4 2 5 1 6 3 7 8 8 9 9 10 10 11 11 12 12 13 13
REMARK H PARENT
REMARK Flexibility Score: inf
ROOT
ATOM      1  C   UNL     1      -3.188  -1.048  -1.450  1.00  0.00     0.000 C 
ENDROOT
BRANCH   1   2
ATOM      2  C   UNL     1      -3.939   0.035  -0.659  1.00  0.00     0.000 C 
BRANCH   2   3
ATOM      3  C   UNL     1      -3.001   1.117  -0.101  1.00  0.00     0.006 C 
BRANCH   3   4
ATOM      4  C   UNL     1      -3.740   2.415   0.249  1.00  0.00     0.053 C 
BRANCH   4   5
ATOM      5  C   UNL     1      -2.985   3.600  -0.264  1.00  0.00     0.041 C 
ATOM      6  O   UNL     1      -2.497   4.438   0.540  1.00  0.00    -0.550 OA
ATOM      7  O   UNL     1      -2.862   3.809  -1.631  1.00  0.00    -0.550 OA
ENDBRANCH   4   5
ENDBRANCH   3   4
ENDBRANCH   2   3
ENDBRANCH   1   2
BRANCH   1   8
ATOM      8  C   UNL     1      -4.153  -1.852  -2.329  1.00  0.00     0.000 C 
BRANCH   8   9
ATOM      9  C   UNL     1      -3.942  -3.362  -2.139  1.00  0.00     0.006 C 
BRANCH   9  10
ATOM     10  C   UNL     1      -3.471  -3.707  -0.719  1.00  0.00     0.053 C 
BRANCH  10  11
ATOM     11  C   UNL     1      -4.525  -4.444   0.050  1.00  0.00     0.041 C 
ATOM     12  O   UNL     1      -4.907  -5.582  -0.327  1.00  0.00    -0.550 OA
ATOM     13  O   UNL     1      -5.062  -3.884   1.203  1.00  0.00    -0.550 OA
ENDBRANCH  10  11
ENDBRANCH   9  10
ENDBRANCH   8   9
ENDBRANCH   1   8
TORSDOF 8
ENDMDL
MODEL 6
REMARK VINA RESULT:    -3.325     13.621     15.454
REMARK INTER + INTRA:          -5.132
REMARK INTER:                  -4.735
REMARK INTRA:                  -0.397
REMARK UNBOUND:                -0.252
REMARK SMILES O=C([O-])CCCCCCCC(=O)[O-]
REMARK SMILES IDX 7 1 6 2 5 3 4 4 2 5 1 6 3 7 8 8 9 9 10 10 11 11 12 12 13 13
REMARK H PARENT
REMARK Flexibility Score: inf
ROOT
ATOM      1  C   UNL     1       1.932  -8.823   8.825  1.00  0.00     0.000 C 
ENDROOT
BRANCH   1   2
ATOM      2  C   UNL     1       1.711  -8.033  10.125  1.00  0.00     0.000 C 
BRANCH   2   3
ATOM      3  C   UNL     1       2.003  -6.533   9.963  1.00  0.00     0.006 C 
BRANCH   3   4
ATOM      4  C   UNL     1       0.725  -5.687   9.897  1.00  0.00     0.053 C 
BRANCH   4   5
ATOM      5  C   UNL     1       0.928  -4.501   9.008  1.00  0.00     0.041 C 
ATOM      6  O   UNL     1       1.229  -3.383   9.503  1.00  0.00    -0.550 OA
ATOM      7  O   UNL     1       0.738  -4.617   7.638  1.00  0.00    -0.550 OA
ENDBRANCH   4   5
ENDBRANCH   3   4
ENDBRANCH   2   3
ENDBRANCH   1   2
BRANCH   1   8
ATOM      8  C   UNL     1       2.726 -10.107   9.092  1.00  0.00     0.000 C 
BRANCH   8   9
ATOM      9  C   UNL     1       4.180  -9.786   9.472  1.00  0.00     0.006 C 
BRANCH   9  10
ATOM     10  C   UNL     1       5.067  -9.568   8.239  1.00  0.00     0.053 C 
BRANCH  10  11
ATOM     11  C   UNL     1       5.254  -8.111   7.941  1.00  0.00     0.041 C 
ATOM     12  O   UNL     1       5.734  -7.342   8.814  1.00  0.00    -0.550 OA
ATOM     13  O   UNL     1       4.926  -7.610   6.687  1.00  0.00    -0.550 OA
ENDBRANCH  10  11
ENDBRANCH   9  10
ENDBRANCH   8   9
ENDBRANCH   1   8
TORSDOF 8
ENDMDL
MODEL 7
REMARK VINA RESULT:    -3.035      1.389      2.008
REMARK INTER + INTRA:          -4.706
REMARK INTER:                  -4.462
REMARK INTRA:                  -0.244
REMARK UNBOUND:                -0.252
REMARK SMILES O=C([O-])CCCCCCCC(=O)[O-]
REMARK SMILES IDX 7 1 6 2 5 3 4 4 2 5 1 6 3 7 8 8 9 9 10 10 11 11 12 12 13 13
REMARK H PARENT
REMARK Flexibility Score: inf
ROOT
ATOM      1  C   UNL     1      -3.889  -0.567  -0.967  1.00  0.00     0.000 C 
ENDROOT
BRANCH   1   2
ATOM      2  C   UNL     1      -4.118  -1.122  -2.382  1.00  0.00     0.000 C 
BRANCH   2   3
ATOM      3  C   UNL     1      -3.299  -2.393  -2.659  1.00  0.00     0.006 C 
BRANCH   3   4
ATOM      4  C   UNL     1      -4.106  -3.677  -2.430  1.00  0.00     0.053 C 
BRANCH   4   5
ATOM      5  C   UNL     1      -3.958  -4.141  -1.015  1.00  0.00     0.041 C 
ATOM      6  O   UNL     1      -2.992  -3.739  -0.314  1.00  0.00    -0.550 OA
ATOM      7  O   UNL     1      -4.857  -5.056  -0.485  1.00  0.00    -0.550 OA
ENDBRANCH   4   5
ENDBRANCH   3   4
ENDBRANCH   2   3
ENDBRANCH   1   2
BRANCH   1   8
ATOM      8  C   UNL     1      -2.742   0.450  -0.957  1.00  0.00     0.000 C 
BRANCH   8   9
ATOM      9  C   UNL     1      -2.810   1.343   0.292  1.00  0.00     0.006 C 
BRANCH   9  10
ATOM     10  C   UNL     1      -3.745   2.544   0.096  1.00  0.00     0.053 C 
BRANCH  10  11
ATOM     11  C   UNL     1      -2.996   3.764  -0.344  1.00  0.00     0.041 C 
ATOM     12  O   UNL     1      -2.570   4.588   0.507  1.00  0.00    -0.550 OA
ATOM     13  O   UNL     1      -2.740   3.975  -1.693  1.00  0.00    -0.550 OA
ENDBRANCH  10  11
ENDBRANCH   9  10
ENDBRANCH   8   9
ENDBRANCH   1   8
TORSDOF 8
ENDMDL
MODEL 8
REMARK VINA RESULT:    -2.873     13.262     14.477
REMARK INTER + INTRA:          -4.469
REMARK INTER:                  -4.412
REMARK INTRA:                  -0.056
REMARK UNBOUND:                -0.252
REMARK SMILES O=C([O-])CCCCCCCC(=O)[O-]
REMARK SMILES IDX 7 1 6 2 5 3 4 4 2 5 1 6 3 7 8 8 9 9 10 10 11 11 12 12 13 13
REMARK H PARENT
REMARK Flexibility Score: inf
ROOT
ATOM      1  C   UNL     1       2.869  -7.872   9.859  1.00  0.00     0.000 C 
ENDROOT
BRANCH   1   2
ATOM      2  C   UNL     1       3.131  -9.326   9.435  1.00  0.00     0.000 C 
BRANCH   2   3
ATOM      3  C   UNL     1       4.628  -9.674   9.412  1.00  0.00     0.006 C 
BRANCH   3   4
ATOM      4  C   UNL     1       5.254  -9.498   8.022  1.00  0.00     0.053 C 
BRANCH   4   5
ATOM      5  C   UNL     1       5.372  -8.045   7.684  1.00  0.00     0.041 C 
ATOM      6  O   UNL     1       4.918  -7.610   6.592  1.00  0.00    -0.550 OA
ATOM      7  O   UNL     1       6.027  -7.180   8.549  1.00  0.00    -0.550 OA
ENDBRANCH   4   5
ENDBRANCH   3   4
ENDBRANCH   2   3
ENDBRANCH   1   2
BRANCH   1   8
ATOM      8  C   UNL     1       1.751  -7.248   9.016  1.00  0.00     0.000 C 
BRANCH   8   9
ATOM      9  C   UNL     1       0.843  -6.358   9.879  1.00  0.00     0.006 C 
BRANCH   9  10
ATOM     10  C   UNL     1       0.813  -4.906   9.383  1.00  0.00     0.053 C 
BRANCH  10  11
ATOM     11  C   UNL     1       0.436  -4.822   7.936  1.00  0.00     0.041 C 
ATOM     12  O   UNL     1      -0.409  -5.620   7.453  1.00  0.00    -0.550 OA
ATOM     13  O   UNL     1       0.997  -3.841   7.127  1.00  0.00    -0.550 OA
ENDBRANCH  10  11
ENDBRANCH   9  10
ENDBRANCH   8   9
ENDBRANCH   1   8
TORSDOF 8
ENDMDL
MODEL 9
REMARK VINA RESULT:    -2.160     14.037     15.907
REMARK INTER + INTRA:          -3.422
REMARK INTER:                  -3.265
REMARK INTRA:                  -0.157
REMARK UNBOUND:                -0.252
REMARK SMILES O=C([O-])CCCCCCCC(=O)[O-]
REMARK SMILES IDX 7 1 6 2 5 3 4 4 2 5 1 6 3 7 8 8 9 9 10 10 11 11 12 12 13 13
REMARK H PARENT
REMARK Flexibility Score: inf
ROOT
ATOM      1  C   UNL     1       6.890   2.167  -9.134  1.00  0.00     0.000 C 
ENDROOT
BRANCH   1   2
ATOM      2  C   UNL     1       6.993   3.397 -10.050  1.00  0.00     0.000 C 
BRANCH   2   3
ATOM      3  C   UNL     1       7.743   4.565  -9.391  1.00  0.00     0.006 C 
BRANCH   3   4
ATOM      4  C   UNL     1       7.119   5.927  -9.718  1.00  0.00     0.053 C 
BRANCH   4   5
ATOM      5  C   UNL     1       8.186   6.962  -9.891  1.00  0.00     0.041 C 
ATOM      6  O   UNL     1       9.373   6.615 -10.125  1.00  0.00    -0.550 OA
ATOM      7  O   UNL     1       7.879   8.308  -9.744  1.00  0.00    -0.550 OA
ENDBRANCH   4   5
ENDBRANCH   3   4
ENDBRANCH   2   3
ENDBRANCH   1   2
BRANCH   1   8
ATOM      8  C   UNL     1       7.013   0.870  -9.942  1.00  0.00     0.000 C 
BRANCH   8   9
ATOM      9  C   UNL     1       8.431   0.289  -9.838  1.00  0.00     0.006 C 
BRANCH   9  10
ATOM     10  C   UNL     1       9.397   1.241  -9.120  1.00  0.00     0.053 C 
BRANCH  10  11
ATOM     11  C   UNL     1       9.770   0.732  -7.762  1.00  0.00     0.041 C 
ATOM     12  O   UNL     1       9.792  -0.505  -7.532  1.00  0.00    -0.550 OA
ATOM     13  O   UNL     1      10.125   1.626  -6.758  1.00  0.00    -0.550 OA
ENDBRANCH  10  11
ENDBRANCH   9  10
ENDBRANCH   8   9
ENDBRANCH   1   8
TORSDOF 8
ENDMDL
