MODEL 1
REMARK VINA RESULT:    -3.829      0.000      0.000
REMARK INTER + INTRA:          -6.434
REMARK INTER:                  -5.844
REMARK INTRA:                  -0.590
REMARK UNBOUND:                -0.590
REMARK SMILES O=C([O-])CCCCCCCCC(=O)[O-]
REMARK SMILES IDX 7 1 6 2 5 3 4 4 2 5 1 6 3 7 8 8 9 9 10 10 11 11 12 12 13 13
REMARK SMILES IDX 14 14
REMARK H PARENT
REMARK Flexibility Score: inf
ROOT
ATOM      1  C   UNL     1       4.036  -1.030 400.722  1.00  0.00     0.000 C 
ENDROOT
BRANCH   1   2
ATOM      2  C   UNL     1       3.710  -2.351 400.003  1.00  0.00     0.000 C 
BRANCH   2   3
ATOM      3  C   UNL     1       3.061  -3.396 400.927  1.00  0.00     0.006 C 
BRANCH   3   4
ATOM      4  C   UNL     1       4.073  -4.227 401.738  1.00  0.00     0.053 C 
BRANCH   4   5
ATOM      5  C   UNL     1       3.784  -4.219 403.208  1.00  0.00     0.041 C 
ATOM      6  O   UNL     1       2.831  -3.533 403.665  1.00  0.00    -0.550 OA
ATOM      7  O   UNL     1       4.585  -4.945 404.078  1.00  0.00    -0.550 OA
ENDBRANCH   4   5
ENDBRANCH   3   4
ENDBRANCH   2   3
ENDBRANCH   1   2
BRANCH   1   8
ATOM      8  C   UNL     1       5.335  -0.388 400.210  1.00  0.00     0.000 C 
BRANCH   8   9
ATOM      9  C   UNL     1       5.270   1.150 400.205  1.00  0.00     0.000 C 
BRANCH   9  10
ATOM     10  C   UNL     1       3.881   1.696 400.580  1.00  0.00     0.006 C 
BRANCH  10  11
ATOM     11  C   UNL     1       3.918   2.860 401.586  1.00  0.00     0.053 C 
BRANCH  11  12
ATOM     12  C   UNL     1       4.684   2.526 402.830  1.00  0.00     0.041 C 
ATOM     13  O   UNL     1       5.702   3.195 403.149  1.00  0.00    -0.550 OA
ATOM     14  O   UNL     1       4.292   1.453 403.621  1.00  0.00    -0.550 OA
ENDBRANCH  11  12
ENDBRANCH  10  11
ENDBRANCH   9  10
ENDBRANCH   8   9
ENDBRANCH   1   8
TORSDOF 9
ENDMDL
MODEL 2
REMARK VINA RESULT:    -3.812      1.244      5.198
REMARK INTER + INTRA:          -6.407
REMARK INTER:                  -5.727
REMARK INTRA:                  -0.679
REMARK UNBOUND:                -0.590
REMARK SMILES O=C([O-])CCCCCCCCC(=O)[O-]
REMARK SMILES IDX 7 1 6 2 5 3 4 4 2 5 1 6 3 7 8 8 9 9 10 10 11 11 12 12 13 13
REMARK SMILES IDX 14 14
REMARK H PARENT
REMARK Flexibility Score: inf
ROOT
ATOM      1  C   UNL     1       4.885  -1.481 400.474  1.00  0.00     0.000 C 
ENDROOT
BRANCH   1   2
ATOM      2  C   UNL     1       4.946   0.002 400.069  1.00  0.00     0.000 C 
BRANCH   2   3
ATOM      3  C   UNL     1       3.596   0.725 400.228  1.00  0.00     0.006 C 
BRANCH   3   4
ATOM      4  C   UNL     1       3.705   2.114 400.883  1.00  0.00     0.053 C 
BRANCH   4   5
ATOM      5  C   UNL     1       4.112   2.044 402.323  1.00  0.00     0.041 C 
ATOM      6  O   UNL     1       3.613   1.172 403.084  1.00  0.00    -0.550 OA
ATOM      7  O   UNL     1       5.020   2.963 402.835  1.00  0.00    -0.550 OA
ENDBRANCH   4   5
ENDBRANCH   3   4
ENDBRANCH   2   3
ENDBRANCH   1   2
BRANCH   1   8
ATOM      8  C   UNL     1       3.666  -2.203 399.879  1.00  0.00     0.000 C 
BRANCH   8   9
ATOM      9  C   UNL     1       3.108  -3.289 400.816  1.00  0.00     0.000 C 
BRANCH   9  10
ATOM     10  C   UNL     1       4.067  -3.643 401.966  1.00  0.00     0.006 C 
BRANCH  10  11
ATOM     11  C   UNL     1       3.399  -3.664 403.353  1.00  0.00     0.053 C 
BRANCH  11  12
ATOM     12  C   UNL     1       3.699  -2.436 404.158  1.00  0.00     0.041 C 
ATOM     13  O   UNL     1       2.829  -1.955 404.931  1.00  0.00    -0.550 OA
ATOM     14  O   UNL     1       4.929  -1.804 404.029  1.00  0.00    -0.550 OA
ENDBRANCH  11  12
ENDBRANCH  10  11
ENDBRANCH   9  10
ENDBRANCH   8   9
ENDBRANCH   1   8
TORSDOF 9
ENDMDL
MODEL 3
REMARK VINA RESULT:    -3.795      0.988      5.704
REMARK INTER + INTRA:          -6.381
REMARK INTER:                  -5.761
REMARK INTRA:                  -0.620
REMARK UNBOUND:                -0.590
REMARK SMILES O=C([O-])CCCCCCCCC(=O)[O-]
REMARK SMILES IDX 7 1 6 2 5 3 4 4 2 5 1 6 3 7 8 8 9 9 10 10 11 11 12 12 13 13
REMARK SMILES IDX 14 14
REMARK H PARENT
REMARK Flexibility Score: inf
ROOT
ATOM      1  C   UNL     1       5.414  -0.392 400.087  1.00  0.00     0.000 C 
ENDROOT
BRANCH   1   2
ATOM      2  C   UNL     1       5.432   1.136 400.267  1.00  0.00     0.000 C 
BRANCH   2   3
ATOM      3  C   UNL     1       4.053   1.715 400.634  1.00  0.00     0.006 C 
BRANCH   3   4
ATOM      4  C   UNL     1       4.033   2.479 401.970  1.00  0.00     0.053 C 
BRANCH   4   5
ATOM      5  C   UNL     1       4.346   1.601 403.144  1.00  0.00     0.041 C 
ATOM      6  O   UNL     1       5.238   1.936 403.968  1.00  0.00    -0.550 OA
ATOM      7  O   UNL     1       3.674   0.397 403.310  1.00  0.00    -0.550 OA
ENDBRANCH   4   5
ENDBRANCH   3   4
ENDBRANCH   2   3
ENDBRANCH   1   2
BRANCH   1   8
ATOM      8  C   UNL     1       3.988  -0.965 400.075  1.00  0.00     0.000 C 
BRANCH   8   9
ATOM      9  C   UNL     1       3.969  -2.498 399.945  1.00  0.00     0.000 C 
BRANCH   9  10
ATOM     10  C   UNL     1       3.133  -3.186 401.038  1.00  0.00     0.006 C 
BRANCH  10  11
ATOM     11  C   UNL     1       3.890  -3.397 402.362  1.00  0.00     0.053 C 
BRANCH  11  12
ATOM     12  C   UNL     1       4.075  -4.846 402.698  1.00  0.00     0.041 C 
ATOM     13  O   UNL     1       4.428  -5.190 403.857  1.00  0.00    -0.550 OA
ATOM     14  O   UNL     1       3.888  -5.816 401.721  1.00  0.00    -0.550 OA
ENDBRANCH  11  12
ENDBRANCH  10  11
ENDBRANCH   9  10
ENDBRANCH   8   9
ENDBRANCH   1   8
TORSDOF 9
ENDMDL
MODEL 4
REMARK VINA RESULT:    -3.761      2.499      3.848
REMARK INTER + INTRA:          -6.330
REMARK INTER:                  -5.418
REMARK INTRA:                  -0.912
REMARK UNBOUND:                -0.590
REMARK SMILES O=C([O-])CCCCCCCCC(=O)[O-]
REMARK SMILES IDX 7 1 6 2 5 3 4 4 2 5 1 6 3 7 8 8 9 9 10 10 11 11 12 12 13 13
REMARK SMILES IDX 14 14
REMARK H PARENT
REMARK Flexibility Score: inf
ROOT
ATOM      1  C   UNL     1       4.400   1.384 403.770  1.00  0.00     0.000 C 
ENDROOT
BRANCH   1   2
ATOM      2  C   UNL     1       5.583   0.430 404.010  1.00  0.00     0.000 C 
BRANCH   2   3
ATOM      3  C   UNL     1       5.143  -1.026 404.248  1.00  0.00     0.006 C 
BRANCH   3   4
ATOM      4  C   UNL     1       3.642  -1.272 404.010  1.00  0.00     0.053 C 
BRANCH   4   5
ATOM      5  C   UNL     1       3.017  -2.118 405.076  1.00  0.00     0.041 C 
ATOM      6  O   UNL     1       2.159  -2.991 404.775  1.00  0.00    -0.550 OA
ATOM      7  O   UNL     1       3.359  -1.924 406.408  1.00  0.00    -0.550 OA
ENDBRANCH   4   5
ENDBRANCH   3   4
ENDBRANCH   2   3
ENDBRANCH   1   2
BRANCH   1   8
ATOM      8  C   UNL     1       4.742   2.503 402.773  1.00  0.00     0.000 C 
BRANCH   8   9
ATOM      9  C   UNL     1       4.005   2.345 401.432  1.00  0.00     0.000 C 
BRANCH   9  10
ATOM     10  C   UNL     1       4.643   1.287 400.515  1.00  0.00     0.006 C 
BRANCH  10  11
ATOM     11  C   UNL     1       3.713   0.105 400.184  1.00  0.00     0.053 C 
BRANCH  11  12
ATOM     12  C   UNL     1       4.370  -1.225 400.395  1.00  0.00     0.041 C 
ATOM     13  O   UNL     1       5.589  -1.291 400.704  1.00  0.00    -0.550 OA
ATOM     14  O   UNL     1       3.642  -2.395 400.220  1.00  0.00    -0.550 OA
ENDBRANCH  11  12
ENDBRANCH  10  11
ENDBRANCH   9  10
ENDBRANCH   8   9
ENDBRANCH   1   8
TORSDOF 9
ENDMDL
MODEL 5
REMARK VINA RESULT:    -3.730      3.001      4.226
REMARK INTER + INTRA:          -6.282
REMARK INTER:                  -5.934
REMARK INTRA:                  -0.349
REMARK UNBOUND:                -0.590
REMARK SMILES O=C([O-])CCCCCCCCC(=O)[O-]
REMARK SMILES IDX 7 1 6 2 5 3 4 4 2 5 1 6 3 7 8 8 9 9 10 10 11 11 12 12 13 13
REMARK SMILES IDX 14 14
REMARK H PARENT
REMARK Flexibility Score: inf
ROOT
ATOM      1  C   UNL     1       5.179  -4.617 401.536  1.00  0.00     0.000 C 
ENDROOT
BRANCH   1   2
ATOM      2  C   UNL     1       5.294  -6.117 401.858  1.00  0.00     0.000 C 
BRANCH   2   3
ATOM      3  C   UNL     1       3.935  -6.840 401.854  1.00  0.00     0.006 C 
BRANCH   3   4
ATOM      4  C   UNL     1       3.982  -8.254 401.246  1.00  0.00     0.053 C 
BRANCH   4   5
ATOM      5  C   UNL     1       4.734  -9.227 402.101  1.00  0.00     0.041 C 
ATOM      6  O   UNL     1       4.242  -9.632 403.187  1.00  0.00    -0.550 OA
ATOM      7  O   UNL     1       5.994  -9.665 401.713  1.00  0.00    -0.550 OA
ENDBRANCH   4   5
ENDBRANCH   3   4
ENDBRANCH   2   3
ENDBRANCH   1   2
BRANCH   1   8
ATOM      8  C   UNL     1       3.732  -4.107 401.623  1.00  0.00     0.000 C 
BRANCH   8   9
ATOM      9  C   UNL     1       3.469  -2.917 400.684  1.00  0.00     0.000 C 
BRANCH   9  10
ATOM     10  C   UNL     1       4.044  -1.592 401.214  1.00  0.00     0.006 C 
BRANCH  10  11
ATOM     11  C   UNL     1       3.918  -0.417 400.228  1.00  0.00     0.053 C 
BRANCH  11  12
ATOM     12  C   UNL     1       3.565   0.872 400.905  1.00  0.00     0.041 C 
ATOM     13  O   UNL     1       3.261   1.886 400.224  1.00  0.00    -0.550 OA
ATOM     14  O   UNL     1       3.604   0.962 402.291  1.00  0.00    -0.550 OA
ENDBRANCH  11  12
ENDBRANCH  10  11
ENDBRANCH   9  10
ENDBRANCH   8   9
ENDBRANCH   1   8
TORSDOF 9
ENDMDL
MODEL 6
REMARK VINA RESULT:    -3.722      1.871      2.956
REMARK INTER + INTRA:          -6.270
REMARK INTER:                  -5.571
REMARK INTRA:                  -0.699
REMARK UNBOUND:                -0.590
REMARK SMILES O=C([O-])CCCCCCCCC(=O)[O-]
REMARK SMILES IDX 7 1 6 2 5 3 4 4 2 5 1 6 3 7 8 8 9 9 10 10 11 11 12 12 13 13
REMARK SMILES IDX 14 14
REMARK H PARENT
REMARK Flexibility Score: inf
ROOT
ATOM      1  C   UNL     1       3.152  -3.270 401.350  1.00  0.00     0.000 C 
ENDROOT
BRANCH   1   2
ATOM      2  C   UNL     1       4.125  -3.475 402.524  1.00  0.00     0.000 C 
BRANCH   2   3
ATOM      3  C   UNL     1       3.409  -3.778 403.853  1.00  0.00     0.006 C 
BRANCH   3   4
ATOM      4  C   UNL     1       2.951  -2.522 404.616  1.00  0.00     0.053 C 
BRANCH   4   5
ATOM      5  C   UNL     1       3.999  -1.452 404.654  1.00  0.00     0.041 C 
ATOM      6  O   UNL     1       4.991  -1.561 405.423  1.00  0.00    -0.550 OA
ATOM      7  O   UNL     1       3.866  -0.319 403.863  1.00  0.00    -0.550 OA
ENDBRANCH   4   5
ENDBRANCH   3   4
ENDBRANCH   2   3
ENDBRANCH   1   2
BRANCH   1   8
ATOM      8  C   UNL     1       3.825  -2.603 400.140  1.00  0.00     0.000 C 
BRANCH   8   9
ATOM      9  C   UNL     1       4.854  -1.536 400.551  1.00  0.00     0.000 C 
BRANCH   9  10
ATOM     10  C   UNL     1       4.652  -0.193 399.828  1.00  0.00     0.006 C 
BRANCH  10  11
ATOM     11  C   UNL     1       3.575   0.704 400.466  1.00  0.00     0.053 C 
BRANCH  11  12
ATOM     12  C   UNL     1       4.144   1.956 401.061  1.00  0.00     0.041 C 
ATOM     13  O   UNL     1       3.544   3.055 400.923  1.00  0.00    -0.550 OA
ATOM     14  O   UNL     1       5.354   1.915 401.743  1.00  0.00    -0.550 OA
ENDBRANCH  11  12
ENDBRANCH  10  11
ENDBRANCH   9  10
ENDBRANCH   8   9
ENDBRANCH   1   8
TORSDOF 9
ENDMDL
MODEL 7
REMARK VINA RESULT:    -3.708      1.336      5.583
REMARK INTER + INTRA:          -6.249
REMARK INTER:                  -5.767
REMARK INTRA:                  -0.482
REMARK UNBOUND:                -0.590
REMARK SMILES O=C([O-])CCCCCCCCC(=O)[O-]
REMARK SMILES IDX 7 1 6 2 5 3 4 4 2 5 1 6 3 7 8 8 9 9 10 10 11 11 12 12 13 13
REMARK SMILES IDX 14 14
REMARK H PARENT
REMARK Flexibility Score: inf
ROOT
ATOM      1  C   UNL     1       3.619   0.275 400.916  1.00  0.00     0.000 C 
ENDROOT
BRANCH   1   2
ATOM      2  C   UNL     1       3.996   1.716 400.531  1.00  0.00     0.000 C 
BRANCH   2   3
ATOM      3  C   UNL     1       3.923   2.695 401.717  1.00  0.00     0.006 C 
BRANCH   3   4
ATOM      4  C   UNL     1       4.605   2.177 402.996  1.00  0.00     0.053 C 
BRANCH   4   5
ATOM      5  C   UNL     1       6.074   2.471 403.030  1.00  0.00     0.041 C 
ATOM      6  O   UNL     1       6.490   3.582 403.453  1.00  0.00    -0.550 OA
ATOM      7  O   UNL     1       6.983   1.530 402.564  1.00  0.00    -0.550 OA
ENDBRANCH   4   5
ENDBRANCH   3   4
ENDBRANCH   2   3
ENDBRANCH   1   2
BRANCH   1   8
ATOM      8  C   UNL     1       3.936  -0.733 399.800  1.00  0.00     0.000 C 
BRANCH   8   9
ATOM      9  C   UNL     1       4.470  -2.069 400.345  1.00  0.00     0.000 C 
BRANCH   9  10
ATOM     10  C   UNL     1       3.357  -2.992 400.874  1.00  0.00     0.006 C 
BRANCH  10  11
ATOM     11  C   UNL     1       3.752  -3.791 402.129  1.00  0.00     0.053 C 
BRANCH  11  12
ATOM     12  C   UNL     1       3.447  -3.060 403.400  1.00  0.00     0.041 C 
ATOM     13  O   UNL     1       4.163  -2.089 403.764  1.00  0.00    -0.550 OA
ATOM     14  O   UNL     1       2.390  -3.471 404.202  1.00  0.00    -0.550 OA
ENDBRANCH  11  12
ENDBRANCH  10  11
ENDBRANCH   9  10
ENDBRANCH   8   9
ENDBRANCH   1   8
TORSDOF 9
ENDMDL
MODEL 8
REMARK VINA RESULT:    -3.695      1.654      2.236
REMARK INTER + INTRA:          -6.228
REMARK INTER:                  -5.220
REMARK INTRA:                  -1.009
REMARK UNBOUND:                -0.590
REMARK SMILES O=C([O-])CCCCCCCCC(=O)[O-]
REMARK SMILES IDX 7 1 6 2 5 3 4 4 2 5 1 6 3 7 8 8 9 9 10 10 11 11 12 12 13 13
REMARK SMILES IDX 14 14
REMARK H PARENT
REMARK Flexibility Score: inf
ROOT
ATOM      1  C   UNL     1       5.048  -0.301 399.957  1.00  0.00     0.000 C 
ENDROOT
BRANCH   1   2
ATOM      2  C   UNL     1       5.096  -1.776 400.393  1.00  0.00     0.000 C 
BRANCH   2   3
ATOM      3  C   UNL     1       3.723  -2.468 400.326  1.00  0.00     0.006 C 
BRANCH   3   4
ATOM      4  C   UNL     1       3.247  -3.043 401.673  1.00  0.00     0.053 C 
BRANCH   4   5
ATOM      5  C   UNL     1       4.135  -4.138 402.182  1.00  0.00     0.041 C 
ATOM      6  O   UNL     1       4.932  -3.920 403.133  1.00  0.00    -0.550 OA
ATOM      7  O   UNL     1       4.105  -5.391 401.585  1.00  0.00    -0.550 OA
ENDBRANCH   4   5
ENDBRANCH   3   4
ENDBRANCH   2   3
ENDBRANCH   1   2
BRANCH   1   8
ATOM      8  C   UNL     1       3.638   0.299 400.069  1.00  0.00     0.000 C 
BRANCH   8   9
ATOM      9  C   UNL     1       3.647   1.724 400.650  1.00  0.00     0.000 C 
BRANCH   9  10
ATOM     10  C   UNL     1       4.277   1.798 402.052  1.00  0.00     0.006 C 
BRANCH  10  11
ATOM     11  C   UNL     1       3.597   0.889 403.091  1.00  0.00     0.053 C 
BRANCH  11  12
ATOM     12  C   UNL     1       4.549  -0.084 403.720  1.00  0.00     0.041 C 
ATOM     13  O   UNL     1       4.134  -0.932 404.552  1.00  0.00    -0.550 OA
ATOM     14  O   UNL     1       5.902  -0.031 403.410  1.00  0.00    -0.550 OA
ENDBRANCH  11  12
ENDBRANCH  10  11
ENDBRANCH   9  10
ENDBRANCH   8   9
ENDBRANCH   1   8
TORSDOF 9
ENDMDL
MODEL 9
REMARK VINA RESULT:    -3.625      2.205      3.420
REMARK INTER + INTRA:          -6.122
REMARK INTER:                  -5.234
REMARK INTRA:                  -0.888
REMARK UNBOUND:                -0.590
REMARK SMILES O=C([O-])CCCCCCCCC(=O)[O-]
REMARK SMILES IDX 7 1 6 2 5 3 4 4 2 5 1 6 3 7 8 8 9 9 10 10 11 11 12 12 13 13
REMARK SMILES IDX 14 14
REMARK H PARENT
REMARK Flexibility Score: inf
ROOT
ATOM      1  C   UNL     1       3.666   1.636 400.516  1.00  0.00     0.000 C 
ENDROOT
BRANCH   1   2
ATOM      2  C   UNL     1       4.652   0.496 400.208  1.00  0.00     0.000 C 
BRANCH   2   3
ATOM      3  C   UNL     1       3.973  -0.883 400.130  1.00  0.00     0.006 C 
BRANCH   3   4
ATOM      4  C   UNL     1       4.840  -2.037 400.666  1.00  0.00     0.053 C 
BRANCH   4   5
ATOM      5  C   UNL     1       4.027  -3.134 401.282  1.00  0.00     0.041 C 
ATOM      6  O   UNL     1       2.851  -3.353 400.887  1.00  0.00    -0.550 OA
ATOM      7  O   UNL     1       4.556  -3.896 402.316  1.00  0.00    -0.550 OA
ENDBRANCH   4   5
ENDBRANCH   3   4
ENDBRANCH   2   3
ENDBRANCH   1   2
BRANCH   1   8
ATOM      8  C   UNL     1       3.978   2.340 401.847  1.00  0.00     0.000 C 
BRANCH   8   9
ATOM      9  C   UNL     1       5.093   1.634 402.639  1.00  0.00     0.000 C 
BRANCH   9  10
ATOM     10  C   UNL     1       4.570   0.884 403.877  1.00  0.00     0.006 C 
BRANCH  10  11
ATOM     11  C   UNL     1       5.128  -0.543 404.024  1.00  0.00     0.053 C 
BRANCH  11  12
ATOM     12  C   UNL     1       4.296  -1.399 404.929  1.00  0.00     0.041 C 
ATOM     13  O   UNL     1       4.759  -1.802 406.028  1.00  0.00    -0.550 OA
ATOM     14  O   UNL     1       3.017  -1.781 404.542  1.00  0.00    -0.550 OA
ENDBRANCH  11  12
ENDBRANCH  10  11
ENDBRANCH   9  10
ENDBRANCH   8   9
ENDBRANCH   1   8
TORSDOF 9
ENDMDL
