MODEL 1
REMARK VINA RESULT:    -6.984      0.000      0.000
REMARK INTER + INTRA:          -8.471
REMARK INTER:                  -8.208
REMARK INTRA:                  -0.262
REMARK UNBOUND:                -0.262
REMARK SMILES O=c1cc(-c2ccc(O)c(O)c2)oc2cc(O)cc(O)c12
REMARK SMILES IDX 4 1 3 2 2 3 1 4 21 5 19 6 18 7 16 8 15 9 14 10 13 11 5 12
REMARK SMILES IDX 6 13 7 14 8 15 12 16 10 17 9 18 11 20 20 22 17 24
REMARK H PARENT 9 19 11 21 20 23 17 25
REMARK Flexibility Score: inf
ROOT
ATOM      1  C   UNL     1       9.799  11.629 -16.074  1.00  0.00     0.138 A 
ATOM      2  C   UNL     1      10.499  10.458 -16.394  1.00  0.00     0.100 A 
ATOM      3  C   UNL     1      10.202   9.270 -15.725  1.00  0.00     0.197 A 
ATOM      4  O   UNL     1      10.887   8.250 -15.995  1.00  0.00    -0.289 OA
ATOM      5  C   UNL     1       9.171   9.248 -14.754  1.00  0.00     0.107 A 
ATOM      6  C   UNL     1       8.757   8.088 -14.033  1.00  0.00     0.134 A 
ATOM      7  C   UNL     1       7.792   8.210 -13.025  1.00  0.00     0.093 A 
ATOM      8  C   UNL     1       7.186   9.436 -12.753  1.00  0.00     0.123 A 
ATOM      9  C   UNL     1       7.546  10.567 -13.486  1.00  0.00     0.094 A 
ATOM     10  C   UNL     1       8.531  10.484 -14.474  1.00  0.00     0.146 A 
ATOM     11  O   UNL     1       8.859  11.589 -15.137  1.00  0.00    -0.456 OA
ENDROOT
BRANCH   1  12
ATOM     12  C   UNL     1      10.073  12.919 -16.756  1.00  0.00     0.021 A 
ATOM     13  C   UNL     1      10.943  13.879 -16.205  1.00  0.00     0.016 A 
ATOM     14  C   UNL     1      11.173  15.089 -16.864  1.00  0.00     0.051 A 
ATOM     15  C   UNL     1      10.535  15.365 -18.081  1.00  0.00     0.157 A 
ATOM     16  C   UNL     1       9.426  13.210 -17.970  1.00  0.00     0.062 A 
ATOM     17  C   UNL     1       9.656  14.420 -18.635  1.00  0.00     0.158 A 
BRANCH  15  18
ATOM     18  O   UNL     1      10.769  16.572 -18.736  1.00  0.00    -0.504 OA
ATOM     19  H   UNL     1      11.508  16.669 -19.424  1.00  0.00     0.293 HD
ENDBRANCH  15  18
BRANCH  17  20
ATOM     20  O   UNL     1       9.002  14.666 -19.841  1.00  0.00    -0.504 OA
ATOM     21  H   UNL     1       8.412  15.478 -19.977  1.00  0.00     0.293 HD
ENDBRANCH  17  20
ENDBRANCH   1  12
BRANCH   6  22
ATOM     22  O   UNL     1       9.240   6.799 -14.277  1.00  0.00    -0.507 OA
ATOM     23  H   UNL     1      10.205   6.518 -14.204  1.00  0.00     0.293 HD
ENDBRANCH   6  22
BRANCH   8  24
ATOM     24  O   UNL     1       6.217   9.517 -11.754  1.00  0.00    -0.508 OA
ATOM     25  H   UNL     1       6.468   9.672 -10.785  1.00  0.00     0.293 HD
ENDBRANCH   8  24
TORSDOF 5
ENDMDL
MODEL 2
REMARK VINA RESULT:    -6.977      1.504      7.323
REMARK INTER + INTRA:          -8.463
REMARK INTER:                  -8.200
REMARK INTRA:                  -0.263
REMARK UNBOUND:                -0.262
REMARK SMILES O=c1cc(-c2ccc(O)c(O)c2)oc2cc(O)cc(O)c12
REMARK SMILES IDX 4 1 3 2 2 3 1 4 21 5 19 6 18 7 16 8 15 9 14 10 13 11 5 12
REMARK SMILES IDX 6 13 7 14 8 15 12 16 10 17 9 18 11 20 20 22 17 24
REMARK H PARENT 9 19 11 21 20 23 17 25
REMARK Flexibility Score: inf
ROOT
ATOM      1  C   UNL     1       9.936  12.260 -16.819  1.00  0.00     0.138 A 
ATOM      2  C   UNL     1      10.690  13.329 -16.319  1.00  0.00     0.100 A 
ATOM      3  C   UNL     1      10.727  14.536 -17.018  1.00  0.00     0.197 A 
ATOM      4  O   UNL     1      11.458  15.457 -16.572  1.00  0.00    -0.289 OA
ATOM      5  C   UNL     1       9.975  14.684 -18.209  1.00  0.00     0.107 A 
ATOM      6  C   UNL     1       9.909  15.878 -18.987  1.00  0.00     0.134 A 
ATOM      7  C   UNL     1       9.208  15.872 -20.201  1.00  0.00     0.093 A 
ATOM      8  C   UNL     1       8.525  14.736 -20.633  1.00  0.00     0.123 A 
ATOM      9  C   UNL     1       8.541  13.578 -19.855  1.00  0.00     0.094 A 
ATOM     10  C   UNL     1       9.259  13.541 -18.657  1.00  0.00     0.146 A 
ATOM     11  O   UNL     1       9.264  12.413 -17.955  1.00  0.00    -0.456 OA
ENDROOT
BRANCH   1  12
ATOM     12  C   UNL     1       9.858  10.955 -16.115  1.00  0.00     0.021 A 
ATOM     13  C   UNL     1      10.768   9.914 -16.380  1.00  0.00     0.016 A 
ATOM     14  C   UNL     1      10.665   8.693 -15.710  1.00  0.00     0.051 A 
ATOM     15  C   UNL     1       9.649   8.487 -14.767  1.00  0.00     0.157 A 
ATOM     16  C   UNL     1       8.833  10.735 -15.178  1.00  0.00     0.062 A 
ATOM     17  C   UNL     1       8.728   9.513 -14.503  1.00  0.00     0.158 A 
BRANCH  15  18
ATOM     18  O   UNL     1       9.549   7.268 -14.099  1.00  0.00    -0.504 OA
ATOM     19  H   UNL     1       9.362   6.404 -14.595  1.00  0.00     0.293 HD
ENDBRANCH  15  18
BRANCH  17  20
ATOM     20  O   UNL     1       7.702   9.339 -13.575  1.00  0.00    -0.504 OA
ATOM     21  H   UNL     1       7.334   8.424 -13.346  1.00  0.00     0.293 HD
ENDBRANCH  17  20
ENDBRANCH   1  12
BRANCH   6  22
ATOM     22  O   UNL     1      10.489  17.092 -18.611  1.00  0.00    -0.507 OA
ATOM     23  H   UNL     1      10.075  17.761 -17.980  1.00  0.00     0.293 HD
ENDBRANCH   6  22
BRANCH   8  24
ATOM     24  O   UNL     1       7.825  14.773 -21.838  1.00  0.00    -0.508 OA
ATOM     25  H   UNL     1       6.884  15.144 -21.893  1.00  0.00     0.293 HD
ENDBRANCH   8  24
TORSDOF 5
ENDMDL
MODEL 3
REMARK VINA RESULT:    -6.735      2.418      3.608
REMARK INTER + INTRA:          -8.179
REMARK INTER:                  -7.863
REMARK INTRA:                  -0.315
REMARK UNBOUND:                -0.262
REMARK SMILES O=c1cc(-c2ccc(O)c(O)c2)oc2cc(O)cc(O)c12
REMARK SMILES IDX 4 1 3 2 2 3 1 4 21 5 19 6 18 7 16 8 15 9 14 10 13 11 5 12
REMARK SMILES IDX 6 13 7 14 8 15 12 16 10 17 9 18 11 20 20 22 17 24
REMARK H PARENT 9 19 11 21 20 23 17 25
REMARK Flexibility Score: inf
ROOT
ATOM      1  C   UNL     1       8.870  13.318 -18.668  1.00  0.00     0.138 A 
ATOM      2  C   UNL     1       9.369  12.049 -18.993  1.00  0.00     0.100 A 
ATOM      3  C   UNL     1       9.531  11.092 -17.991  1.00  0.00     0.197 A 
ATOM      4  O   UNL     1      10.034   9.983 -18.306  1.00  0.00    -0.289 OA
ATOM      5  C   UNL     1       9.159  11.397 -16.659  1.00  0.00     0.107 A 
ATOM      6  C   UNL     1       9.248  10.490 -15.561  1.00  0.00     0.134 A 
ATOM      7  C   UNL     1       8.942  10.938 -14.269  1.00  0.00     0.093 A 
ATOM      8  C   UNL     1       8.496  12.240 -14.045  1.00  0.00     0.123 A 
ATOM      9  C   UNL     1       8.357  13.121 -15.118  1.00  0.00     0.094 A 
ATOM     10  C   UNL     1       8.687  12.714 -16.413  1.00  0.00     0.146 A 
ATOM     11  O   UNL     1       8.558  13.590 -17.405  1.00  0.00    -0.456 OA
ENDROOT
BRANCH   1  12
ATOM     12  C   UNL     1       8.674  14.372 -19.695  1.00  0.00     0.021 A 
ATOM     13  C   UNL     1       8.715  14.082 -21.071  1.00  0.00     0.016 A 
ATOM     14  C   UNL     1       8.538  15.097 -22.015  1.00  0.00     0.051 A 
ATOM     15  C   UNL     1       8.322  16.418 -21.602  1.00  0.00     0.157 A 
ATOM     16  C   UNL     1       8.472  15.703 -19.288  1.00  0.00     0.062 A 
ATOM     17  C   UNL     1       8.291  16.721 -20.231  1.00  0.00     0.158 A 
BRANCH  15  18
ATOM     18  O   UNL     1       8.143  17.427 -22.546  1.00  0.00    -0.504 OA
ATOM     19  H   UNL     1       8.650  18.304 -22.489  1.00  0.00     0.293 HD
ENDBRANCH  15  18
BRANCH  17  20
ATOM     20  O   UNL     1       8.083  18.027 -19.787  1.00  0.00    -0.504 OA
ATOM     21  H   UNL     1       8.301  18.313 -18.840  1.00  0.00     0.293 HD
ENDBRANCH  17  20
ENDBRANCH   1  12
BRANCH   6  22
ATOM     22  O   UNL     1       9.607   9.144 -15.682  1.00  0.00    -0.507 OA
ATOM     23  H   UNL     1      10.105   8.612 -14.986  1.00  0.00     0.293 HD
ENDBRANCH   6  22
BRANCH   8  24
ATOM     24  O   UNL     1       8.185  12.646 -12.749  1.00  0.00    -0.508 OA
ATOM     25  H   UNL     1       8.556  13.504 -12.359  1.00  0.00     0.293 HD
ENDBRANCH   8  24
TORSDOF 5
ENDMDL
MODEL 4
REMARK VINA RESULT:    -6.682      1.944      7.233
REMARK INTER + INTRA:          -8.116
REMARK INTER:                  -7.799
REMARK INTRA:                  -0.317
REMARK UNBOUND:                -0.262
REMARK SMILES O=c1cc(-c2ccc(O)c(O)c2)oc2cc(O)cc(O)c12
REMARK SMILES IDX 4 1 3 2 2 3 1 4 21 5 19 6 18 7 16 8 15 9 14 10 13 11 5 12
REMARK SMILES IDX 6 13 7 14 8 15 12 16 10 17 9 18 11 20 20 22 17 24
REMARK H PARENT 9 19 11 21 20 23 17 25
REMARK Flexibility Score: inf
ROOT
ATOM      1  C   UNL     1       8.188  11.164 -14.651  1.00  0.00     0.138 A 
ATOM      2  C   UNL     1       8.693  12.370 -14.148  1.00  0.00     0.100 A 
ATOM      3  C   UNL     1       9.222  13.318 -15.024  1.00  0.00     0.197 A 
ATOM      4  O   UNL     1       9.719  14.365 -14.535  1.00  0.00    -0.289 OA
ATOM      5  C   UNL     1       9.212  13.071 -16.418  1.00  0.00     0.107 A 
ATOM      6  C   UNL     1       9.693  13.978 -17.410  1.00  0.00     0.134 A 
ATOM      7  C   UNL     1       9.721  13.580 -18.753  1.00  0.00     0.093 A 
ATOM      8  C   UNL     1       9.234  12.335 -19.147  1.00  0.00     0.123 A 
ATOM      9  C   UNL     1       8.714  11.460 -18.192  1.00  0.00     0.094 A 
ATOM     10  C   UNL     1       8.705  11.812 -16.840  1.00  0.00     0.146 A 
ATOM     11  O   UNL     1       8.219  10.942 -15.961  1.00  0.00    -0.456 OA
ENDROOT
BRANCH   1  12
ATOM     12  C   UNL     1       7.610  10.122 -13.765  1.00  0.00     0.021 A 
ATOM     13  C   UNL     1       7.347  10.370 -12.405  1.00  0.00     0.016 A 
ATOM     14  C   UNL     1       6.813   9.366 -11.591  1.00  0.00     0.051 A 
ATOM     15  C   UNL     1       6.539   8.098 -12.120  1.00  0.00     0.157 A 
ATOM     16  C   UNL     1       7.346   8.842 -14.284  1.00  0.00     0.062 A 
ATOM     17  C   UNL     1       6.809   7.836 -13.472  1.00  0.00     0.158 A 
BRANCH  15  18
ATOM     18  O   UNL     1       6.005   7.101 -11.306  1.00  0.00    -0.504 OA
ATOM     19  H   UNL     1       5.758   6.189 -11.676  1.00  0.00     0.293 HD
ENDBRANCH  15  18
BRANCH  17  20
ATOM     20  O   UNL     1       6.553   6.583 -14.028  1.00  0.00    -0.504 OA
ATOM     21  H   UNL     1       5.635   6.157 -13.994  1.00  0.00     0.293 HD
ENDBRANCH  17  20
ENDBRANCH   1  12
BRANCH   6  22
ATOM     22  O   UNL     1      10.130  15.277 -17.137  1.00  0.00    -0.507 OA
ATOM     23  H   UNL     1      10.851  15.765 -17.646  1.00  0.00     0.293 HD
ENDBRANCH   6  22
BRANCH   8  24
ATOM     24  O   UNL     1       9.263  11.981 -20.494  1.00  0.00    -0.508 OA
ATOM     25  H   UNL     1       9.485  11.038 -20.789  1.00  0.00     0.293 HD
ENDBRANCH   8  24
TORSDOF 5
ENDMDL
MODEL 5
REMARK VINA RESULT:    -6.669      1.765      7.454
REMARK INTER + INTRA:          -8.101
REMARK INTER:                  -7.837
REMARK INTRA:                  -0.264
REMARK UNBOUND:                -0.262
REMARK SMILES O=c1cc(-c2ccc(O)c(O)c2)oc2cc(O)cc(O)c12
REMARK SMILES IDX 4 1 3 2 2 3 1 4 21 5 19 6 18 7 16 8 15 9 14 10 13 11 5 12
REMARK SMILES IDX 6 13 7 14 8 15 12 16 10 17 9 18 11 20 20 22 17 24
REMARK H PARENT 9 19 11 21 20 23 17 25
REMARK Flexibility Score: inf
ROOT
ATOM      1  C   UNL     1       9.735  12.561 -17.073  1.00  0.00     0.138 A 
ATOM      2  C   UNL     1      10.403  13.659 -16.515  1.00  0.00     0.100 A 
ATOM      3  C   UNL     1      10.447  14.869 -17.211  1.00  0.00     0.197 A 
ATOM      4  O   UNL     1      11.103  15.817 -16.710  1.00  0.00    -0.289 OA
ATOM      5  C   UNL     1       9.786  14.987 -18.458  1.00  0.00     0.107 A 
ATOM      6  C   UNL     1       9.733  16.179 -19.241  1.00  0.00     0.134 A 
ATOM      7  C   UNL     1       9.132  16.148 -20.506  1.00  0.00     0.093 A 
ATOM      8  C   UNL     1       8.532  14.986 -20.990  1.00  0.00     0.123 A 
ATOM      9  C   UNL     1       8.533  13.828 -20.211  1.00  0.00     0.094 A 
ATOM     10  C   UNL     1       9.155  13.818 -18.960  1.00  0.00     0.146 A 
ATOM     11  O   UNL     1       9.150  12.689 -18.259  1.00  0.00    -0.456 OA
ENDROOT
BRANCH   1  12
ATOM     12  C   UNL     1       9.655  11.253 -16.375  1.00  0.00     0.021 A 
ATOM     13  C   UNL     1       8.628  10.965 -15.457  1.00  0.00     0.016 A 
ATOM     14  C   UNL     1       8.583   9.729 -14.807  1.00  0.00     0.051 A 
ATOM     15  C   UNL     1       9.566   8.761 -15.058  1.00  0.00     0.157 A 
ATOM     16  C   UNL     1      10.645  10.282 -16.610  1.00  0.00     0.062 A 
ATOM     17  C   UNL     1      10.602   9.042 -15.963  1.00  0.00     0.158 A 
BRANCH  15  18
ATOM     18  O   UNL     1       9.517   7.529 -14.409  1.00  0.00    -0.504 OA
ATOM     19  H   UNL     1       9.363   7.461 -13.409  1.00  0.00     0.293 HD
ENDBRANCH  15  18
BRANCH  17  20
ATOM     20  O   UNL     1      11.598   8.104 -16.231  1.00  0.00    -0.504 OA
ATOM     21  H   UNL     1      11.857   7.850 -17.176  1.00  0.00     0.293 HD
ENDBRANCH  17  20
ENDBRANCH   1  12
BRANCH   6  22
ATOM     22  O   UNL     1      10.232  17.416 -18.821  1.00  0.00    -0.507 OA
ATOM     23  H   UNL     1       9.727  18.084 -18.260  1.00  0.00     0.293 HD
ENDBRANCH   6  22
BRANCH   8  24
ATOM     24  O   UNL     1       7.929  14.996 -22.246  1.00  0.00    -0.508 OA
ATOM     25  H   UNL     1       6.977  15.319 -22.374  1.00  0.00     0.293 HD
ENDBRANCH   8  24
TORSDOF 5
ENDMDL
MODEL 6
REMARK VINA RESULT:    -6.658      1.116      2.717
REMARK INTER + INTRA:          -8.088
REMARK INTER:                  -7.821
REMARK INTRA:                  -0.267
REMARK UNBOUND:                -0.262
REMARK SMILES O=c1cc(-c2ccc(O)c(O)c2)oc2cc(O)cc(O)c12
REMARK SMILES IDX 4 1 3 2 2 3 1 4 21 5 19 6 18 7 16 8 15 9 14 10 13 11 5 12
REMARK SMILES IDX 6 13 7 14 8 15 12 16 10 17 9 18 11 20 20 22 17 24
REMARK H PARENT 9 19 11 21 20 23 17 25
REMARK Flexibility Score: inf
ROOT
ATOM      1  C   UNL     1       8.868  12.250 -15.251  1.00  0.00     0.138 A 
ATOM      2  C   UNL     1       7.942  12.621 -14.267  1.00  0.00     0.100 A 
ATOM      3  C   UNL     1       7.360  11.642 -13.460  1.00  0.00     0.197 A 
ATOM      4  O   UNL     1       6.492  12.002 -12.625  1.00  0.00    -0.289 OA
ATOM      5  C   UNL     1       7.736  10.286 -13.617  1.00  0.00     0.107 A 
ATOM      6  C   UNL     1       7.235   9.206 -12.830  1.00  0.00     0.134 A 
ATOM      7  C   UNL     1       7.606   7.892 -13.145  1.00  0.00     0.093 A 
ATOM      8  C   UNL     1       8.504   7.625 -14.178  1.00  0.00     0.123 A 
ATOM      9  C   UNL     1       9.039   8.677 -14.922  1.00  0.00     0.094 A 
ATOM     10  C   UNL     1       8.661   9.995 -14.655  1.00  0.00     0.146 A 
ATOM     11  O   UNL     1       9.180  10.967 -15.400  1.00  0.00    -0.456 OA
ENDROOT
BRANCH   1  12
ATOM     12  C   UNL     1       9.520  13.250 -16.134  1.00  0.00     0.021 A 
ATOM     13  C   UNL     1      10.590  14.047 -15.687  1.00  0.00     0.016 A 
ATOM     14  C   UNL     1      11.177  14.988 -16.537  1.00  0.00     0.051 A 
ATOM     15  C   UNL     1      10.704  15.152 -17.845  1.00  0.00     0.157 A 
ATOM     16  C   UNL     1       9.042  13.430 -17.444  1.00  0.00     0.062 A 
ATOM     17  C   UNL     1       9.630  14.370 -18.299  1.00  0.00     0.158 A 
BRANCH  15  18
ATOM     18  O   UNL     1      11.293  16.089 -18.691  1.00  0.00    -0.504 OA
ATOM     19  H   UNL     1      11.719  15.818 -19.571  1.00  0.00     0.293 HD
ENDBRANCH  15  18
BRANCH  17  20
ATOM     20  O   UNL     1       9.131  14.512 -19.593  1.00  0.00    -0.504 OA
ATOM     21  H   UNL     1       9.559  15.134 -20.269  1.00  0.00     0.293 HD
ENDBRANCH  17  20
ENDBRANCH   1  12
BRANCH   6  22
ATOM     22  O   UNL     1       6.395   9.365 -11.725  1.00  0.00    -0.507 OA
ATOM     23  H   UNL     1       5.780  10.150 -11.572  1.00  0.00     0.293 HD
ENDBRANCH   6  22
BRANCH   8  24
ATOM     24  O   UNL     1       8.864   6.307 -14.452  1.00  0.00    -0.508 OA
ATOM     25  H   UNL     1       8.180   5.622 -14.752  1.00  0.00     0.293 HD
ENDBRANCH   8  24
TORSDOF 5
ENDMDL
MODEL 7
REMARK VINA RESULT:    -6.406      2.685      7.503
REMARK INTER + INTRA:          -7.791
REMARK INTER:                  -7.473
REMARK INTRA:                  -0.318
REMARK UNBOUND:                -0.262
REMARK SMILES O=c1cc(-c2ccc(O)c(O)c2)oc2cc(O)cc(O)c12
REMARK SMILES IDX 4 1 3 2 2 3 1 4 21 5 19 6 18 7 16 8 15 9 14 10 13 11 5 12
REMARK SMILES IDX 6 13 7 14 8 15 12 16 10 17 9 18 11 20 20 22 17 24
REMARK H PARENT 9 19 11 21 20 23 17 25
REMARK Flexibility Score: inf
ROOT
ATOM      1  C   UNL     1       7.797  12.872 -17.069  1.00  0.00     0.138 A 
ATOM      2  C   UNL     1       7.377  12.358 -18.303  1.00  0.00     0.100 A 
ATOM      3  C   UNL     1       7.536  13.122 -19.460  1.00  0.00     0.197 A 
ATOM      4  O   UNL     1       7.098  12.656 -20.543  1.00  0.00    -0.289 OA
ATOM      5  C   UNL     1       8.151  14.395 -19.384  1.00  0.00     0.107 A 
ATOM      6  C   UNL     1       8.396  15.249 -20.501  1.00  0.00     0.134 A 
ATOM      7  C   UNL     1       8.923  16.530 -20.289  1.00  0.00     0.093 A 
ATOM      8  C   UNL     1       9.267  16.964 -19.009  1.00  0.00     0.123 A 
ATOM      9  C   UNL     1       9.078  16.119 -17.915  1.00  0.00     0.094 A 
ATOM     10  C   UNL     1       8.523  14.849 -18.090  1.00  0.00     0.146 A 
ATOM     11  O   UNL     1       8.342  14.083 -17.019  1.00  0.00    -0.456 OA
ENDROOT
BRANCH   1  12
ATOM     12  C   UNL     1       7.655  12.101 -15.807  1.00  0.00     0.021 A 
ATOM     13  C   UNL     1       7.112  10.803 -15.790  1.00  0.00     0.016 A 
ATOM     14  C   UNL     1       6.982  10.105 -14.586  1.00  0.00     0.051 A 
ATOM     15  C   UNL     1       7.385  10.693 -13.380  1.00  0.00     0.157 A 
ATOM     16  C   UNL     1       8.044  12.689 -14.591  1.00  0.00     0.062 A 
ATOM     17  C   UNL     1       7.917  11.992 -13.384  1.00  0.00     0.158 A 
BRANCH  15  18
ATOM     18  O   UNL     1       7.254   9.993 -12.182  1.00  0.00    -0.504 OA
ATOM     19  H   UNL     1       8.024   9.914 -11.526  1.00  0.00     0.293 HD
ENDBRANCH  15  18
BRANCH  17  20
ATOM     20  O   UNL     1       8.323  12.608 -12.200  1.00  0.00    -0.504 OA
ATOM     21  H   UNL     1       8.962  13.393 -12.194  1.00  0.00     0.293 HD
ENDBRANCH  17  20
ENDBRANCH   1  12
BRANCH   6  22
ATOM     22  O   UNL     1       8.164  14.886 -21.831  1.00  0.00    -0.507 OA
ATOM     23  H   UNL     1       7.830  13.985 -22.136  1.00  0.00     0.293 HD
ENDBRANCH   6  22
BRANCH   8  24
ATOM     24  O   UNL     1       9.804  18.238 -18.838  1.00  0.00    -0.508 OA
ATOM     25  H   UNL     1       9.550  18.819 -18.048  1.00  0.00     0.293 HD
ENDBRANCH   8  24
TORSDOF 5
ENDMDL
MODEL 8
REMARK VINA RESULT:    -6.238      2.585      8.042
REMARK INTER + INTRA:          -7.594
REMARK INTER:                  -7.301
REMARK INTRA:                  -0.293
REMARK UNBOUND:                -0.262
REMARK SMILES O=c1cc(-c2ccc(O)c(O)c2)oc2cc(O)cc(O)c12
REMARK SMILES IDX 4 1 3 2 2 3 1 4 21 5 19 6 18 7 16 8 15 9 14 10 13 11 5 12
REMARK SMILES IDX 6 13 7 14 8 15 12 16 10 17 9 18 11 20 20 22 17 24
REMARK H PARENT 9 19 11 21 20 23 17 25
REMARK Flexibility Score: inf
ROOT
ATOM      1  C   UNL     1       8.132  14.073 -16.824  1.00  0.00     0.138 A 
ATOM      2  C   UNL     1       7.926  15.380 -16.363  1.00  0.00     0.100 A 
ATOM      3  C   UNL     1       7.924  16.441 -17.269  1.00  0.00     0.197 A 
ATOM      4  O   UNL     1       7.793  17.607 -16.816  1.00  0.00    -0.289 OA
ATOM      5  C   UNL     1       8.095  16.186 -18.652  1.00  0.00     0.107 A 
ATOM      6  C   UNL     1       8.077  17.184 -19.671  1.00  0.00     0.134 A 
ATOM      7  C   UNL     1       8.356  16.822 -20.996  1.00  0.00     0.093 A 
ATOM      8  C   UNL     1       8.594  15.494 -21.345  1.00  0.00     0.123 A 
ATOM      9  C   UNL     1       8.564  14.502 -20.364  1.00  0.00     0.094 A 
ATOM     10  C   UNL     1       8.323  14.836 -19.029  1.00  0.00     0.146 A 
ATOM     11  O   UNL     1       8.322  13.864 -18.122  1.00  0.00    -0.456 OA
ENDROOT
BRANCH   1  12
ATOM     12  C   UNL     1       8.141  12.907 -15.904  1.00  0.00     0.021 A 
ATOM     13  C   UNL     1       8.079  11.585 -16.384  1.00  0.00     0.016 A 
ATOM     14  C   UNL     1       8.079  10.507 -15.495  1.00  0.00     0.051 A 
ATOM     15  C   UNL     1       8.134  10.730 -14.113  1.00  0.00     0.157 A 
ATOM     16  C   UNL     1       8.182  13.122 -14.516  1.00  0.00     0.062 A 
ATOM     17  C   UNL     1       8.184  12.045 -13.622  1.00  0.00     0.158 A 
BRANCH  15  18
ATOM     18  O   UNL     1       8.134   9.653 -13.229  1.00  0.00    -0.504 OA
ATOM     19  H   UNL     1       8.825   8.913 -13.294  1.00  0.00     0.293 HD
ENDBRANCH  15  18
BRANCH  17  20
ATOM     20  O   UNL     1       8.234  12.301 -12.253  1.00  0.00    -0.504 OA
ATOM     21  H   UNL     1       9.072  12.145 -11.707  1.00  0.00     0.293 HD
ENDBRANCH  17  20
ENDBRANCH   1  12
BRANCH   6  22
ATOM     22  O   UNL     1       7.773  18.530 -19.446  1.00  0.00    -0.507 OA
ATOM     23  H   UNL     1       8.395  19.202 -19.023  1.00  0.00     0.293 HD
ENDBRANCH   6  22
BRANCH   8  24
ATOM     24  O   UNL     1       8.851  15.168 -22.675  1.00  0.00    -0.508 OA
ATOM     25  H   UNL     1       9.791  14.978 -23.002  1.00  0.00     0.293 HD
ENDBRANCH   8  24
TORSDOF 5
ENDMDL
MODEL 9
REMARK VINA RESULT:    -6.145      4.470      7.577
REMARK INTER + INTRA:          -7.485
REMARK INTER:                  -7.200
REMARK INTRA:                  -0.285
REMARK UNBOUND:                -0.262
REMARK SMILES O=c1cc(-c2ccc(O)c(O)c2)oc2cc(O)cc(O)c12
REMARK SMILES IDX 4 1 3 2 2 3 1 4 21 5 19 6 18 7 16 8 15 9 14 10 13 11 5 12
REMARK SMILES IDX 6 13 7 14 8 15 12 16 10 17 9 18 11 20 20 22 17 24
REMARK H PARENT 9 19 11 21 20 23 17 25
REMARK Flexibility Score: inf
ROOT
ATOM      1  C   UNL     1       7.084   6.644 -15.382  1.00  0.00     0.138 A 
ATOM      2  C   UNL     1       7.416   7.870 -15.973  1.00  0.00     0.100 A 
ATOM      3  C   UNL     1       7.486   9.021 -15.187  1.00  0.00     0.197 A 
ATOM      4  O   UNL     1       7.731  10.114 -15.758  1.00  0.00    -0.289 OA
ATOM      5  C   UNL     1       7.258   8.935 -13.792  1.00  0.00     0.107 A 
ATOM      6  C   UNL     1       7.336  10.035 -12.886  1.00  0.00     0.134 A 
ATOM      7  C   UNL     1       6.991   9.846 -11.541  1.00  0.00     0.093 A 
ATOM      8  C   UNL     1       6.630   8.589 -11.059  1.00  0.00     0.123 A 
ATOM      9  C   UNL     1       6.599   7.496 -11.926  1.00  0.00     0.094 A 
ATOM     10  C   UNL     1       6.903   7.659 -13.280  1.00  0.00     0.146 A 
ATOM     11  O   UNL     1       6.843   6.596 -14.076  1.00  0.00    -0.456 OA
ENDROOT
BRANCH   1  12
ATOM     12  C   UNL     1       6.998   5.388 -16.170  1.00  0.00     0.021 A 
ATOM     13  C   UNL     1       7.306   4.137 -15.604  1.00  0.00     0.016 A 
ATOM     14  C   UNL     1       7.226   2.972 -16.373  1.00  0.00     0.051 A 
ATOM     15  C   UNL     1       6.843   3.038 -17.719  1.00  0.00     0.157 A 
ATOM     16  C   UNL     1       6.629   5.447 -17.525  1.00  0.00     0.062 A 
ATOM     17  C   UNL     1       6.546   4.282 -18.297  1.00  0.00     0.158 A 
BRANCH  15  18
ATOM     18  O   UNL     1       6.763   1.875 -18.482  1.00  0.00    -0.504 OA
ATOM     19  H   UNL     1       6.212   1.079 -18.181  1.00  0.00     0.293 HD
ENDBRANCH  15  18
BRANCH  17  20
ATOM     20  O   UNL     1       6.167   4.383 -19.635  1.00  0.00    -0.504 OA
ATOM     21  H   UNL     1       5.223   4.624 -19.911  1.00  0.00     0.293 HD
ENDBRANCH  17  20
ENDBRANCH   1  12
BRANCH   6  22
ATOM     22  O   UNL     1       7.762  11.317 -13.243  1.00  0.00    -0.507 OA
ATOM     23  H   UNL     1       7.378  11.867 -13.996  1.00  0.00     0.293 HD
ENDBRANCH   6  22
BRANCH   8  24
ATOM     24  O   UNL     1       6.309   8.435  -9.712  1.00  0.00    -0.508 OA
ATOM     25  H   UNL     1       5.376   8.179  -9.415  1.00  0.00     0.293 HD
ENDBRANCH   8  24
TORSDOF 5
ENDMDL
