MODEL 1
REMARK VINA RESULT:    -5.514      0.000      0.000
REMARK INTER + INTRA:          -6.976
REMARK INTER:                  -6.642
REMARK INTRA:                  -0.334
REMARK UNBOUND:                -0.334
REMARK SMILES Oc1cc(O)c2cc(O)c(-c3ccc(O)c(O)c3)[o+]c2c1
REMARK SMILES IDX 10 1 19 2 20 3 21 4 2 5 3 6 4 7 6 8 7 9 8 10 11 11 12 12
REMARK SMILES IDX 13 13 14 14 18 15 16 16 15 17 17 19 9 21 1 23 5 25
REMARK H PARENT 15 18 17 20 9 22 1 24 5 26
REMARK Flexibility Score: inf
ROOT
ATOM      1  C   UNL     1       3.977 -15.556  11.563  1.00  0.00     0.402 A 
ATOM      2  O   UNL     1       3.027 -16.189  10.880  1.00  0.00    -0.202 OA
ATOM      3  C   UNL     1       2.632 -17.428  11.158  1.00  0.00     0.368 A 
ATOM      4  C   UNL     1       1.623 -18.009  10.386  1.00  0.00     0.162 A 
ATOM      5  C   UNL     1       1.187 -19.306  10.656  1.00  0.00     0.128 A 
ATOM      6  C   UNL     1       1.761 -20.030  11.707  1.00  0.00     0.093 A 
ATOM      7  C   UNL     1       2.774 -19.470  12.497  1.00  0.00     0.136 A 
ATOM      8  C   UNL     1       3.222 -18.152  12.223  1.00  0.00     0.125 A 
ATOM      9  C   UNL     1       4.239 -17.515  12.952  1.00  0.00     0.078 A 
ATOM     10  C   UNL     1       4.631 -16.215  12.620  1.00  0.00     0.223 A 
ENDROOT
BRANCH   1  11
ATOM     11  C   UNL     1       4.321 -14.171  11.163  1.00  0.00     0.087 A 
ATOM     12  C   UNL     1       5.388 -13.954  10.281  1.00  0.00     0.022 A 
ATOM     13  C   UNL     1       5.719 -12.660   9.876  1.00  0.00     0.051 A 
ATOM     14  C   UNL     1       4.983 -11.559  10.330  1.00  0.00     0.157 A 
ATOM     15  C   UNL     1       3.566 -13.072  11.604  1.00  0.00     0.068 A 
ATOM     16  C   UNL     1       3.887 -11.770  11.201  1.00  0.00     0.158 A 
BRANCH  14  17
ATOM     17  O   UNL     1       5.368 -10.291   9.894  1.00  0.00    -0.504 OA
ATOM     18  H   UNL     1       4.827  -9.724   9.259  1.00  0.00     0.293 HD
ENDBRANCH  14  17
BRANCH  16  19
ATOM     19  O   UNL     1       3.095 -10.724  11.679  1.00  0.00    -0.504 OA
ATOM     20  H   UNL     1       3.316 -10.177  12.499  1.00  0.00     0.293 HD
ENDBRANCH  16  19
ENDBRANCH   1  11
BRANCH  10  21
ATOM     21  O   UNL     1       5.677 -15.601  13.311  1.00  0.00    -0.500 OA
ATOM     22  H   UNL     1       6.062 -14.713  13.013  1.00  0.00     0.294 HD
ENDBRANCH  10  21
BRANCH   5  23
ATOM     23  O   UNL     1       0.180 -19.868   9.875  1.00  0.00    -0.507 OA
ATOM     24  H   UNL     1      -0.185 -20.794  10.066  1.00  0.00     0.293 HD
ENDBRANCH   5  23
BRANCH   7  25
ATOM     25  O   UNL     1       3.294 -20.255  13.530  1.00  0.00    -0.507 OA
ATOM     26  H   UNL     1       2.748 -20.629  14.291  1.00  0.00     0.293 HD
ENDBRANCH   7  25
TORSDOF 6
ENDMDL
MODEL 2
REMARK VINA RESULT:    -5.163      2.205      7.191
REMARK INTER + INTRA:          -6.554
REMARK INTER:                  -6.317
REMARK INTRA:                  -0.237
REMARK UNBOUND:                -0.334
REMARK SMILES Oc1cc(O)c2cc(O)c(-c3ccc(O)c(O)c3)[o+]c2c1
REMARK SMILES IDX 10 1 19 2 20 3 21 4 2 5 3 6 4 7 6 8 7 9 8 10 11 11 12 12
REMARK SMILES IDX 13 13 14 14 18 15 16 16 15 17 17 19 9 21 1 23 5 25
REMARK H PARENT 15 18 17 20 9 22 1 24 5 26
REMARK Flexibility Score: inf
ROOT
ATOM      1  C   UNL     1       3.669 -13.425  11.301  1.00  0.00     0.402 A 
ATOM      2  O   UNL     1       2.528 -12.742  11.329  1.00  0.00    -0.202 OA
ATOM      3  C   UNL     1       2.473 -11.414  11.346  1.00  0.00     0.368 A 
ATOM      4  C   UNL     1       1.225 -10.785  11.370  1.00  0.00     0.162 A 
ATOM      5  C   UNL     1       1.137  -9.393  11.386  1.00  0.00     0.128 A 
ATOM      6  C   UNL     1       2.304  -8.621  11.376  1.00  0.00     0.093 A 
ATOM      7  C   UNL     1       3.567  -9.226  11.351  1.00  0.00     0.136 A 
ATOM      8  C   UNL     1       3.660 -10.642  11.337  1.00  0.00     0.125 A 
ATOM      9  C   UNL     1       4.881 -11.335  11.325  1.00  0.00     0.078 A 
ATOM     10  C   UNL     1       4.894 -12.733  11.318  1.00  0.00     0.223 A 
ENDROOT
BRANCH   1  11
ATOM     11  C   UNL     1       3.599 -14.905  11.274  1.00  0.00     0.087 A 
ATOM     12  C   UNL     1       3.183 -15.553  10.103  1.00  0.00     0.022 A 
ATOM     13  C   UNL     1       3.127 -16.947  10.049  1.00  0.00     0.051 A 
ATOM     14  C   UNL     1       3.499 -17.720  11.154  1.00  0.00     0.157 A 
ATOM     15  C   UNL     1       3.994 -15.677  12.378  1.00  0.00     0.068 A 
ATOM     16  C   UNL     1       3.945 -17.076  12.332  1.00  0.00     0.158 A 
BRANCH  14  17
ATOM     17  O   UNL     1       3.414 -19.109  11.038  1.00  0.00    -0.504 OA
ATOM     18  H   UNL     1       2.576 -19.603  10.771  1.00  0.00     0.293 HD
ENDBRANCH  14  17
BRANCH  16  19
ATOM     19  O   UNL     1       4.351 -17.781  13.468  1.00  0.00    -0.504 OA
ATOM     20  H   UNL     1       3.759 -18.421  13.977  1.00  0.00     0.293 HD
ENDBRANCH  16  19
ENDBRANCH   1  11
BRANCH  10  21
ATOM     21  O   UNL     1       6.107 -13.422  11.357  1.00  0.00    -0.500 OA
ATOM     22  H   UNL     1       6.654 -13.585  10.520  1.00  0.00     0.294 HD
ENDBRANCH  10  21
BRANCH   5  23
ATOM     23  O   UNL     1      -0.116  -8.785  11.410  1.00  0.00    -0.507 OA
ATOM     24  H   UNL     1      -0.963  -9.307  11.215  1.00  0.00     0.293 HD
ENDBRANCH   5  23
BRANCH   7  25
ATOM     25  O   UNL     1       4.683  -8.386  11.338  1.00  0.00    -0.507 OA
ATOM     26  H   UNL     1       5.611  -8.674  11.063  1.00  0.00     0.293 HD
ENDBRANCH   7  25
TORSDOF 6
ENDMDL
MODEL 3
REMARK VINA RESULT:    -5.054      1.650      7.102
REMARK INTER + INTRA:          -6.422
REMARK INTER:                  -6.191
REMARK INTRA:                  -0.231
REMARK UNBOUND:                -0.334
REMARK SMILES Oc1cc(O)c2cc(O)c(-c3ccc(O)c(O)c3)[o+]c2c1
REMARK SMILES IDX 10 1 19 2 20 3 21 4 2 5 3 6 4 7 6 8 7 9 8 10 11 11 12 12
REMARK SMILES IDX 13 13 14 14 18 15 16 16 15 17 17 19 9 21 1 23 5 25
REMARK H PARENT 15 18 17 20 9 22 1 24 5 26
REMARK Flexibility Score: inf
ROOT
ATOM      1  C   UNL     1       3.801 -14.259  11.251  1.00  0.00     0.402 A 
ATOM      2  O   UNL     1       2.823 -13.375  11.425  1.00  0.00    -0.202 OA
ATOM      3  C   UNL     1       2.953 -12.080  11.155  1.00  0.00     0.368 A 
ATOM      4  C   UNL     1       1.866 -11.228  11.366  1.00  0.00     0.162 A 
ATOM      5  C   UNL     1       1.973  -9.865  11.089  1.00  0.00     0.128 A 
ATOM      6  C   UNL     1       3.176  -9.347  10.595  1.00  0.00     0.093 A 
ATOM      7  C   UNL     1       4.280 -10.180  10.374  1.00  0.00     0.136 A 
ATOM      8  C   UNL     1       4.175 -11.566  10.657  1.00  0.00     0.125 A 
ATOM      9  C   UNL     1       5.233 -12.473  10.479  1.00  0.00     0.078 A 
ATOM     10  C   UNL     1       5.056 -13.826  10.785  1.00  0.00     0.223 A 
ENDROOT
BRANCH   1  11
ATOM     11  C   UNL     1       3.528 -15.679  11.579  1.00  0.00     0.087 A 
ATOM     12  C   UNL     1       2.684 -16.427  10.748  1.00  0.00     0.022 A 
ATOM     13  C   UNL     1       2.428 -17.771  11.027  1.00  0.00     0.051 A 
ATOM     14  C   UNL     1       3.021 -18.397  12.129  1.00  0.00     0.157 A 
ATOM     15  C   UNL     1       4.143 -16.308  12.674  1.00  0.00     0.068 A 
ATOM     16  C   UNL     1       3.895 -17.657  12.960  1.00  0.00     0.158 A 
BRANCH  14  17
ATOM     17  O   UNL     1       2.719 -19.741  12.358  1.00  0.00    -0.504 OA
ATOM     18  H   UNL     1       1.853 -20.179  12.084  1.00  0.00     0.293 HD
ENDBRANCH  14  17
BRANCH  16  19
ATOM     19  O   UNL     1       4.538 -18.218  14.065  1.00  0.00    -0.504 OA
ATOM     20  H   UNL     1       4.094 -18.373  14.959  1.00  0.00     0.293 HD
ENDBRANCH  16  19
ENDBRANCH   1  11
BRANCH  10  21
ATOM     21  O   UNL     1       6.121 -14.718  10.656  1.00  0.00    -0.500 OA
ATOM     22  H   UNL     1       6.384 -15.106   9.758  1.00  0.00     0.294 HD
ENDBRANCH  10  21
BRANCH   5  23
ATOM     23  O   UNL     1       0.878  -9.033  11.307  1.00  0.00    -0.507 OA
ATOM     24  H   UNL     1       0.851  -8.384  12.085  1.00  0.00     0.293 HD
ENDBRANCH   5  23
BRANCH   7  25
ATOM     25  O   UNL     1       5.444  -9.587   9.876  1.00  0.00    -0.507 OA
ATOM     26  H   UNL     1       6.318 -10.073   9.739  1.00  0.00     0.293 HD
ENDBRANCH   7  25
TORSDOF 6
ENDMDL
MODEL 4
REMARK VINA RESULT:    -4.490      1.064      1.747
REMARK INTER + INTRA:          -5.744
REMARK INTER:                  -5.820
REMARK INTRA:                   0.077
REMARK UNBOUND:                -0.334
REMARK SMILES Oc1cc(O)c2cc(O)c(-c3ccc(O)c(O)c3)[o+]c2c1
REMARK SMILES IDX 10 1 19 2 20 3 21 4 2 5 3 6 4 7 6 8 7 9 8 10 11 11 12 12
REMARK SMILES IDX 13 13 14 14 18 15 16 16 15 17 17 19 9 21 1 23 5 25
REMARK H PARENT 15 18 17 20 9 22 1 24 5 26
REMARK Flexibility Score: inf
ROOT
ATOM      1  C   UNL     1       3.933 -14.730  11.508  1.00  0.00     0.402 A 
ATOM      2  O   UNL     1       2.921 -15.505  11.131  1.00  0.00    -0.202 OA
ATOM      3  C   UNL     1       2.857 -16.805  11.402  1.00  0.00     0.368 A 
ATOM      4  C   UNL     1       1.749 -17.538  10.966  1.00  0.00     0.162 A 
ATOM      5  C   UNL     1       1.655 -18.902  11.238  1.00  0.00     0.128 A 
ATOM      6  C   UNL     1       2.674 -19.543  11.952  1.00  0.00     0.093 A 
ATOM      7  C   UNL     1       3.795 -18.831  12.400  1.00  0.00     0.136 A 
ATOM      8  C   UNL     1       3.895 -17.444  12.123  1.00  0.00     0.125 A 
ATOM      9  C   UNL     1       4.986 -16.654  12.520  1.00  0.00     0.078 A 
ATOM     10  C   UNL     1       5.017 -15.292  12.206  1.00  0.00     0.223 A 
ENDROOT
BRANCH   1  11
ATOM     11  C   UNL     1       3.883 -13.291  11.155  1.00  0.00     0.087 A 
ATOM     12  C   UNL     1       2.698 -12.572  11.364  1.00  0.00     0.022 A 
ATOM     13  C   UNL     1       2.634 -11.212  11.056  1.00  0.00     0.051 A 
ATOM     14  C   UNL     1       3.752 -10.541  10.549  1.00  0.00     0.157 A 
ATOM     15  C   UNL     1       5.014 -12.617  10.667  1.00  0.00     0.068 A 
ATOM     16  C   UNL     1       4.961 -11.252  10.358  1.00  0.00     0.158 A 
BRANCH  14  17
ATOM     17  O   UNL     1       3.621  -9.182  10.254  1.00  0.00    -0.504 OA
ATOM     18  H   UNL     1       3.972  -8.441  10.841  1.00  0.00     0.293 HD
ENDBRANCH  14  17
BRANCH  16  19
ATOM     19  O   UNL     1       6.123 -10.647   9.876  1.00  0.00    -0.504 OA
ATOM     20  H   UNL     1       7.018 -10.688  10.343  1.00  0.00     0.293 HD
ENDBRANCH  16  19
ENDBRANCH   1  11
BRANCH  10  21
ATOM     21  O   UNL     1       6.125 -14.518  12.557  1.00  0.00    -0.500 OA
ATOM     22  H   UNL     1       6.768 -14.808  13.284  1.00  0.00     0.294 HD
ENDBRANCH  10  21
BRANCH   5  23
ATOM     23  O   UNL     1       0.543 -19.615  10.795  1.00  0.00    -0.507 OA
ATOM     24  H   UNL     1      -0.222 -19.158  10.313  1.00  0.00     0.293 HD
ENDBRANCH   5  23
BRANCH   7  25
ATOM     25  O   UNL     1       4.767 -19.542  13.109  1.00  0.00    -0.507 OA
ATOM     26  H   UNL     1       4.631 -20.464  13.495  1.00  0.00     0.293 HD
ENDBRANCH   7  25
TORSDOF 6
ENDMDL
MODEL 5
REMARK VINA RESULT:    -4.359      1.400      1.772
REMARK INTER + INTRA:          -5.586
REMARK INTER:                  -5.541
REMARK INTRA:                  -0.044
REMARK UNBOUND:                -0.334
REMARK SMILES Oc1cc(O)c2cc(O)c(-c3ccc(O)c(O)c3)[o+]c2c1
REMARK SMILES IDX 10 1 19 2 20 3 21 4 2 5 3 6 4 7 6 8 7 9 8 10 11 11 12 12
REMARK SMILES IDX 13 13 14 14 18 15 16 16 15 17 17 19 9 21 1 23 5 25
REMARK H PARENT 15 18 17 20 9 22 1 24 5 26
REMARK Flexibility Score: inf
ROOT
ATOM      1  C   UNL     1       4.039 -14.124  11.390  1.00  0.00     0.402 A 
ATOM      2  O   UNL     1       3.127 -14.984  10.946  1.00  0.00    -0.202 OA
ATOM      3  C   UNL     1       3.159 -16.285  11.216  1.00  0.00     0.368 A 
ATOM      4  C   UNL     1       2.152 -17.111  10.707  1.00  0.00     0.162 A 
ATOM      5  C   UNL     1       2.159 -18.479  10.976  1.00  0.00     0.128 A 
ATOM      6  C   UNL     1       3.178 -19.030  11.762  1.00  0.00     0.093 A 
ATOM      7  C   UNL     1       4.198 -18.224  12.284  1.00  0.00     0.136 A 
ATOM      8  C   UNL     1       4.196 -16.833  12.010  1.00  0.00     0.125 A 
ATOM      9  C   UNL     1       5.183 -15.951  12.480  1.00  0.00     0.078 A 
ATOM     10  C   UNL     1       5.117 -14.591  12.165  1.00  0.00     0.223 A 
ENDROOT
BRANCH   1  11
ATOM     11  C   UNL     1       3.887 -12.695  11.030  1.00  0.00     0.087 A 
ATOM     12  C   UNL     1       4.945 -12.029  10.396  1.00  0.00     0.022 A 
ATOM     13  C   UNL     1       4.817 -10.687  10.031  1.00  0.00     0.051 A 
ATOM     14  C   UNL     1       3.629  -9.990  10.276  1.00  0.00     0.157 A 
ATOM     15  C   UNL     1       2.685 -12.005  11.258  1.00  0.00     0.068 A 
ATOM     16  C   UNL     1       2.546 -10.660  10.892  1.00  0.00     0.158 A 
BRANCH  14  17
ATOM     17  O   UNL     1       3.568  -8.649   9.893  1.00  0.00    -0.504 OA
ATOM     18  H   UNL     1       4.029  -8.272   9.079  1.00  0.00     0.293 HD
ENDBRANCH  14  17
BRANCH  16  19
ATOM     19  O   UNL     1       1.324 -10.037  11.152  1.00  0.00    -0.504 OA
ATOM     20  H   UNL     1       0.779 -10.186  11.989  1.00  0.00     0.293 HD
ENDBRANCH  16  19
ENDBRANCH   1  11
BRANCH  10  21
ATOM     21  O   UNL     1       6.125 -13.724  12.589  1.00  0.00    -0.500 OA
ATOM     22  H   UNL     1       6.488 -12.996  11.986  1.00  0.00     0.294 HD
ENDBRANCH  10  21
BRANCH   5  23
ATOM     23  O   UNL     1       1.147 -19.285  10.460  1.00  0.00    -0.507 OA
ATOM     24  H   UNL     1       1.331 -20.230  10.143  1.00  0.00     0.293 HD
ENDBRANCH   5  23
BRANCH   7  25
ATOM     25  O   UNL     1       5.177 -18.849  13.062  1.00  0.00    -0.507 OA
ATOM     26  H   UNL     1       5.319 -19.847  13.106  1.00  0.00     0.293 HD
ENDBRANCH   7  25
TORSDOF 6
ENDMDL
MODEL 6
REMARK VINA RESULT:    -3.595      1.926      2.961
REMARK INTER + INTRA:          -4.665
REMARK INTER:                  -5.081
REMARK INTRA:                   0.416
REMARK UNBOUND:                -0.334
REMARK SMILES Oc1cc(O)c2cc(O)c(-c3ccc(O)c(O)c3)[o+]c2c1
REMARK SMILES IDX 10 1 19 2 20 3 21 4 2 5 3 6 4 7 6 8 7 9 8 10 11 11 12 12
REMARK SMILES IDX 13 13 14 14 18 15 16 16 15 17 17 19 9 21 1 23 5 25
REMARK H PARENT 15 18 17 20 9 22 1 24 5 26
REMARK Flexibility Score: inf
ROOT
ATOM      1  C   UNL     1       3.824 -13.408  11.350  1.00  0.00     0.402 A 
ATOM      2  O   UNL     1       2.941 -14.364  11.077  1.00  0.00    -0.202 OA
ATOM      3  C   UNL     1       3.246 -15.658  11.071  1.00  0.00     0.368 A 
ATOM      4  C   UNL     1       2.248 -16.591  10.776  1.00  0.00     0.162 A 
ATOM      5  C   UNL     1       2.538 -17.955  10.765  1.00  0.00     0.128 A 
ATOM      6  C   UNL     1       3.835 -18.394  11.054  1.00  0.00     0.093 A 
ATOM      7  C   UNL     1       4.853 -17.479  11.354  1.00  0.00     0.136 A 
ATOM      8  C   UNL     1       4.562 -16.091  11.363  1.00  0.00     0.125 A 
ATOM      9  C   UNL     1       5.521 -15.102  11.639  1.00  0.00     0.078 A 
ATOM     10  C   UNL     1       5.160 -13.752  11.625  1.00  0.00     0.223 A 
ENDROOT
BRANCH   1  11
ATOM     11  C   UNL     1       3.359 -12.001  11.335  1.00  0.00     0.087 A 
ATOM     12  C   UNL     1       1.997 -11.727  11.152  1.00  0.00     0.022 A 
ATOM     13  C   UNL     1       1.534 -10.410  11.153  1.00  0.00     0.051 A 
ATOM     14  C   UNL     1       2.417  -9.343  11.351  1.00  0.00     0.157 A 
ATOM     15  C   UNL     1       4.246 -10.934  11.556  1.00  0.00     0.068 A 
ATOM     16  C   UNL     1       3.791  -9.609  11.562  1.00  0.00     0.158 A 
BRANCH  14  17
ATOM     17  O   UNL     1       1.893  -8.049  11.333  1.00  0.00    -0.504 OA
ATOM     18  H   UNL     1       2.252  -7.302  10.758  1.00  0.00     0.293 HD
ENDBRANCH  14  17
BRANCH  16  19
ATOM     19  O   UNL     1       4.728  -8.599  11.785  1.00  0.00    -0.504 OA
ATOM     20  H   UNL     1       5.101  -8.003  11.060  1.00  0.00     0.293 HD
ENDBRANCH  16  19
ENDBRANCH   1  11
BRANCH  10  21
ATOM     21  O   UNL     1       6.124 -12.768  11.849  1.00  0.00    -0.500 OA
ATOM     22  H   UNL     1       6.917 -12.929  12.458  1.00  0.00     0.294 HD
ENDBRANCH  10  21
BRANCH   5  23
ATOM     23  O   UNL     1       1.530 -18.869  10.468  1.00  0.00    -0.507 OA
ATOM     24  H   UNL     1       1.215 -19.020   9.517  1.00  0.00     0.293 HD
ENDBRANCH   5  23
BRANCH   7  25
ATOM     25  O   UNL     1       6.121 -17.997  11.635  1.00  0.00    -0.507 OA
ATOM     26  H   UNL     1       6.574 -18.720  11.096  1.00  0.00     0.293 HD
ENDBRANCH   7  25
TORSDOF 6
ENDMDL
MODEL 7
REMARK VINA RESULT:    -2.850      2.806      7.431
REMARK INTER + INTRA:          -3.768
REMARK INTER:                  -3.583
REMARK INTRA:                  -0.185
REMARK UNBOUND:                -0.334
REMARK SMILES Oc1cc(O)c2cc(O)c(-c3ccc(O)c(O)c3)[o+]c2c1
REMARK SMILES IDX 10 1 19 2 20 3 21 4 2 5 3 6 4 7 6 8 7 9 8 10 11 11 12 12
REMARK SMILES IDX 13 13 14 14 18 15 16 16 15 17 17 19 9 21 1 23 5 25
REMARK H PARENT 15 18 17 20 9 22 1 24 5 26
REMARK Flexibility Score: inf
ROOT
ATOM      1  C   UNL     1       4.044 -13.525  11.144  1.00  0.00     0.402 A 
ATOM      2  O   UNL     1       4.885 -12.559  10.789  1.00  0.00    -0.202 OA
ATOM      3  C   UNL     1       4.537 -11.278  10.717  1.00  0.00     0.368 A 
ATOM      4  C   UNL     1       5.494 -10.333  10.337  1.00  0.00     0.162 A 
ATOM      5  C   UNL     1       5.157  -8.982  10.255  1.00  0.00     0.128 A 
ATOM      6  C   UNL     1       3.854  -8.569  10.555  1.00  0.00     0.093 A 
ATOM      7  C   UNL     1       2.876  -9.496  10.939  1.00  0.00     0.136 A 
ATOM      8  C   UNL     1       3.215 -10.871  11.020  1.00  0.00     0.125 A 
ATOM      9  C   UNL     1       2.299 -11.872  11.383  1.00  0.00     0.078 A 
ATOM     10  C   UNL     1       2.704 -13.209  11.437  1.00  0.00     0.223 A 
ENDROOT
BRANCH   1  11
ATOM     11  C   UNL     1       4.556 -14.915  11.198  1.00  0.00     0.087 A 
ATOM     12  C   UNL     1       5.124 -15.484  10.050  1.00  0.00     0.022 A 
ATOM     13  C   UNL     1       5.629 -16.785  10.083  1.00  0.00     0.051 A 
ATOM     14  C   UNL     1       5.592 -17.537  11.263  1.00  0.00     0.157 A 
ATOM     15  C   UNL     1       4.536 -15.657  12.390  1.00  0.00     0.068 A 
ATOM     16  C   UNL     1       5.043 -16.962  12.434  1.00  0.00     0.158 A 
BRANCH  14  17
ATOM     17  O   UNL     1       6.107 -18.834  11.229  1.00  0.00    -0.504 OA
ATOM     18  H   UNL     1       7.032 -19.065  10.901  1.00  0.00     0.293 HD
ENDBRANCH  14  17
BRANCH  16  19
ATOM     19  O   UNL     1       4.989 -17.642  13.653  1.00  0.00    -0.504 OA
ATOM     20  H   UNL     1       4.146 -17.764  14.195  1.00  0.00     0.293 HD
ENDBRANCH  16  19
ENDBRANCH   1  11
BRANCH  10  21
ATOM     21  O   UNL     1       1.782 -14.209  11.747  1.00  0.00    -0.500 OA
ATOM     22  H   UNL     1       0.997 -14.035  12.364  1.00  0.00     0.294 HD
ENDBRANCH  10  21
BRANCH   5  23
ATOM     23  O   UNL     1       6.125  -8.055   9.875  1.00  0.00    -0.507 OA
ATOM     24  H   UNL     1       5.966  -7.058   9.958  1.00  0.00     0.293 HD
ENDBRANCH   5  23
BRANCH   7  25
ATOM     25  O   UNL     1       1.600  -9.004  11.226  1.00  0.00    -0.507 OA
ATOM     26  H   UNL     1       1.050  -8.443  10.593  1.00  0.00     0.293 HD
ENDBRANCH   7  25
TORSDOF 6
ENDMDL
