MODEL 1
REMARK VINA RESULT:    -7.627      0.000      0.000
REMARK INTER + INTRA:         -12.310
REMARK INTER:                 -10.748
REMARK INTRA:                  -1.562
REMARK UNBOUND:                -1.562
REMARK SMILES COc1c(O[C@@H]2O[C@H](C(=O)[O-])[C@H](O)[C@H](O)[C@H]2O)cc(O)c2c(=O)cc(-c3ccccc3)oc12
REMARK SMILES IDX 5 1 6 2 8 3 12 4 7 5 14 6 16 7 9 8 10 9 11 10 13 11 15 13
REMARK SMILES IDX 17 15 4 17 3 18 18 19 33 20 19 21 21 22 32 23 22 24 25 25
REMARK SMILES IDX 24 26 23 27 2 28 1 29 20 30 26 32 27 33 31 34 28 35 30 36
REMARK SMILES IDX 29 37
REMARK H PARENT 13 12 15 14 17 16 20 31
REMARK Flexibility Score: inf
ROOT
ATOM      1  O   UNL     1      -9.612  66.877  30.612  1.00  0.00    -0.458 OA
ENDROOT
BRANCH   1   2
ATOM      2  C   UNL     1     -10.482  67.962  30.297  1.00  0.00     0.339 C 
ATOM      3  C   UNL     1     -12.518  66.778  29.784  1.00  0.00     0.199 C 
ATOM      4  C   UNL     1     -12.357  67.080  28.274  1.00  0.00     0.180 C 
ATOM      5  O   UNL     1     -11.834  67.681  30.649  1.00  0.00    -0.328 OA
ATOM      6  C   UNL     1     -10.899  67.336  27.883  1.00  0.00     0.181 C 
ATOM      7  C   UNL     1     -10.294  68.374  28.830  1.00  0.00     0.214 C 
BRANCH   3   8
ATOM      8  C   UNL     1     -12.308  65.329  30.158  1.00  0.00     0.073 C 
ATOM      9  O   UNL     1     -11.763  64.521  29.364  1.00  0.00    -0.547 OA
ATOM     10  O   UNL     1     -12.783  64.857  31.377  1.00  0.00    -0.547 OA
ENDBRANCH   3   8
BRANCH   4  11
ATOM     11  O   UNL     1     -12.892  66.050  27.481  1.00  0.00    -0.387 OA
ATOM     12  H   UNL     1     -13.027  66.432  26.576  1.00  0.00     0.211 HD
ENDBRANCH   4  11
BRANCH   6  13
ATOM     13  O   UNL     1     -10.152  66.149  27.927  1.00  0.00    -0.387 OA
ATOM     14  H   UNL     1      -9.196  66.410  27.941  1.00  0.00     0.211 HD
ENDBRANCH   6  13
BRANCH   7  15
ATOM     15  O   UNL     1     -10.900  69.627  28.611  1.00  0.00    -0.384 OA
ATOM     16  H   UNL     1     -11.537  69.514  27.858  1.00  0.00     0.211 HD
ENDBRANCH   7  15
ENDBRANCH   1   2
BRANCH   1  17
ATOM     17  C   UNL     1      -8.441  66.959  31.384  1.00  0.00     0.172 A 
ATOM     18  C   UNL     1      -7.216  66.858  30.717  1.00  0.00     0.205 A 
ATOM     19  C   UNL     1      -8.467  67.095  32.778  1.00  0.00     0.097 A 
ATOM     20  C   UNL     1      -6.008  66.958  31.444  1.00  0.00     0.188 A 
ATOM     21  C   UNL     1      -7.287  67.112  33.526  1.00  0.00     0.134 A 
ATOM     22  C   UNL     1      -6.029  67.093  32.860  1.00  0.00     0.111 A 
ATOM     23  O   UNL     1      -4.847  66.937  30.795  1.00  0.00    -0.452 OA
ATOM     24  C   UNL     1      -4.781  67.234  33.515  1.00  0.00     0.197 A 
ATOM     25  C   UNL     1      -3.664  67.054  31.387  1.00  0.00     0.138 A 
ATOM     26  C   UNL     1      -3.602  67.206  32.776  1.00  0.00     0.100 A 
ATOM     27  O   UNL     1      -4.696  67.401  34.757  1.00  0.00    -0.289 OA
BRANCH  18  28
ATOM     28  O   UNL     1      -7.264  66.669  29.325  1.00  0.00    -0.490 OA
ATOM     29  C   UNL     1      -6.864  67.623  28.348  1.00  0.00     0.278 C 
ENDBRANCH  18  28
BRANCH  21  30
ATOM     30  O   UNL     1      -7.432  67.123  34.913  1.00  0.00    -0.507 OA
ATOM     31  H   UNL     1      -8.216  67.519  35.400  1.00  0.00     0.293 HD
ENDBRANCH  21  30
BRANCH  25  32
ATOM     32  C   UNL     1      -2.436  67.013  30.552  1.00  0.00     0.017 A 
ATOM     33  C   UNL     1      -2.335  66.178  29.421  1.00  0.00     0.012 A 
ATOM     34  C   UNL     1      -1.328  67.801  30.911  1.00  0.00     0.012 A 
ATOM     35  C   UNL     1      -1.162  66.149  28.661  1.00  0.00     0.001 A 
ATOM     36  C   UNL     1      -0.157  67.769  30.150  1.00  0.00     0.001 A 
ATOM     37  C   UNL     1      -0.072  66.944  29.025  1.00  0.00     0.000 A 
ENDBRANCH  25  32
ENDBRANCH   1  17
TORSDOF 9
ENDMDL
MODEL 2
REMARK VINA RESULT:    -7.285      3.444      6.457
REMARK INTER + INTRA:         -11.829
REMARK INTER:                 -10.304
REMARK INTRA:                  -1.524
REMARK UNBOUND:                -1.562
REMARK SMILES COc1c(O[C@@H]2O[C@H](C(=O)[O-])[C@H](O)[C@H](O)[C@H]2O)cc(O)c2c(=O)cc(-c3ccccc3)oc12
REMARK SMILES IDX 5 1 6 2 8 3 12 4 7 5 14 6 16 7 9 8 10 9 11 10 13 11 15 13
REMARK SMILES IDX 17 15 4 17 3 18 18 19 33 20 19 21 21 22 32 23 22 24 25 25
REMARK SMILES IDX 24 26 23 27 2 28 1 29 20 30 26 32 27 33 31 34 28 35 30 36
REMARK SMILES IDX 29 37
REMARK H PARENT 13 12 15 14 17 16 20 31
REMARK Flexibility Score: inf
ROOT
ATOM      1  O   UNL     1     -10.265  69.635  26.039  1.00  0.00    -0.458 OA
ENDROOT
BRANCH   1   2
ATOM      2  C   UNL     1     -10.068  69.127  24.721  1.00  0.00     0.339 C 
ATOM      3  C   UNL     1      -9.244  71.093  23.596  1.00  0.00     0.199 C 
ATOM      4  C   UNL     1     -10.579  71.260  22.829  1.00  0.00     0.180 C 
ATOM      5  O   UNL     1      -8.983  69.770  24.058  1.00  0.00    -0.328 OA
ATOM      6  C   UNL     1     -11.756  70.611  23.562  1.00  0.00     0.181 C 
ATOM      7  C   UNL     1     -11.390  69.175  23.940  1.00  0.00     0.214 C 
BRANCH   3   8
ATOM      8  C   UNL     1      -8.991  72.148  24.649  1.00  0.00     0.073 C 
ATOM      9  O   UNL     1      -9.917  72.886  25.070  1.00  0.00    -0.547 OA
ATOM     10  O   UNL     1      -7.698  72.355  25.119  1.00  0.00    -0.547 OA
ENDBRANCH   3   8
BRANCH   4  11
ATOM     11  O   UNL     1     -10.860  72.613  22.571  1.00  0.00    -0.387 OA
ATOM     12  H   UNL     1     -10.002  73.034  22.308  1.00  0.00     0.211 HD
ENDBRANCH   4  11
BRANCH   6  13
ATOM     13  O   UNL     1     -12.097  71.342  24.710  1.00  0.00    -0.387 OA
ATOM     14  H   UNL     1     -12.622  72.126  24.407  1.00  0.00     0.211 HD
ENDBRANCH   6  13
BRANCH   7  15
ATOM     15  O   UNL     1     -11.277  68.391  22.775  1.00  0.00    -0.384 OA
ATOM     16  H   UNL     1     -11.885  67.613  22.888  1.00  0.00     0.211 HD
ENDBRANCH   7  15
ENDBRANCH   1   2
BRANCH   1  17
ATOM     17  C   UNL     1     -10.400  68.864  27.206  1.00  0.00     0.172 A 
ATOM     18  C   UNL     1      -9.285  68.747  28.040  1.00  0.00     0.205 A 
ATOM     19  C   UNL     1     -11.585  68.187  27.527  1.00  0.00     0.097 A 
ATOM     20  C   UNL     1      -9.375  68.002  29.238  1.00  0.00     0.188 A 
ATOM     21  C   UNL     1     -11.672  67.378  28.662  1.00  0.00     0.134 A 
ATOM     22  C   UNL     1     -10.575  67.312  29.567  1.00  0.00     0.111 A 
ATOM     23  O   UNL     1      -8.334  67.958  30.064  1.00  0.00    -0.452 OA
ATOM     24  C   UNL     1     -10.607  66.625  30.805  1.00  0.00     0.197 A 
ATOM     25  C   UNL     1      -8.334  67.311  31.224  1.00  0.00     0.138 A 
ATOM     26  C   UNL     1      -9.483  66.620  31.625  1.00  0.00     0.100 A 
ATOM     27  O   UNL     1     -11.633  66.021  31.205  1.00  0.00    -0.289 OA
BRANCH  18  28
ATOM     28  O   UNL     1      -8.113  69.407  27.630  1.00  0.00    -0.490 OA
ATOM     29  C   UNL     1      -7.018  68.801  26.953  1.00  0.00     0.278 C 
ENDBRANCH  18  28
BRANCH  21  30
ATOM     30  O   UNL     1     -12.853  66.653  28.818  1.00  0.00    -0.507 OA
ATOM     31  H   UNL     1     -13.088  65.828  28.295  1.00  0.00     0.293 HD
ENDBRANCH  21  30
BRANCH  25  32
ATOM     32  C   UNL     1      -7.106  67.334  32.060  1.00  0.00     0.017 A 
ATOM     33  C   UNL     1      -5.825  67.486  31.492  1.00  0.00     0.012 A 
ATOM     34  C   UNL     1      -7.214  67.168  33.452  1.00  0.00     0.012 A 
ATOM     35  C   UNL     1      -4.685  67.489  32.301  1.00  0.00     0.001 A 
ATOM     36  C   UNL     1      -6.073  67.172  34.258  1.00  0.00     0.001 A 
ATOM     37  C   UNL     1      -4.807  67.332  33.684  1.00  0.00     0.000 A 
ENDBRANCH  25  32
ENDBRANCH   1  17
TORSDOF 9
ENDMDL
MODEL 3
REMARK VINA RESULT:    -7.175      3.302      5.755
REMARK INTER + INTRA:         -11.672
REMARK INTER:                 -10.098
REMARK INTRA:                  -1.575
REMARK UNBOUND:                -1.562
REMARK SMILES COc1c(O[C@@H]2O[C@H](C(=O)[O-])[C@H](O)[C@H](O)[C@H]2O)cc(O)c2c(=O)cc(-c3ccccc3)oc12
REMARK SMILES IDX 5 1 6 2 8 3 12 4 7 5 14 6 16 7 9 8 10 9 11 10 13 11 15 13
REMARK SMILES IDX 17 15 4 17 3 18 18 19 33 20 19 21 21 22 32 23 22 24 25 25
REMARK SMILES IDX 24 26 23 27 2 28 1 29 20 30 26 32 27 33 31 34 28 35 30 36
REMARK SMILES IDX 29 37
REMARK H PARENT 13 12 15 14 17 16 20 31
REMARK Flexibility Score: inf
ROOT
ATOM      1  O   UNL     1      -9.987  69.416  26.123  1.00  0.00    -0.458 OA
ENDROOT
BRANCH   1   2
ATOM      2  C   UNL     1     -10.289  70.786  25.866  1.00  0.00     0.339 C 
ATOM      3  C   UNL     1     -11.975  70.567  24.157  1.00  0.00     0.199 C 
ATOM      4  C   UNL     1     -10.990  71.064  23.070  1.00  0.00     0.180 C 
ATOM      5  O   UNL     1     -11.650  70.970  25.485  1.00  0.00    -0.328 OA
ATOM      6  C   UNL     1      -9.527  70.825  23.455  1.00  0.00     0.181 C 
ATOM      7  C   UNL     1      -9.279  71.365  24.864  1.00  0.00     0.214 C 
BRANCH   3   8
ATOM      8  C   UNL     1     -12.331  69.102  24.055  1.00  0.00     0.073 C 
ATOM      9  O   UNL     1     -11.645  68.309  23.361  1.00  0.00    -0.547 OA
ATOM     10  O   UNL     1     -13.477  68.627  24.685  1.00  0.00    -0.547 OA
ENDBRANCH   3   8
BRANCH   4  11
ATOM     11  O   UNL     1     -11.260  70.477  21.821  1.00  0.00    -0.387 OA
ATOM     12  H   UNL     1     -11.241  69.495  21.962  1.00  0.00     0.211 HD
ENDBRANCH   4  11
BRANCH   6  13
ATOM     13  O   UNL     1      -9.211  69.459  23.397  1.00  0.00    -0.387 OA
ATOM     14  H   UNL     1      -8.225  69.395  23.320  1.00  0.00     0.211 HD
ENDBRANCH   6  13
BRANCH   7  15
ATOM     15  O   UNL     1      -9.374  72.770  24.859  1.00  0.00    -0.384 OA
ATOM     16  H   UNL     1      -9.164  73.079  25.779  1.00  0.00     0.211 HD
ENDBRANCH   7  15
ENDBRANCH   1   2
BRANCH   1  17
ATOM     17  C   UNL     1     -10.139  68.758  27.355  1.00  0.00     0.172 A 
ATOM     18  C   UNL     1      -9.001  68.599  28.151  1.00  0.00     0.205 A 
ATOM     19  C   UNL     1     -11.366  68.229  27.779  1.00  0.00     0.097 A 
ATOM     20  C   UNL     1      -9.104  67.965  29.410  1.00  0.00     0.188 A 
ATOM     21  C   UNL     1     -11.475  67.526  28.980  1.00  0.00     0.134 A 
ATOM     22  C   UNL     1     -10.347  67.425  29.843  1.00  0.00     0.111 A 
ATOM     23  O   UNL     1      -8.033  67.884  30.195  1.00  0.00    -0.452 OA
ATOM     24  C   UNL     1     -10.385  66.845  31.135  1.00  0.00     0.197 A 
ATOM     25  C   UNL     1      -8.040  67.335  31.404  1.00  0.00     0.138 A 
ATOM     26  C   UNL     1      -9.229  66.794  31.907  1.00  0.00     0.100 A 
ATOM     27  O   UNL     1     -11.444  66.379  31.625  1.00  0.00    -0.289 OA
BRANCH  18  28
ATOM     28  O   UNL     1      -7.793  69.105  27.640  1.00  0.00    -0.490 OA
ATOM     29  C   UNL     1      -7.220  70.365  27.971  1.00  0.00     0.278 C 
ENDBRANCH  18  28
BRANCH  21  30
ATOM     30  O   UNL     1     -12.710  66.935  29.244  1.00  0.00    -0.507 OA
ATOM     31  H   UNL     1     -13.124  66.208  28.688  1.00  0.00     0.293 HD
ENDBRANCH  21  30
BRANCH  25  32
ATOM     32  C   UNL     1      -6.777  67.304  32.186  1.00  0.00     0.017 A 
ATOM     33  C   UNL     1      -6.774  67.127  33.584  1.00  0.00     0.012 A 
ATOM     34  C   UNL     1      -5.550  67.487  31.525  1.00  0.00     0.012 A 
ATOM     35  C   UNL     1      -5.572  67.117  34.297  1.00  0.00     0.001 A 
ATOM     36  C   UNL     1      -4.350  67.477  32.240  1.00  0.00     0.001 A 
ATOM     37  C   UNL     1      -4.359  67.292  33.626  1.00  0.00     0.000 A 
ENDBRANCH  25  32
ENDBRANCH   1  17
TORSDOF 9
ENDMDL
MODEL 4
REMARK VINA RESULT:    -7.141      1.344      2.681
REMARK INTER + INTRA:         -11.625
REMARK INTER:                 -10.085
REMARK INTRA:                  -1.541
REMARK UNBOUND:                -1.562
REMARK SMILES COc1c(O[C@@H]2O[C@H](C(=O)[O-])[C@H](O)[C@H](O)[C@H]2O)cc(O)c2c(=O)cc(-c3ccccc3)oc12
REMARK SMILES IDX 5 1 6 2 8 3 12 4 7 5 14 6 16 7 9 8 10 9 11 10 13 11 15 13
REMARK SMILES IDX 17 15 4 17 3 18 18 19 33 20 19 21 21 22 32 23 22 24 25 25
REMARK SMILES IDX 24 26 23 27 2 28 1 29 20 30 26 32 27 33 31 34 28 35 30 36
REMARK SMILES IDX 29 37
REMARK H PARENT 13 12 15 14 17 16 20 31
REMARK Flexibility Score: inf
ROOT
ATOM      1  O   UNL     1      -9.068  67.364  30.435  1.00  0.00    -0.458 OA
ENDROOT
BRANCH   1   2
ATOM      2  C   UNL     1      -9.616  66.314  29.641  1.00  0.00     0.339 C 
ATOM      3  C   UNL     1     -10.480  67.565  27.770  1.00  0.00     0.199 C 
ATOM      4  C   UNL     1     -11.938  67.337  28.243  1.00  0.00     0.180 C 
ATOM      5  O   UNL     1      -9.541  66.605  28.248  1.00  0.00    -0.328 OA
ATOM      6  C   UNL     1     -12.027  67.071  29.748  1.00  0.00     0.181 C 
ATOM      7  C   UNL     1     -11.032  65.974  30.130  1.00  0.00     0.214 C 
BRANCH   3   8
ATOM      8  C   UNL     1      -9.993  68.989  27.911  1.00  0.00     0.073 C 
ATOM      9  O   UNL     1     -10.589  69.814  28.648  1.00  0.00    -0.547 OA
ATOM     10  O   UNL     1      -8.903  69.420  27.162  1.00  0.00    -0.547 OA
ENDBRANCH   3   8
BRANCH   4  11
ATOM     11  O   UNL     1     -12.768  68.417  27.896  1.00  0.00    -0.387 OA
ATOM     12  H   UNL     1     -13.676  68.042  27.759  1.00  0.00     0.211 HD
ENDBRANCH   4  11
BRANCH   6  13
ATOM     13  O   UNL     1     -11.763  68.239  30.480  1.00  0.00    -0.387 OA
ATOM     14  H   UNL     1     -12.354  68.946  30.116  1.00  0.00     0.211 HD
ENDBRANCH   6  13
BRANCH   7  15
ATOM     15  O   UNL     1     -11.440  64.747  29.572  1.00  0.00    -0.384 OA
ATOM     16  H   UNL     1     -11.661  64.920  28.620  1.00  0.00     0.211 HD
ENDBRANCH   7  15
ENDBRANCH   1   2
BRANCH   1  17
ATOM     17  C   UNL     1      -7.938  67.263  31.265  1.00  0.00     0.172 A 
ATOM     18  C   UNL     1      -6.701  67.624  30.723  1.00  0.00     0.205 A 
ATOM     19  C   UNL     1      -8.010  66.781  32.578  1.00  0.00     0.097 A 
ATOM     20  C   UNL     1      -5.536  67.564  31.522  1.00  0.00     0.188 A 
ATOM     21  C   UNL     1      -6.862  66.634  33.360  1.00  0.00     0.134 A 
ATOM     22  C   UNL     1      -5.605  67.073  32.856  1.00  0.00     0.111 A 
ATOM     23  O   UNL     1      -4.375  67.979  31.024  1.00  0.00    -0.452 OA
ATOM     24  C   UNL     1      -4.407  67.085  33.611  1.00  0.00     0.197 A 
ATOM     25  C   UNL     1      -3.236  67.989  31.707  1.00  0.00     0.138 A 
ATOM     26  C   UNL     1      -3.225  67.535  33.031  1.00  0.00     0.100 A 
ATOM     27  O   UNL     1      -4.371  66.711  34.810  1.00  0.00    -0.289 OA
BRANCH  18  28
ATOM     28  O   UNL     1      -6.693  68.047  29.382  1.00  0.00    -0.490 OA
ATOM     29  C   UNL     1      -6.131  67.326  28.292  1.00  0.00     0.278 C 
ENDBRANCH  18  28
BRANCH  21  30
ATOM     30  O   UNL     1      -7.031  66.029  34.605  1.00  0.00    -0.507 OA
ATOM     31  H   UNL     1      -6.284  65.656  35.163  1.00  0.00     0.293 HD
ENDBRANCH  21  30
BRANCH  25  32
ATOM     32  C   UNL     1      -2.002  68.476  31.039  1.00  0.00     0.017 A 
ATOM     33  C   UNL     1      -2.046  69.446  30.017  1.00  0.00     0.012 A 
ATOM     34  C   UNL     1      -0.757  67.937  31.408  1.00  0.00     0.012 A 
ATOM     35  C   UNL     1      -0.870  69.876  29.395  1.00  0.00     0.001 A 
ATOM     36  C   UNL     1       0.416  68.370  30.784  1.00  0.00     0.001 A 
ATOM     37  C   UNL     1       0.361  69.338  29.778  1.00  0.00     0.000 A 
ENDBRANCH  25  32
ENDBRANCH   1  17
TORSDOF 9
ENDMDL
MODEL 5
REMARK VINA RESULT:    -6.982      3.378      6.038
REMARK INTER + INTRA:         -11.401
REMARK INTER:                 -10.452
REMARK INTRA:                  -0.949
REMARK UNBOUND:                -1.562
REMARK SMILES COc1c(O[C@@H]2O[C@H](C(=O)[O-])[C@H](O)[C@H](O)[C@H]2O)cc(O)c2c(=O)cc(-c3ccccc3)oc12
REMARK SMILES IDX 5 1 6 2 8 3 12 4 7 5 14 6 16 7 9 8 10 9 11 10 13 11 15 13
REMARK SMILES IDX 17 15 4 17 3 18 18 19 33 20 19 21 21 22 32 23 22 24 25 25
REMARK SMILES IDX 24 26 23 27 2 28 1 29 20 30 26 32 27 33 31 34 28 35 30 36
REMARK SMILES IDX 29 37
REMARK H PARENT 13 12 15 14 17 16 20 31
REMARK Flexibility Score: inf
ROOT
ATOM      1  O   UNL     1      -9.728  68.380  29.242  1.00  0.00    -0.458 OA
ENDROOT
BRANCH   1   2
ATOM      2  C   UNL     1      -9.390  67.106  29.786  1.00  0.00     0.339 C 
ATOM      3  C   UNL     1     -11.500  65.957  29.598  1.00  0.00     0.199 C 
ATOM      4  C   UNL     1     -11.721  66.033  31.129  1.00  0.00     0.180 C 
ATOM      5  O   UNL     1     -10.139  66.054  29.185  1.00  0.00    -0.328 OA
ATOM      6  C   UNL     1     -10.954  67.192  31.771  1.00  0.00     0.181 C 
ATOM      7  C   UNL     1      -9.494  67.149  31.318  1.00  0.00     0.214 C 
BRANCH   3   8
ATOM      8  C   UNL     1     -12.426  66.837  28.788  1.00  0.00     0.073 C 
ATOM      9  O   UNL     1     -13.296  67.556  29.342  1.00  0.00    -0.547 OA
ATOM     10  O   UNL     1     -12.365  66.805  27.399  1.00  0.00    -0.547 OA
ENDBRANCH   3   8
BRANCH   4  11
ATOM     11  O   UNL     1     -13.087  66.124  31.450  1.00  0.00    -0.387 OA
ATOM     12  H   UNL     1     -13.135  66.368  32.410  1.00  0.00     0.211 HD
ENDBRANCH   4  11
BRANCH   6  13
ATOM     13  O   UNL     1     -11.531  68.425  31.429  1.00  0.00    -0.387 OA
ATOM     14  H   UNL     1     -10.787  69.071  31.323  1.00  0.00     0.211 HD
ENDBRANCH   6  13
BRANCH   7  15
ATOM     15  O   UNL     1      -8.861  66.016  31.865  1.00  0.00    -0.384 OA
ATOM     16  H   UNL     1      -8.760  66.181  32.839  1.00  0.00     0.211 HD
ENDBRANCH   7  15
ENDBRANCH   1   2
BRANCH   1  17
ATOM     17  C   UNL     1      -9.334  68.868  27.984  1.00  0.00     0.172 A 
ATOM     18  C   UNL     1      -7.989  68.736  27.629  1.00  0.00     0.205 A 
ATOM     19  C   UNL     1     -10.227  69.506  27.112  1.00  0.00     0.097 A 
ATOM     20  C   UNL     1      -7.546  69.189  26.364  1.00  0.00     0.188 A 
ATOM     21  C   UNL     1      -9.795  70.035  25.894  1.00  0.00     0.134 A 
ATOM     22  C   UNL     1      -8.448  69.840  25.477  1.00  0.00     0.111 A 
ATOM     23  O   UNL     1      -6.281  68.993  26.003  1.00  0.00    -0.452 OA
ATOM     24  C   UNL     1      -7.944  70.224  24.211  1.00  0.00     0.197 A 
ATOM     25  C   UNL     1      -5.782  69.355  24.826  1.00  0.00     0.138 A 
ATOM     26  C   UNL     1      -6.610  69.988  23.893  1.00  0.00     0.100 A 
ATOM     27  O   UNL     1      -8.672  70.767  23.341  1.00  0.00    -0.289 OA
BRANCH  18  28
ATOM     28  O   UNL     1      -7.138  68.135  28.573  1.00  0.00    -0.490 OA
ATOM     29  C   UNL     1      -6.210  68.822  29.404  1.00  0.00     0.278 C 
ENDBRANCH  18  28
BRANCH  21  30
ATOM     30  O   UNL     1     -10.737  70.759  25.163  1.00  0.00    -0.507 OA
ATOM     31  H   UNL     1     -10.961  71.725  25.323  1.00  0.00     0.293 HD
ENDBRANCH  21  30
BRANCH  25  32
ATOM     32  C   UNL     1      -4.350  69.083  24.540  1.00  0.00     0.017 A 
ATOM     33  C   UNL     1      -3.376  69.084  25.559  1.00  0.00     0.012 A 
ATOM     34  C   UNL     1      -3.942  68.849  23.215  1.00  0.00     0.012 A 
ATOM     35  C   UNL     1      -2.033  68.839  25.259  1.00  0.00     0.001 A 
ATOM     36  C   UNL     1      -2.599  68.605  22.918  1.00  0.00     0.001 A 
ATOM     37  C   UNL     1      -1.643  68.600  23.938  1.00  0.00     0.000 A 
ENDBRANCH  25  32
ENDBRANCH   1  17
TORSDOF 9
ENDMDL
MODEL 6
REMARK VINA RESULT:    -6.903      3.662      5.175
REMARK INTER + INTRA:         -11.289
REMARK INTER:                 -10.023
REMARK INTRA:                  -1.267
REMARK UNBOUND:                -1.562
REMARK SMILES COc1c(O[C@@H]2O[C@H](C(=O)[O-])[C@H](O)[C@H](O)[C@H]2O)cc(O)c2c(=O)cc(-c3ccccc3)oc12
REMARK SMILES IDX 5 1 6 2 8 3 12 4 7 5 14 6 16 7 9 8 10 9 11 10 13 11 15 13
REMARK SMILES IDX 17 15 4 17 3 18 18 19 33 20 19 21 21 22 32 23 22 24 25 25
REMARK SMILES IDX 24 26 23 27 2 28 1 29 20 30 26 32 27 33 31 34 28 35 30 36
REMARK SMILES IDX 29 37
REMARK H PARENT 13 12 15 14 17 16 20 31
REMARK Flexibility Score: inf
ROOT
ATOM      1  O   UNL     1      -7.964  68.654  29.323  1.00  0.00    -0.458 OA
ENDROOT
BRANCH   1   2
ATOM      2  C   UNL     1      -8.466  68.593  30.656  1.00  0.00     0.339 C 
ATOM      3  C   UNL     1      -9.237  66.311  30.747  1.00  0.00     0.199 C 
ATOM      4  C   UNL     1     -10.716  66.770  30.708  1.00  0.00     0.180 C 
ATOM      5  O   UNL     1      -8.320  67.293  31.222  1.00  0.00    -0.328 OA
ATOM      6  C   UNL     1     -10.882  68.147  30.058  1.00  0.00     0.181 C 
ATOM      7  C   UNL     1      -9.903  69.132  30.698  1.00  0.00     0.214 C 
BRANCH   3   8
ATOM      8  C   UNL     1      -8.764  65.621  29.488  1.00  0.00     0.073 C 
ATOM      9  O   UNL     1      -9.437  65.661  28.427  1.00  0.00    -0.547 OA
ATOM     10  O   UNL     1      -7.594  64.869  29.514  1.00  0.00    -0.547 OA
ENDBRANCH   3   8
BRANCH   4  11
ATOM     11  O   UNL     1     -11.532  65.830  30.055  1.00  0.00    -0.387 OA
ATOM     12  H   UNL     1     -11.467  66.025  29.085  1.00  0.00     0.211 HD
ENDBRANCH   4  11
BRANCH   6  13
ATOM     13  O   UNL     1     -10.662  68.077  28.674  1.00  0.00    -0.387 OA
ATOM     14  H   UNL     1      -9.680  68.076  28.538  1.00  0.00     0.211 HD
ENDBRANCH   6  13
BRANCH   7  15
ATOM     15  O   UNL     1     -10.277  69.372  32.035  1.00  0.00    -0.384 OA
ATOM     16  H   UNL     1      -9.564  68.989  32.609  1.00  0.00     0.211 HD
ENDBRANCH   7  15
ENDBRANCH   1   2
BRANCH   1  17
ATOM     17  C   UNL     1      -6.645  68.375  28.927  1.00  0.00     0.172 A 
ATOM     18  C   UNL     1      -6.315  68.569  27.583  1.00  0.00     0.205 A 
ATOM     19  C   UNL     1      -5.683  67.877  29.816  1.00  0.00     0.097 A 
ATOM     20  C   UNL     1      -4.996  68.325  27.138  1.00  0.00     0.188 A 
ATOM     21  C   UNL     1      -4.396  67.550  29.382  1.00  0.00     0.134 A 
ATOM     22  C   UNL     1      -4.016  67.817  28.036  1.00  0.00     0.111 A 
ATOM     23  O   UNL     1      -4.670  68.583  25.874  1.00  0.00    -0.452 OA
ATOM     24  C   UNL     1      -2.705  67.641  27.531  1.00  0.00     0.197 A 
ATOM     25  C   UNL     1      -3.451  68.415  25.373  1.00  0.00     0.138 A 
ATOM     26  C   UNL     1      -2.429  67.933  26.199  1.00  0.00     0.100 A 
ATOM     27  O   UNL     1      -1.760  67.239  28.255  1.00  0.00    -0.289 OA
BRANCH  18  28
ATOM     28  O   UNL     1      -7.343  69.018  26.734  1.00  0.00    -0.490 OA
ATOM     29  C   UNL     1      -7.511  70.355  26.278  1.00  0.00     0.278 C 
ENDBRANCH  18  28
BRANCH  21  30
ATOM     30  O   UNL     1      -3.559  66.945  30.320  1.00  0.00    -0.507 OA
ATOM     31  H   UNL     1      -2.557  66.926  30.259  1.00  0.00     0.293 HD
ENDBRANCH  21  30
BRANCH  25  32
ATOM     32  C   UNL     1      -3.212  68.738  23.943  1.00  0.00     0.017 A 
ATOM     33  C   UNL     1      -1.990  68.436  23.309  1.00  0.00     0.012 A 
ATOM     34  C   UNL     1      -4.214  69.392  23.204  1.00  0.00     0.012 A 
ATOM     35  C   UNL     1      -1.785  68.765  21.966  1.00  0.00     0.001 A 
ATOM     36  C   UNL     1      -4.007  69.719  21.862  1.00  0.00     0.001 A 
ATOM     37  C   UNL     1      -2.793  69.406  21.241  1.00  0.00     0.000 A 
ENDBRANCH  25  32
ENDBRANCH   1  17
TORSDOF 9
ENDMDL
MODEL 7
REMARK VINA RESULT:    -6.901      4.288      6.623
REMARK INTER + INTRA:         -11.287
REMARK INTER:                  -9.792
REMARK INTRA:                  -1.495
REMARK UNBOUND:                -1.562
REMARK SMILES COc1c(O[C@@H]2O[C@H](C(=O)[O-])[C@H](O)[C@H](O)[C@H]2O)cc(O)c2c(=O)cc(-c3ccccc3)oc12
REMARK SMILES IDX 5 1 6 2 8 3 12 4 7 5 14 6 16 7 9 8 10 9 11 10 13 11 15 13
REMARK SMILES IDX 17 15 4 17 3 18 18 19 33 20 19 21 21 22 32 23 22 24 25 25
REMARK SMILES IDX 24 26 23 27 2 28 1 29 20 30 26 32 27 33 31 34 28 35 30 36
REMARK SMILES IDX 29 37
REMARK H PARENT 13 12 15 14 17 16 20 31
REMARK Flexibility Score: inf
ROOT
ATOM      1  O   UNL     1     -10.775  71.001  25.566  1.00  0.00    -0.458 OA
ENDROOT
BRANCH   1   2
ATOM      2  C   UNL     1     -11.343  72.271  25.880  1.00  0.00     0.339 C 
ATOM      3  C   UNL     1     -12.477  72.784  23.816  1.00  0.00     0.199 C 
ATOM      4  C   UNL     1     -11.425  73.865  23.464  1.00  0.00     0.180 C 
ATOM      5  O   UNL     1     -12.580  72.482  25.206  1.00  0.00    -0.328 OA
ATOM      6  C   UNL     1     -10.080  73.614  24.150  1.00  0.00     0.181 C 
ATOM      7  C   UNL     1     -10.307  73.380  25.644  1.00  0.00     0.214 C 
BRANCH   3   8
ATOM      8  C   UNL     1     -12.420  71.549  22.946  1.00  0.00     0.073 C 
ATOM      9  O   UNL     1     -11.419  71.300  22.229  1.00  0.00    -0.547 OA
ATOM     10  O   UNL     1     -13.521  70.700  22.884  1.00  0.00    -0.547 OA
ENDBRANCH   3   8
BRANCH   4  11
ATOM     11  O   UNL     1     -11.243  73.974  22.074  1.00  0.00    -0.387 OA
ATOM     12  H   UNL     1     -12.038  74.451  21.722  1.00  0.00     0.211 HD
ENDBRANCH   4  11
BRANCH   6  13
ATOM     13  O   UNL     1      -9.425  72.510  23.582  1.00  0.00    -0.387 OA
ATOM     14  H   UNL     1      -8.637  72.319  24.151  1.00  0.00     0.211 HD
ENDBRANCH   6  13
BRANCH   7  15
ATOM     15  O   UNL     1     -10.749  74.572  26.250  1.00  0.00    -0.384 OA
ATOM     16  H   UNL     1     -10.056  75.262  26.073  1.00  0.00     0.211 HD
ENDBRANCH   7  15
ENDBRANCH   1   2
BRANCH   1  17
ATOM     17  C   UNL     1     -10.559  69.949  26.472  1.00  0.00     0.172 A 
ATOM     18  C   UNL     1      -9.255  69.464  26.605  1.00  0.00     0.205 A 
ATOM     19  C   UNL     1     -11.601  69.358  27.199  1.00  0.00     0.097 A 
ATOM     20  C   UNL     1      -8.980  68.423  27.521  1.00  0.00     0.188 A 
ATOM     21  C   UNL     1     -11.367  68.273  28.047  1.00  0.00     0.134 A 
ATOM     22  C   UNL     1     -10.035  67.817  28.259  1.00  0.00     0.111 A 
ATOM     23  O   UNL     1      -7.726  68.017  27.698  1.00  0.00    -0.452 OA
ATOM     24  C   UNL     1      -9.678  66.812  29.191  1.00  0.00     0.197 A 
ATOM     25  C   UNL     1      -7.367  67.068  28.556  1.00  0.00     0.138 A 
ATOM     26  C   UNL     1      -8.346  66.435  29.330  1.00  0.00     0.100 A 
ATOM     27  O   UNL     1     -10.531  66.247  29.921  1.00  0.00    -0.289 OA
BRANCH  18  28
ATOM     28  O   UNL     1      -8.267  70.067  25.806  1.00  0.00    -0.490 OA
ATOM     29  C   UNL     1      -7.750  69.535  24.592  1.00  0.00     0.278 C 
ENDBRANCH  18  28
BRANCH  21  30
ATOM     30  O   UNL     1     -12.491  67.682  28.623  1.00  0.00    -0.507 OA
ATOM     31  H   UNL     1     -12.489  66.795  29.096  1.00  0.00     0.293 HD
ENDBRANCH  21  30
BRANCH  25  32
ATOM     32  C   UNL     1      -5.931  66.702  28.662  1.00  0.00     0.017 A 
ATOM     33  C   UNL     1      -4.940  67.362  27.908  1.00  0.00     0.012 A 
ATOM     34  C   UNL     1      -5.547  65.648  29.510  1.00  0.00     0.012 A 
ATOM     35  C   UNL     1      -3.597  66.986  28.016  1.00  0.00     0.001 A 
ATOM     36  C   UNL     1      -4.205  65.276  29.616  1.00  0.00     0.001 A 
ATOM     37  C   UNL     1      -3.229  65.943  28.869  1.00  0.00     0.000 A 
ENDBRANCH  25  32
ENDBRANCH   1  17
TORSDOF 9
ENDMDL
MODEL 8
REMARK VINA RESULT:    -6.830      2.157      8.722
REMARK INTER + INTRA:         -11.187
REMARK INTER:                  -9.661
REMARK INTRA:                  -1.526
REMARK UNBOUND:                -1.562
REMARK SMILES COc1c(O[C@@H]2O[C@H](C(=O)[O-])[C@H](O)[C@H](O)[C@H]2O)cc(O)c2c(=O)cc(-c3ccccc3)oc12
REMARK SMILES IDX 5 1 6 2 8 3 12 4 7 5 14 6 16 7 9 8 10 9 11 10 13 11 15 13
REMARK SMILES IDX 17 15 4 17 3 18 18 19 33 20 19 21 21 22 32 23 22 24 25 25
REMARK SMILES IDX 24 26 23 27 2 28 1 29 20 30 26 32 27 33 31 34 28 35 30 36
REMARK SMILES IDX 29 37
REMARK H PARENT 13 12 15 14 17 16 20 31
REMARK Flexibility Score: inf
ROOT
ATOM      1  O   UNL     1      -5.382  68.426  29.799  1.00  0.00    -0.458 OA
ENDROOT
BRANCH   1   2
ATOM      2  C   UNL     1      -4.809  69.538  30.484  1.00  0.00     0.339 C 
ATOM      3  C   UNL     1      -2.544  68.769  30.784  1.00  0.00     0.199 C 
ATOM      4  C   UNL     1      -2.779  68.552  32.299  1.00  0.00     0.180 C 
ATOM      5  O   UNL     1      -3.429  69.703  30.171  1.00  0.00    -0.328 OA
ATOM      6  C   UNL     1      -4.256  68.326  32.634  1.00  0.00     0.181 C 
ATOM      7  C   UNL     1      -5.097  69.429  31.989  1.00  0.00     0.214 C 
BRANCH   3   8
ATOM      8  C   UNL     1      -2.388  67.494  29.987  1.00  0.00     0.073 C 
ATOM      9  O   UNL     1      -2.881  66.408  30.385  1.00  0.00    -0.547 OA
ATOM     10  O   UNL     1      -1.628  67.500  28.822  1.00  0.00    -0.547 OA
ENDBRANCH   3   8
BRANCH   4  11
ATOM     11  O   UNL     1      -2.006  67.487  32.794  1.00  0.00    -0.387 OA
ATOM     12  H   UNL     1      -2.280  66.680  32.285  1.00  0.00     0.211 HD
ENDBRANCH   4  11
BRANCH   6  13
ATOM     13  O   UNL     1      -4.684  67.067  32.187  1.00  0.00    -0.387 OA
ATOM     14  H   UNL     1      -5.662  67.132  32.037  1.00  0.00     0.211 HD
ENDBRANCH   6  13
BRANCH   7  15
ATOM     15  O   UNL     1      -4.821  70.662  32.611  1.00  0.00    -0.384 OA
ATOM     16  H   UNL     1      -5.529  70.808  33.293  1.00  0.00     0.211 HD
ENDBRANCH   7  15
ENDBRANCH   1   2
BRANCH   1  17
ATOM     17  C   UNL     1      -6.625  68.415  29.145  1.00  0.00     0.172 A 
ATOM     18  C   UNL     1      -7.613  67.560  29.642  1.00  0.00     0.205 A 
ATOM     19  C   UNL     1      -6.882  69.189  28.005  1.00  0.00     0.097 A 
ATOM     20  C   UNL     1      -8.889  67.529  29.034  1.00  0.00     0.188 A 
ATOM     21  C   UNL     1      -8.107  69.113  27.339  1.00  0.00     0.134 A 
ATOM     22  C   UNL     1      -9.154  68.312  27.876  1.00  0.00     0.111 A 
ATOM     23  O   UNL     1      -9.848  66.770  29.558  1.00  0.00    -0.452 OA
ATOM     24  C   UNL     1     -10.468  68.264  27.350  1.00  0.00     0.197 A 
ATOM     25  C   UNL     1     -11.084  66.698  29.076  1.00  0.00     0.138 A 
ATOM     26  C   UNL     1     -11.426  67.451  27.947  1.00  0.00     0.100 A 
ATOM     27  O   UNL     1     -10.812  68.951  26.355  1.00  0.00    -0.289 OA
BRANCH  18  28
ATOM     28  O   UNL     1      -7.271  66.771  30.754  1.00  0.00    -0.490 OA
ATOM     29  C   UNL     1      -7.075  65.362  30.738  1.00  0.00     0.278 C 
ENDBRANCH  18  28
BRANCH  21  30
ATOM     30  O   UNL     1      -8.210  69.829  26.147  1.00  0.00    -0.507 OA
ATOM     31  H   UNL     1      -7.588  69.726  25.365  1.00  0.00     0.293 HD
ENDBRANCH  21  30
BRANCH  25  32
ATOM     32  C   UNL     1     -12.067  65.811  29.749  1.00  0.00     0.017 A 
ATOM     33  C   UNL     1     -12.576  66.106  31.030  1.00  0.00     0.012 A 
ATOM     34  C   UNL     1     -12.481  64.628  29.113  1.00  0.00     0.012 A 
ATOM     35  C   UNL     1     -13.490  65.247  31.648  1.00  0.00     0.001 A 
ATOM     36  C   UNL     1     -13.394  63.771  29.732  1.00  0.00     0.001 A 
ATOM     37  C   UNL     1     -13.899  64.078  30.999  1.00  0.00     0.000 A 
ENDBRANCH  25  32
ENDBRANCH   1  17
TORSDOF 9
ENDMDL
MODEL 9
REMARK VINA RESULT:    -6.789      3.074      6.001
REMARK INTER + INTRA:         -11.130
REMARK INTER:                  -9.563
REMARK INTRA:                  -1.567
REMARK UNBOUND:                -1.562
REMARK SMILES COc1c(O[C@@H]2O[C@H](C(=O)[O-])[C@H](O)[C@H](O)[C@H]2O)cc(O)c2c(=O)cc(-c3ccccc3)oc12
REMARK SMILES IDX 5 1 6 2 8 3 12 4 7 5 14 6 16 7 9 8 10 9 11 10 13 11 15 13
REMARK SMILES IDX 17 15 4 17 3 18 18 19 33 20 19 21 21 22 32 23 22 24 25 25
REMARK SMILES IDX 24 26 23 27 2 28 1 29 20 30 26 32 27 33 31 34 28 35 30 36
REMARK SMILES IDX 29 37
REMARK H PARENT 13 12 15 14 17 16 20 31
REMARK Flexibility Score: inf
ROOT
ATOM      1  O   UNL     1     -10.559  69.547  26.029  1.00  0.00    -0.458 OA
ENDROOT
BRANCH   1   2
ATOM      2  C   UNL     1     -11.297  68.848  25.029  1.00  0.00     0.339 C 
ATOM      3  C   UNL     1     -13.095  70.401  24.622  1.00  0.00     0.199 C 
ATOM      4  C   UNL     1     -14.105  69.480  25.350  1.00  0.00     0.180 C 
ATOM      5  O   UNL     1     -11.938  69.738  24.119  1.00  0.00    -0.328 OA
ATOM      6  C   UNL     1     -13.425  68.555  26.363  1.00  0.00     0.181 C 
ATOM      7  C   UNL     1     -12.251  67.842  25.692  1.00  0.00     0.214 C 
BRANCH   3   8
ATOM      8  C   UNL     1     -12.768  71.679  25.362  1.00  0.00     0.073 C 
ATOM      9  O   UNL     1     -13.048  71.819  26.579  1.00  0.00    -0.547 OA
ATOM     10  O   UNL     1     -12.205  72.748  24.673  1.00  0.00    -0.547 OA
ENDBRANCH   3   8
BRANCH   4  11
ATOM     11  O   UNL     1     -15.118  70.223  25.982  1.00  0.00    -0.387 OA
ATOM     12  H   UNL     1     -14.943  70.164  26.957  1.00  0.00     0.211 HD
ENDBRANCH   4  11
BRANCH   6  13
ATOM     13  O   UNL     1     -12.978  69.277  27.480  1.00  0.00    -0.387 OA
ATOM     14  H   UNL     1     -12.941  70.230  27.211  1.00  0.00     0.211 HD
ENDBRANCH   6  13
BRANCH   7  15
ATOM     15  O   UNL     1     -12.733  66.942  24.722  1.00  0.00    -0.384 OA
ATOM     16  H   UNL     1     -13.096  67.486  23.975  1.00  0.00     0.211 HD
ENDBRANCH   7  15
ENDBRANCH   1   2
BRANCH   1  17
ATOM     17  C   UNL     1      -9.237  69.272  26.418  1.00  0.00     0.172 A 
ATOM     18  C   UNL     1      -9.010  68.939  27.756  1.00  0.00     0.205 A 
ATOM     19  C   UNL     1      -8.157  69.362  25.529  1.00  0.00     0.097 A 
ATOM     20  C   UNL     1      -7.702  68.629  28.194  1.00  0.00     0.188 A 
ATOM     21  C   UNL     1      -6.846  69.142  25.958  1.00  0.00     0.134 A 
ATOM     22  C   UNL     1      -6.603  68.722  27.296  1.00  0.00     0.111 A 
ATOM     23  O   UNL     1      -7.504  68.240  29.451  1.00  0.00    -0.452 OA
ATOM     24  C   UNL     1      -5.329  68.352  27.793  1.00  0.00     0.197 A 
ATOM     25  C   UNL     1      -6.319  67.901  29.944  1.00  0.00     0.138 A 
ATOM     26  C   UNL     1      -5.190  67.951  29.118  1.00  0.00     0.100 A 
ATOM     27  O   UNL     1      -4.303  68.359  27.068  1.00  0.00    -0.289 OA
BRANCH  18  28
ATOM     28  O   UNL     1     -10.131  68.920  28.606  1.00  0.00    -0.490 OA
ATOM     29  C   UNL     1     -10.748  67.751  29.131  1.00  0.00     0.278 C 
ENDBRANCH  18  28
BRANCH  21  30
ATOM     30  O   UNL     1      -5.839  69.381  25.023  1.00  0.00    -0.507 OA
ATOM     31  H   UNL     1      -5.187  68.689  24.700  1.00  0.00     0.293 HD
ENDBRANCH  21  30
BRANCH  25  32
ATOM     32  C   UNL     1      -6.226  67.483  31.367  1.00  0.00     0.017 A 
ATOM     33  C   UNL     1      -7.363  67.085  32.099  1.00  0.00     0.012 A 
ATOM     34  C   UNL     1      -4.980  67.514  32.017  1.00  0.00     0.012 A 
ATOM     35  C   UNL     1      -7.250  66.711  33.441  1.00  0.00     0.001 A 
ATOM     36  C   UNL     1      -4.870  67.140  33.359  1.00  0.00     0.001 A 
ATOM     37  C   UNL     1      -6.003  66.739  34.072  1.00  0.00     0.000 A 
ENDBRANCH  25  32
ENDBRANCH   1  17
TORSDOF 9
ENDMDL
