MODEL 1
REMARK VINA RESULT:    -3.784      0.000      0.000
REMARK INTER + INTRA:          -8.877
REMARK INTER:                  -6.880
REMARK INTRA:                  -1.997
REMARK UNBOUND:                -1.997
REMARK SMILES CCCCCCCCCCCCCC[C@@H](C)C(=O)[O-]
REMARK SMILES IDX 9 1 10 2 11 3 12 4 13 5 14 6 15 7 16 8 17 9 18 10 19 11 8 12
REMARK SMILES IDX 7 13 6 14 5 15 4 16 3 17 2 18 1 19
REMARK H PARENT
REMARK Flexibility Score: inf
ROOT
ATOM      1  C   UNL     1      56.949   4.016  94.143  1.00  0.00     0.000 C 
ENDROOT
BRANCH   1   2
ATOM      2  C   UNL     1      57.752   5.206  94.696  1.00  0.00     0.000 C 
BRANCH   2   3
ATOM      3  C   UNL     1      57.411   5.521  96.162  1.00  0.00     0.000 C 
BRANCH   3   4
ATOM      4  C   UNL     1      58.662   5.766  97.019  1.00  0.00     0.000 C 
BRANCH   4   5
ATOM      5  C   UNL     1      59.932   5.760  96.155  1.00  0.00     0.001 C 
BRANCH   5   6
ATOM      6  C   UNL     1      60.814   7.006  96.361  1.00  0.00     0.009 C 
BRANCH   6   7
ATOM      7  C   UNL     1      60.861   7.955  95.138  1.00  0.00     0.032 C 
ATOM      8  C   UNL     1      60.743   7.158  93.834  1.00  0.00     0.014 C 
BRANCH   7   9
ATOM      9  C   UNL     1      59.767   8.986  95.184  1.00  0.00     0.044 C 
ATOM     10  O   UNL     1      60.008  10.142  95.620  1.00  0.00    -0.550 OA
ATOM     11  O   UNL     1      58.495   8.685  94.711  1.00  0.00    -0.550 OA
ENDBRANCH   7   9
ENDBRANCH   6   7
ENDBRANCH   5   6
ENDBRANCH   4   5
ENDBRANCH   3   4
ENDBRANCH   2   3
ENDBRANCH   1   2
BRANCH   1  12
ATOM     12  C   UNL     1      56.476   3.058  95.247  1.00  0.00     0.000 C 
BRANCH  12  13
ATOM     13  C   UNL     1      57.291   1.757  95.291  1.00  0.00    -0.000 C 
BRANCH  13  14
ATOM     14  C   UNL     1      57.878   1.523  96.688  1.00  0.00    -0.000 C 
BRANCH  14  15
ATOM     15  C   UNL     1      59.296   2.106  96.794  1.00  0.00    -0.000 C 
BRANCH  15  16
ATOM     16  C   UNL     1      60.380   1.019  96.873  1.00  0.00    -0.000 C 
BRANCH  16  17
ATOM     17  C   UNL     1      59.896  -0.339  96.342  1.00  0.00    -0.000 C 
BRANCH  17  18
ATOM     18  C   UNL     1      60.706  -0.766  95.112  1.00  0.00    -0.003 C 
ATOM     19  C   UNL     1      59.980  -0.404  93.820  1.00  0.00     0.004 C 
ENDBRANCH  17  18
ENDBRANCH  16  17
ENDBRANCH  15  16
ENDBRANCH  14  15
ENDBRANCH  13  14
ENDBRANCH  12  13
ENDBRANCH   1  12
TORSDOF 14
ENDMDL
MODEL 2
REMARK VINA RESULT:    -3.752      4.166      8.158
REMARK INTER + INTRA:          -8.820
REMARK INTER:                  -7.754
REMARK INTRA:                  -1.066
REMARK UNBOUND:                -1.997
REMARK SMILES CCCCCCCCCCCCCC[C@@H](C)C(=O)[O-]
REMARK SMILES IDX 9 1 10 2 11 3 12 4 13 5 14 6 15 7 16 8 17 9 18 10 19 11 8 12
REMARK SMILES IDX 7 13 6 14 5 15 4 16 3 17 2 18 1 19
REMARK H PARENT
REMARK Flexibility Score: inf
ROOT
ATOM      1  C   UNL     1      58.658   1.620  96.337  1.00  0.00     0.000 C 
ENDROOT
BRANCH   1   2
ATOM      2  C   UNL     1      60.003   1.497  97.075  1.00  0.00     0.000 C 
BRANCH   2   3
ATOM      3  C   UNL     1      60.741   0.190  96.746  1.00  0.00     0.000 C 
BRANCH   3   4
ATOM      4  C   UNL     1      60.005  -0.656  95.695  1.00  0.00     0.000 C 
BRANCH   4   5
ATOM      5  C   UNL     1      60.968  -1.135  94.599  1.00  0.00     0.001 C 
BRANCH   5   6
ATOM      6  C   UNL     1      60.381  -1.021  93.179  1.00  0.00     0.009 C 
BRANCH   6   7
ATOM      7  C   UNL     1      60.267  -2.372  92.433  1.00  0.00     0.032 C 
ATOM      8  C   UNL     1      60.864  -3.505  93.276  1.00  0.00     0.014 C 
BRANCH   7   9
ATOM      9  C   UNL     1      58.840  -2.710  92.098  1.00  0.00     0.044 C 
ATOM     10  O   UNL     1      57.900  -2.232  92.785  1.00  0.00    -0.550 OA
ATOM     11  O   UNL     1      58.544  -3.519  91.006  1.00  0.00    -0.550 OA
ENDBRANCH   7   9
ENDBRANCH   6   7
ENDBRANCH   5   6
ENDBRANCH   4   5
ENDBRANCH   3   4
ENDBRANCH   2   3
ENDBRANCH   1   2
BRANCH   1  12
ATOM     12  C   UNL     1      57.869   2.871  96.751  1.00  0.00     0.000 C 
BRANCH  12  13
ATOM     13  C   UNL     1      57.788   3.917  95.628  1.00  0.00    -0.000 C 
BRANCH  13  14
ATOM     14  C   UNL     1      58.311   5.277  96.106  1.00  0.00    -0.000 C 
BRANCH  14  15
ATOM     15  C   UNL     1      59.658   5.126  96.830  1.00  0.00    -0.000 C 
BRANCH  15  16
ATOM     16  C   UNL     1      60.759   6.012  96.226  1.00  0.00    -0.000 C 
BRANCH  16  17
ATOM     17  C   UNL     1      60.215   7.337  95.672  1.00  0.00    -0.000 C 
BRANCH  17  18
ATOM     18  C   UNL     1      60.807   8.532  96.431  1.00  0.00    -0.003 C 
ATOM     19  C   UNL     1      59.716   9.341  97.124  1.00  0.00     0.004 C 
ENDBRANCH  17  18
ENDBRANCH  16  17
ENDBRANCH  15  16
ENDBRANCH  14  15
ENDBRANCH  13  14
ENDBRANCH  12  13
ENDBRANCH   1  12
TORSDOF 14
ENDMDL
MODEL 3
REMARK VINA RESULT:    -3.572      3.583      7.510
REMARK INTER + INTRA:          -8.493
REMARK INTER:                  -7.096
REMARK INTRA:                  -1.396
REMARK UNBOUND:                -1.997
REMARK SMILES CCCCCCCCCCCCCC[C@@H](C)C(=O)[O-]
REMARK SMILES IDX 9 1 10 2 11 3 12 4 13 5 14 6 15 7 16 8 17 9 18 10 19 11 8 12
REMARK SMILES IDX 7 13 6 14 5 15 4 16 3 17 2 18 1 19
REMARK H PARENT
REMARK Flexibility Score: inf
ROOT
ATOM      1  C   UNL     1      57.142   3.743  95.699  1.00  0.00     0.000 C 
ENDROOT
BRANCH   1   2
ATOM      2  C   UNL     1      57.902   2.406  95.682  1.00  0.00     0.000 C 
BRANCH   2   3
ATOM      3  C   UNL     1      58.517   2.055  97.046  1.00  0.00     0.000 C 
BRANCH   3   4
ATOM      4  C   UNL     1      60.024   1.772  96.959  1.00  0.00     0.000 C 
BRANCH   4   5
ATOM      5  C   UNL     1      60.292   0.276  96.733  1.00  0.00     0.001 C 
BRANCH   5   6
ATOM      6  C   UNL     1      60.435  -0.100  95.246  1.00  0.00     0.009 C 
BRANCH   6   7
ATOM      7  C   UNL     1      59.625  -1.352  94.831  1.00  0.00     0.032 C 
ATOM      8  C   UNL     1      58.199  -1.280  95.391  1.00  0.00     0.014 C 
BRANCH   7   9
ATOM      9  C   UNL     1      59.557  -1.507  93.336  1.00  0.00     0.044 C 
ATOM     10  O   UNL     1      59.052  -2.544  92.832  1.00  0.00    -0.550 OA
ATOM     11  O   UNL     1      60.013  -0.494  92.501  1.00  0.00    -0.550 OA
ENDBRANCH   7   9
ENDBRANCH   6   7
ENDBRANCH   5   6
ENDBRANCH   4   5
ENDBRANCH   3   4
ENDBRANCH   2   3
ENDBRANCH   1   2
BRANCH   1  12
ATOM     12  C   UNL     1      57.828   4.801  96.576  1.00  0.00     0.000 C 
BRANCH  12  13
ATOM     13  C   UNL     1      58.861   5.633  95.801  1.00  0.00    -0.000 C 
BRANCH  13  14
ATOM     14  C   UNL     1      60.196   5.691  96.553  1.00  0.00    -0.000 C 
BRANCH  14  15
ATOM     15  C   UNL     1      61.096   6.803  95.991  1.00  0.00    -0.000 C 
BRANCH  15  16
ATOM     16  C   UNL     1      60.774   8.183  96.585  1.00  0.00    -0.000 C 
BRANCH  16  17
ATOM     17  C   UNL     1      60.954   9.321  95.569  1.00  0.00    -0.000 C 
BRANCH  17  18
ATOM     18  C   UNL     1      60.776   8.808  94.135  1.00  0.00    -0.003 C 
ATOM     19  C   UNL     1      59.370   9.097  93.617  1.00  0.00     0.004 C 
ENDBRANCH  17  18
ENDBRANCH  16  17
ENDBRANCH  15  16
ENDBRANCH  14  15
ENDBRANCH  13  14
ENDBRANCH  12  13
ENDBRANCH   1  12
TORSDOF 14
ENDMDL
MODEL 4
REMARK VINA RESULT:    -3.523      5.762      8.321
REMARK INTER + INTRA:          -8.402
REMARK INTER:                  -6.218
REMARK INTRA:                  -2.185
REMARK UNBOUND:                -1.997
REMARK SMILES CCCCCCCCCCCCCC[C@@H](C)C(=O)[O-]
REMARK SMILES IDX 9 1 10 2 11 3 12 4 13 5 14 6 15 7 16 8 17 9 18 10 19 11 8 12
REMARK SMILES IDX 7 13 6 14 5 15 4 16 3 17 2 18 1 19
REMARK H PARENT
REMARK Flexibility Score: inf
ROOT
ATOM      1  C   UNL     1      60.136  -0.889  95.727  1.00  0.00     0.000 C 
ENDROOT
BRANCH   1   2
ATOM      2  C   UNL     1      61.124  -1.060  94.560  1.00  0.00     0.000 C 
BRANCH   2   3
ATOM      3  C   UNL     1      60.428  -1.449  93.246  1.00  0.00     0.000 C 
BRANCH   3   4
ATOM      4  C   UNL     1      59.591  -0.301  92.660  1.00  0.00     0.000 C 
BRANCH   4   5
ATOM      5  C   UNL     1      58.095  -0.647  92.674  1.00  0.00     0.001 C 
BRANCH   5   6
ATOM      6  C   UNL     1      57.818  -2.151  92.858  1.00  0.00     0.009 C 
BRANCH   6   7
ATOM      7  C   UNL     1      57.321  -2.863  91.576  1.00  0.00     0.032 C 
ATOM      8  C   UNL     1      56.539  -1.889  90.689  1.00  0.00     0.014 C 
BRANCH   7   9
ATOM      9  C   UNL     1      58.457  -3.447  90.782  1.00  0.00     0.044 C 
ATOM     10  O   UNL     1      59.061  -2.740  89.932  1.00  0.00    -0.550 OA
ATOM     11  O   UNL     1      58.875  -4.754  91.004  1.00  0.00    -0.550 OA
ENDBRANCH   7   9
ENDBRANCH   6   7
ENDBRANCH   5   6
ENDBRANCH   4   5
ENDBRANCH   3   4
ENDBRANCH   2   3
ENDBRANCH   1   2
BRANCH   1  12
ATOM     12  C   UNL     1      60.642   0.097  96.791  1.00  0.00     0.000 C 
BRANCH  12  13
ATOM     13  C   UNL     1      59.827   1.399  96.824  1.00  0.00    -0.000 C 
BRANCH  13  14
ATOM     14  C   UNL     1      58.545   1.266  95.994  1.00  0.00    -0.000 C 
BRANCH  14  15
ATOM     15  C   UNL     1      57.311   1.667  96.818  1.00  0.00    -0.000 C 
BRANCH  15  16
ATOM     16  C   UNL     1      56.258   0.550  96.891  1.00  0.00    -0.000 C 
BRANCH  16  17
ATOM     17  C   UNL     1      56.626  -0.667  96.029  1.00  0.00    -0.000 C 
BRANCH  17  18
ATOM     18  C   UNL     1      56.779  -1.925  96.894  1.00  0.00    -0.003 C 
ATOM     19  C   UNL     1      55.727  -2.970  96.537  1.00  0.00     0.004 C 
ENDBRANCH  17  18
ENDBRANCH  16  17
ENDBRANCH  15  16
ENDBRANCH  14  15
ENDBRANCH  13  14
ENDBRANCH  12  13
ENDBRANCH   1  12
TORSDOF 14
ENDMDL
MODEL 5
REMARK VINA RESULT:    -3.479      5.258      7.570
REMARK INTER + INTRA:          -8.324
REMARK INTER:                  -5.847
REMARK INTRA:                  -2.476
REMARK UNBOUND:                -1.997
REMARK SMILES CCCCCCCCCCCCCC[C@@H](C)C(=O)[O-]
REMARK SMILES IDX 9 1 10 2 11 3 12 4 13 5 14 6 15 7 16 8 17 9 18 10 19 11 8 12
REMARK SMILES IDX 7 13 6 14 5 15 4 16 3 17 2 18 1 19
REMARK H PARENT
REMARK Flexibility Score: inf
ROOT
ATOM      1  C   UNL     1      60.782  -0.575  96.223  1.00  0.00     0.000 C 
ENDROOT
BRANCH   1   2
ATOM      2  C   UNL     1      60.266   0.780  96.739  1.00  0.00     0.000 C 
BRANCH   2   3
ATOM      3  C   UNL     1      59.028   1.273  95.971  1.00  0.00     0.000 C 
BRANCH   3   4
ATOM      4  C   UNL     1      57.992   1.938  96.890  1.00  0.00     0.000 C 
BRANCH   4   5
ATOM      5  C   UNL     1      56.574   1.439  96.574  1.00  0.00     0.001 C 
BRANCH   5   6
ATOM      6  C   UNL     1      56.365  -0.051  96.906  1.00  0.00     0.009 C 
BRANCH   6   7
ATOM      7  C   UNL     1      56.083  -0.939  95.669  1.00  0.00     0.032 C 
ATOM      8  C   UNL     1      57.257  -1.890  95.411  1.00  0.00     0.014 C 
BRANCH   7   9
ATOM      9  C   UNL     1      54.825  -1.747  95.832  1.00  0.00     0.044 C 
ATOM     10  O   UNL     1      54.872  -2.888  96.361  1.00  0.00    -0.550 OA
ATOM     11  O   UNL     1      53.597  -1.227  95.438  1.00  0.00    -0.550 OA
ENDBRANCH   7   9
ENDBRANCH   6   7
ENDBRANCH   5   6
ENDBRANCH   4   5
ENDBRANCH   3   4
ENDBRANCH   2   3
ENDBRANCH   1   2
BRANCH   1  12
ATOM     12  C   UNL     1      60.888  -0.623  94.692  1.00  0.00     0.000 C 
BRANCH  12  13
ATOM     13  C   UNL     1      60.769  -2.051  94.136  1.00  0.00    -0.000 C 
BRANCH  13  14
ATOM     14  C   UNL     1      60.013  -2.060  92.802  1.00  0.00    -0.000 C 
BRANCH  14  15
ATOM     15  C   UNL     1      59.692  -0.629  92.341  1.00  0.00    -0.000 C 
BRANCH  15  16
ATOM     16  C   UNL     1      58.189  -0.403  92.114  1.00  0.00    -0.000 C 
BRANCH  16  17
ATOM     17  C   UNL     1      57.832   1.083  91.952  1.00  0.00    -0.000 C 
BRANCH  17  18
ATOM     18  C   UNL     1      56.709   1.485  92.917  1.00  0.00    -0.003 C 
ATOM     19  C   UNL     1      56.717   2.988  93.176  1.00  0.00     0.004 C 
ENDBRANCH  17  18
ENDBRANCH  16  17
ENDBRANCH  15  16
ENDBRANCH  14  15
ENDBRANCH  13  14
ENDBRANCH  12  13
ENDBRANCH   1  12
TORSDOF 14
ENDMDL
MODEL 6
REMARK VINA RESULT:    -3.447      1.651      3.888
REMARK INTER + INTRA:          -8.265
REMARK INTER:                  -6.764
REMARK INTRA:                  -1.501
REMARK UNBOUND:                -1.997
REMARK SMILES CCCCCCCCCCCCCC[C@@H](C)C(=O)[O-]
REMARK SMILES IDX 9 1 10 2 11 3 12 4 13 5 14 6 15 7 16 8 17 9 18 10 19 11 8 12
REMARK SMILES IDX 7 13 6 14 5 15 4 16 3 17 2 18 1 19
REMARK H PARENT
REMARK Flexibility Score: inf
ROOT
ATOM      1  C   UNL     1      60.184   1.243  96.799  1.00  0.00     0.000 C 
ENDROOT
BRANCH   1   2
ATOM      2  C   UNL     1      58.732   1.352  96.300  1.00  0.00     0.000 C 
BRANCH   2   3
ATOM      3  C   UNL     1      58.129   2.747  96.533  1.00  0.00     0.000 C 
BRANCH   3   4
ATOM      4  C   UNL     1      57.432   3.305  95.282  1.00  0.00     0.000 C 
BRANCH   4   5
ATOM      5  C   UNL     1      57.091   4.792  95.458  1.00  0.00     0.001 C 
BRANCH   5   6
ATOM      6  C   UNL     1      58.280   5.728  95.169  1.00  0.00     0.009 C 
BRANCH   6   7
ATOM      7  C   UNL     1      59.018   6.222  96.437  1.00  0.00     0.032 C 
ATOM      8  C   UNL     1      60.497   5.821  96.390  1.00  0.00     0.014 C 
BRANCH   7   9
ATOM      9  C   UNL     1      58.919   7.714  96.600  1.00  0.00     0.044 C 
ATOM     10  O   UNL     1      57.851   8.312  96.303  1.00  0.00    -0.550 OA
ATOM     11  O   UNL     1      59.987   8.440  97.114  1.00  0.00    -0.550 OA
ENDBRANCH   7   9
ENDBRANCH   6   7
ENDBRANCH   5   6
ENDBRANCH   4   5
ENDBRANCH   3   4
ENDBRANCH   2   3
ENDBRANCH   1   2
BRANCH   1  12
ATOM     12  C   UNL     1      60.749  -0.179  96.665  1.00  0.00     0.000 C 
BRANCH  12  13
ATOM     13  C   UNL     1      60.054  -0.990  95.562  1.00  0.00    -0.000 C 
BRANCH  13  14
ATOM     14  C   UNL     1      61.051  -1.401  94.471  1.00  0.00    -0.000 C 
BRANCH  14  15
ATOM     15  C   UNL     1      60.391  -1.373  93.084  1.00  0.00    -0.000 C 
BRANCH  15  16
ATOM     16  C   UNL     1      59.462  -0.164  92.893  1.00  0.00    -0.000 C 
BRANCH  16  17
ATOM     17  C   UNL     1      58.053  -0.567  92.431  1.00  0.00    -0.000 C 
BRANCH  17  18
ATOM     18  C   UNL     1      57.020  -0.306  93.534  1.00  0.00    -0.003 C 
ATOM     19  C   UNL     1      55.760  -1.138  93.317  1.00  0.00     0.004 C 
ENDBRANCH  17  18
ENDBRANCH  16  17
ENDBRANCH  15  16
ENDBRANCH  14  15
ENDBRANCH  13  14
ENDBRANCH  12  13
ENDBRANCH   1  12
TORSDOF 14
ENDMDL
MODEL 7
REMARK VINA RESULT:    -3.399      1.377      2.048
REMARK INTER + INTRA:          -8.177
REMARK INTER:                  -6.988
REMARK INTRA:                  -1.189
REMARK UNBOUND:                -1.997
REMARK SMILES CCCCCCCCCCCCCC[C@@H](C)C(=O)[O-]
REMARK SMILES IDX 9 1 10 2 11 3 12 4 13 5 14 6 15 7 16 8 17 9 18 10 19 11 8 12
REMARK SMILES IDX 7 13 6 14 5 15 4 16 3 17 2 18 1 19
REMARK H PARENT
REMARK Flexibility Score: inf
ROOT
ATOM      1  C   UNL     1      56.919   2.810  95.307  1.00  0.00     0.000 C 
ENDROOT
BRANCH   1   2
ATOM      2  C   UNL     1      57.087   3.625  96.601  1.00  0.00     0.000 C 
BRANCH   2   3
ATOM      3  C   UNL     1      57.178   5.137  96.341  1.00  0.00     0.000 C 
BRANCH   3   4
ATOM      4  C   UNL     1      58.321   5.802  97.124  1.00  0.00     0.000 C 
BRANCH   4   5
ATOM      5  C   UNL     1      59.680   5.204  96.732  1.00  0.00     0.001 C 
BRANCH   5   6
ATOM      6  C   UNL     1      60.729   6.267  96.355  1.00  0.00     0.009 C 
BRANCH   6   7
ATOM      7  C   UNL     1      60.130   7.660  96.039  1.00  0.00     0.032 C 
ATOM      8  C   UNL     1      60.708   8.720  96.983  1.00  0.00     0.014 C 
BRANCH   7   9
ATOM      9  C   UNL     1      60.391   8.074  94.617  1.00  0.00     0.044 C 
ATOM     10  O   UNL     1      61.003   7.298  93.836  1.00  0.00    -0.550 OA
ATOM     11  O   UNL     1      59.927   9.295  94.142  1.00  0.00    -0.550 OA
ENDBRANCH   7   9
ENDBRANCH   6   7
ENDBRANCH   5   6
ENDBRANCH   4   5
ENDBRANCH   3   4
ENDBRANCH   2   3
ENDBRANCH   1   2
BRANCH   1  12
ATOM     12  C   UNL     1      57.943   1.672  95.188  1.00  0.00     0.000 C 
BRANCH  12  13
ATOM     13  C   UNL     1      57.348   0.301  95.544  1.00  0.00    -0.000 C 
BRANCH  13  14
ATOM     14  C   UNL     1      58.413  -0.619  96.154  1.00  0.00    -0.000 C 
BRANCH  14  15
ATOM     15  C   UNL     1      59.773   0.091  96.234  1.00  0.00    -0.000 C 
BRANCH  15  16
ATOM     16  C   UNL     1      60.847  -0.586  95.368  1.00  0.00    -0.000 C 
BRANCH  16  17
ATOM     17  C   UNL     1      60.261  -1.633  94.409  1.00  0.00    -0.000 C 
BRANCH  17  18
ATOM     18  C   UNL     1      60.406  -1.182  92.950  1.00  0.00    -0.003 C 
ATOM     19  C   UNL     1      59.899  -2.253  91.989  1.00  0.00     0.004 C 
ENDBRANCH  17  18
ENDBRANCH  16  17
ENDBRANCH  15  16
ENDBRANCH  14  15
ENDBRANCH  13  14
ENDBRANCH  12  13
ENDBRANCH   1  12
TORSDOF 14
ENDMDL
MODEL 8
REMARK VINA RESULT:    -3.398      5.467      7.753
REMARK INTER + INTRA:          -8.175
REMARK INTER:                  -5.700
REMARK INTRA:                  -2.475
REMARK UNBOUND:                -1.997
REMARK SMILES CCCCCCCCCCCCCC[C@@H](C)C(=O)[O-]
REMARK SMILES IDX 9 1 10 2 11 3 12 4 13 5 14 6 15 7 16 8 17 9 18 10 19 11 8 12
REMARK SMILES IDX 7 13 6 14 5 15 4 16 3 17 2 18 1 19
REMARK H PARENT
REMARK Flexibility Score: inf
ROOT
ATOM      1  C   UNL     1      58.348   1.663  96.802  1.00  0.00     0.000 C 
ENDROOT
BRANCH   1   2
ATOM      2  C   UNL     1      59.853   1.751  97.110  1.00  0.00     0.000 C 
BRANCH   2   3
ATOM      3  C   UNL     1      60.588   0.424  96.859  1.00  0.00     0.000 C 
BRANCH   3   4
ATOM      4  C   UNL     1      59.764  -0.554  96.008  1.00  0.00     0.000 C 
BRANCH   4   5
ATOM      5  C   UNL     1      60.376  -0.719  94.609  1.00  0.00     0.001 C 
BRANCH   5   6
ATOM      6  C   UNL     1      60.206  -2.138  94.033  1.00  0.00     0.009 C 
BRANCH   6   7
ATOM      7  C   UNL     1      58.805  -2.413  93.435  1.00  0.00     0.032 C 
ATOM      8  C   UNL     1      58.496  -1.421  92.309  1.00  0.00     0.014 C 
BRANCH   7   9
ATOM      9  C   UNL     1      58.687  -3.814  92.901  1.00  0.00     0.044 C 
ATOM     10  O   UNL     1      59.501  -4.229  92.034  1.00  0.00    -0.550 OA
ATOM     11  O   UNL     1      57.708  -4.674  93.385  1.00  0.00    -0.550 OA
ENDBRANCH   7   9
ENDBRANCH   6   7
ENDBRANCH   5   6
ENDBRANCH   4   5
ENDBRANCH   3   4
ENDBRANCH   2   3
ENDBRANCH   1   2
BRANCH   1  12
ATOM     12  C   UNL     1      57.772   2.989  96.284  1.00  0.00     0.000 C 
BRANCH  12  13
ATOM     13  C   UNL     1      57.275   2.891  94.833  1.00  0.00    -0.000 C 
BRANCH  13  14
ATOM     14  C   UNL     1      57.366   1.450  94.317  1.00  0.00    -0.000 C 
BRANCH  14  15
ATOM     15  C   UNL     1      55.973   0.902  93.970  1.00  0.00    -0.000 C 
BRANCH  15  16
ATOM     16  C   UNL     1      55.688  -0.457  94.631  1.00  0.00    -0.000 C 
BRANCH  16  17
ATOM     17  C   UNL     1      55.532  -0.352  96.155  1.00  0.00    -0.000 C 
BRANCH  17  18
ATOM     18  C   UNL     1      56.336  -1.449  96.865  1.00  0.00    -0.003 C 
ATOM     19  C   UNL     1      56.249  -2.771  96.110  1.00  0.00     0.004 C 
ENDBRANCH  17  18
ENDBRANCH  16  17
ENDBRANCH  15  16
ENDBRANCH  14  15
ENDBRANCH  13  14
ENDBRANCH  12  13
ENDBRANCH   1  12
TORSDOF 14
ENDMDL
MODEL 9
REMARK VINA RESULT:    -3.370      1.615      2.796
REMARK INTER + INTRA:          -8.124
REMARK INTER:                  -7.179
REMARK INTRA:                  -0.945
REMARK UNBOUND:                -1.997
REMARK SMILES CCCCCCCCCCCCCC[C@@H](C)C(=O)[O-]
REMARK SMILES IDX 9 1 10 2 11 3 12 4 13 5 14 6 15 7 16 8 17 9 18 10 19 11 8 12
REMARK SMILES IDX 7 13 6 14 5 15 4 16 3 17 2 18 1 19
REMARK H PARENT
REMARK Flexibility Score: inf
ROOT
ATOM      1  C   UNL     1      58.149   2.395  96.903  1.00  0.00     0.000 C 
ENDROOT
BRANCH   1   2
ATOM      2  C   UNL     1      58.971   3.676  97.125  1.00  0.00     0.000 C 
BRANCH   2   3
ATOM      3  C   UNL     1      58.112   4.949  97.067  1.00  0.00     0.000 C 
BRANCH   3   4
ATOM      4  C   UNL     1      58.824   6.109  96.353  1.00  0.00     0.000 C 
BRANCH   4   5
ATOM      5  C   UNL     1      60.348   5.925  96.387  1.00  0.00     0.001 C 
BRANCH   5   6
ATOM      6  C   UNL     1      61.123   7.163  95.897  1.00  0.00     0.009 C 
BRANCH   6   7
ATOM      7  C   UNL     1      60.248   8.430  95.730  1.00  0.00     0.032 C 
ATOM      8  C   UNL     1      60.145   9.191  97.057  1.00  0.00     0.014 C 
BRANCH   7   9
ATOM      9  C   UNL     1      60.793   9.353  94.675  1.00  0.00     0.044 C 
ATOM     10  O   UNL     1      61.046  10.554  94.958  1.00  0.00    -0.550 OA
ATOM     11  O   UNL     1      61.057   8.883  93.394  1.00  0.00    -0.550 OA
ENDBRANCH   7   9
ENDBRANCH   6   7
ENDBRANCH   5   6
ENDBRANCH   4   5
ENDBRANCH   3   4
ENDBRANCH   2   3
ENDBRANCH   1   2
BRANCH   1  12
ATOM     12  C   UNL     1      58.861   1.385  95.991  1.00  0.00     0.000 C 
BRANCH  12  13
ATOM     13  C   UNL     1      60.106   0.770  96.649  1.00  0.00    -0.000 C 
BRANCH  13  14
ATOM     14  C   UNL     1      60.363  -0.646  96.121  1.00  0.00    -0.000 C 
BRANCH  14  15
ATOM     15  C   UNL     1      59.255  -1.082  95.150  1.00  0.00    -0.000 C 
BRANCH  15  16
ATOM     16  C   UNL     1      59.802  -1.812  93.913  1.00  0.00    -0.000 C 
BRANCH  16  17
ATOM     17  C   UNL     1      59.446  -1.099  92.600  1.00  0.00    -0.000 C 
BRANCH  17  18
ATOM     18  C   UNL     1      57.992  -0.612  92.618  1.00  0.00    -0.003 C 
ATOM     19  C   UNL     1      57.919   0.909  92.537  1.00  0.00     0.004 C 
ENDBRANCH  17  18
ENDBRANCH  16  17
ENDBRANCH  15  16
ENDBRANCH  14  15
ENDBRANCH  13  14
ENDBRANCH  12  13
ENDBRANCH   1  12
TORSDOF 14
ENDMDL
