MODEL 1
REMARK VINA RESULT:    -4.638      0.000      0.000
REMARK INTER + INTRA:          -9.410
REMARK INTER:                  -8.163
REMARK INTRA:                  -1.247
REMARK UNBOUND:                -1.247
REMARK SMILES CCCCCCC=CCCCCCCCC(=O)[O-]
REMARK SMILES IDX 10 1 11 2 12 3 13 4 14 5 15 6 16 7 17 8 18 9 9 10 8 11 7 12
REMARK SMILES IDX 6 13 5 14 4 15 3 16 2 17 1 18
REMARK H PARENT
REMARK Flexibility Score: inf
ROOT
ATOM      1  C   UNL     1      22.990 -24.316  16.617  1.00  0.00     0.004 C 
ENDROOT
BRANCH   1   2
ATOM      2  C   UNL     1      24.295 -23.537  16.857  1.00  0.00     0.000 C 
BRANCH   2   3
ATOM      3  C   UNL     1      24.089 -22.013  16.824  1.00  0.00     0.000 C 
BRANCH   3   4
ATOM      4  C   UNL     1      24.621 -21.374  15.529  1.00  0.00     0.000 C 
BRANCH   4   5
ATOM      5  C   UNL     1      23.618 -21.472  14.368  1.00  0.00     0.006 C 
BRANCH   5   6
ATOM      6  C   UNL     1      24.210 -21.002  13.032  1.00  0.00     0.053 C 
BRANCH   6   7
ATOM      7  C   UNL     1      23.478 -21.630  11.888  1.00  0.00     0.041 C 
ATOM      8  O   UNL     1      23.427 -21.048  10.773  1.00  0.00    -0.550 OA
ATOM      9  O   UNL     1      22.811 -22.835  12.066  1.00  0.00    -0.550 OA
ENDBRANCH   6   7
ENDBRANCH   5   6
ENDBRANCH   4   5
ENDBRANCH   3   4
ENDBRANCH   2   3
ENDBRANCH   1   2
BRANCH   1  10
ATOM     10  C   UNL     1      21.774 -23.608  17.233  1.00  0.00     0.027 C 
BRANCH  10  11
ATOM     11  C   UNL     1      20.607 -23.539  16.284  1.00  0.00    -0.031 C 
ATOM     12  C   UNL     1      20.739 -23.849  14.985  1.00  0.00    -0.031 C 
BRANCH  12  13
ATOM     13  C   UNL     1      19.573 -23.783  14.036  1.00  0.00     0.027 C 
BRANCH  13  14
ATOM     14  C   UNL     1      18.769 -25.094  13.996  1.00  0.00     0.004 C 
BRANCH  14  15
ATOM     15  C   UNL     1      17.332 -24.974  14.546  1.00  0.00     0.000 C 
BRANCH  15  16
ATOM     16  C   UNL     1      17.133 -25.514  15.977  1.00  0.00    -0.000 C 
BRANCH  16  17
ATOM     17  C   UNL     1      15.671 -25.790  16.367  1.00  0.00    -0.003 C 
ATOM     18  C   UNL     1      15.537 -26.466  17.731  1.00  0.00     0.004 C 
ENDBRANCH  16  17
ENDBRANCH  15  16
ENDBRANCH  14  15
ENDBRANCH  13  14
ENDBRANCH  12  13
ENDBRANCH  10  11
ENDBRANCH   1  10
TORSDOF 13
ENDMDL
MODEL 2
REMARK VINA RESULT:    -4.622      4.100      7.841
REMARK INTER + INTRA:          -9.383
REMARK INTER:                  -7.926
REMARK INTRA:                  -1.457
REMARK UNBOUND:                -1.247
REMARK SMILES CCCCCCC=CCCCCCCCC(=O)[O-]
REMARK SMILES IDX 10 1 11 2 12 3 13 4 14 5 15 6 16 7 17 8 18 9 9 10 8 11 7 12
REMARK SMILES IDX 6 13 5 14 4 15 3 16 2 17 1 18
REMARK H PARENT
REMARK Flexibility Score: inf
ROOT
ATOM      1  C   UNL     1      20.145 -24.060  14.340  1.00  0.00     0.004 C 
ENDROOT
BRANCH   1   2
ATOM      2  C   UNL     1      18.829 -24.853  14.259  1.00  0.00     0.000 C 
BRANCH   2   3
ATOM      3  C   UNL     1      18.100 -24.929  15.610  1.00  0.00     0.000 C 
BRANCH   3   4
ATOM      4  C   UNL     1      16.588 -24.670  15.480  1.00  0.00     0.000 C 
BRANCH   4   5
ATOM      5  C   UNL     1      15.743 -25.865  15.953  1.00  0.00     0.006 C 
BRANCH   5   6
ATOM      6  C   UNL     1      16.072 -26.291  17.390  1.00  0.00     0.053 C 
BRANCH   6   7
ATOM      7  C   UNL     1      14.844 -26.238  18.243  1.00  0.00     0.041 C 
ATOM      8  O   UNL     1      14.200 -27.290  18.494  1.00  0.00    -0.550 OA
ATOM      9  O   UNL     1      14.384 -25.018  18.723  1.00  0.00    -0.550 OA
ENDBRANCH   6   7
ENDBRANCH   5   6
ENDBRANCH   4   5
ENDBRANCH   3   4
ENDBRANCH   2   3
ENDBRANCH   1   2
BRANCH   1  10
ATOM     10  C   UNL     1      19.901 -22.549  14.478  1.00  0.00     0.027 C 
BRANCH  10  11
ATOM     11  C   UNL     1      21.181 -21.758  14.492  1.00  0.00    -0.031 C 
ATOM     12  C   UNL     1      22.378 -22.357  14.390  1.00  0.00    -0.031 C 
BRANCH  12  13
ATOM     13  C   UNL     1      23.658 -21.567  14.401  1.00  0.00     0.027 C 
BRANCH  13  14
ATOM     14  C   UNL     1      24.479 -21.789  15.684  1.00  0.00     0.004 C 
BRANCH  14  15
ATOM     15  C   UNL     1      24.095 -23.058  16.471  1.00  0.00     0.000 C 
BRANCH  15  16
ATOM     16  C   UNL     1      23.661 -22.814  17.931  1.00  0.00    -0.000 C 
BRANCH  16  17
ATOM     17  C   UNL     1      22.182 -22.430  18.112  1.00  0.00    -0.003 C 
ATOM     18  C   UNL     1      21.226 -23.580  17.798  1.00  0.00     0.004 C 
ENDBRANCH  16  17
ENDBRANCH  15  16
ENDBRANCH  14  15
ENDBRANCH  13  14
ENDBRANCH  12  13
ENDBRANCH  10  11
ENDBRANCH   1  10
TORSDOF 13
ENDMDL
MODEL 3
REMARK VINA RESULT:    -4.558      2.573      3.863
REMARK INTER + INTRA:          -9.269
REMARK INTER:                  -8.163
REMARK INTRA:                  -1.106
REMARK UNBOUND:                -1.247
REMARK SMILES CCCCCCC=CCCCCCCCC(=O)[O-]
REMARK SMILES IDX 10 1 11 2 12 3 13 4 14 5 15 6 16 7 17 8 18 9 9 10 8 11 7 12
REMARK SMILES IDX 6 13 5 14 4 15 3 16 2 17 1 18
REMARK H PARENT
REMARK Flexibility Score: inf
ROOT
ATOM      1  C   UNL     1      21.061 -22.536  14.239  1.00  0.00     0.004 C 
ENDROOT
BRANCH   1   2
ATOM      2  C   UNL     1      22.247 -22.461  13.263  1.00  0.00     0.000 C 
BRANCH   2   3
ATOM      3  C   UNL     1      23.417 -21.630  13.814  1.00  0.00     0.000 C 
BRANCH   3   4
ATOM      4  C   UNL     1      23.372 -21.491  15.346  1.00  0.00     0.000 C 
BRANCH   4   5
ATOM      5  C   UNL     1      24.445 -22.340  16.047  1.00  0.00     0.006 C 
BRANCH   5   6
ATOM      6  C   UNL     1      23.845 -23.416  16.962  1.00  0.00     0.053 C 
BRANCH   6   7
ATOM      7  C   UNL     1      22.954 -22.789  17.989  1.00  0.00     0.041 C 
ATOM      8  O   UNL     1      23.413 -21.927  18.783  1.00  0.00    -0.550 OA
ATOM      9  O   UNL     1      21.630 -23.193  18.100  1.00  0.00    -0.550 OA
ENDBRANCH   6   7
ENDBRANCH   5   6
ENDBRANCH   4   5
ENDBRANCH   3   4
ENDBRANCH   2   3
ENDBRANCH   1   2
BRANCH   1  10
ATOM     10  C   UNL     1      20.773 -23.977  14.687  1.00  0.00     0.027 C 
BRANCH  10  11
ATOM     11  C   UNL     1      19.348 -24.167  15.134  1.00  0.00    -0.031 C 
ATOM     12  C   UNL     1      18.473 -24.880  14.409  1.00  0.00    -0.031 C 
BRANCH  12  13
ATOM     13  C   UNL     1      17.050 -25.072  14.857  1.00  0.00     0.027 C 
BRANCH  13  14
ATOM     14  C   UNL     1      16.604 -24.014  15.881  1.00  0.00     0.004 C 
BRANCH  14  15
ATOM     15  C   UNL     1      15.685 -24.556  16.994  1.00  0.00     0.000 C 
BRANCH  15  16
ATOM     16  C   UNL     1      15.148 -25.983  16.762  1.00  0.00    -0.000 C 
BRANCH  16  17
ATOM     17  C   UNL     1      14.825 -26.771  18.044  1.00  0.00    -0.003 C 
ATOM     18  C   UNL     1      13.364 -27.211  18.120  1.00  0.00     0.004 C 
ENDBRANCH  16  17
ENDBRANCH  15  16
ENDBRANCH  14  15
ENDBRANCH  13  14
ENDBRANCH  12  13
ENDBRANCH  10  11
ENDBRANCH   1  10
TORSDOF 13
ENDMDL
MODEL 4
REMARK VINA RESULT:    -4.512      2.721      4.076
REMARK INTER + INTRA:          -9.189
REMARK INTER:                  -7.734
REMARK INTRA:                  -1.455
REMARK UNBOUND:                -1.247
REMARK SMILES CCCCCCC=CCCCCCCCC(=O)[O-]
REMARK SMILES IDX 10 1 11 2 12 3 13 4 14 5 15 6 16 7 17 8 18 9 9 10 8 11 7 12
REMARK SMILES IDX 6 13 5 14 4 15 3 16 2 17 1 18
REMARK H PARENT
REMARK Flexibility Score: inf
ROOT
ATOM      1  C   UNL     1      21.051 -23.854  14.935  1.00  0.00     0.004 C 
ENDROOT
BRANCH   1   2
ATOM      2  C   UNL     1      21.386 -22.424  14.477  1.00  0.00     0.000 C 
BRANCH   2   3
ATOM      3  C   UNL     1      22.870 -22.248  14.118  1.00  0.00     0.000 C 
BRANCH   3   4
ATOM      4  C   UNL     1      23.607 -21.313  15.093  1.00  0.00     0.000 C 
BRANCH   4   5
ATOM      5  C   UNL     1      24.698 -22.041  15.896  1.00  0.00     0.006 C 
BRANCH   5   6
ATOM      6  C   UNL     1      24.132 -23.142  16.803  1.00  0.00     0.053 C 
BRANCH   6   7
ATOM      7  C   UNL     1      23.542 -22.544  18.042  1.00  0.00     0.041 C 
ATOM      8  O   UNL     1      22.396 -22.892  18.429  1.00  0.00    -0.550 OA
ATOM      9  O   UNL     1      24.239 -21.567  18.742  1.00  0.00    -0.550 OA
ENDBRANCH   6   7
ENDBRANCH   5   6
ENDBRANCH   4   5
ENDBRANCH   3   4
ENDBRANCH   2   3
ENDBRANCH   1   2
BRANCH   1  10
ATOM     10  C   UNL     1      20.034 -23.868  16.086  1.00  0.00     0.027 C 
BRANCH  10  11
ATOM     11  C   UNL     1      18.611 -23.895  15.597  1.00  0.00    -0.031 C 
ATOM     12  C   UNL     1      17.984 -25.049  15.326  1.00  0.00    -0.031 C 
BRANCH  12  13
ATOM     13  C   UNL     1      16.560 -25.078  14.839  1.00  0.00     0.027 C 
BRANCH  13  14
ATOM     14  C   UNL     1      15.624 -25.838  15.794  1.00  0.00     0.004 C 
BRANCH  14  15
ATOM     15  C   UNL     1      15.797 -25.469  17.281  1.00  0.00     0.000 C 
BRANCH  15  16
ATOM     16  C   UNL     1      14.989 -24.241  17.748  1.00  0.00    -0.000 C 
BRANCH  16  17
ATOM     17  C   UNL     1      15.793 -22.931  17.835  1.00  0.00    -0.003 C 
ATOM     18  C   UNL     1      15.551 -22.004  16.646  1.00  0.00     0.004 C 
ENDBRANCH  16  17
ENDBRANCH  15  16
ENDBRANCH  14  15
ENDBRANCH  13  14
ENDBRANCH  12  13
ENDBRANCH  10  11
ENDBRANCH   1  10
TORSDOF 13
ENDMDL
MODEL 5
REMARK VINA RESULT:    -4.483     16.081     17.954
REMARK INTER + INTRA:          -9.137
REMARK INTER:                  -7.587
REMARK INTRA:                  -1.550
REMARK UNBOUND:                -1.247
REMARK SMILES CCCCCCC=CCCCCCCCC(=O)[O-]
REMARK SMILES IDX 10 1 11 2 12 3 13 4 14 5 15 6 16 7 17 8 18 9 9 10 8 11 7 12
REMARK SMILES IDX 6 13 5 14 4 15 3 16 2 17 1 18
REMARK H PARENT
REMARK Flexibility Score: inf
ROOT
ATOM      1  C   UNL     1      30.334 -34.030  26.539  1.00  0.00     0.004 C 
ENDROOT
BRANCH   1   2
ATOM      2  C   UNL     1      30.517 -35.137  27.592  1.00  0.00     0.000 C 
BRANCH   2   3
ATOM      3  C   UNL     1      29.216 -35.905  27.876  1.00  0.00     0.000 C 
BRANCH   3   4
ATOM      4  C   UNL     1      28.608 -36.526  26.605  1.00  0.00     0.000 C 
BRANCH   4   5
ATOM      5  C   UNL     1      27.146 -36.105  26.385  1.00  0.00     0.006 C 
BRANCH   5   6
ATOM      6  C   UNL     1      26.782 -34.817  27.135  1.00  0.00     0.053 C 
BRANCH   6   7
ATOM      7  C   UNL     1      26.281 -33.781  26.177  1.00  0.00     0.041 C 
ATOM      8  O   UNL     1      26.250 -34.022  24.942  1.00  0.00    -0.550 OA
ATOM      9  O   UNL     1      25.892 -32.532  26.645  1.00  0.00    -0.550 OA
ENDBRANCH   6   7
ENDBRANCH   5   6
ENDBRANCH   4   5
ENDBRANCH   3   4
ENDBRANCH   2   3
ENDBRANCH   1   2
BRANCH   1  10
ATOM     10  C   UNL     1      31.436 -34.064  25.469  1.00  0.00     0.027 C 
BRANCH  10  11
ATOM     11  C   UNL     1      30.902 -34.407  24.104  1.00  0.00    -0.031 C 
ATOM     12  C   UNL     1      29.596 -34.298  23.813  1.00  0.00    -0.031 C 
BRANCH  12  13
ATOM     13  C   UNL     1      29.061 -34.638  22.449  1.00  0.00     0.027 C 
BRANCH  13  14
ATOM     14  C   UNL     1      29.317 -36.105  22.062  1.00  0.00     0.004 C 
BRANCH  14  15
ATOM     15  C   UNL     1      29.794 -36.304  20.609  1.00  0.00     0.000 C 
BRANCH  15  16
ATOM     16  C   UNL     1      31.179 -35.704  20.288  1.00  0.00    -0.000 C 
BRANCH  16  17
ATOM     17  C   UNL     1      31.736 -36.067  18.900  1.00  0.00    -0.003 C 
ATOM     18  C   UNL     1      30.651 -36.514  17.921  1.00  0.00     0.004 C 
ENDBRANCH  16  17
ENDBRANCH  15  16
ENDBRANCH  14  15
ENDBRANCH  13  14
ENDBRANCH  12  13
ENDBRANCH  10  11
ENDBRANCH   1  10
TORSDOF 13
ENDMDL
MODEL 6
REMARK VINA RESULT:    -4.451     16.036     18.189
REMARK INTER + INTRA:          -9.082
REMARK INTER:                  -6.877
REMARK INTRA:                  -2.205
REMARK UNBOUND:                -1.247
REMARK SMILES CCCCCCC=CCCCCCCCC(=O)[O-]
REMARK SMILES IDX 10 1 11 2 12 3 13 4 14 5 15 6 16 7 17 8 18 9 9 10 8 11 7 12
REMARK SMILES IDX 6 13 5 14 4 15 3 16 2 17 1 18
REMARK H PARENT
REMARK Flexibility Score: inf
ROOT
ATOM      1  C   UNL     1      30.788 -34.278  26.341  1.00  0.00     0.004 C 
ENDROOT
BRANCH   1   2
ATOM      2  C   UNL     1      30.838 -35.564  27.183  1.00  0.00     0.000 C 
BRANCH   2   3
ATOM      3  C   UNL     1      29.440 -36.084  27.554  1.00  0.00     0.000 C 
BRANCH   3   4
ATOM      4  C   UNL     1      28.575 -36.387  26.317  1.00  0.00     0.000 C 
BRANCH   4   5
ATOM      5  C   UNL     1      27.112 -35.951  26.500  1.00  0.00     0.006 C 
BRANCH   5   6
ATOM      6  C   UNL     1      26.823 -34.575  25.884  1.00  0.00     0.053 C 
BRANCH   6   7
ATOM      7  C   UNL     1      26.311 -33.634  26.930  1.00  0.00     0.041 C 
ATOM      8  O   UNL     1      25.881 -32.497  26.602  1.00  0.00    -0.550 OA
ATOM      9  O   UNL     1      26.355 -33.994  28.270  1.00  0.00    -0.550 OA
ENDBRANCH   6   7
ENDBRANCH   5   6
ENDBRANCH   4   5
ENDBRANCH   3   4
ENDBRANCH   2   3
ENDBRANCH   1   2
BRANCH   1  10
ATOM     10  C   UNL     1      31.721 -34.350  25.122  1.00  0.00     0.027 C 
BRANCH  10  11
ATOM     11  C   UNL     1      30.978 -34.636  23.845  1.00  0.00    -0.031 C 
ATOM     12  C   UNL     1      29.732 -34.180  23.640  1.00  0.00    -0.031 C 
BRANCH  12  13
ATOM     13  C   UNL     1      28.989 -34.463  22.363  1.00  0.00     0.027 C 
BRANCH  13  14
ATOM     14  C   UNL     1      29.721 -35.476  21.465  1.00  0.00     0.004 C 
BRANCH  14  15
ATOM     15  C   UNL     1      28.861 -36.680  21.033  1.00  0.00     0.000 C 
BRANCH  15  16
ATOM     16  C   UNL     1      29.271 -38.032  21.653  1.00  0.00    -0.000 C 
BRANCH  16  17
ATOM     17  C   UNL     1      29.239 -38.075  23.191  1.00  0.00    -0.003 C 
ATOM     18  C   UNL     1      30.622 -38.271  23.810  1.00  0.00     0.004 C 
ENDBRANCH  16  17
ENDBRANCH  15  16
ENDBRANCH  14  15
ENDBRANCH  13  14
ENDBRANCH  12  13
ENDBRANCH  10  11
ENDBRANCH   1  10
TORSDOF 13
ENDMDL
MODEL 7
REMARK VINA RESULT:    -4.428      2.646      3.754
REMARK INTER + INTRA:          -9.041
REMARK INTER:                  -7.891
REMARK INTRA:                  -1.150
REMARK UNBOUND:                -1.247
REMARK SMILES CCCCCCC=CCCCCCCCC(=O)[O-]
REMARK SMILES IDX 10 1 11 2 12 3 13 4 14 5 15 6 16 7 17 8 18 9 9 10 8 11 7 12
REMARK SMILES IDX 6 13 5 14 4 15 3 16 2 17 1 18
REMARK H PARENT
REMARK Flexibility Score: inf
ROOT
ATOM      1  C   UNL     1      22.413 -22.010  13.252  1.00  0.00     0.004 C 
ENDROOT
BRANCH   1   2
ATOM      2  C   UNL     1      23.703 -21.629  14.000  1.00  0.00     0.000 C 
BRANCH   2   3
ATOM      3  C   UNL     1      23.518 -21.609  15.526  1.00  0.00     0.000 C 
BRANCH   3   4
ATOM      4  C   UNL     1      24.547 -22.491  16.256  1.00  0.00     0.000 C 
BRANCH   4   5
ATOM      5  C   UNL     1      23.914 -23.751  16.868  1.00  0.00     0.006 C 
BRANCH   5   6
ATOM      6  C   UNL     1      22.435 -23.913  16.493  1.00  0.00     0.053 C 
BRANCH   6   7
ATOM      7  C   UNL     1      21.561 -23.548  17.652  1.00  0.00     0.041 C 
ATOM      8  O   UNL     1      22.003 -22.810  18.571  1.00  0.00    -0.550 OA
ATOM      9  O   UNL     1      20.274 -24.063  17.741  1.00  0.00    -0.550 OA
ENDBRANCH   6   7
ENDBRANCH   5   6
ENDBRANCH   4   5
ENDBRANCH   3   4
ENDBRANCH   2   3
ENDBRANCH   1   2
BRANCH   1  10
ATOM     10  C   UNL     1      21.154 -21.540  13.996  1.00  0.00     0.027 C 
BRANCH  10  11
ATOM     11  C   UNL     1      19.889 -22.072  13.379  1.00  0.00    -0.031 C 
ATOM     12  C   UNL     1      19.662 -23.390  13.267  1.00  0.00    -0.031 C 
BRANCH  12  13
ATOM     13  C   UNL     1      18.396 -23.923  12.653  1.00  0.00     0.027 C 
BRANCH  13  14
ATOM     14  C   UNL     1      17.783 -25.074  13.468  1.00  0.00     0.004 C 
BRANCH  14  15
ATOM     15  C   UNL     1      18.138 -25.050  14.968  1.00  0.00     0.000 C 
BRANCH  15  16
ATOM     16  C   UNL     1      16.932 -24.943  15.924  1.00  0.00    -0.000 C 
BRANCH  16  17
ATOM     17  C   UNL     1      16.998 -25.862  17.156  1.00  0.00    -0.003 C 
ATOM     18  C   UNL     1      15.644 -26.468  17.520  1.00  0.00     0.004 C 
ENDBRANCH  16  17
ENDBRANCH  15  16
ENDBRANCH  14  15
ENDBRANCH  13  14
ENDBRANCH  12  13
ENDBRANCH  10  11
ENDBRANCH   1  10
TORSDOF 13
ENDMDL
MODEL 8
REMARK VINA RESULT:    -4.350      3.746      7.576
REMARK INTER + INTRA:          -8.903
REMARK INTER:                  -7.314
REMARK INTRA:                  -1.589
REMARK UNBOUND:                -1.247
REMARK SMILES CCCCCCC=CCCCCCCCC(=O)[O-]
REMARK SMILES IDX 10 1 11 2 12 3 13 4 14 5 15 6 16 7 17 8 18 9 9 10 8 11 7 12
REMARK SMILES IDX 6 13 5 14 4 15 3 16 2 17 1 18
REMARK H PARENT
REMARK Flexibility Score: inf
ROOT
ATOM      1  C   UNL     1      20.265 -23.849  15.891  1.00  0.00     0.004 C 
ENDROOT
BRANCH   1   2
ATOM      2  C   UNL     1      19.218 -22.900  15.284  1.00  0.00     0.000 C 
BRANCH   2   3
ATOM      3  C   UNL     1      18.424 -23.550  14.139  1.00  0.00     0.000 C 
BRANCH   3   4
ATOM      4  C   UNL     1      17.985 -24.988  14.466  1.00  0.00     0.000 C 
BRANCH   4   5
ATOM      5  C   UNL     1      16.661 -25.037  15.246  1.00  0.00     0.006 C 
BRANCH   5   6
ATOM      6  C   UNL     1      16.805 -25.716  16.615  1.00  0.00     0.053 C 
BRANCH   6   7
ATOM      7  C   UNL     1      15.479 -26.227  17.085  1.00  0.00     0.041 C 
ATOM      8  O   UNL     1      15.299 -26.495  18.302  1.00  0.00    -0.550 OA
ATOM      9  O   UNL     1      14.457 -26.452  16.172  1.00  0.00    -0.550 OA
ENDBRANCH   6   7
ENDBRANCH   5   6
ENDBRANCH   4   5
ENDBRANCH   3   4
ENDBRANCH   2   3
ENDBRANCH   1   2
BRANCH   1  10
ATOM     10  C   UNL     1      20.556 -23.520  17.364  1.00  0.00     0.027 C 
BRANCH  10  11
ATOM     11  C   UNL     1      22.028 -23.382  17.643  1.00  0.00    -0.031 C 
ATOM     12  C   UNL     1      22.949 -23.648  16.704  1.00  0.00    -0.031 C 
BRANCH  12  13
ATOM     13  C   UNL     1      24.421 -23.508  16.981  1.00  0.00     0.027 C 
BRANCH  13  14
ATOM     14  C   UNL     1      25.052 -22.318  16.237  1.00  0.00     0.004 C 
BRANCH  14  15
ATOM     15  C   UNL     1      24.049 -21.217  15.836  1.00  0.00     0.000 C 
BRANCH  15  16
ATOM     16  C   UNL     1      23.831 -21.054  14.318  1.00  0.00    -0.000 C 
BRANCH  16  17
ATOM     17  C   UNL     1      22.389 -21.301  13.840  1.00  0.00    -0.003 C 
ATOM     18  C   UNL     1      22.249 -22.568  12.998  1.00  0.00     0.004 C 
ENDBRANCH  16  17
ENDBRANCH  15  16
ENDBRANCH  14  15
ENDBRANCH  13  14
ENDBRANCH  12  13
ENDBRANCH  10  11
ENDBRANCH   1  10
TORSDOF 13
ENDMDL
MODEL 9
REMARK VINA RESULT:    -4.347     16.264     17.992
REMARK INTER + INTRA:          -8.897
REMARK INTER:                  -6.749
REMARK INTRA:                  -2.149
REMARK UNBOUND:                -1.247
REMARK SMILES CCCCCCC=CCCCCCCCC(=O)[O-]
REMARK SMILES IDX 10 1 11 2 12 3 13 4 14 5 15 6 16 7 17 8 18 9 9 10 8 11 7 12
REMARK SMILES IDX 6 13 5 14 4 15 3 16 2 17 1 18
REMARK H PARENT
REMARK Flexibility Score: inf
ROOT
ATOM      1  C   UNL     1      30.871 -33.965  26.307  1.00  0.00     0.004 C 
ENDROOT
BRANCH   1   2
ATOM      2  C   UNL     1      31.711 -34.318  25.067  1.00  0.00     0.000 C 
BRANCH   2   3
ATOM      3  C   UNL     1      31.971 -35.827  24.937  1.00  0.00     0.000 C 
BRANCH   3   4
ATOM      4  C   UNL     1      31.500 -36.393  23.586  1.00  0.00     0.000 C 
BRANCH   4   5
ATOM      5  C   UNL     1      31.930 -35.517  22.398  1.00  0.00     0.006 C 
BRANCH   5   6
ATOM      6  C   UNL     1      30.885 -35.488  21.274  1.00  0.00     0.053 C 
BRANCH   6   7
ATOM      7  C   UNL     1      29.537 -35.143  21.826  1.00  0.00     0.041 C 
ATOM      8  O   UNL     1      28.617 -36.002  21.834  1.00  0.00    -0.550 OA
ATOM      9  O   UNL     1      29.283 -33.858  22.289  1.00  0.00    -0.550 OA
ENDBRANCH   6   7
ENDBRANCH   5   6
ENDBRANCH   4   5
ENDBRANCH   3   4
ENDBRANCH   2   3
ENDBRANCH   1   2
BRANCH   1  10
ATOM     10  C   UNL     1      31.241 -34.834  27.520  1.00  0.00     0.027 C 
BRANCH  10  11
ATOM     11  C   UNL     1      30.035 -35.242  28.323  1.00  0.00    -0.031 C 
ATOM     12  C   UNL     1      28.999 -34.410  28.508  1.00  0.00    -0.031 C 
BRANCH  12  13
ATOM     13  C   UNL     1      27.792 -34.818  29.309  1.00  0.00     0.027 C 
BRANCH  13  14
ATOM     14  C   UNL     1      26.470 -34.494  28.591  1.00  0.00     0.004 C 
BRANCH  14  15
ATOM     15  C   UNL     1      26.643 -33.852  27.200  1.00  0.00     0.000 C 
BRANCH  15  16
ATOM     16  C   UNL     1      26.459 -34.814  26.009  1.00  0.00    -0.000 C 
BRANCH  16  17
ATOM     17  C   UNL     1      27.740 -35.101  25.205  1.00  0.00    -0.003 C 
ATOM     18  C   UNL     1      28.266 -36.520  25.412  1.00  0.00     0.004 C 
ENDBRANCH  16  17
ENDBRANCH  15  16
ENDBRANCH  14  15
ENDBRANCH  13  14
ENDBRANCH  12  13
ENDBRANCH  10  11
ENDBRANCH   1  10
TORSDOF 13
ENDMDL
