MODEL 1
REMARK VINA RESULT:    -2.680      0.000      0.000
REMARK INTER + INTRA:          -3.182
REMARK INTER:                  -3.151
REMARK INTRA:                  -0.032
REMARK UNBOUND:                -0.032
REMARK SMILES CCCCC(=O)[O-]
REMARK SMILES IDX 4 1 5 2 6 3 7 4 3 5 2 6 1 7
REMARK H PARENT
REMARK Flexibility Score: inf
ROOT
ATOM      1  C   UNL     1      62.339  31.899  60.788  1.00  0.00     0.053 C 
ENDROOT
BRANCH   1   2
ATOM      2  C   UNL     1      61.565  30.942  61.639  1.00  0.00     0.041 C 
ATOM      3  O   UNL     1      60.453  31.281  62.123  1.00  0.00    -0.550 OA
ATOM      4  O   UNL     1      62.048  29.658  61.856  1.00  0.00    -0.550 OA
ENDBRANCH   1   2
BRANCH   1   5
ATOM      5  C   UNL     1      61.564  33.213  60.620  1.00  0.00     0.006 C 
BRANCH   5   6
ATOM      6  C   UNL     1      62.469  34.449  60.729  1.00  0.00    -0.003 C 
ATOM      7  C   UNL     1      61.682  35.758  60.767  1.00  0.00     0.004 C 
ENDBRANCH   5   6
ENDBRANCH   1   5
TORSDOF 3
ENDMDL
MODEL 2
REMARK VINA RESULT:    -2.648     12.783     13.266
REMARK INTER + INTRA:          -3.145
REMARK INTER:                  -3.112
REMARK INTRA:                  -0.033
REMARK UNBOUND:                -0.032
REMARK SMILES CCCCC(=O)[O-]
REMARK SMILES IDX 4 1 5 2 6 3 7 4 3 5 2 6 1 7
REMARK H PARENT
REMARK Flexibility Score: inf
ROOT
ATOM      1  C   UNL     1      56.983  28.239  50.315  1.00  0.00     0.053 C 
ENDROOT
BRANCH   1   2
ATOM      2  C   UNL     1      58.005  29.321  50.161  1.00  0.00     0.041 C 
ATOM      3  O   UNL     1      58.247  30.104  51.117  1.00  0.00    -0.550 OA
ATOM      4  O   UNL     1      58.727  29.432  48.980  1.00  0.00    -0.550 OA
ENDBRANCH   1   2
BRANCH   1   5
ATOM      5  C   UNL     1      55.590  28.846  50.531  1.00  0.00     0.006 C 
BRANCH   5   6
ATOM      6  C   UNL     1      54.461  27.893  50.111  1.00  0.00    -0.003 C 
ATOM      7  C   UNL     1      54.969  26.502  49.736  1.00  0.00     0.004 C 
ENDBRANCH   5   6
ENDBRANCH   1   5
TORSDOF 3
ENDMDL
MODEL 3
REMARK VINA RESULT:    -2.617      1.574      1.853
REMARK INTER + INTRA:          -3.108
REMARK INTER:                  -3.004
REMARK INTRA:                  -0.104
REMARK UNBOUND:                -0.032
REMARK SMILES CCCCC(=O)[O-]
REMARK SMILES IDX 4 1 5 2 6 3 7 4 3 5 2 6 1 7
REMARK H PARENT
REMARK Flexibility Score: inf
ROOT
ATOM      1  C   UNL     1      61.071  31.114  61.744  1.00  0.00     0.053 C 
ENDROOT
BRANCH   1   2
ATOM      2  C   UNL     1      62.175  30.104  61.727  1.00  0.00     0.041 C 
ATOM      3  O   UNL     1      63.377  30.480  61.751  1.00  0.00    -0.550 OA
ATOM      4  O   UNL     1      61.877  28.748  61.735  1.00  0.00    -0.550 OA
ENDBRANCH   1   2
BRANCH   1   5
ATOM      5  C   UNL     1      61.049  31.905  60.430  1.00  0.00     0.006 C 
BRANCH   5   6
ATOM      6  C   UNL     1      61.286  33.408  60.644  1.00  0.00    -0.003 C 
ATOM      7  C   UNL     1      62.769  33.775  60.665  1.00  0.00     0.004 C 
ENDBRANCH   5   6
ENDBRANCH   1   5
TORSDOF 3
ENDMDL
MODEL 4
REMARK VINA RESULT:    -2.611      2.989      4.433
REMARK INTER + INTRA:          -3.101
REMARK INTER:                  -3.078
REMARK INTRA:                  -0.023
REMARK UNBOUND:                -0.032
REMARK SMILES CCCCC(=O)[O-]
REMARK SMILES IDX 4 1 5 2 6 3 7 4 3 5 2 6 1 7
REMARK H PARENT
REMARK Flexibility Score: inf
ROOT
ATOM      1  C   UNL     1      61.609  34.418  60.409  1.00  0.00     0.053 C 
ENDROOT
BRANCH   1   2
ATOM      2  C   UNL     1      62.571  35.375  61.039  1.00  0.00     0.041 C 
ATOM      3  O   UNL     1      63.755  35.018  61.276  1.00  0.00    -0.550 OA
ATOM      4  O   UNL     1      62.175  36.677  61.317  1.00  0.00    -0.550 OA
ENDBRANCH   1   2
BRANCH   1   5
ATOM      5  C   UNL     1      62.044  32.971  60.673  1.00  0.00     0.006 C 
BRANCH   5   6
ATOM      6  C   UNL     1      60.857  32.046  60.984  1.00  0.00    -0.003 C 
ATOM      7  C   UNL     1      61.260  30.820  61.801  1.00  0.00     0.004 C 
ENDBRANCH   5   6
ENDBRANCH   1   5
TORSDOF 3
ENDMDL
MODEL 5
REMARK VINA RESULT:    -2.560      2.656      3.481
REMARK INTER + INTRA:          -3.041
REMARK INTER:                  -2.999
REMARK INTRA:                  -0.042
REMARK UNBOUND:                -0.032
REMARK SMILES CCCCC(=O)[O-]
REMARK SMILES IDX 4 1 5 2 6 3 7 4 3 5 2 6 1 7
REMARK H PARENT
REMARK Flexibility Score: inf
ROOT
ATOM      1  C   UNL     1      63.281  30.683  61.509  1.00  0.00     0.053 C 
ENDROOT
BRANCH   1   2
ATOM      2  C   UNL     1      64.216  29.625  61.013  1.00  0.00     0.041 C 
ATOM      3  O   UNL     1      65.380  29.931  60.642  1.00  0.00    -0.550 OA
ATOM      4  O   UNL     1      63.818  28.294  61.008  1.00  0.00    -0.550 OA
ENDBRANCH   1   2
BRANCH   1   5
ATOM      5  C   UNL     1      61.913  30.077  61.842  1.00  0.00     0.006 C 
BRANCH   5   6
ATOM      6  C   UNL     1      60.780  31.114  61.791  1.00  0.00    -0.003 C 
ATOM      7  C   UNL     1      61.112  32.308  60.896  1.00  0.00     0.004 C 
ENDBRANCH   5   6
ENDBRANCH   1   5
TORSDOF 3
ENDMDL
MODEL 6
REMARK VINA RESULT:    -2.514     12.871     13.321
REMARK INTER + INTRA:          -2.986
REMARK INTER:                  -2.967
REMARK INTRA:                  -0.019
REMARK UNBOUND:                -0.032
REMARK SMILES CCCCC(=O)[O-]
REMARK SMILES IDX 4 1 5 2 6 3 7 4 3 5 2 6 1 7
REMARK H PARENT
REMARK Flexibility Score: inf
ROOT
ATOM      1  C   UNL     1      57.805  28.673  50.106  1.00  0.00     0.053 C 
ENDROOT
BRANCH   1   2
ATOM      2  C   UNL     1      58.870  27.772  49.564  1.00  0.00     0.041 C 
ATOM      3  O   UNL     1      59.909  28.261  49.046  1.00  0.00    -0.550 OA
ATOM      4  O   UNL     1      58.738  26.395  49.676  1.00  0.00    -0.550 OA
ENDBRANCH   1   2
BRANCH   1   5
ATOM      5  C   UNL     1      56.515  27.884  50.363  1.00  0.00     0.006 C 
BRANCH   5   6
ATOM      6  C   UNL     1      55.275  28.788  50.433  1.00  0.00    -0.003 C 
ATOM      7  C   UNL     1      54.004  28.088  49.955  1.00  0.00     0.004 C 
ENDBRANCH   5   6
ENDBRANCH   1   5
TORSDOF 3
ENDMDL
MODEL 7
REMARK VINA RESULT:    -2.509      1.809      2.632
REMARK INTER + INTRA:          -2.981
REMARK INTER:                  -2.950
REMARK INTRA:                  -0.031
REMARK UNBOUND:                -0.032
REMARK SMILES CCCCC(=O)[O-]
REMARK SMILES IDX 4 1 5 2 6 3 7 4 3 5 2 6 1 7
REMARK H PARENT
REMARK Flexibility Score: inf
ROOT
ATOM      1  C   UNL     1      62.583  33.794  60.651  1.00  0.00     0.053 C 
ENDROOT
BRANCH   1   2
ATOM      2  C   UNL     1      61.392  32.912  60.444  1.00  0.00     0.041 C 
ATOM      3  O   UNL     1      61.083  32.054  61.313  1.00  0.00    -0.550 OA
ATOM      4  O   UNL     1      60.596  33.071  59.318  1.00  0.00    -0.550 OA
ENDBRANCH   1   2
BRANCH   1   5
ATOM      5  C   UNL     1      62.145  35.254  60.820  1.00  0.00     0.006 C 
BRANCH   5   6
ATOM      6  C   UNL     1      63.286  36.159  61.310  1.00  0.00    -0.003 C 
ATOM      7  C   UNL     1      64.540  35.374  61.693  1.00  0.00     0.004 C 
ENDBRANCH   5   6
ENDBRANCH   1   5
TORSDOF 3
ENDMDL
MODEL 8
REMARK VINA RESULT:    -2.465      2.002      2.663
REMARK INTER + INTRA:          -2.930
REMARK INTER:                  -2.912
REMARK INTRA:                  -0.018
REMARK UNBOUND:                -0.032
REMARK SMILES CCCCC(=O)[O-]
REMARK SMILES IDX 4 1 5 2 6 3 7 4 3 5 2 6 1 7
REMARK H PARENT
REMARK Flexibility Score: inf
ROOT
ATOM      1  C   UNL     1      63.896  33.832  60.982  1.00  0.00     0.053 C 
ENDROOT
BRANCH   1   2
ATOM      2  C   UNL     1      63.928  32.370  60.666  1.00  0.00     0.041 C 
ATOM      3  O   UNL     1      64.906  31.878  60.045  1.00  0.00    -0.550 OA
ATOM      4  O   UNL     1      62.901  31.543  61.102  1.00  0.00    -0.550 OA
ENDBRANCH   1   2
BRANCH   1   5
ATOM      5  C   UNL     1      62.504  34.412  60.700  1.00  0.00     0.006 C 
BRANCH   5   6
ATOM      6  C   UNL     1      62.399  35.898  61.072  1.00  0.00    -0.003 C 
ATOM      7  C   UNL     1      61.019  36.486  60.776  1.00  0.00     0.004 C 
ENDBRANCH   5   6
ENDBRANCH   1   5
TORSDOF 3
ENDMDL
MODEL 9
REMARK VINA RESULT:    -2.416     13.671     14.188
REMARK INTER + INTRA:          -2.871
REMARK INTER:                  -2.839
REMARK INTRA:                  -0.032
REMARK UNBOUND:                -0.032
REMARK SMILES CCCCC(=O)[O-]
REMARK SMILES IDX 4 1 5 2 6 3 7 4 3 5 2 6 1 7
REMARK H PARENT
REMARK Flexibility Score: inf
ROOT
ATOM      1  C   UNL     1      55.957  26.321  50.116  1.00  0.00     0.053 C 
ENDROOT
BRANCH   1   2
ATOM      2  C   UNL     1      57.364  26.746  50.398  1.00  0.00     0.041 C 
ATOM      3  O   UNL     1      58.321  26.225  49.766  1.00  0.00    -0.550 OA
ATOM      4  O   UNL     1      57.614  27.753  51.321  1.00  0.00    -0.550 OA
ENDBRANCH   1   2
BRANCH   1   5
ATOM      5  C   UNL     1      55.024  27.537  50.095  1.00  0.00     0.006 C 
BRANCH   5   6
ATOM      6  C   UNL     1      53.601  27.180  49.639  1.00  0.00    -0.003 C 
ATOM      7  C   UNL     1      53.516  25.799  48.992  1.00  0.00     0.004 C 
ENDBRANCH   5   6
ENDBRANCH   1   5
TORSDOF 3
ENDMDL
