MODEL 1
REMARK VINA RESULT:    -2.800      0.000      0.000
REMARK INTER + INTRA:          -2.881
REMARK INTER:                  -2.881
REMARK INTRA:                   0.000
REMARK UNBOUND:                 0.000
REMARK SMILES CC1(C)[C@@H]2CC[C@@]1(C)[C@@H](O)C2
REMARK SMILES IDX 1 1 2 2 4 3 5 4 6 5 7 6 9 7 11 8 8 9 3 10 10 11
REMARK H PARENT 10 12
REMARK Flexibility Score: inf
ROOT
ATOM      1  C   UNL     1     131.320 144.796 141.417  1.00  0.00     0.012 C 
ATOM      2  C   UNL     1     130.606 145.584 140.275  1.00  0.00    -0.025 C 
ATOM      3  C   UNL     1     129.652 144.724 139.429  1.00  0.00    -0.002 C 
ATOM      4  C   UNL     1     130.596 143.693 138.763  1.00  0.00     0.005 C 
ATOM      5  C   UNL     1     131.874 144.516 138.505  1.00  0.00     0.010 C 
ATOM      6  C   UNL     1     131.487 145.922 139.048  1.00  0.00    -0.001 C 
ATOM      7  C   UNL     1     130.463 146.545 138.051  1.00  0.00     0.121 C 
ATOM      8  C   UNL     1     129.200 145.686 138.301  1.00  0.00     0.036 C 
ATOM      9  C   UNL     1     132.697 146.822 139.321  1.00  0.00     0.015 C 
ATOM     10  C   UNL     1     129.913 146.798 140.966  1.00  0.00     0.012 C 
ENDROOT
BRANCH   7  11
ATOM     11  O   UNL     1     130.897 146.454 136.718  1.00  0.00    -0.393 OA
ATOM     12  H   UNL     1     130.209 146.909 136.166  1.00  0.00     0.210 HD
ENDBRANCH   7  11
TORSDOF 1
ENDMDL
MODEL 2
REMARK VINA RESULT:    -2.775     11.461     13.228
REMARK INTER + INTRA:          -2.856
REMARK INTER:                  -2.856
REMARK INTRA:                   0.000
REMARK UNBOUND:                 0.000
REMARK SMILES CC1(C)[C@@H]2CC[C@@]1(C)[C@@H](O)C2
REMARK SMILES IDX 1 1 2 2 4 3 5 4 6 5 7 6 9 7 11 8 8 9 3 10 10 11
REMARK H PARENT 10 12
REMARK Flexibility Score: inf
ROOT
ATOM      1  C   UNL     1     141.251 145.855 139.580  1.00  0.00     0.012 C 
ATOM      2  C   UNL     1     142.650 145.164 139.585  1.00  0.00    -0.025 C 
ATOM      3  C   UNL     1     143.189 144.862 140.994  1.00  0.00    -0.002 C 
ATOM      4  C   UNL     1     143.363 146.268 141.619  1.00  0.00     0.005 C 
ATOM      5  C   UNL     1     143.812 147.123 140.417  1.00  0.00     0.010 C 
ATOM      6  C   UNL     1     143.850 146.085 139.258  1.00  0.00    -0.001 C 
ATOM      7  C   UNL     1     145.075 145.154 139.502  1.00  0.00     0.121 C 
ATOM      8  C   UNL     1     144.620 144.328 140.728  1.00  0.00     0.036 C 
ATOM      9  C   UNL     1     143.839 146.728 137.866  1.00  0.00     0.015 C 
ATOM     10  C   UNL     1     142.502 143.899 138.685  1.00  0.00     0.012 C 
ENDROOT
BRANCH   7  11
ATOM     11  O   UNL     1     146.248 145.879 139.770  1.00  0.00    -0.393 OA
ATOM     12  H   UNL     1     146.556 146.247 138.902  1.00  0.00     0.210 HD
ENDBRANCH   7  11
TORSDOF 1
ENDMDL
MODEL 3
REMARK VINA RESULT:    -2.757     10.972     12.271
REMARK INTER + INTRA:          -2.838
REMARK INTER:                  -2.838
REMARK INTRA:                   0.000
REMARK UNBOUND:                 0.000
REMARK SMILES CC1(C)[C@@H]2CC[C@@]1(C)[C@@H](O)C2
REMARK SMILES IDX 1 1 2 2 4 3 5 4 6 5 7 6 9 7 11 8 8 9 3 10 10 11
REMARK H PARENT 10 12
REMARK Flexibility Score: inf
ROOT
ATOM      1  C   UNL     1     145.082 145.112 139.555  1.00  0.00     0.012 C 
ATOM      2  C   UNL     1     143.887 146.088 139.790  1.00  0.00    -0.025 C 
ATOM      3  C   UNL     1     142.672 145.430 140.467  1.00  0.00    -0.002 C 
ATOM      4  C   UNL     1     142.213 144.375 139.431  1.00  0.00     0.005 C 
ATOM      5  C   UNL     1     142.493 145.073 138.085  1.00  0.00     0.010 C 
ATOM      6  C   UNL     1     143.065 146.450 138.530  1.00  0.00    -0.001 C 
ATOM      7  C   UNL     1     141.884 147.281 139.117  1.00  0.00     0.121 C 
ATOM      8  C   UNL     1     141.598 146.547 140.448  1.00  0.00     0.036 C 
ATOM      9  C   UNL     1     143.831 147.178 137.419  1.00  0.00     0.015 C 
ATOM     10  C   UNL     1     144.473 147.294 140.586  1.00  0.00     0.012 C 
ENDROOT
BRANCH   7  11
ATOM     11  O   UNL     1     140.762 147.280 138.271  1.00  0.00    -0.393 OA
ATOM     12  H   UNL     1     141.074 147.615 137.390  1.00  0.00     0.210 HD
ENDBRANCH   7  11
TORSDOF 1
ENDMDL
MODEL 4
REMARK VINA RESULT:    -2.749      1.401      2.336
REMARK INTER + INTRA:          -2.829
REMARK INTER:                  -2.829
REMARK INTRA:                   0.000
REMARK UNBOUND:                 0.000
REMARK SMILES CC1(C)[C@@H]2CC[C@@]1(C)[C@@H](O)C2
REMARK SMILES IDX 1 1 2 2 4 3 5 4 6 5 7 6 9 7 11 8 8 9 3 10 10 11
REMARK H PARENT 10 12
REMARK Flexibility Score: inf
ROOT
ATOM      1  C   UNL     1     132.987 147.005 139.597  1.00  0.00     0.012 C 
ATOM      2  C   UNL     1     131.680 146.180 139.811  1.00  0.00    -0.025 C 
ATOM      3  C   UNL     1     131.907 144.825 140.503  1.00  0.00    -0.002 C 
ATOM      4  C   UNL     1     132.786 144.050 139.492  1.00  0.00     0.005 C 
ATOM      5  C   UNL     1     132.240 144.524 138.131  1.00  0.00     0.010 C 
ATOM      6  C   UNL     1     131.104 145.504 138.543  1.00  0.00    -0.001 C 
ATOM      7  C   UNL     1     129.931 144.649 139.112  1.00  0.00     0.121 C 
ATOM      8  C   UNL     1     130.509 144.157 140.460  1.00  0.00     0.036 C 
ATOM      9  C   UNL     1     130.678 146.451 137.415  1.00  0.00     0.015 C 
ATOM     10  C   UNL     1     130.703 147.122 140.579  1.00  0.00     0.012 C 
ENDROOT
BRANCH   7  11
ATOM     11  O   UNL     1     129.597 143.577 138.267  1.00  0.00    -0.393 OA
ATOM     12  H   UNL     1     130.423 143.344 137.769  1.00  0.00     0.210 HD
ENDBRANCH   7  11
TORSDOF 1
ENDMDL
MODEL 5
REMARK VINA RESULT:    -2.734     10.982     12.486
REMARK INTER + INTRA:          -2.814
REMARK INTER:                  -2.814
REMARK INTRA:                   0.000
REMARK UNBOUND:                 0.000
REMARK SMILES CC1(C)[C@@H]2CC[C@@]1(C)[C@@H](O)C2
REMARK SMILES IDX 1 1 2 2 4 3 5 4 6 5 7 6 9 7 11 8 8 9 3 10 10 11
REMARK H PARENT 10 12
REMARK Flexibility Score: inf
ROOT
ATOM      1  C   UNL     1     142.628 145.705 141.458  1.00  0.00     0.012 C 
ATOM      2  C   UNL     1     143.049 146.719 140.349  1.00  0.00    -0.025 C 
ATOM      3  C   UNL     1     141.872 147.240 139.505  1.00  0.00    -0.002 C 
ATOM      4  C   UNL     1     141.349 145.967 138.797  1.00  0.00     0.005 C 
ATOM      5  C   UNL     1     142.641 145.169 138.530  1.00  0.00     0.010 C 
ATOM      6  C   UNL     1     143.742 146.102 139.111  1.00  0.00    -0.001 C 
ATOM      7  C   UNL     1     143.879 147.321 138.150  1.00  0.00     0.121 C 
ATOM      8  C   UNL     1     142.562 148.091 138.409  1.00  0.00     0.036 C 
ATOM      9  C   UNL     1     145.070 145.383 139.378  1.00  0.00     0.015 C 
ATOM     10  C   UNL     1     143.843 147.844 141.080  1.00  0.00     0.012 C 
ENDROOT
BRANCH   7  11
ATOM     11  O   UNL     1     143.996 146.928 136.806  1.00  0.00    -0.393 OA
ATOM     12  H   UNL     1     143.079 146.702 136.499  1.00  0.00     0.210 HD
ENDBRANCH   7  11
TORSDOF 1
ENDMDL
MODEL 6
REMARK VINA RESULT:    -2.676      1.376      2.357
REMARK INTER + INTRA:          -2.755
REMARK INTER:                  -2.755
REMARK INTRA:                   0.000
REMARK UNBOUND:                 0.000
REMARK SMILES CC1(C)[C@@H]2CC[C@@]1(C)[C@@H](O)C2
REMARK SMILES IDX 1 1 2 2 4 3 5 4 6 5 7 6 9 7 11 8 8 9 3 10 10 11
REMARK H PARENT 10 12
REMARK Flexibility Score: inf
ROOT
ATOM      1  C   UNL     1     130.120 143.412 138.985  1.00  0.00     0.012 C 
ATOM      2  C   UNL     1     130.617 144.663 139.775  1.00  0.00    -0.025 C 
ATOM      3  C   UNL     1     129.697 145.888 139.642  1.00  0.00    -0.002 C 
ATOM      4  C   UNL     1     129.772 146.230 138.135  1.00  0.00     0.005 C 
ATOM      5  C   UNL     1     131.234 145.896 137.781  1.00  0.00     0.010 C 
ATOM      6  C   UNL     1     131.812 145.417 139.143  1.00  0.00    -0.001 C 
ATOM      7  C   UNL     1     131.952 146.669 140.060  1.00  0.00     0.121 C 
ATOM      8  C   UNL     1     130.476 147.008 140.378  1.00  0.00     0.036 C 
ATOM      9  C   UNL     1     133.111 144.614 139.004  1.00  0.00     0.015 C 
ATOM     10  C   UNL     1     130.819 144.184 141.245  1.00  0.00     0.012 C 
ENDROOT
BRANCH   7  11
ATOM     11  O   UNL     1     132.601 147.733 139.411  1.00  0.00    -0.393 OA
ATOM     12  H   UNL     1     132.584 148.499 140.042  1.00  0.00     0.210 HD
ENDBRANCH   7  11
TORSDOF 1
ENDMDL
MODEL 7
REMARK VINA RESULT:    -2.666     10.864     12.727
REMARK INTER + INTRA:          -2.744
REMARK INTER:                  -2.744
REMARK INTRA:                   0.000
REMARK UNBOUND:                 0.000
REMARK SMILES CC1(C)[C@@H]2CC[C@@]1(C)[C@@H](O)C2
REMARK SMILES IDX 1 1 2 2 4 3 5 4 6 5 7 6 9 7 11 8 8 9 3 10 10 11
REMARK H PARENT 10 12
REMARK Flexibility Score: inf
ROOT
ATOM      1  C   UNL     1     140.742 146.697 139.039  1.00  0.00     0.012 C 
ATOM      2  C   UNL     1     142.091 146.622 139.820  1.00  0.00    -0.025 C 
ATOM      3  C   UNL     1     142.944 147.897 139.709  1.00  0.00    -0.002 C 
ATOM      4  C   UNL     1     143.285 147.969 138.201  1.00  0.00     0.005 C 
ATOM      5  C   UNL     1     143.448 146.485 137.816  1.00  0.00     0.010 C 
ATOM      6  C   UNL     1     143.193 145.755 139.166  1.00  0.00    -0.001 C 
ATOM      7  C   UNL     1     144.426 146.017 140.082  1.00  0.00     0.121 C 
ATOM      8  C   UNL     1     144.262 147.515 140.431  1.00  0.00     0.036 C 
ATOM      9  C   UNL     1     142.861 144.267 138.999  1.00  0.00     0.015 C 
ATOM     10  C   UNL     1     141.713 146.245 141.285  1.00  0.00     0.012 C 
ENDROOT
BRANCH   7  11
ATOM     11  O   UNL     1     145.640 145.767 139.422  1.00  0.00    -0.393 OA
ATOM     12  H   UNL     1     146.149 146.619 139.437  1.00  0.00     0.210 HD
ENDBRANCH   7  11
TORSDOF 1
ENDMDL
MODEL 8
REMARK VINA RESULT:    -2.665      1.490      2.882
REMARK INTER + INTRA:          -2.743
REMARK INTER:                  -2.743
REMARK INTRA:                   0.000
REMARK UNBOUND:                 0.000
REMARK SMILES CC1(C)[C@@H]2CC[C@@]1(C)[C@@H](O)C2
REMARK SMILES IDX 1 1 2 2 4 3 5 4 6 5 7 6 9 7 11 8 8 9 3 10 10 11
REMARK H PARENT 10 12
REMARK Flexibility Score: inf
ROOT
ATOM      1  C   UNL     1     131.620 147.324 140.056  1.00  0.00     0.012 C 
ATOM      2  C   UNL     1     131.405 145.813 139.728  1.00  0.00    -0.025 C 
ATOM      3  C   UNL     1     131.850 145.416 138.310  1.00  0.00    -0.002 C 
ATOM      4  C   UNL     1     130.901 146.229 137.396  1.00  0.00     0.005 C 
ATOM      5  C   UNL     1     129.578 146.225 138.189  1.00  0.00     0.010 C 
ATOM      6  C   UNL     1     129.942 145.394 139.452  1.00  0.00    -0.001 C 
ATOM      7  C   UNL     1     130.089 143.907 139.008  1.00  0.00     0.121 C 
ATOM      8  C   UNL     1     131.401 143.937 138.190  1.00  0.00     0.036 C 
ATOM      9  C   UNL     1     128.960 145.590 140.613  1.00  0.00     0.015 C 
ATOM     10  C   UNL     1     132.134 145.025 140.859  1.00  0.00     0.012 C 
ENDROOT
BRANCH   7  11
ATOM     11  O   UNL     1     129.002 143.475 138.230  1.00  0.00    -0.393 OA
ATOM     12  H   UNL     1     129.226 142.560 137.916  1.00  0.00     0.210 HD
ENDBRANCH   7  11
TORSDOF 1
ENDMDL
