MODEL 1
REMARK VINA RESULT:    -5.397      0.000      0.000
REMARK INTER + INTRA:          -6.149
REMARK INTER:                  -6.028
REMARK INTRA:                  -0.121
REMARK UNBOUND:                -0.121
REMARK SMILES COc1cc2ccc(=O)oc2cc1OC
REMARK SMILES IDX 3 1 13 2 12 3 11 4 5 5 4 6 6 7 7 8 8 9 9 10 10 11 2 12 1 13
REMARK SMILES IDX 14 14 15 15
REMARK H PARENT
REMARK Flexibility Score: inf
ROOT
ATOM      1  C   UNL     1     -17.584  -1.997 -15.935  1.00  0.00     0.161 A 
ATOM      2  C   UNL     1     -16.935  -1.817 -17.168  1.00  0.00     0.164 A 
ATOM      3  C   UNL     1     -16.630  -0.516 -17.615  1.00  0.00     0.098 A 
ATOM      4  C   UNL     1     -16.969   0.595 -16.839  1.00  0.00     0.142 A 
ATOM      5  C   UNL     1     -17.619   0.416 -15.601  1.00  0.00     0.022 A 
ATOM      6  C   UNL     1     -17.924  -0.876 -15.152  1.00  0.00     0.062 A 
ATOM      7  C   UNL     1     -17.945   1.548 -14.848  1.00  0.00     0.019 A 
ATOM      8  C   UNL     1     -17.620   2.813 -15.338  1.00  0.00     0.094 A 
ATOM      9  C   UNL     1     -16.975   2.915 -16.575  1.00  0.00     0.336 A 
ATOM     10  O   UNL     1     -16.673   4.047 -17.034  1.00  0.00    -0.246 OA
ATOM     11  O   UNL     1     -16.677   1.820 -17.270  1.00  0.00    -0.423 OA
ENDROOT
BRANCH   1  12
ATOM     12  O   UNL     1     -17.871  -3.308 -15.521  1.00  0.00    -0.493 OA
ATOM     13  C   UNL     1     -19.104  -3.979 -15.763  1.00  0.00     0.278 C 
ENDBRANCH   1  12
BRANCH   2  14
ATOM     14  O   UNL     1     -16.610  -2.957 -17.922  1.00  0.00    -0.493 OA
ATOM     15  C   UNL     1     -15.312  -3.535 -17.991  1.00  0.00     0.278 C 
ENDBRANCH   2  14
TORSDOF 2
ENDMDL
MODEL 2
REMARK VINA RESULT:    -5.079      1.399      5.020
REMARK INTER + INTRA:          -5.794
REMARK INTER:                  -5.885
REMARK INTRA:                   0.091
REMARK UNBOUND:                -0.121
REMARK SMILES COc1cc2ccc(=O)oc2cc1OC
REMARK SMILES IDX 3 1 13 2 12 3 11 4 5 5 4 6 6 7 7 8 8 9 9 10 10 11 2 12 1 13
REMARK SMILES IDX 14 14 15 15
REMARK H PARENT
REMARK Flexibility Score: inf
ROOT
ATOM      1  C   UNL     1     -17.324   1.618 -15.879  1.00  0.00     0.161 A 
ATOM      2  C   UNL     1     -16.724   1.228 -17.088  1.00  0.00     0.164 A 
ATOM      3  C   UNL     1     -16.746  -0.127 -17.475  1.00  0.00     0.098 A 
ATOM      4  C   UNL     1     -17.359  -1.084 -16.663  1.00  0.00     0.142 A 
ATOM      5  C   UNL     1     -17.961  -0.694 -15.450  1.00  0.00     0.022 A 
ATOM      6  C   UNL     1     -17.942   0.652 -15.061  1.00  0.00     0.062 A 
ATOM      7  C   UNL     1     -18.566  -1.676 -14.659  1.00  0.00     0.019 A 
ATOM      8  C   UNL     1     -18.558  -3.002 -15.090  1.00  0.00     0.094 A 
ATOM      9  C   UNL     1     -17.942  -3.316 -16.306  1.00  0.00     0.336 A 
ATOM     10  O   UNL     1     -17.924  -4.507 -16.712  1.00  0.00    -0.246 OA
ATOM     11  O   UNL     1     -17.374  -2.361 -17.037  1.00  0.00    -0.423 OA
ENDROOT
BRANCH   1  12
ATOM     12  O   UNL     1     -17.284   2.976 -15.526  1.00  0.00    -0.493 OA
ATOM     13  C   UNL     1     -18.034   4.001 -16.171  1.00  0.00     0.278 C 
ENDBRANCH   1  12
BRANCH   2  14
ATOM     14  O   UNL     1     -16.116   2.217 -17.879  1.00  0.00    -0.493 OA
ATOM     15  C   UNL     1     -14.766   2.644 -17.741  1.00  0.00     0.278 C 
ENDBRANCH   2  14
TORSDOF 2
ENDMDL
MODEL 3
REMARK VINA RESULT:    -5.033      1.104      2.758
REMARK INTER + INTRA:          -5.742
REMARK INTER:                  -5.612
REMARK INTRA:                  -0.130
REMARK UNBOUND:                -0.121
REMARK SMILES COc1cc2ccc(=O)oc2cc1OC
REMARK SMILES IDX 3 1 13 2 12 3 11 4 5 5 4 6 6 7 7 8 8 9 9 10 10 11 2 12 1 13
REMARK SMILES IDX 14 14 15 15
REMARK H PARENT
REMARK Flexibility Score: inf
ROOT
ATOM      1  C   UNL     1     -16.530  -1.274 -17.458  1.00  0.00     0.161 A 
ATOM      2  C   UNL     1     -17.339  -1.299 -16.310  1.00  0.00     0.164 A 
ATOM      3  C   UNL     1     -17.722  -0.090 -15.697  1.00  0.00     0.098 A 
ATOM      4  C   UNL     1     -17.302   1.134 -16.224  1.00  0.00     0.142 A 
ATOM      5  C   UNL     1     -16.491   1.160 -17.377  1.00  0.00     0.022 A 
ATOM      6  C   UNL     1     -16.107  -0.039 -17.990  1.00  0.00     0.062 A 
ATOM      7  C   UNL     1     -16.087   2.401 -17.879  1.00  0.00     0.019 A 
ATOM      8  C   UNL     1     -16.495   3.568 -17.233  1.00  0.00     0.094 A 
ATOM      9  C   UNL     1     -17.300   3.465 -16.094  1.00  0.00     0.336 A 
ATOM     10  O   UNL     1     -17.679   4.506 -15.496  1.00  0.00    -0.246 OA
ATOM     11  O   UNL     1     -17.669   2.271 -15.638  1.00  0.00    -0.423 OA
ENDROOT
BRANCH   1  12
ATOM     12  O   UNL     1     -16.168  -2.498 -18.043  1.00  0.00    -0.493 OA
ATOM     13  C   UNL     1     -14.899  -3.126 -17.882  1.00  0.00     0.278 C 
ENDBRANCH   1  12
BRANCH   2  14
ATOM     14  O   UNL     1     -17.742  -2.547 -15.807  1.00  0.00    -0.493 OA
ATOM     15  C   UNL     1     -19.094  -2.924 -15.573  1.00  0.00     0.278 C 
ENDBRANCH   2  14
TORSDOF 2
ENDMDL
MODEL 4
REMARK VINA RESULT:    -4.751      1.486      5.601
REMARK INTER + INTRA:          -5.427
REMARK INTER:                  -5.378
REMARK INTRA:                  -0.049
REMARK UNBOUND:                -0.121
REMARK SMILES COc1cc2ccc(=O)oc2cc1OC
REMARK SMILES IDX 3 1 13 2 12 3 11 4 5 5 4 6 6 7 7 8 8 9 9 10 10 11 2 12 1 13
REMARK SMILES IDX 14 14 15 15
REMARK H PARENT
REMARK Flexibility Score: inf
ROOT
ATOM      1  C   UNL     1     -16.261   1.397 -17.458  1.00  0.00     0.161 A 
ATOM      2  C   UNL     1     -17.062   1.615 -16.324  1.00  0.00     0.164 A 
ATOM      3  C   UNL     1     -17.771   0.540 -15.752  1.00  0.00     0.098 A 
ATOM      4  C   UNL     1     -17.683  -0.740 -16.305  1.00  0.00     0.142 A 
ATOM      5  C   UNL     1     -16.879  -0.959 -17.442  1.00  0.00     0.022 A 
ATOM      6  C   UNL     1     -16.172   0.106 -18.015  1.00  0.00     0.062 A 
ATOM      7  C   UNL     1     -16.812  -2.251 -17.972  1.00  0.00     0.019 A 
ATOM      8  C   UNL     1     -17.535  -3.279 -17.366  1.00  0.00     0.094 A 
ATOM      9  C   UNL     1     -18.312  -2.987 -16.240  1.00  0.00     0.336 A 
ATOM     10  O   UNL     1     -18.972  -3.900 -15.678  1.00  0.00    -0.246 OA
ATOM     11  O   UNL     1     -18.357  -1.748 -15.757  1.00  0.00    -0.423 OA
ENDROOT
BRANCH   1  12
ATOM     12  O   UNL     1     -15.568   2.491 -18.001  1.00  0.00    -0.493 OA
ATOM     13  C   UNL     1     -14.247   2.875 -17.630  1.00  0.00     0.278 C 
ENDBRANCH   1  12
BRANCH   2  14
ATOM     14  O   UNL     1     -17.128   2.914 -15.795  1.00  0.00    -0.493 OA
ATOM     15  C   UNL     1     -18.003   3.933 -16.264  1.00  0.00     0.278 C 
ENDBRANCH   2  14
TORSDOF 2
ENDMDL
MODEL 5
REMARK VINA RESULT:    -4.699      3.653      5.808
REMARK INTER + INTRA:          -5.369
REMARK INTER:                  -5.203
REMARK INTRA:                  -0.166
REMARK UNBOUND:                -0.121
REMARK SMILES COc1cc2ccc(=O)oc2cc1OC
REMARK SMILES IDX 3 1 13 2 12 3 11 4 5 5 4 6 6 7 7 8 8 9 9 10 10 11 2 12 1 13
REMARK SMILES IDX 14 14 15 15
REMARK H PARENT
REMARK Flexibility Score: inf
ROOT
ATOM      1  C   UNL     1     -17.286  -4.705 -16.847  1.00  0.00     0.161 A 
ATOM      2  C   UNL     1     -17.076  -3.377 -16.437  1.00  0.00     0.164 A 
ATOM      3  C   UNL     1     -15.771  -2.845 -16.429  1.00  0.00     0.098 A 
ATOM      4  C   UNL     1     -14.686  -3.629 -16.827  1.00  0.00     0.142 A 
ATOM      5  C   UNL     1     -14.895  -4.961 -17.239  1.00  0.00     0.022 A 
ATOM      6  C   UNL     1     -16.190  -5.495 -17.248  1.00  0.00     0.062 A 
ATOM      7  C   UNL     1     -13.788  -5.720 -17.630  1.00  0.00     0.019 A 
ATOM      8  C   UNL     1     -12.518  -5.144 -17.603  1.00  0.00     0.094 A 
ATOM      9  C   UNL     1     -12.386  -3.816 -17.183  1.00  0.00     0.336 A 
ATOM     10  O   UNL     1     -11.249  -3.278 -17.152  1.00  0.00    -0.246 OA
ATOM     11  O   UNL     1     -13.457  -3.118 -16.816  1.00  0.00    -0.423 OA
ENDROOT
BRANCH   1  12
ATOM     12  O   UNL     1     -18.599  -5.201 -16.843  1.00  0.00    -0.493 OA
ATOM     13  C   UNL     1     -19.125  -6.087 -15.858  1.00  0.00     0.278 C 
ENDBRANCH   1  12
BRANCH   2  14
ATOM     14  O   UNL     1     -18.190  -2.618 -16.043  1.00  0.00    -0.493 OA
ATOM     15  C   UNL     1     -18.554  -2.359 -14.692  1.00  0.00     0.278 C 
ENDBRANCH   2  14
TORSDOF 2
ENDMDL
MODEL 6
REMARK VINA RESULT:    -4.668      3.040      4.948
REMARK INTER + INTRA:          -5.334
REMARK INTER:                  -5.225
REMARK INTRA:                  -0.109
REMARK UNBOUND:                -0.121
REMARK SMILES COc1cc2ccc(=O)oc2cc1OC
REMARK SMILES IDX 3 1 13 2 12 3 11 4 5 5 4 6 6 7 7 8 8 9 9 10 10 11 2 12 1 13
REMARK SMILES IDX 14 14 15 15
REMARK H PARENT
REMARK Flexibility Score: inf
ROOT
ATOM      1  C   UNL     1     -13.847  -2.280 -18.452  1.00  0.00     0.161 A 
ATOM      2  C   UNL     1     -13.626  -3.278 -17.488  1.00  0.00     0.164 A 
ATOM      3  C   UNL     1     -14.547  -3.448 -16.434  1.00  0.00     0.098 A 
ATOM      4  C   UNL     1     -15.676  -2.631 -16.343  1.00  0.00     0.142 A 
ATOM      5  C   UNL     1     -15.898  -1.629 -17.310  1.00  0.00     0.022 A 
ATOM      6  C   UNL     1     -14.986  -1.456 -18.360  1.00  0.00     0.062 A 
ATOM      7  C   UNL     1     -17.037  -0.828 -17.191  1.00  0.00     0.019 A 
ATOM      8  C   UNL     1     -17.915  -1.038 -16.128  1.00  0.00     0.094 A 
ATOM      9  C   UNL     1     -17.630  -2.051 -15.206  1.00  0.00     0.336 A 
ATOM     10  O   UNL     1     -18.410  -2.258 -14.240  1.00  0.00    -0.246 OA
ATOM     11  O   UNL     1     -16.539  -2.799 -15.344  1.00  0.00    -0.423 OA
ENDROOT
BRANCH   1  12
ATOM     12  O   UNL     1     -12.909  -2.140 -19.488  1.00  0.00    -0.493 OA
ATOM     13  C   UNL     1     -12.383  -0.895 -19.939  1.00  0.00     0.278 C 
ENDBRANCH   1  12
BRANCH   2  14
ATOM     14  O   UNL     1     -12.481  -4.081 -17.610  1.00  0.00    -0.493 OA
ATOM     15  C   UNL     1     -11.928  -4.864 -16.558  1.00  0.00     0.278 C 
ENDBRANCH   2  14
TORSDOF 2
ENDMDL
MODEL 7
REMARK VINA RESULT:    -4.602      3.762      5.188
REMARK INTER + INTRA:          -5.261
REMARK INTER:                  -5.124
REMARK INTRA:                  -0.137
REMARK UNBOUND:                -0.121
REMARK SMILES COc1cc2ccc(=O)oc2cc1OC
REMARK SMILES IDX 3 1 13 2 12 3 11 4 5 5 4 6 6 7 7 8 8 9 9 10 10 11 2 12 1 13
REMARK SMILES IDX 14 14 15 15
REMARK H PARENT
REMARK Flexibility Score: inf
ROOT
ATOM      1  C   UNL     1     -14.826  -4.550 -17.879  1.00  0.00     0.161 A 
ATOM      2  C   UNL     1     -14.274  -3.495 -17.134  1.00  0.00     0.164 A 
ATOM      3  C   UNL     1     -15.076  -2.794 -16.212  1.00  0.00     0.098 A 
ATOM      4  C   UNL     1     -16.417  -3.142 -16.034  1.00  0.00     0.142 A 
ATOM      5  C   UNL     1     -16.972  -4.201 -16.781  1.00  0.00     0.022 A 
ATOM      6  C   UNL     1     -16.179  -4.901 -17.699  1.00  0.00     0.062 A 
ATOM      7  C   UNL     1     -18.318  -4.525 -16.580  1.00  0.00     0.019 A 
ATOM      8  C   UNL     1     -19.067  -3.798 -15.654  1.00  0.00     0.094 A 
ATOM      9  C   UNL     1     -18.448  -2.760 -14.949  1.00  0.00     0.336 A 
ATOM     10  O   UNL     1     -19.106  -2.093 -14.109  1.00  0.00    -0.246 OA
ATOM     11  O   UNL     1     -17.167  -2.474 -15.160  1.00  0.00    -0.423 OA
ENDROOT
BRANCH   1  12
ATOM     12  O   UNL     1     -13.997  -5.226 -18.788  1.00  0.00    -0.493 OA
ATOM     13  C   UNL     1     -14.010  -5.023 -20.199  1.00  0.00     0.278 C 
ENDBRANCH   1  12
BRANCH   2  14
ATOM     14  O   UNL     1     -12.922  -3.172 -17.339  1.00  0.00    -0.493 OA
ATOM     15  C   UNL     1     -11.857  -3.577 -16.486  1.00  0.00     0.278 C 
ENDBRANCH   2  14
TORSDOF 2
ENDMDL
MODEL 8
REMARK VINA RESULT:    -4.530      3.622      6.241
REMARK INTER + INTRA:          -5.181
REMARK INTER:                  -5.015
REMARK INTRA:                  -0.166
REMARK UNBOUND:                -0.121
REMARK SMILES COc1cc2ccc(=O)oc2cc1OC
REMARK SMILES IDX 3 1 13 2 12 3 11 4 5 5 4 6 6 7 7 8 8 9 9 10 10 11 2 12 1 13
REMARK SMILES IDX 14 14 15 15
REMARK H PARENT
REMARK Flexibility Score: inf
ROOT
ATOM      1  C   UNL     1     -16.520  -3.202 -16.267  1.00  0.00     0.161 A 
ATOM      2  C   UNL     1     -16.964  -4.350 -16.944  1.00  0.00     0.164 A 
ATOM      3  C   UNL     1     -16.028  -5.206 -17.559  1.00  0.00     0.098 A 
ATOM      4  C   UNL     1     -14.663  -4.919 -17.500  1.00  0.00     0.142 A 
ATOM      5  C   UNL     1     -14.216  -3.767 -16.821  1.00  0.00     0.022 A 
ATOM      6  C   UNL     1     -15.142  -2.913 -16.208  1.00  0.00     0.062 A 
ATOM      7  C   UNL     1     -12.843  -3.508 -16.780  1.00  0.00     0.019 A 
ATOM      8  C   UNL     1     -11.960  -4.388 -17.405  1.00  0.00     0.094 A 
ATOM      9  C   UNL     1     -12.475  -5.511 -18.061  1.00  0.00     0.336 A 
ATOM     10  O   UNL     1     -11.696  -6.318 -18.631  1.00  0.00    -0.246 OA
ATOM     11  O   UNL     1     -13.787  -5.733 -18.084  1.00  0.00    -0.423 OA
ENDROOT
BRANCH   1  12
ATOM     12  O   UNL     1     -17.480  -2.373 -15.666  1.00  0.00    -0.493 OA
ATOM     13  C   UNL     1     -17.786  -2.368 -14.274  1.00  0.00     0.278 C 
ENDBRANCH   1  12
BRANCH   2  14
ATOM     14  O   UNL     1     -18.344  -4.607 -16.984  1.00  0.00    -0.493 OA
ATOM     15  C   UNL     1     -19.005  -5.593 -16.199  1.00  0.00     0.278 C 
ENDBRANCH   2  14
TORSDOF 2
ENDMDL
MODEL 9
REMARK VINA RESULT:    -4.198      2.323      5.667
REMARK INTER + INTRA:          -4.810
REMARK INTER:                  -4.695
REMARK INTRA:                  -0.115
REMARK UNBOUND:                -0.121
REMARK SMILES COc1cc2ccc(=O)oc2cc1OC
REMARK SMILES IDX 3 1 13 2 12 3 11 4 5 5 4 6 6 7 7 8 8 9 9 10 10 11 2 12 1 13
REMARK SMILES IDX 14 14 15 15
REMARK H PARENT
REMARK Flexibility Score: inf
ROOT
ATOM      1  C   UNL     1     -17.266  -2.452 -16.666  1.00  0.00     0.161 A 
ATOM      2  C   UNL     1     -16.459  -1.483 -17.285  1.00  0.00     0.164 A 
ATOM      3  C   UNL     1     -15.244  -1.867 -17.889  1.00  0.00     0.098 A 
ATOM      4  C   UNL     1     -14.839  -3.204 -17.875  1.00  0.00     0.142 A 
ATOM      5  C   UNL     1     -15.650  -4.176 -17.254  1.00  0.00     0.022 A 
ATOM      6  C   UNL     1     -16.858  -3.800 -16.653  1.00  0.00     0.062 A 
ATOM      7  C   UNL     1     -15.216  -5.505 -17.257  1.00  0.00     0.019 A 
ATOM      8  C   UNL     1     -14.006  -5.830 -17.868  1.00  0.00     0.094 A 
ATOM      9  C   UNL     1     -13.254  -4.812 -18.465  1.00  0.00     0.336 A 
ATOM     10  O   UNL     1     -12.159  -5.085 -19.022  1.00  0.00    -0.246 OA
ATOM     11  O   UNL     1     -13.691  -3.556 -18.447  1.00  0.00    -0.423 OA
ENDROOT
BRANCH   1  12
ATOM     12  O   UNL     1     -18.470  -2.033 -16.076  1.00  0.00    -0.493 OA
ATOM     13  C   UNL     1     -18.790  -2.190 -14.696  1.00  0.00     0.278 C 
ENDBRANCH   1  12
BRANCH   2  14
ATOM     14  O   UNL     1     -16.896  -0.149 -17.280  1.00  0.00    -0.493 OA
ATOM     15  C   UNL     1     -16.169   0.941 -17.836  1.00  0.00     0.278 C 
ENDBRANCH   2  14
TORSDOF 2
ENDMDL
