MODEL 1
REMARK VINA RESULT:    -0.853      0.000      0.000
REMARK INTER + INTRA:          -0.903
REMARK INTER:                  -0.903
REMARK INTRA:                   0.000
REMARK UNBOUND:                 0.000
REMARK SMILES O=c1ccc2cc(O)c(O)cc2o1
REMARK SMILES IDX 4 1 3 2 2 3 1 4 13 5 12 6 11 7 9 8 7 9 6 10 5 11 8 12 10 14
REMARK H PARENT 8 13 10 15
REMARK Flexibility Score: inf
ROOT
ATOM      1  C   UNL     1      -0.653  -0.300  -1.303  1.00  0.00     0.019 A 
ATOM      2  C   UNL     1       0.323  -1.199  -0.875  1.00  0.00     0.094 A 
ATOM      3  C   UNL     1       1.571  -1.198  -1.509  1.00  0.00     0.336 A 
ATOM      4  O   UNL     1       2.464  -2.003  -1.136  1.00  0.00    -0.246 OA
ATOM      5  O   UNL     1       1.819  -0.352  -2.506  1.00  0.00    -0.423 OA
ATOM      6  C   UNL     1       0.916   0.522  -2.944  1.00  0.00     0.142 A 
ATOM      7  C   UNL     1       1.234   1.388  -3.995  1.00  0.00     0.098 A 
ATOM      8  C   UNL     1       0.287   2.311  -4.461  1.00  0.00     0.161 A 
ATOM      9  C   UNL     1      -0.986   2.367  -3.873  1.00  0.00     0.158 A 
ATOM     10  C   UNL     1      -1.310   1.501  -2.819  1.00  0.00     0.062 A 
ATOM     11  C   UNL     1      -0.364   0.579  -2.351  1.00  0.00     0.022 A 
ENDROOT
BRANCH   9  12
ATOM     12  O   UNL     1      -1.921   3.287  -4.343  1.00  0.00    -0.504 OA
ATOM     13  H   UNL     1      -2.188   4.098  -3.796  1.00  0.00     0.293 HD
ENDBRANCH   9  12
BRANCH   8  14
ATOM     14  O   UNL     1       0.602   3.175  -5.509  1.00  0.00    -0.504 OA
ATOM     15  H   UNL     1       1.420   3.030  -6.088  1.00  0.00     0.293 HD
ENDBRANCH   8  14
TORSDOF 2
ENDMDL
MODEL 2
REMARK VINA RESULT:    -0.608     19.268     20.243
REMARK INTER + INTRA:          -0.644
REMARK INTER:                  -0.644
REMARK INTRA:                   0.000
REMARK UNBOUND:                 0.000
REMARK SMILES O=c1ccc2cc(O)c(O)cc2o1
REMARK SMILES IDX 4 1 3 2 2 3 1 4 13 5 12 6 11 7 9 8 7 9 6 10 5 11 8 12 10 14
REMARK H PARENT 8 13 10 15
REMARK Flexibility Score: inf
ROOT
ATOM      1  C   UNL     1      17.765   6.837 -10.502  1.00  0.00     0.019 A 
ATOM      2  C   UNL     1      17.859   6.576  -9.136  1.00  0.00     0.094 A 
ATOM      3  C   UNL     1      18.037   5.255  -8.709  1.00  0.00     0.336 A 
ATOM      4  O   UNL     1      18.124   4.999  -7.479  1.00  0.00    -0.246 OA
ATOM      5  O   UNL     1      18.112   4.265  -9.595  1.00  0.00    -0.423 OA
ATOM      6  C   UNL     1      18.026   4.471 -10.908  1.00  0.00     0.142 A 
ATOM      7  C   UNL     1      18.113   3.392 -11.791  1.00  0.00     0.098 A 
ATOM      8  C   UNL     1      18.024   3.603 -13.175  1.00  0.00     0.161 A 
ATOM      9  C   UNL     1      17.846   4.901 -13.676  1.00  0.00     0.158 A 
ATOM     10  C   UNL     1      17.758   5.988 -12.794  1.00  0.00     0.062 A 
ATOM     11  C   UNL     1      17.848   5.778 -11.411  1.00  0.00     0.022 A 
ENDROOT
BRANCH   9  12
ATOM     12  O   UNL     1      17.758   5.102 -15.052  1.00  0.00    -0.504 OA
ATOM     13  H   UNL     1      18.487   4.786 -15.682  1.00  0.00     0.293 HD
ENDBRANCH   9  12
BRANCH   8  14
ATOM     14  O   UNL     1      18.110   2.528 -14.059  1.00  0.00    -0.504 OA
ATOM     15  H   UNL     1      17.488   2.445 -14.853  1.00  0.00     0.293 HD
ENDBRANCH   8  14
TORSDOF 2
ENDMDL
MODEL 3
REMARK VINA RESULT:    -0.254     19.527     20.547
REMARK INTER + INTRA:          -0.269
REMARK INTER:                  -0.269
REMARK INTRA:                   0.000
REMARK UNBOUND:                 0.000
REMARK SMILES O=c1ccc2cc(O)c(O)cc2o1
REMARK SMILES IDX 4 1 3 2 2 3 1 4 13 5 12 6 11 7 9 8 7 9 6 10 5 11 8 12 10 14
REMARK H PARENT 8 13 10 15
REMARK Flexibility Score: inf
ROOT
ATOM      1  C   UNL     1      18.125   5.713 -13.433  1.00  0.00     0.019 A 
ATOM      2  C   UNL     1      18.125   4.524 -14.162  1.00  0.00     0.094 A 
ATOM      3  C   UNL     1      18.124   3.306 -13.474  1.00  0.00     0.336 A 
ATOM      4  O   UNL     1      18.124   2.223 -14.115  1.00  0.00    -0.246 OA
ATOM      5  O   UNL     1      18.125   3.285 -12.143  1.00  0.00    -0.423 OA
ATOM      6  C   UNL     1      18.125   4.395 -11.409  1.00  0.00     0.142 A 
ATOM      7  C   UNL     1      18.124   4.310 -10.014  1.00  0.00     0.098 A 
ATOM      8  C   UNL     1      18.124   5.477  -9.236  1.00  0.00     0.161 A 
ATOM      9  C   UNL     1      18.125   6.735  -9.858  1.00  0.00     0.158 A 
ATOM     10  C   UNL     1      18.125   6.825 -11.257  1.00  0.00     0.062 A 
ATOM     11  C   UNL     1      18.124   5.660 -12.036  1.00  0.00     0.022 A 
ENDROOT
BRANCH   9  12
ATOM     12  O   UNL     1      18.125   7.889  -9.077  1.00  0.00    -0.504 OA
ATOM     13  H   UNL     1      17.662   7.920  -8.176  1.00  0.00     0.293 HD
ENDBRANCH   9  12
BRANCH   8  14
ATOM     14  O   UNL     1      18.124   5.396  -7.844  1.00  0.00    -0.504 OA
ATOM     15  H   UNL     1      18.467   4.574  -7.362  1.00  0.00     0.293 HD
ENDBRANCH   8  14
TORSDOF 2
ENDMDL
MODEL 4
REMARK VINA RESULT:     0.344     12.017     13.941
REMARK INTER + INTRA:           0.365
REMARK INTER:                   0.365
REMARK INTRA:                   0.000
REMARK UNBOUND:                 0.000
REMARK SMILES O=c1ccc2cc(O)c(O)cc2o1
REMARK SMILES IDX 4 1 3 2 2 3 1 4 13 5 12 6 11 7 9 8 7 9 6 10 5 11 8 12 10 14
REMARK H PARENT 8 13 10 15
REMARK Flexibility Score: inf
ROOT
ATOM      1  C   UNL     1      -2.106   8.988 -10.676  1.00  0.00     0.019 A 
ATOM      2  C   UNL     1      -2.111   9.714  -9.485  1.00  0.00     0.094 A 
ATOM      3  C   UNL     1      -2.120  11.112  -9.543  1.00  0.00     0.336 A 
ATOM      4  O   UNL     1      -2.124  11.784  -8.478  1.00  0.00    -0.246 OA
ATOM      5  O   UNL     1      -2.123  11.737 -10.718  1.00  0.00    -0.423 OA
ATOM      6  C   UNL     1      -2.118  11.083 -11.877  1.00  0.00     0.142 A 
ATOM      7  C   UNL     1      -2.122  11.795 -13.080  1.00  0.00     0.098 A 
ATOM      8  C   UNL     1      -2.118  11.110 -14.304  1.00  0.00     0.161 A 
ATOM      9  C   UNL     1      -2.109   9.708 -14.325  1.00  0.00     0.158 A 
ATOM     10  C   UNL     1      -2.105   8.989 -13.120  1.00  0.00     0.062 A 
ATOM     11  C   UNL     1      -2.110   9.672 -11.896  1.00  0.00     0.022 A 
ENDROOT
BRANCH   9  12
ATOM     12  O   UNL     1      -2.104   9.036 -15.546  1.00  0.00    -0.504 OA
ATOM     13  H   UNL     1      -2.850   8.400 -15.804  1.00  0.00     0.293 HD
ENDBRANCH   9  12
BRANCH   8  14
ATOM     14  O   UNL     1      -2.122  11.817 -15.506  1.00  0.00    -0.504 OA
ATOM     15  H   UNL     1      -2.170  12.829 -15.526  1.00  0.00     0.293 HD
ENDBRANCH   8  14
TORSDOF 2
ENDMDL
MODEL 5
REMARK VINA RESULT:     0.402     20.094     20.936
REMARK INTER + INTRA:           0.426
REMARK INTER:                   0.426
REMARK INTRA:                   0.000
REMARK UNBOUND:                 0.000
REMARK SMILES O=c1ccc2cc(O)c(O)cc2o1
REMARK SMILES IDX 4 1 3 2 2 3 1 4 13 5 12 6 11 7 9 8 7 9 6 10 5 11 8 12 10 14
REMARK H PARENT 8 13 10 15
REMARK Flexibility Score: inf
ROOT
ATOM      1  C   UNL     1      18.124   6.735  -9.491  1.00  0.00     0.019 A 
ATOM      2  C   UNL     1      18.124   8.129  -9.487  1.00  0.00     0.094 A 
ATOM      3  C   UNL     1      18.123   8.811 -10.708  1.00  0.00     0.336 A 
ATOM      4  O   UNL     1      18.122  10.070 -10.724  1.00  0.00    -0.246 OA
ATOM      5  O   UNL     1      18.123   8.137 -11.856  1.00  0.00    -0.423 OA
ATOM      6  C   UNL     1      18.123   6.807 -11.905  1.00  0.00     0.142 A 
ATOM      7  C   UNL     1      18.123   6.154 -13.141  1.00  0.00     0.098 A 
ATOM      8  C   UNL     1      18.123   4.753 -13.198  1.00  0.00     0.161 A 
ATOM      9  C   UNL     1      18.124   4.001 -12.014  1.00  0.00     0.158 A 
ATOM     10  C   UNL     1      18.124   4.652 -10.771  1.00  0.00     0.062 A 
ATOM     11  C   UNL     1      18.123   6.053 -10.712  1.00  0.00     0.022 A 
ENDROOT
BRANCH   9  12
ATOM     12  O   UNL     1      18.124   2.610 -12.080  1.00  0.00    -0.504 OA
ATOM     13  H   UNL     1      18.903   2.063 -11.732  1.00  0.00     0.293 HD
ENDBRANCH   9  12
BRANCH   8  14
ATOM     14  O   UNL     1      18.123   4.098 -14.430  1.00  0.00    -0.504 OA
ATOM     15  H   UNL     1      17.821   4.564 -15.277  1.00  0.00     0.293 HD
ENDBRANCH   8  14
TORSDOF 2
ENDMDL
MODEL 6
REMARK VINA RESULT:     0.557     11.324     14.292
REMARK INTER + INTRA:           0.590
REMARK INTER:                   0.590
REMARK INTRA:                   0.000
REMARK UNBOUND:                 0.000
REMARK SMILES O=c1ccc2cc(O)c(O)cc2o1
REMARK SMILES IDX 4 1 3 2 2 3 1 4 13 5 12 6 11 7 9 8 7 9 6 10 5 11 8 12 10 14
REMARK H PARENT 8 13 10 15
REMARK Flexibility Score: inf
ROOT
ATOM      1  C   UNL     1      -2.122   9.137 -13.945  1.00  0.00     0.019 A 
ATOM      2  C   UNL     1      -2.122  10.067 -14.984  1.00  0.00     0.094 A 
ATOM      3  C   UNL     1      -2.122  11.431 -14.673  1.00  0.00     0.336 A 
ATOM      4  O   UNL     1      -2.123  12.285 -15.598  1.00  0.00    -0.246 OA
ATOM      5  O   UNL     1      -2.123  11.833 -13.404  1.00  0.00    -0.423 OA
ATOM      6  C   UNL     1      -2.123  10.979 -12.383  1.00  0.00     0.142 A 
ATOM      7  C   UNL     1      -2.123  11.460 -11.071  1.00  0.00     0.098 A 
ATOM      8  C   UNL     1      -2.122  10.564  -9.991  1.00  0.00     0.161 A 
ATOM      9  C   UNL     1      -2.122   9.181 -10.226  1.00  0.00     0.158 A 
ATOM     10  C   UNL     1      -2.122   8.694 -11.541  1.00  0.00     0.062 A 
ATOM     11  C   UNL     1      -2.121   9.587 -12.621  1.00  0.00     0.022 A 
ENDROOT
BRANCH   9  12
ATOM     12  O   UNL     1      -2.121   8.299  -9.147  1.00  0.00    -0.504 OA
ATOM     13  H   UNL     1      -2.010   8.627  -8.195  1.00  0.00     0.293 HD
ENDBRANCH   9  12
BRANCH   8  14
ATOM     14  O   UNL     1      -2.123  11.041  -8.680  1.00  0.00    -0.504 OA
ATOM     15  H   UNL     1      -2.894  11.587  -8.316  1.00  0.00     0.293 HD
ENDBRANCH   8  14
TORSDOF 2
ENDMDL
MODEL 7
REMARK VINA RESULT:     0.928     20.086     20.773
REMARK INTER + INTRA:           0.983
REMARK INTER:                   0.983
REMARK INTRA:                   0.000
REMARK UNBOUND:                 0.000
REMARK SMILES O=c1ccc2cc(O)c(O)cc2o1
REMARK SMILES IDX 4 1 3 2 2 3 1 4 13 5 12 6 11 7 9 8 7 9 6 10 5 11 8 12 10 14
REMARK H PARENT 8 13 10 15
REMARK Flexibility Score: inf
ROOT
ATOM      1  C   UNL     1      18.077   3.844 -11.259  1.00  0.00     0.019 A 
ATOM      2  C   UNL     1      18.083   3.173 -12.481  1.00  0.00     0.094 A 
ATOM      3  C   UNL     1      18.101   3.919 -13.665  1.00  0.00     0.336 A 
ATOM      4  O   UNL     1      18.106   3.330 -14.777  1.00  0.00    -0.246 OA
ATOM      5  O   UNL     1      18.111   5.249 -13.622  1.00  0.00    -0.423 OA
ATOM      6  C   UNL     1      18.106   5.929 -12.478  1.00  0.00     0.142 A 
ATOM      7  C   UNL     1      18.118   7.326 -12.496  1.00  0.00     0.098 A 
ATOM      8  C   UNL     1      18.113   8.047 -11.293  1.00  0.00     0.161 A 
ATOM      9  C   UNL     1      18.096   7.367 -10.067  1.00  0.00     0.158 A 
ATOM     10  C   UNL     1      18.084   5.964 -10.043  1.00  0.00     0.062 A 
ATOM     11  C   UNL     1      18.089   5.242 -11.245  1.00  0.00     0.022 A 
ENDROOT
BRANCH   9  12
ATOM     12  O   UNL     1      18.091   8.092  -8.877  1.00  0.00    -0.504 OA
ATOM     13  H   UNL     1      18.313   7.655  -7.989  1.00  0.00     0.293 HD
ENDBRANCH   9  12
BRANCH   8  14
ATOM     14  O   UNL     1      18.125   9.442 -11.308  1.00  0.00    -0.504 OA
ATOM     15  H   UNL     1      17.680   9.967 -12.050  1.00  0.00     0.293 HD
ENDBRANCH   8  14
TORSDOF 2
ENDMDL
MODEL 8
REMARK VINA RESULT:     1.621     19.417     20.795
REMARK INTER + INTRA:           1.716
REMARK INTER:                   1.716
REMARK INTRA:                   0.000
REMARK UNBOUND:                 0.000
REMARK SMILES O=c1ccc2cc(O)c(O)cc2o1
REMARK SMILES IDX 4 1 3 2 2 3 1 4 13 5 12 6 11 7 9 8 7 9 6 10 5 11 8 12 10 14
REMARK H PARENT 8 13 10 15
REMARK Flexibility Score: inf
ROOT
ATOM      1  C   UNL     1      18.110   7.804 -12.418  1.00  0.00     0.019 A 
ATOM      2  C   UNL     1      18.111   9.124 -11.967  1.00  0.00     0.094 A 
ATOM      3  C   UNL     1      18.104   9.370 -10.590  1.00  0.00     0.336 A 
ATOM      4  O   UNL     1      18.105  10.555 -10.165  1.00  0.00    -0.246 OA
ATOM      5  O   UNL     1      18.096   8.359  -9.725  1.00  0.00    -0.423 OA
ATOM      6  C   UNL     1      18.095   7.085 -10.112  1.00  0.00     0.142 A 
ATOM      7  C   UNL     1      18.087   6.065  -9.157  1.00  0.00     0.098 A 
ATOM      8  C   UNL     1      18.086   4.721  -9.560  1.00  0.00     0.161 A 
ATOM      9  C   UNL     1      18.093   4.398 -10.925  1.00  0.00     0.158 A 
ATOM     10  C   UNL     1      18.101   5.418 -11.888  1.00  0.00     0.062 A 
ATOM     11  C   UNL     1      18.103   6.761 -11.487  1.00  0.00     0.022 A 
ENDROOT
BRANCH   9  12
ATOM     12  O   UNL     1      18.091   3.060 -11.316  1.00  0.00    -0.504 OA
ATOM     13  H   UNL     1      18.898   2.464 -11.169  1.00  0.00     0.293 HD
ENDBRANCH   9  12
BRANCH   8  14
ATOM     14  O   UNL     1      18.078   3.701  -8.610  1.00  0.00    -0.504 OA
ATOM     15  H   UNL     1      18.495   2.798  -8.798  1.00  0.00     0.293 HD
ENDBRANCH   8  14
TORSDOF 2
ENDMDL
MODEL 9
REMARK VINA RESULT:     1.723     10.472     12.785
REMARK INTER + INTRA:           1.823
REMARK INTER:                   1.823
REMARK INTRA:                   0.000
REMARK UNBOUND:                 0.000
REMARK SMILES O=c1ccc2cc(O)c(O)cc2o1
REMARK SMILES IDX 4 1 3 2 2 3 1 4 13 5 12 6 11 7 9 8 7 9 6 10 5 11 8 12 10 14
REMARK H PARENT 8 13 10 15
REMARK Flexibility Score: inf
ROOT
ATOM      1  C   UNL     1      -2.123   9.385  -9.914  1.00  0.00     0.019 A 
ATOM      2  C   UNL     1      -2.123   8.061  -9.480  1.00  0.00     0.094 A 
ATOM      3  C   UNL     1      -2.118   7.035 -10.431  1.00  0.00     0.336 A 
ATOM      4  O   UNL     1      -2.117   5.832 -10.056  1.00  0.00    -0.246 OA
ATOM      5  O   UNL     1      -2.115   7.321 -11.730  1.00  0.00    -0.423 OA
ATOM      6  C   UNL     1      -2.116   8.571 -12.188  1.00  0.00     0.142 A 
ATOM      7  C   UNL     1      -2.112   8.810 -13.565  1.00  0.00     0.098 A 
ATOM      8  C   UNL     1      -2.112  10.125 -14.053  1.00  0.00     0.161 A 
ATOM      9  C   UNL     1      -2.117  11.206 -13.158  1.00  0.00     0.158 A 
ATOM     10  C   UNL     1      -2.121  10.971 -11.775  1.00  0.00     0.062 A 
ATOM     11  C   UNL     1      -2.119   9.657 -11.286  1.00  0.00     0.022 A 
ENDROOT
BRANCH   9  12
ATOM     12  O   UNL     1      -2.118  12.509 -13.651  1.00  0.00    -0.504 OA
ATOM     13  H   UNL     1      -2.378  13.296 -13.068  1.00  0.00     0.293 HD
ENDBRANCH   9  12
BRANCH   8  14
ATOM     14  O   UNL     1      -2.109  10.367 -15.426  1.00  0.00    -0.504 OA
ATOM     15  H   UNL     1      -2.062  11.308 -15.798  1.00  0.00     0.293 HD
ENDBRANCH   8  14
TORSDOF 2
ENDMDL
