MODEL 1
REMARK VINA RESULT:    -2.396      0.000      0.000
REMARK INTER + INTRA:          -3.172
REMARK INTER:                  -2.956
REMARK INTRA:                  -0.216
REMARK UNBOUND:                -0.216
REMARK SMILES CCCCCC(=O)[O-]
REMARK SMILES IDX 4 1 5 2 6 3 7 4 8 5 3 6 2 7 1 8
REMARK H PARENT
REMARK Flexibility Score: inf
ROOT
ATOM      1  C   UNL     1     148.633 154.994 160.828  1.00  0.00     0.006 C 
ENDROOT
BRANCH   1   2
ATOM      2  C   UNL     1     147.678 155.129 159.637  1.00  0.00     0.053 C 
BRANCH   2   3
ATOM      3  C   UNL     1     147.028 153.816 159.335  1.00  0.00     0.041 C 
ATOM      4  O   UNL     1     147.425 153.120 158.365  1.00  0.00    -0.550 OA
ATOM      5  O   UNL     1     146.014 153.338 160.157  1.00  0.00    -0.550 OA
ENDBRANCH   2   3
ENDBRANCH   1   2
BRANCH   1   6
ATOM      6  C   UNL     1     148.299 156.023 161.918  1.00  0.00     0.000 C 
BRANCH   6   7
ATOM      7  C   UNL     1     146.799 156.346 161.984  1.00  0.00    -0.003 C 
ATOM      8  C   UNL     1     146.059 155.510 163.028  1.00  0.00     0.004 C 
ENDBRANCH   6   7
ENDBRANCH   1   6
TORSDOF 4
ENDMDL
MODEL 2
REMARK VINA RESULT:    -2.308     11.510     12.017
REMARK INTER + INTRA:          -3.063
REMARK INTER:                  -2.895
REMARK INTRA:                  -0.168
REMARK UNBOUND:                -0.216
REMARK SMILES CCCCCC(=O)[O-]
REMARK SMILES IDX 4 1 5 2 6 3 7 4 8 5 3 6 2 7 1 8
REMARK H PARENT
REMARK Flexibility Score: inf
ROOT
ATOM      1  C   UNL     1     146.053 165.352 153.190  1.00  0.00     0.006 C 
ENDROOT
BRANCH   1   2
ATOM      2  C   UNL     1     146.732 164.400 152.200  1.00  0.00     0.053 C 
BRANCH   2   3
ATOM      3  C   UNL     1     146.253 162.999 152.407  1.00  0.00     0.041 C 
ATOM      4  O   UNL     1     146.057 162.243 151.420  1.00  0.00    -0.550 OA
ATOM      5  O   UNL     1     146.070 162.510 153.696  1.00  0.00    -0.550 OA
ENDBRANCH   2   3
ENDBRANCH   1   2
BRANCH   1   6
ATOM      6  C   UNL     1     147.095 166.125 154.012  1.00  0.00     0.000 C 
BRANCH   6   7
ATOM      7  C   UNL     1     146.676 166.301 155.480  1.00  0.00    -0.003 C 
ATOM      8  C   UNL     1     145.885 165.108 156.017  1.00  0.00     0.004 C 
ENDBRANCH   6   7
ENDBRANCH   1   6
TORSDOF 4
ENDMDL
MODEL 3
REMARK VINA RESULT:    -2.306      2.859      3.544
REMARK INTER + INTRA:          -3.060
REMARK INTER:                  -2.849
REMARK INTRA:                  -0.211
REMARK UNBOUND:                -0.216
REMARK SMILES CCCCCC(=O)[O-]
REMARK SMILES IDX 4 1 5 2 6 3 7 4 8 5 3 6 2 7 1 8
REMARK H PARENT
REMARK Flexibility Score: inf
ROOT
ATOM      1  C   UNL     1     148.251 155.269 160.044  1.00  0.00     0.006 C 
ENDROOT
BRANCH   1   2
ATOM      2  C   UNL     1     148.695 156.264 158.967  1.00  0.00     0.053 C 
BRANCH   2   3
ATOM      3  C   UNL     1     147.928 157.543 159.087  1.00  0.00     0.041 C 
ATOM      4  O   UNL     1     147.530 157.941 160.213  1.00  0.00    -0.550 OA
ATOM      5  O   UNL     1     147.694 158.321 157.959  1.00  0.00    -0.550 OA
ENDBRANCH   2   3
ENDBRANCH   1   2
BRANCH   1   6
ATOM      6  C   UNL     1     147.378 154.160 159.440  1.00  0.00     0.000 C 
BRANCH   6   7
ATOM      7  C   UNL     1     145.988 154.083 160.091  1.00  0.00    -0.003 C 
ATOM      8  C   UNL     1     145.875 154.942 161.350  1.00  0.00     0.004 C 
ENDBRANCH   6   7
ENDBRANCH   1   6
TORSDOF 4
ENDMDL
MODEL 4
REMARK VINA RESULT:    -2.301      2.457      3.607
REMARK INTER + INTRA:          -3.054
REMARK INTER:                  -2.839
REMARK INTRA:                  -0.215
REMARK UNBOUND:                -0.216
REMARK SMILES CCCCCC(=O)[O-]
REMARK SMILES IDX 4 1 5 2 6 3 7 4 8 5 3 6 2 7 1 8
REMARK H PARENT
REMARK Flexibility Score: inf
ROOT
ATOM      1  C   UNL     1     148.500 155.186 160.845  1.00  0.00     0.006 C 
ENDROOT
BRANCH   1   2
ATOM      2  C   UNL     1     148.198 156.549 161.479  1.00  0.00     0.053 C 
BRANCH   2   3
ATOM      3  C   UNL     1     146.975 156.469 162.336  1.00  0.00     0.041 C 
ATOM      4  O   UNL     1     145.875 156.911 161.915  1.00  0.00    -0.550 OA
ATOM      5  O   UNL     1     147.041 155.861 163.584  1.00  0.00    -0.550 OA
ENDBRANCH   2   3
ENDBRANCH   1   2
BRANCH   1   6
ATOM      6  C   UNL     1     147.843 155.066 159.463  1.00  0.00     0.000 C 
BRANCH   6   7
ATOM      7  C   UNL     1     147.131 153.720 159.263  1.00  0.00    -0.003 C 
ATOM      8  C   UNL     1     145.877 153.579 160.127  1.00  0.00     0.004 C 
ENDBRANCH   6   7
ENDBRANCH   1   6
TORSDOF 4
ENDMDL
MODEL 5
REMARK VINA RESULT:    -2.294     10.805     11.379
REMARK INTER + INTRA:          -3.046
REMARK INTER:                  -2.961
REMARK INTRA:                  -0.085
REMARK UNBOUND:                -0.216
REMARK SMILES CCCCCC(=O)[O-]
REMARK SMILES IDX 4 1 5 2 6 3 7 4 8 5 3 6 2 7 1 8
REMARK H PARENT
REMARK Flexibility Score: inf
ROOT
ATOM      1  C   UNL     1     147.004 163.664 153.957  1.00  0.00     0.006 C 
ENDROOT
BRANCH   1   2
ATOM      2  C   UNL     1     145.892 162.874 153.261  1.00  0.00     0.053 C 
BRANCH   2   3
ATOM      3  C   UNL     1     146.356 162.377 151.928  1.00  0.00     0.041 C 
ATOM      4  O   UNL     1     146.314 163.131 150.921  1.00  0.00    -0.550 OA
ATOM      5  O   UNL     1     146.882 161.097 151.809  1.00  0.00    -0.550 OA
ENDBRANCH   2   3
ENDBRANCH   1   2
BRANCH   1   6
ATOM      6  C   UNL     1     146.757 163.743 155.470  1.00  0.00     0.000 C 
BRANCH   6   7
ATOM      7  C   UNL     1     146.016 165.024 155.881  1.00  0.00    -0.003 C 
ATOM      8  C   UNL     1     146.751 166.296 155.457  1.00  0.00     0.004 C 
ENDBRANCH   6   7
ENDBRANCH   1   6
TORSDOF 4
ENDMDL
MODEL 6
REMARK VINA RESULT:    -2.271      1.601      2.578
REMARK INTER + INTRA:          -3.017
REMARK INTER:                  -2.899
REMARK INTRA:                  -0.118
REMARK UNBOUND:                -0.216
REMARK SMILES CCCCCC(=O)[O-]
REMARK SMILES IDX 4 1 5 2 6 3 7 4 8 5 3 6 2 7 1 8
REMARK H PARENT
REMARK Flexibility Score: inf
ROOT
ATOM      1  C   UNL     1     148.521 155.540 159.216  1.00  0.00     0.006 C 
ENDROOT
BRANCH   1   2
ATOM      2  C   UNL     1     147.267 155.169 160.015  1.00  0.00     0.053 C 
BRANCH   2   3
ATOM      3  C   UNL     1     146.768 153.819 159.610  1.00  0.00     0.041 C 
ATOM      4  O   UNL     1     145.893 153.233 160.300  1.00  0.00    -0.550 OA
ATOM      5  O   UNL     1     147.233 153.228 158.442  1.00  0.00    -0.550 OA
ENDBRANCH   2   3
ENDBRANCH   1   2
BRANCH   1   6
ATOM      6  C   UNL     1     149.668 155.947 160.152  1.00  0.00     0.000 C 
BRANCH   6   7
ATOM      7  C   UNL     1     149.579 155.264 161.525  1.00  0.00    -0.003 C 
ATOM      8  C   UNL     1     150.949 154.901 162.097  1.00  0.00     0.004 C 
ENDBRANCH   6   7
ENDBRANCH   1   6
TORSDOF 4
ENDMDL
MODEL 7
REMARK VINA RESULT:    -2.240     11.389     12.124
REMARK INTER + INTRA:          -2.979
REMARK INTER:                  -2.777
REMARK INTRA:                  -0.202
REMARK UNBOUND:                -0.216
REMARK SMILES CCCCCC(=O)[O-]
REMARK SMILES IDX 4 1 5 2 6 3 7 4 8 5 3 6 2 7 1 8
REMARK H PARENT
REMARK Flexibility Score: inf
ROOT
ATOM      1  C   UNL     1     146.631 163.812 151.004  1.00  0.00     0.006 C 
ENDROOT
BRANCH   1   2
ATOM      2  C   UNL     1     146.020 162.506 151.523  1.00  0.00     0.053 C 
BRANCH   2   3
ATOM      3  C   UNL     1     147.056 161.686 152.225  1.00  0.00     0.041 C 
ATOM      4  O   UNL     1     147.798 160.908 151.572  1.00  0.00    -0.550 OA
ATOM      5  O   UNL     1     147.233 161.818 153.597  1.00  0.00    -0.550 OA
ENDBRANCH   2   3
ENDBRANCH   1   2
BRANCH   1   6
ATOM      6  C   UNL     1     145.875 165.029 151.556  1.00  0.00     0.000 C 
BRANCH   6   7
ATOM      7  C   UNL     1     146.566 165.645 152.783  1.00  0.00    -0.003 C 
ATOM      8  C   UNL     1     145.950 165.184 154.103  1.00  0.00     0.004 C 
ENDBRANCH   6   7
ENDBRANCH   1   6
TORSDOF 4
ENDMDL
MODEL 8
REMARK VINA RESULT:    -2.232     12.060     12.908
REMARK INTER + INTRA:          -2.969
REMARK INTER:                  -2.821
REMARK INTRA:                  -0.148
REMARK UNBOUND:                -0.216
REMARK SMILES CCCCCC(=O)[O-]
REMARK SMILES IDX 4 1 5 2 6 3 7 4 8 5 3 6 2 7 1 8
REMARK H PARENT
REMARK Flexibility Score: inf
ROOT
ATOM      1  C   UNL     1     146.256 165.129 152.304  1.00  0.00     0.006 C 
ENDROOT
BRANCH   1   2
ATOM      2  C   UNL     1     147.040 166.049 153.246  1.00  0.00     0.053 C 
BRANCH   2   3
ATOM      3  C   UNL     1     146.715 165.738 154.673  1.00  0.00     0.041 C 
ATOM      4  O   UNL     1     146.749 166.646 155.544  1.00  0.00    -0.550 OA
ATOM      5  O   UNL     1     146.327 164.453 155.032  1.00  0.00    -0.550 OA
ENDBRANCH   2   3
ENDBRANCH   1   2
BRANCH   1   6
ATOM      6  C   UNL     1     147.198 164.162 151.573  1.00  0.00     0.000 C 
BRANCH   6   7
ATOM      7  C   UNL     1     146.518 162.829 151.222  1.00  0.00    -0.003 C 
ATOM      8  C   UNL     1     146.572 161.817 152.365  1.00  0.00     0.004 C 
ENDBRANCH   6   7
ENDBRANCH   1   6
TORSDOF 4
ENDMDL
MODEL 9
REMARK VINA RESULT:    -2.217      2.716      4.098
REMARK INTER + INTRA:          -2.951
REMARK INTER:                  -2.702
REMARK INTRA:                  -0.249
REMARK UNBOUND:                -0.216
REMARK SMILES CCCCCC(=O)[O-]
REMARK SMILES IDX 4 1 5 2 6 3 7 4 8 5 3 6 2 7 1 8
REMARK H PARENT
REMARK Flexibility Score: inf
ROOT
ATOM      1  C   UNL     1     145.875 155.176 160.407  1.00  0.00     0.006 C 
ENDROOT
BRANCH   1   2
ATOM      2  C   UNL     1     145.876 155.334 161.931  1.00  0.00     0.053 C 
BRANCH   2   3
ATOM      3  C   UNL     1     146.111 156.762 162.311  1.00  0.00     0.041 C 
ATOM      4  O   UNL     1     146.141 157.099 163.523  1.00  0.00    -0.550 OA
ATOM      5  O   UNL     1     146.348 157.712 161.325  1.00  0.00    -0.550 OA
ENDBRANCH   2   3
ENDBRANCH   1   2
BRANCH   1   6
ATOM      6  C   UNL     1     147.106 154.389 159.936  1.00  0.00     0.000 C 
BRANCH   6   7
ATOM      7  C   UNL     1     148.234 155.302 159.433  1.00  0.00    -0.003 C 
ATOM      8  C   UNL     1     149.333 155.515 160.474  1.00  0.00     0.004 C 
ENDBRANCH   6   7
ENDBRANCH   1   6
TORSDOF 4
ENDMDL
