MODEL 1
REMARK VINA RESULT:    -5.519      0.000      0.000
REMARK INTER + INTRA:          -9.161
REMARK INTER:                  -8.423
REMARK INTRA:                  -0.738
REMARK UNBOUND:                -0.738
REMARK SMILES O=C([O-])CCCCCCCCC(=O)[O-]
REMARK SMILES IDX 7 1 6 2 5 3 4 4 2 5 1 6 3 7 8 8 9 9 10 10 11 11 12 12 13 13
REMARK SMILES IDX 14 14
REMARK H PARENT
REMARK Flexibility Score: inf
ROOT
ATOM      1  C   UNL     1      15.023  70.565  72.366  1.00  0.00     0.000 C 
ENDROOT
BRANCH   1   2
ATOM      2  C   UNL     1      14.136  69.812  73.367  1.00  0.00     0.000 C 
BRANCH   2   3
ATOM      3  C   UNL     1      13.765  70.667  74.590  1.00  0.00     0.006 C 
BRANCH   3   4
ATOM      4  C   UNL     1      14.169  70.007  75.915  1.00  0.00     0.053 C 
BRANCH   4   5
ATOM      5  C   UNL     1      15.385  70.673  76.479  1.00  0.00     0.041 C 
ATOM      6  O   UNL     1      15.619  70.621  77.715  1.00  0.00    -0.550 OA
ATOM      7  O   UNL     1      16.232  71.393  75.646  1.00  0.00    -0.550 OA
ENDBRANCH   4   5
ENDBRANCH   3   4
ENDBRANCH   2   3
ENDBRANCH   1   2
BRANCH   1   8
ATOM      8  C   UNL     1      14.832  72.081  72.497  1.00  0.00     0.000 C 
BRANCH   8   9
ATOM      9  C   UNL     1      16.157  72.824  72.287  1.00  0.00     0.000 C 
BRANCH   9  10
ATOM     10  C   UNL     1      17.311  71.837  72.056  1.00  0.00     0.006 C 
BRANCH  10  11
ATOM     11  C   UNL     1      18.492  72.094  73.002  1.00  0.00     0.053 C 
BRANCH  11  12
ATOM     12  C   UNL     1      19.713  72.540  72.256  1.00  0.00     0.041 C 
ATOM     13  O   UNL     1      19.597  73.215  71.198  1.00  0.00    -0.550 OA
ATOM     14  O   UNL     1      20.975  72.185  72.711  1.00  0.00    -0.550 OA
ENDBRANCH  11  12
ENDBRANCH  10  11
ENDBRANCH   9  10
ENDBRANCH   8   9
ENDBRANCH   1   8
TORSDOF 9
ENDMDL
MODEL 2
REMARK VINA RESULT:    -5.512      2.770      6.478
REMARK INTER + INTRA:          -9.149
REMARK INTER:                  -8.700
REMARK INTRA:                  -0.449
REMARK UNBOUND:                -0.738
REMARK SMILES O=C([O-])CCCCCCCCC(=O)[O-]
REMARK SMILES IDX 7 1 6 2 5 3 4 4 2 5 1 6 3 7 8 8 9 9 10 10 11 11 12 12 13 13
REMARK SMILES IDX 14 14
REMARK H PARENT
REMARK Flexibility Score: inf
ROOT
ATOM      1  C   UNL     1      19.171  72.396  71.575  1.00  0.00     0.000 C 
ENDROOT
BRANCH   1   2
ATOM      2  C   UNL     1      20.385  71.892  72.370  1.00  0.00     0.000 C 
BRANCH   2   3
ATOM      3  C   UNL     1      21.336  71.035  71.518  1.00  0.00     0.006 C 
BRANCH   3   4
ATOM      4  C   UNL     1      20.925  69.556  71.483  1.00  0.00     0.053 C 
BRANCH   4   5
ATOM      5  C   UNL     1      20.519  69.162  70.097  1.00  0.00     0.041 C 
ATOM      6  O   UNL     1      19.894  68.086  69.902  1.00  0.00    -0.550 OA
ATOM      7  O   UNL     1      20.874  69.958  69.015  1.00  0.00    -0.550 OA
ENDBRANCH   4   5
ENDBRANCH   3   4
ENDBRANCH   2   3
ENDBRANCH   1   2
BRANCH   1   8
ATOM      8  C   UNL     1      17.885  71.700  72.038  1.00  0.00     0.000 C 
BRANCH   8   9
ATOM      9  C   UNL     1      16.703  72.675  72.047  1.00  0.00     0.000 C 
BRANCH   9  10
ATOM     10  C   UNL     1      15.385  71.941  72.339  1.00  0.00     0.006 C 
BRANCH  10  11
ATOM     11  C   UNL     1      15.414  71.211  73.688  1.00  0.00     0.053 C 
BRANCH  11  12
ATOM     12  C   UNL     1      14.459  70.056  73.714  1.00  0.00     0.041 C 
ATOM     13  O   UNL     1      13.977  69.608  72.640  1.00  0.00    -0.550 OA
ATOM     14  O   UNL     1      14.077  69.497  74.926  1.00  0.00    -0.550 OA
ENDBRANCH  11  12
ENDBRANCH  10  11
ENDBRANCH   9  10
ENDBRANCH   8   9
ENDBRANCH   1   8
TORSDOF 9
ENDMDL
MODEL 3
REMARK VINA RESULT:    -5.502      2.499      3.705
REMARK INTER + INTRA:          -9.135
REMARK INTER:                  -8.665
REMARK INTRA:                  -0.470
REMARK UNBOUND:                -0.738
REMARK SMILES O=C([O-])CCCCCCCCC(=O)[O-]
REMARK SMILES IDX 7 1 6 2 5 3 4 4 2 5 1 6 3 7 8 8 9 9 10 10 11 11 12 12 13 13
REMARK SMILES IDX 14 14
REMARK H PARENT
REMARK Flexibility Score: inf
ROOT
ATOM      1  C   UNL     1      17.779  72.900  71.877  1.00  0.00     0.000 C 
ENDROOT
BRANCH   1   2
ATOM      2  C   UNL     1      16.911  71.636  71.967  1.00  0.00     0.000 C 
BRANCH   2   3
ATOM      3  C   UNL     1      15.597  71.872  72.730  1.00  0.00     0.006 C 
BRANCH   3   4
ATOM      4  C   UNL     1      15.523  71.074  74.038  1.00  0.00     0.053 C 
BRANCH   4   5
ATOM      5  C   UNL     1      14.448  70.035  73.954  1.00  0.00     0.041 C 
ATOM      6  O   UNL     1      13.975  69.526  75.004  1.00  0.00    -0.550 OA
ATOM      7  O   UNL     1      14.004  69.594  72.713  1.00  0.00    -0.550 OA
ENDBRANCH   4   5
ENDBRANCH   3   4
ENDBRANCH   2   3
ENDBRANCH   1   2
BRANCH   1   8
ATOM      8  C   UNL     1      19.270  72.547  71.933  1.00  0.00     0.000 C 
BRANCH   8   9
ATOM      9  C   UNL     1      19.502  71.075  71.573  1.00  0.00     0.000 C 
BRANCH   9  10
ATOM     10  C   UNL     1      20.845  70.577  72.128  1.00  0.00     0.006 C 
BRANCH  10  11
ATOM     11  C   UNL     1      20.889  70.613  73.662  1.00  0.00     0.053 C 
BRANCH  11  12
ATOM     12  C   UNL     1      22.235  70.218  74.188  1.00  0.00     0.041 C 
ATOM     13  O   UNL     1      23.255  70.312  73.453  1.00  0.00    -0.550 OA
ATOM     14  O   UNL     1      22.359  69.717  75.476  1.00  0.00    -0.550 OA
ENDBRANCH  11  12
ENDBRANCH  10  11
ENDBRANCH   9  10
ENDBRANCH   8   9
ENDBRANCH   1   8
TORSDOF 9
ENDMDL
MODEL 4
REMARK VINA RESULT:    -5.496      2.444      7.007
REMARK INTER + INTRA:          -9.126
REMARK INTER:                  -8.650
REMARK INTRA:                  -0.476
REMARK UNBOUND:                -0.738
REMARK SMILES O=C([O-])CCCCCCCCC(=O)[O-]
REMARK SMILES IDX 7 1 6 2 5 3 4 4 2 5 1 6 3 7 8 8 9 9 10 10 11 11 12 12 13 13
REMARK SMILES IDX 14 14
REMARK H PARENT
REMARK Flexibility Score: inf
ROOT
ATOM      1  C   UNL     1      19.214  72.964  71.867  1.00  0.00     0.000 C 
ENDROOT
BRANCH   1   2
ATOM      2  C   UNL     1      19.649  71.491  71.898  1.00  0.00     0.000 C 
BRANCH   2   3
ATOM      3  C   UNL     1      21.143  71.308  71.584  1.00  0.00     0.006 C 
BRANCH   3   4
ATOM      4  C   UNL     1      21.536  71.895  70.222  1.00  0.00     0.053 C 
BRANCH   4   5
ATOM      5  C   UNL     1      22.728  72.789  70.364  1.00  0.00     0.041 C 
ATOM      6  O   UNL     1      23.474  73.013  69.374  1.00  0.00    -0.550 OA
ATOM      7  O   UNL     1      23.044  73.334  71.602  1.00  0.00    -0.550 OA
ENDBRANCH   4   5
ENDBRANCH   3   4
ENDBRANCH   2   3
ENDBRANCH   1   2
BRANCH   1   8
ATOM      8  C   UNL     1      17.692  73.083  71.723  1.00  0.00     0.000 C 
BRANCH   8   9
ATOM      9  C   UNL     1      17.008  71.732  71.959  1.00  0.00     0.000 C 
BRANCH   9  10
ATOM     10  C   UNL     1      15.655  71.916  72.662  1.00  0.00     0.006 C 
BRANCH  10  11
ATOM     11  C   UNL     1      15.553  71.088  73.950  1.00  0.00     0.053 C 
BRANCH  11  12
ATOM     12  C   UNL     1      14.480  70.046  73.857  1.00  0.00     0.041 C 
ATOM     13  O   UNL     1      14.000  69.535  74.904  1.00  0.00    -0.550 OA
ATOM     14  O   UNL     1      14.033  69.617  72.615  1.00  0.00    -0.550 OA
ENDBRANCH  11  12
ENDBRANCH  10  11
ENDBRANCH   9  10
ENDBRANCH   8   9
ENDBRANCH   1   8
TORSDOF 9
ENDMDL
MODEL 5
REMARK VINA RESULT:    -5.495      2.835      5.648
REMARK INTER + INTRA:          -9.125
REMARK INTER:                  -8.729
REMARK INTRA:                  -0.395
REMARK UNBOUND:                -0.738
REMARK SMILES O=C([O-])CCCCCCCCC(=O)[O-]
REMARK SMILES IDX 7 1 6 2 5 3 4 4 2 5 1 6 3 7 8 8 9 9 10 10 11 11 12 12 13 13
REMARK SMILES IDX 14 14
REMARK H PARENT
REMARK Flexibility Score: inf
ROOT
ATOM      1  C   UNL     1      18.971  71.517  72.027  1.00  0.00     0.000 C 
ENDROOT
BRANCH   1   2
ATOM      2  C   UNL     1      19.583  71.629  73.430  1.00  0.00     0.000 C 
BRANCH   2   3
ATOM      3  C   UNL     1      20.206  70.309  73.912  1.00  0.00     0.006 C 
BRANCH   3   4
ATOM      4  C   UNL     1      20.670  70.374  75.374  1.00  0.00     0.053 C 
BRANCH   4   5
ATOM      5  C   UNL     1      22.138  70.098  75.468  1.00  0.00     0.041 C 
ATOM      6  O   UNL     1      22.600  69.455  76.447  1.00  0.00    -0.550 OA
ATOM      7  O   UNL     1      23.001  70.594  74.499  1.00  0.00    -0.550 OA
ENDBRANCH   4   5
ENDBRANCH   3   4
ENDBRANCH   2   3
ENDBRANCH   1   2
BRANCH   1   8
ATOM      8  C   UNL     1      18.209  72.795  71.657  1.00  0.00     0.000 C 
BRANCH   8   9
ATOM      9  C   UNL     1      16.887  72.892  72.426  1.00  0.00     0.000 C 
BRANCH   9  10
ATOM     10  C   UNL     1      16.117  71.565  72.368  1.00  0.00     0.006 C 
BRANCH  10  11
ATOM     11  C   UNL     1      15.105  71.430  73.513  1.00  0.00     0.053 C 
BRANCH  11  12
ATOM     12  C   UNL     1      14.437  70.089  73.508  1.00  0.00     0.041 C 
ATOM     13  O   UNL     1      14.181  69.512  72.417  1.00  0.00    -0.550 OA
ATOM     14  O   UNL     1      14.069  69.490  74.706  1.00  0.00    -0.550 OA
ENDBRANCH  11  12
ENDBRANCH  10  11
ENDBRANCH   9  10
ENDBRANCH   8   9
ENDBRANCH   1   8
TORSDOF 9
ENDMDL
MODEL 6
REMARK VINA RESULT:    -5.480      2.704      3.658
REMARK INTER + INTRA:          -9.101
REMARK INTER:                  -8.594
REMARK INTRA:                  -0.507
REMARK UNBOUND:                -0.738
REMARK SMILES O=C([O-])CCCCCCCCC(=O)[O-]
REMARK SMILES IDX 7 1 6 2 5 3 4 4 2 5 1 6 3 7 8 8 9 9 10 10 11 11 12 12 13 13
REMARK SMILES IDX 14 14
REMARK H PARENT
REMARK Flexibility Score: inf
ROOT
ATOM      1  C   UNL     1      17.576  73.102  72.234  1.00  0.00     0.000 C 
ENDROOT
BRANCH   1   2
ATOM      2  C   UNL     1      16.647  71.906  71.982  1.00  0.00     0.000 C 
BRANCH   2   3
ATOM      3  C   UNL     1      15.353  71.975  72.811  1.00  0.00     0.006 C 
BRANCH   3   4
ATOM      4  C   UNL     1      15.415  71.106  74.074  1.00  0.00     0.053 C 
BRANCH   4   5
ATOM      5  C   UNL     1      14.405  70.005  73.999  1.00  0.00     0.041 C 
ATOM      6  O   UNL     1      13.972  69.469  75.053  1.00  0.00    -0.550 OA
ATOM      7  O   UNL     1      13.978  69.536  72.762  1.00  0.00    -0.550 OA
ENDBRANCH   4   5
ENDBRANCH   3   4
ENDBRANCH   2   3
ENDBRANCH   1   2
BRANCH   1   8
ATOM      8  C   UNL     1      19.024  72.759  71.866  1.00  0.00     0.000 C 
BRANCH   8   9
ATOM      9  C   UNL     1      19.481  71.473  72.564  1.00  0.00     0.000 C 
BRANCH   9  10
ATOM     10  C   UNL     1      20.878  71.051  72.085  1.00  0.00     0.006 C 
BRANCH  10  11
ATOM     11  C   UNL     1      20.946  69.559  71.735  1.00  0.00     0.053 C 
BRANCH  11  12
ATOM     12  C   UNL     1      20.572  69.307  70.306  1.00  0.00     0.041 C 
ATOM     13  O   UNL     1      20.774  70.192  69.432  1.00  0.00    -0.550 OA
ATOM     14  O   UNL     1      19.971  68.109  69.945  1.00  0.00    -0.550 OA
ENDBRANCH  11  12
ENDBRANCH  10  11
ENDBRANCH   9  10
ENDBRANCH   8   9
ENDBRANCH   1   8
TORSDOF 9
ENDMDL
MODEL 7
REMARK VINA RESULT:    -5.468      2.726      3.615
REMARK INTER + INTRA:          -9.082
REMARK INTER:                  -8.666
REMARK INTRA:                  -0.416
REMARK UNBOUND:                -0.738
REMARK SMILES O=C([O-])CCCCCCCCC(=O)[O-]
REMARK SMILES IDX 7 1 6 2 5 3 4 4 2 5 1 6 3 7 8 8 9 9 10 10 11 11 12 12 13 13
REMARK SMILES IDX 14 14
REMARK H PARENT
REMARK Flexibility Score: inf
ROOT
ATOM      1  C   UNL     1      16.443  71.596  72.327  1.00  0.00     0.000 C 
ENDROOT
BRANCH   1   2
ATOM      2  C   UNL     1      15.938  71.515  73.774  1.00  0.00     0.000 C 
BRANCH   2   3
ATOM      3  C   UNL     1      14.731  70.574  73.928  1.00  0.00     0.006 C 
BRANCH   3   4
ATOM      4  C   UNL     1      14.162  70.118  72.578  1.00  0.00     0.053 C 
BRANCH   4   5
ATOM      5  C   UNL     1      12.876  70.827  72.289  1.00  0.00     0.041 C 
ATOM      6  O   UNL     1      12.082  70.371  71.425  1.00  0.00    -0.550 OA
ATOM      7  O   UNL     1      12.578  72.018  72.939  1.00  0.00    -0.550 OA
ENDBRANCH   4   5
ENDBRANCH   3   4
ENDBRANCH   2   3
ENDBRANCH   1   2
BRANCH   1   8
ATOM      8  C   UNL     1      17.031  72.981  72.029  1.00  0.00     0.000 C 
BRANCH   8   9
ATOM      9  C   UNL     1      18.541  72.897  71.778  1.00  0.00     0.000 C 
BRANCH   9  10
ATOM     10  C   UNL     1      19.022  71.438  71.795  1.00  0.00     0.006 C 
BRANCH  10  11
ATOM     11  C   UNL     1      20.445  71.290  71.241  1.00  0.00     0.053 C 
BRANCH  11  12
ATOM     12  C   UNL     1      21.052  69.973  71.616  1.00  0.00     0.041 C 
ATOM     13  O   UNL     1      21.890  69.904  72.555  1.00  0.00    -0.550 OA
ATOM     14  O   UNL     1      20.717  68.826  70.908  1.00  0.00    -0.550 OA
ENDBRANCH  11  12
ENDBRANCH  10  11
ENDBRANCH   9  10
ENDBRANCH   8   9
ENDBRANCH   1   8
TORSDOF 9
ENDMDL
MODEL 8
REMARK VINA RESULT:    -5.443      2.466      3.719
REMARK INTER + INTRA:          -9.045
REMARK INTER:                  -8.597
REMARK INTRA:                  -0.447
REMARK UNBOUND:                -0.738
REMARK SMILES O=C([O-])CCCCCCCCC(=O)[O-]
REMARK SMILES IDX 7 1 6 2 5 3 4 4 2 5 1 6 3 7 8 8 9 9 10 10 11 11 12 12 13 13
REMARK SMILES IDX 14 14
REMARK H PARENT
REMARK Flexibility Score: inf
ROOT
ATOM      1  C   UNL     1      17.791  72.971  71.934  1.00  0.00     0.000 C 
ENDROOT
BRANCH   1   2
ATOM      2  C   UNL     1      16.994  71.660  71.985  1.00  0.00     0.000 C 
BRANCH   2   3
ATOM      3  C   UNL     1      15.601  71.837  72.611  1.00  0.00     0.006 C 
BRANCH   3   4
ATOM      4  C   UNL     1      15.465  71.116  73.959  1.00  0.00     0.053 C 
BRANCH   4   5
ATOM      5  C   UNL     1      14.453  70.017  73.861  1.00  0.00     0.041 C 
ATOM      6  O   UNL     1      14.010  69.469  74.904  1.00  0.00    -0.550 OA
ATOM      7  O   UNL     1      14.038  69.563  72.615  1.00  0.00    -0.550 OA
ENDBRANCH   4   5
ENDBRANCH   3   4
ENDBRANCH   2   3
ENDBRANCH   1   2
BRANCH   1   8
ATOM      8  C   UNL     1      19.290  72.710  72.129  1.00  0.00     0.000 C 
BRANCH   8   9
ATOM      9  C   UNL     1      19.680  71.321  71.611  1.00  0.00     0.000 C 
BRANCH   9  10
ATOM     10  C   UNL     1      21.117  71.318  71.070  1.00  0.00     0.006 C 
BRANCH  10  11
ATOM     11  C   UNL     1      21.483  72.641  70.385  1.00  0.00     0.053 C 
BRANCH  11  12
ATOM     12  C   UNL     1      22.910  73.020  70.637  1.00  0.00     0.041 C 
ATOM     13  O   UNL     1      23.349  73.089  71.816  1.00  0.00    -0.550 OA
ATOM     14  O   UNL     1      23.746  73.329  69.572  1.00  0.00    -0.550 OA
ENDBRANCH  11  12
ENDBRANCH  10  11
ENDBRANCH   9  10
ENDBRANCH   8   9
ENDBRANCH   1   8
TORSDOF 9
ENDMDL
MODEL 9
REMARK VINA RESULT:    -5.381      2.733      6.392
REMARK INTER + INTRA:          -8.950
REMARK INTER:                  -8.535
REMARK INTRA:                  -0.416
REMARK UNBOUND:                -0.738
REMARK SMILES O=C([O-])CCCCCCCCC(=O)[O-]
REMARK SMILES IDX 7 1 6 2 5 3 4 4 2 5 1 6 3 7 8 8 9 9 10 10 11 11 12 12 13 13
REMARK SMILES IDX 14 14
REMARK H PARENT
REMARK Flexibility Score: inf
ROOT
ATOM      1  C   UNL     1      18.133  73.295  71.660  1.00  0.00     0.000 C 
ENDROOT
BRANCH   1   2
ATOM      2  C   UNL     1      19.050  72.113  72.006  1.00  0.00     0.000 C 
BRANCH   2   3
ATOM      3  C   UNL     1      20.484  72.303  71.485  1.00  0.00     0.006 C 
BRANCH   3   4
ATOM      4  C   UNL     1      20.940  71.148  70.582  1.00  0.00     0.053 C 
BRANCH   4   5
ATOM      5  C   UNL     1      21.133  69.902  71.388  1.00  0.00     0.041 C 
ATOM      6  O   UNL     1      20.703  68.798  70.960  1.00  0.00    -0.550 OA
ATOM      7  O   UNL     1      21.743  69.967  72.634  1.00  0.00    -0.550 OA
ENDBRANCH   4   5
ENDBRANCH   3   4
ENDBRANCH   2   3
ENDBRANCH   1   2
BRANCH   1   8
ATOM      8  C   UNL     1      16.684  73.004  72.068  1.00  0.00     0.000 C 
BRANCH   8   9
ATOM      9  C   UNL     1      16.398  71.498  72.047  1.00  0.00     0.000 C 
BRANCH   9  10
ATOM     10  C   UNL     1      15.446  71.102  73.185  1.00  0.00     0.006 C 
BRANCH  10  11
ATOM     11  C   UNL     1      14.363  70.118  72.721  1.00  0.00     0.053 C 
BRANCH  11  12
ATOM     12  C   UNL     1      13.068  70.814  72.434  1.00  0.00     0.041 C 
ATOM     13  O   UNL     1      12.733  71.831  73.100  1.00  0.00    -0.550 OA
ATOM     14  O   UNL     1      12.216  70.322  71.455  1.00  0.00    -0.550 OA
ENDBRANCH  11  12
ENDBRANCH  10  11
ENDBRANCH   9  10
ENDBRANCH   8   9
ENDBRANCH   1   8
TORSDOF 9
ENDMDL
