MODEL 1
REMARK VINA RESULT:    -4.050      0.000      0.000
REMARK INTER + INTRA:          -7.673
REMARK INTER:                  -6.417
REMARK INTRA:                  -1.255
REMARK UNBOUND:                -1.255
REMARK SMILES CCCCCCCCCCCC(=O)[O-]
REMARK SMILES IDX 7 1 8 2 9 3 10 4 11 5 12 6 13 7 14 8 6 9 5 10 4 11 3 12 2 13
REMARK SMILES IDX 1 14
REMARK H PARENT
REMARK Flexibility Score: inf
ROOT
ATOM      1  C   UNL     1      -8.314 -36.773 -10.371  1.00  0.00     0.000 C 
ENDROOT
BRANCH   1   2
ATOM      2  C   UNL     1      -8.127 -37.371  -8.968  1.00  0.00     0.000 C 
BRANCH   2   3
ATOM      3  C   UNL     1      -6.987 -38.401  -8.959  1.00  0.00     0.000 C 
BRANCH   3   4
ATOM      4  C   UNL     1      -6.323 -38.562 -10.336  1.00  0.00     0.006 C 
BRANCH   4   5
ATOM      5  C   UNL     1      -6.326 -40.017 -10.826  1.00  0.00     0.053 C 
BRANCH   5   6
ATOM      6  C   UNL     1      -6.805 -40.089 -12.241  1.00  0.00     0.041 C 
ATOM      7  O   UNL     1      -6.208 -40.817 -13.076  1.00  0.00    -0.550 OA
ATOM      8  O   UNL     1      -7.882 -39.314 -12.651  1.00  0.00    -0.550 OA
ENDBRANCH   5   6
ENDBRANCH   4   5
ENDBRANCH   3   4
ENDBRANCH   2   3
ENDBRANCH   1   2
BRANCH   1   9
ATOM      9  C   UNL     1      -8.127 -35.247 -10.393  1.00  0.00     0.000 C 
BRANCH   9  10
ATOM     10  C   UNL     1      -6.646 -34.834 -10.432  1.00  0.00    -0.000 C 
BRANCH  10  11
ATOM     11  C   UNL     1      -6.215 -34.059  -9.176  1.00  0.00    -0.000 C 
BRANCH  11  12
ATOM     12  C   UNL     1      -5.453 -34.938  -8.173  1.00  0.00    -0.000 C 
BRANCH  12  13
ATOM     13  C   UNL     1      -4.384 -35.778  -8.880  1.00  0.00    -0.003 C 
ATOM     14  C   UNL     1      -3.054 -35.720  -8.135  1.00  0.00     0.004 C 
ENDBRANCH  12  13
ENDBRANCH  11  12
ENDBRANCH  10  11
ENDBRANCH   9  10
ENDBRANCH   1   9
TORSDOF 10
ENDMDL
MODEL 2
REMARK VINA RESULT:    -3.772      1.448      3.135
REMARK INTER + INTRA:          -7.233
REMARK INTER:                  -6.250
REMARK INTRA:                  -0.983
REMARK UNBOUND:                -1.255
REMARK SMILES CCCCCCCCCCCC(=O)[O-]
REMARK SMILES IDX 7 1 8 2 9 3 10 4 11 5 12 6 13 7 14 8 6 9 5 10 4 11 3 12 2 13
REMARK SMILES IDX 1 14
REMARK H PARENT
REMARK Flexibility Score: inf
ROOT
ATOM      1  C   UNL     1      -4.422 -36.799  -9.465  1.00  0.00     0.000 C 
ENDROOT
BRANCH   1   2
ATOM      2  C   UNL     1      -5.702 -37.636  -9.321  1.00  0.00     0.000 C 
BRANCH   2   3
ATOM      3  C   UNL     1      -5.596 -38.942 -10.124  1.00  0.00     0.000 C 
BRANCH   3   4
ATOM      4  C   UNL     1      -6.790 -39.154 -11.069  1.00  0.00     0.006 C 
BRANCH   4   5
ATOM      5  C   UNL     1      -6.595 -40.352 -12.008  1.00  0.00     0.053 C 
BRANCH   5   6
ATOM      6  C   UNL     1      -7.120 -41.601 -11.375  1.00  0.00     0.041 C 
ATOM      7  O   UNL     1      -6.764 -42.729 -11.806  1.00  0.00    -0.550 OA
ATOM      8  O   UNL     1      -8.042 -41.521 -10.338  1.00  0.00    -0.550 OA
ENDBRANCH   5   6
ENDBRANCH   4   5
ENDBRANCH   3   4
ENDBRANCH   2   3
ENDBRANCH   1   2
BRANCH   1   9
ATOM      9  C   UNL     1      -4.433 -35.545  -8.576  1.00  0.00     0.000 C 
BRANCH   9  10
ATOM     10  C   UNL     1      -5.856 -35.044  -8.277  1.00  0.00    -0.000 C 
BRANCH  10  11
ATOM     11  C   UNL     1      -6.317 -33.952  -9.256  1.00  0.00    -0.000 C 
BRANCH  11  12
ATOM     12  C   UNL     1      -7.343 -34.468 -10.276  1.00  0.00    -0.000 C 
BRANCH  12  13
ATOM     13  C   UNL     1      -8.464 -35.248  -9.580  1.00  0.00    -0.003 C 
ATOM     14  C   UNL     1      -9.083 -36.281 -10.518  1.00  0.00     0.004 C 
ENDBRANCH  12  13
ENDBRANCH  11  12
ENDBRANCH  10  11
ENDBRANCH   9  10
ENDBRANCH   1   9
TORSDOF 10
ENDMDL
MODEL 3
REMARK VINA RESULT:    -3.680      1.457      1.634
REMARK INTER + INTRA:          -7.087
REMARK INTER:                  -5.965
REMARK INTRA:                  -1.122
REMARK UNBOUND:                -1.255
REMARK SMILES CCCCCCCCCCCC(=O)[O-]
REMARK SMILES IDX 7 1 8 2 9 3 10 4 11 5 12 6 13 7 14 8 6 9 5 10 4 11 3 12 2 13
REMARK SMILES IDX 1 14
REMARK H PARENT
REMARK Flexibility Score: inf
ROOT
ATOM      1  C   UNL     1      -8.032 -37.246 -10.363  1.00  0.00     0.000 C 
ENDROOT
BRANCH   1   2
ATOM      2  C   UNL     1      -7.182 -37.830  -9.224  1.00  0.00     0.000 C 
BRANCH   2   3
ATOM      3  C   UNL     1      -5.796 -38.252  -9.736  1.00  0.00     0.000 C 
BRANCH   3   4
ATOM      4  C   UNL     1      -5.818 -39.614 -10.449  1.00  0.00     0.006 C 
BRANCH   4   5
ATOM      5  C   UNL     1      -6.463 -40.716  -9.598  1.00  0.00     0.053 C 
BRANCH   5   6
ATOM      6  C   UNL     1      -7.555 -41.393 -10.363  1.00  0.00     0.041 C 
ATOM      7  O   UNL     1      -7.294 -42.374 -11.108  1.00  0.00    -0.550 OA
ATOM      8  O   UNL     1      -8.856 -40.910 -10.293  1.00  0.00    -0.550 OA
ENDBRANCH   5   6
ENDBRANCH   4   5
ENDBRANCH   3   4
ENDBRANCH   2   3
ENDBRANCH   1   2
BRANCH   1   9
ATOM      9  C   UNL     1      -8.201 -35.723 -10.255  1.00  0.00     0.000 C 
BRANCH   9  10
ATOM     10  C   UNL     1      -7.923 -35.197  -8.836  1.00  0.00    -0.000 C 
BRANCH  10  11
ATOM     11  C   UNL     1      -6.964 -33.995  -8.829  1.00  0.00    -0.000 C 
BRANCH  11  12
ATOM     12  C   UNL     1      -5.522 -34.388  -9.182  1.00  0.00    -0.000 C 
BRANCH  12  13
ATOM     13  C   UNL     1      -4.874 -35.181  -8.041  1.00  0.00    -0.003 C 
ATOM     14  C   UNL     1      -3.490 -35.688  -8.437  1.00  0.00     0.004 C 
ENDBRANCH  12  13
ENDBRANCH  11  12
ENDBRANCH  10  11
ENDBRANCH   9  10
ENDBRANCH   1   9
TORSDOF 10
ENDMDL
MODEL 4
REMARK VINA RESULT:    -3.629      2.519      4.327
REMARK INTER + INTRA:          -7.007
REMARK INTER:                  -6.500
REMARK INTRA:                  -0.506
REMARK UNBOUND:                -1.255
REMARK SMILES CCCCCCCCCCCC(=O)[O-]
REMARK SMILES IDX 7 1 8 2 9 3 10 4 11 5 12 6 13 7 14 8 6 9 5 10 4 11 3 12 2 13
REMARK SMILES IDX 1 14
REMARK H PARENT
REMARK Flexibility Score: inf
ROOT
ATOM      1  C   UNL     1      -7.097 -40.827 -11.242  1.00  0.00     0.000 C 
ENDROOT
BRANCH   1   2
ATOM      2  C   UNL     1      -6.707 -40.100 -12.538  1.00  0.00     0.000 C 
BRANCH   2   3
ATOM      3  C   UNL     1      -6.466 -41.102 -13.677  1.00  0.00     0.000 C 
BRANCH   3   4
ATOM      4  C   UNL     1      -6.726 -40.494 -15.065  1.00  0.00     0.006 C 
BRANCH   4   5
ATOM      5  C   UNL     1      -7.720 -39.325 -15.021  1.00  0.00     0.053 C 
BRANCH   5   6
ATOM      6  C   UNL     1      -7.882 -38.728 -16.382  1.00  0.00     0.041 C 
ATOM      7  O   UNL     1      -7.261 -39.211 -17.365  1.00  0.00    -0.550 OA
ATOM      8  O   UNL     1      -8.683 -37.606 -16.559  1.00  0.00    -0.550 OA
ENDBRANCH   5   6
ENDBRANCH   4   5
ENDBRANCH   3   4
ENDBRANCH   2   3
ENDBRANCH   1   2
BRANCH   1   9
ATOM      9  C   UNL     1      -6.361 -40.276 -10.010  1.00  0.00     0.000 C 
BRANCH   9  10
ATOM     10  C   UNL     1      -5.500 -39.044 -10.338  1.00  0.00    -0.000 C 
BRANCH  10  11
ATOM     11  C   UNL     1      -5.956 -37.785  -9.583  1.00  0.00    -0.000 C 
BRANCH  11  12
ATOM     12  C   UNL     1      -4.795 -36.828  -9.276  1.00  0.00    -0.000 C 
BRANCH  12  13
ATOM     13  C   UNL     1      -5.268 -35.370  -9.291  1.00  0.00    -0.003 C 
ATOM     14  C   UNL     1      -6.299 -35.135 -10.391  1.00  0.00     0.004 C 
ENDBRANCH  12  13
ENDBRANCH  11  12
ENDBRANCH  10  11
ENDBRANCH   9  10
ENDBRANCH   1   9
TORSDOF 10
ENDMDL
MODEL 5
REMARK VINA RESULT:    -3.624      1.781      2.340
REMARK INTER + INTRA:          -6.997
REMARK INTER:                  -5.868
REMARK INTRA:                  -1.130
REMARK UNBOUND:                -1.255
REMARK SMILES CCCCCCCCCCCC(=O)[O-]
REMARK SMILES IDX 7 1 8 2 9 3 10 4 11 5 12 6 13 7 14 8 6 9 5 10 4 11 3 12 2 13
REMARK SMILES IDX 1 14
REMARK H PARENT
REMARK Flexibility Score: inf
ROOT
ATOM      1  C   UNL     1      -7.118 -37.602 -10.492  1.00  0.00     0.000 C 
ENDROOT
BRANCH   1   2
ATOM      2  C   UNL     1      -6.573 -38.444  -9.328  1.00  0.00     0.000 C 
BRANCH   2   3
ATOM      3  C   UNL     1      -7.706 -38.869  -8.381  1.00  0.00     0.000 C 
BRANCH   3   4
ATOM      4  C   UNL     1      -8.018 -40.371  -8.468  1.00  0.00     0.006 C 
BRANCH   4   5
ATOM      5  C   UNL     1      -6.770 -41.219  -8.747  1.00  0.00     0.053 C 
BRANCH   5   6
ATOM      6  C   UNL     1      -6.995 -42.103  -9.932  1.00  0.00     0.041 C 
ATOM      7  O   UNL     1      -7.214 -41.602 -11.066  1.00  0.00    -0.550 OA
ATOM      8  O   UNL     1      -7.011 -43.484  -9.777  1.00  0.00    -0.550 OA
ENDBRANCH   5   6
ENDBRANCH   4   5
ENDBRANCH   3   4
ENDBRANCH   2   3
ENDBRANCH   1   2
BRANCH   1   9
ATOM      9  C   UNL     1      -8.331 -36.748 -10.087  1.00  0.00     0.000 C 
BRANCH   9  10
ATOM     10  C   UNL     1      -8.072 -35.240 -10.249  1.00  0.00    -0.000 C 
BRANCH  10  11
ATOM     11  C   UNL     1      -6.581 -34.913 -10.432  1.00  0.00    -0.000 C 
BRANCH  11  12
ATOM     12  C   UNL     1      -5.999 -34.124  -9.250  1.00  0.00    -0.000 C 
BRANCH  12  13
ATOM     13  C   UNL     1      -5.453 -35.071  -8.175  1.00  0.00    -0.003 C 
ATOM     14  C   UNL     1      -4.110 -35.663  -8.591  1.00  0.00     0.004 C 
ENDBRANCH  12  13
ENDBRANCH  11  12
ENDBRANCH  10  11
ENDBRANCH   9  10
ENDBRANCH   1   9
TORSDOF 10
ENDMDL
MODEL 6
REMARK VINA RESULT:    -3.621      3.169      6.538
REMARK INTER + INTRA:          -6.993
REMARK INTER:                  -6.425
REMARK INTRA:                  -0.568
REMARK UNBOUND:                -1.255
REMARK SMILES CCCCCCCCCCCC(=O)[O-]
REMARK SMILES IDX 7 1 8 2 9 3 10 4 11 5 12 6 13 7 14 8 6 9 5 10 4 11 3 12 2 13
REMARK SMILES IDX 1 14
REMARK H PARENT
REMARK Flexibility Score: inf
ROOT
ATOM      1  C   UNL     1      -6.526 -40.405 -11.543  1.00  0.00     0.000 C 
ENDROOT
BRANCH   1   2
ATOM      2  C   UNL     1      -6.129 -39.929 -10.137  1.00  0.00     0.000 C 
BRANCH   2   3
ATOM      3  C   UNL     1      -5.304 -38.635 -10.209  1.00  0.00     0.000 C 
BRANCH   3   4
ATOM      4  C   UNL     1      -5.900 -37.506  -9.352  1.00  0.00     0.006 C 
BRANCH   4   5
ATOM      5  C   UNL     1      -5.215 -36.155  -9.596  1.00  0.00     0.053 C 
BRANCH   5   6
ATOM      6  C   UNL     1      -6.233 -35.104  -9.909  1.00  0.00     0.041 C 
ATOM      7  O   UNL     1      -5.995 -33.894  -9.652  1.00  0.00    -0.550 OA
ATOM      8  O   UNL     1      -7.465 -35.465 -10.439  1.00  0.00    -0.550 OA
ENDBRANCH   5   6
ENDBRANCH   4   5
ENDBRANCH   3   4
ENDBRANCH   2   3
ENDBRANCH   1   2
BRANCH   1   9
ATOM      9  C   UNL     1      -7.317 -39.345 -12.325  1.00  0.00     0.000 C 
BRANCH   9  10
ATOM     10  C   UNL     1      -7.516 -39.726 -13.802  1.00  0.00    -0.000 C 
BRANCH  10  11
ATOM     11  C   UNL     1      -6.633 -40.909 -14.231  1.00  0.00    -0.000 C 
BRANCH  11  12
ATOM     12  C   UNL     1      -6.306 -40.888 -15.732  1.00  0.00    -0.000 C 
BRANCH  12  13
ATOM     13  C   UNL     1      -7.247 -39.942 -16.485  1.00  0.00    -0.003 C 
ATOM     14  C   UNL     1      -6.849 -39.820 -17.954  1.00  0.00     0.004 C 
ENDBRANCH  12  13
ENDBRANCH  11  12
ENDBRANCH  10  11
ENDBRANCH   9  10
ENDBRANCH   1   9
TORSDOF 10
ENDMDL
MODEL 7
REMARK VINA RESULT:    -3.610      2.209      3.535
REMARK INTER + INTRA:          -6.976
REMARK INTER:                  -6.271
REMARK INTRA:                  -0.705
REMARK UNBOUND:                -1.255
REMARK SMILES CCCCCCCCCCCC(=O)[O-]
REMARK SMILES IDX 7 1 8 2 9 3 10 4 11 5 12 6 13 7 14 8 6 9 5 10 4 11 3 12 2 13
REMARK SMILES IDX 1 14
REMARK H PARENT
REMARK Flexibility Score: inf
ROOT
ATOM      1  C   UNL     1      -5.486 -38.813 -10.110  1.00  0.00     0.000 C 
ENDROOT
BRANCH   1   2
ATOM      2  C   UNL     1      -6.691 -39.084 -11.024  1.00  0.00     0.000 C 
BRANCH   2   3
ATOM      3  C   UNL     1      -6.477 -40.363 -11.849  1.00  0.00     0.000 C 
BRANCH   3   4
ATOM      4  C   UNL     1      -7.593 -41.398 -11.636  1.00  0.00     0.006 C 
BRANCH   4   5
ATOM      5  C   UNL     1      -7.928 -41.610 -10.153  1.00  0.00     0.053 C 
BRANCH   5   6
ATOM      6  C   UNL     1      -6.938 -42.537  -9.523  1.00  0.00     0.041 C 
ATOM      7  O   UNL     1      -6.287 -42.176  -8.508  1.00  0.00    -0.550 OA
ATOM      8  O   UNL     1      -6.698 -43.785 -10.085  1.00  0.00    -0.550 OA
ENDBRANCH   5   6
ENDBRANCH   4   5
ENDBRANCH   3   4
ENDBRANCH   2   3
ENDBRANCH   1   2
BRANCH   1   9
ATOM      9  C   UNL     1      -5.631 -37.508  -9.311  1.00  0.00     0.000 C 
BRANCH   9  10
ATOM     10  C   UNL     1      -4.348 -36.660  -9.327  1.00  0.00    -0.000 C 
BRANCH  10  11
ATOM     11  C   UNL     1      -4.486 -35.364  -8.511  1.00  0.00    -0.000 C 
BRANCH  11  12
ATOM     12  C   UNL     1      -5.948 -35.018  -8.195  1.00  0.00    -0.000 C 
BRANCH  12  13
ATOM     13  C   UNL     1      -6.462 -33.909  -9.120  1.00  0.00    -0.003 C 
ATOM     14  C   UNL     1      -7.355 -34.477 -10.219  1.00  0.00     0.004 C 
ENDBRANCH  12  13
ENDBRANCH  11  12
ENDBRANCH  10  11
ENDBRANCH   9  10
ENDBRANCH   1   9
TORSDOF 10
ENDMDL
MODEL 8
REMARK VINA RESULT:    -3.588      1.425      3.240
REMARK INTER + INTRA:          -6.940
REMARK INTER:                  -5.950
REMARK INTRA:                  -0.990
REMARK UNBOUND:                -1.255
REMARK SMILES CCCCCCCCCCCC(=O)[O-]
REMARK SMILES IDX 7 1 8 2 9 3 10 4 11 5 12 6 13 7 14 8 6 9 5 10 4 11 3 12 2 13
REMARK SMILES IDX 1 14
REMARK H PARENT
REMARK Flexibility Score: inf
ROOT
ATOM      1  C   UNL     1      -5.729 -37.942  -9.374  1.00  0.00     0.000 C 
ENDROOT
BRANCH   1   2
ATOM      2  C   UNL     1      -5.409 -38.949 -10.489  1.00  0.00     0.000 C 
BRANCH   2   3
ATOM      3  C   UNL     1      -6.647 -39.789 -10.841  1.00  0.00     0.000 C 
BRANCH   3   4
ATOM      4  C   UNL     1      -7.247 -39.414 -12.206  1.00  0.00     0.006 C 
BRANCH   4   5
ATOM      5  C   UNL     1      -7.240 -40.586 -13.197  1.00  0.00     0.053 C 
BRANCH   5   6
ATOM      6  C   UNL     1      -7.102 -40.082 -14.598  1.00  0.00     0.041 C 
ATOM      7  O   UNL     1      -6.296 -40.632 -15.393  1.00  0.00    -0.550 OA
ATOM      8  O   UNL     1      -7.828 -38.973 -15.013  1.00  0.00    -0.550 OA
ENDBRANCH   5   6
ENDBRANCH   4   5
ENDBRANCH   3   4
ENDBRANCH   2   3
ENDBRANCH   1   2
BRANCH   1   9
ATOM      9  C   UNL     1      -4.770 -36.741  -9.368  1.00  0.00     0.000 C 
BRANCH   9  10
ATOM     10  C   UNL     1      -5.509 -35.396  -9.257  1.00  0.00    -0.000 C 
BRANCH  10  11
ATOM     11  C   UNL     1      -6.322 -35.062 -10.518  1.00  0.00    -0.000 C 
BRANCH  11  12
ATOM     12  C   UNL     1      -7.802 -34.791 -10.212  1.00  0.00    -0.000 C 
BRANCH  12  13
ATOM     13  C   UNL     1      -8.668 -36.003 -10.576  1.00  0.00    -0.003 C 
ATOM     14  C   UNL     1      -9.203 -36.694  -9.325  1.00  0.00     0.004 C 
ENDBRANCH  12  13
ENDBRANCH  11  12
ENDBRANCH  10  11
ENDBRANCH   9  10
ENDBRANCH   1   9
TORSDOF 10
ENDMDL
MODEL 9
REMARK VINA RESULT:    -3.503      2.561      5.146
REMARK INTER + INTRA:          -6.806
REMARK INTER:                  -5.844
REMARK INTRA:                  -0.962
REMARK UNBOUND:                -1.255
REMARK SMILES CCCCCCCCCCCC(=O)[O-]
REMARK SMILES IDX 7 1 8 2 9 3 10 4 11 5 12 6 13 7 14 8 6 9 5 10 4 11 3 12 2 13
REMARK SMILES IDX 1 14
REMARK H PARENT
REMARK Flexibility Score: inf
ROOT
ATOM      1  C   UNL     1      -8.668 -36.483 -10.468  1.00  0.00     0.000 C 
ENDROOT
BRANCH   1   2
ATOM      2  C   UNL     1      -8.064 -35.507  -9.447  1.00  0.00     0.000 C 
BRANCH   2   3
ATOM      3  C   UNL     1      -7.130 -34.500 -10.137  1.00  0.00     0.000 C 
BRANCH   3   4
ATOM      4  C   UNL     1      -5.979 -34.042  -9.228  1.00  0.00     0.006 C 
BRANCH   4   5
ATOM      5  C   UNL     1      -5.607 -35.091  -8.171  1.00  0.00     0.053 C 
BRANCH   5   6
ATOM      6  C   UNL     1      -4.407 -35.869  -8.611  1.00  0.00     0.041 C 
ATOM      7  O   UNL     1      -4.538 -36.857  -9.381  1.00  0.00    -0.550 OA
ATOM      8  O   UNL     1      -3.147 -35.534  -8.131  1.00  0.00    -0.550 OA
ENDBRANCH   5   6
ENDBRANCH   4   5
ENDBRANCH   3   4
ENDBRANCH   2   3
ENDBRANCH   1   2
BRANCH   1   9
ATOM      9  C   UNL     1      -8.730 -37.926  -9.943  1.00  0.00     0.000 C 
BRANCH   9  10
ATOM     10  C   UNL     1      -7.702 -38.194  -8.830  1.00  0.00    -0.000 C 
BRANCH  10  11
ATOM     11  C   UNL     1      -6.993 -39.548  -8.994  1.00  0.00    -0.000 C 
BRANCH  11  12
ATOM     12  C   UNL     1      -6.175 -39.633 -10.290  1.00  0.00    -0.000 C 
BRANCH  12  13
ATOM     13  C   UNL     1      -6.733 -40.715 -11.222  1.00  0.00    -0.003 C 
ATOM     14  C   UNL     1      -6.731 -40.247 -12.674  1.00  0.00     0.004 C 
ENDBRANCH  12  13
ENDBRANCH  11  12
ENDBRANCH  10  11
ENDBRANCH   9  10
ENDBRANCH   1   9
TORSDOF 10
ENDMDL
