MODEL 1
REMARK VINA RESULT:    -3.124      0.000      0.000
REMARK INTER + INTRA:          -3.530
REMARK INTER:                  -3.489
REMARK INTRA:                  -0.041
REMARK UNBOUND:                -0.041
REMARK SMILES CCCC(=O)[O-]
REMARK SMILES IDX 3 1 4 2 5 3 6 4 2 5 1 6
REMARK H PARENT
REMARK Flexibility Score: inf
ROOT
ATOM      1  C   UNL     1      17.358 -34.970  -1.209  1.00  0.00     0.052 C 
ENDROOT
BRANCH   1   2
ATOM      2  C   UNL     1      17.143 -36.182  -2.058  1.00  0.00     0.041 C 
ATOM      3  O   UNL     1      18.126 -36.786  -2.561  1.00  0.00    -0.550 OA
ATOM      4  O   UNL     1      15.859 -36.675  -2.253  1.00  0.00    -0.550 OA
ENDBRANCH   1   2
BRANCH   1   5
ATOM      5  C   UNL     1      17.327 -33.702  -2.066  1.00  0.00     0.003 C 
ATOM      6  C   UNL     1      15.946 -33.053  -2.040  1.00  0.00     0.004 C 
ENDBRANCH   1   5
TORSDOF 2
ENDMDL
MODEL 2
REMARK VINA RESULT:    -3.103      2.260      3.288
REMARK INTER + INTRA:          -3.507
REMARK INTER:                  -3.500
REMARK INTRA:                  -0.007
REMARK UNBOUND:                -0.041
REMARK SMILES CCCC(=O)[O-]
REMARK SMILES IDX 3 1 4 2 5 3 6 4 2 5 1 6
REMARK H PARENT
REMARK Flexibility Score: inf
ROOT
ATOM      1  C   UNL     1      17.347 -34.706  -1.966  1.00  0.00     0.052 C 
ENDROOT
BRANCH   1   2
ATOM      2  C   UNL     1      16.231 -33.792  -1.573  1.00  0.00     0.041 C 
ATOM      3  O   UNL     1      16.052 -32.709  -2.189  1.00  0.00    -0.550 OA
ATOM      4  O   UNL     1      15.356 -34.159  -0.559  1.00  0.00    -0.550 OA
ENDBRANCH   1   2
BRANCH   1   5
ATOM      5  C   UNL     1      16.844 -36.147  -2.086  1.00  0.00     0.003 C 
ATOM      6  C   UNL     1      17.988 -37.106  -2.402  1.00  0.00     0.004 C 
ENDBRANCH   1   5
TORSDOF 2
ENDMDL
MODEL 3
REMARK VINA RESULT:    -3.085      2.197      3.061
REMARK INTER + INTRA:          -3.487
REMARK INTER:                  -3.456
REMARK INTRA:                  -0.031
REMARK UNBOUND:                -0.041
REMARK SMILES CCCC(=O)[O-]
REMARK SMILES IDX 3 1 4 2 5 3 6 4 2 5 1 6
REMARK H PARENT
REMARK Flexibility Score: inf
ROOT
ATOM      1  C   UNL     1      18.050 -37.430  -2.008  1.00  0.00     0.052 C 
ENDROOT
BRANCH   1   2
ATOM      2  C   UNL     1      18.215 -37.886  -0.593  1.00  0.00     0.041 C 
ATOM      3  O   UNL     1      17.307 -37.669   0.253  1.00  0.00    -0.550 OA
ATOM      4  O   UNL     1      19.348 -38.596  -0.219  1.00  0.00    -0.550 OA
ENDBRANCH   1   2
BRANCH   1   5
ATOM      5  C   UNL     1      16.906 -36.419  -2.115  1.00  0.00     0.003 C 
ATOM      6  C   UNL     1      17.423 -34.988  -2.002  1.00  0.00     0.004 C 
ENDBRANCH   1   5
TORSDOF 2
ENDMDL
MODEL 4
REMARK VINA RESULT:    -3.075      2.258      3.386
REMARK INTER + INTRA:          -3.476
REMARK INTER:                  -3.467
REMARK INTRA:                  -0.009
REMARK UNBOUND:                -0.041
REMARK SMILES CCCC(=O)[O-]
REMARK SMILES IDX 3 1 4 2 5 3 6 4 2 5 1 6
REMARK H PARENT
REMARK Flexibility Score: inf
ROOT
ATOM      1  C   UNL     1      17.349 -34.665  -1.968  1.00  0.00     0.052 C 
ENDROOT
BRANCH   1   2
ATOM      2  C   UNL     1      16.234 -33.791  -1.487  1.00  0.00     0.041 C 
ATOM      3  O   UNL     1      15.581 -34.107  -0.459  1.00  0.00    -0.550 OA
ATOM      4  O   UNL     1      15.950 -32.601  -2.145  1.00  0.00    -0.550 OA
ENDBRANCH   1   2
BRANCH   1   5
ATOM      5  C   UNL     1      16.885 -36.119  -2.070  1.00  0.00     0.003 C 
ATOM      6  C   UNL     1      18.049 -37.047  -2.405  1.00  0.00     0.004 C 
ENDBRANCH   1   5
TORSDOF 2
ENDMDL
MODEL 5
REMARK VINA RESULT:    -3.015      2.229      3.340
REMARK INTER + INTRA:          -3.408
REMARK INTER:                  -3.367
REMARK INTRA:                  -0.041
REMARK UNBOUND:                -0.041
REMARK SMILES CCCC(=O)[O-]
REMARK SMILES IDX 3 1 4 2 5 3 6 4 2 5 1 6
REMARK H PARENT
REMARK Flexibility Score: inf
ROOT
ATOM      1  C   UNL     1      16.792 -35.841  -1.883  1.00  0.00     0.052 C 
ENDROOT
BRANCH   1   2
ATOM      2  C   UNL     1      17.444 -34.607  -1.346  1.00  0.00     0.041 C 
ATOM      3  O   UNL     1      17.703 -33.642  -2.113  1.00  0.00    -0.550 OA
ATOM      4  O   UNL     1      17.718 -34.500   0.011  1.00  0.00    -0.550 OA
ENDBRANCH   1   2
BRANCH   1   5
ATOM      5  C   UNL     1      17.848 -36.849  -2.342  1.00  0.00     0.003 C 
ATOM      6  C   UNL     1      18.220 -37.809  -1.216  1.00  0.00     0.004 C 
ENDBRANCH   1   5
TORSDOF 2
ENDMDL
MODEL 6
REMARK VINA RESULT:    -3.013      1.580      1.704
REMARK INTER + INTRA:          -3.407
REMARK INTER:                  -3.375
REMARK INTRA:                  -0.032
REMARK UNBOUND:                -0.041
REMARK SMILES CCCC(=O)[O-]
REMARK SMILES IDX 3 1 4 2 5 3 6 4 2 5 1 6
REMARK H PARENT
REMARK Flexibility Score: inf
ROOT
ATOM      1  C   UNL     1      17.337 -35.550  -2.082  1.00  0.00     0.052 C 
ENDROOT
BRANCH   1   2
ATOM      2  C   UNL     1      17.699 -36.406  -0.910  1.00  0.00     0.041 C 
ATOM      3  O   UNL     1      17.957 -37.628  -1.073  1.00  0.00    -0.550 OA
ATOM      4  O   UNL     1      17.803 -35.845   0.356  1.00  0.00    -0.550 OA
ENDBRANCH   1   2
BRANCH   1   5
ATOM      5  C   UNL     1      17.509 -34.069  -1.737  1.00  0.00     0.003 C 
ATOM      6  C   UNL     1      16.231 -33.285  -2.018  1.00  0.00     0.004 C 
ENDBRANCH   1   5
TORSDOF 2
ENDMDL
MODEL 7
REMARK VINA RESULT:    -3.012      1.525      1.784
REMARK INTER + INTRA:          -3.405
REMARK INTER:                  -3.373
REMARK INTRA:                  -0.032
REMARK UNBOUND:                -0.041
REMARK SMILES CCCC(=O)[O-]
REMARK SMILES IDX 3 1 4 2 5 3 6 4 2 5 1 6
REMARK H PARENT
REMARK Flexibility Score: inf
ROOT
ATOM      1  C   UNL     1      17.326 -35.599  -2.089  1.00  0.00     0.052 C 
ENDROOT
BRANCH   1   2
ATOM      2  C   UNL     1      17.738 -36.480  -0.952  1.00  0.00     0.041 C 
ATOM      3  O   UNL     1      17.747 -36.033   0.225  1.00  0.00    -0.550 OA
ATOM      4  O   UNL     1      18.063 -37.810  -1.186  1.00  0.00    -0.550 OA
ENDBRANCH   1   2
BRANCH   1   5
ATOM      5  C   UNL     1      17.521 -34.126  -1.723  1.00  0.00     0.003 C 
ATOM      6  C   UNL     1      16.270 -33.310  -2.034  1.00  0.00     0.004 C 
ENDBRANCH   1   5
TORSDOF 2
ENDMDL
MODEL 8
REMARK VINA RESULT:    -2.937      2.389      3.068
REMARK INTER + INTRA:          -3.322
REMARK INTER:                  -3.265
REMARK INTRA:                  -0.057
REMARK UNBOUND:                -0.041
REMARK SMILES CCCC(=O)[O-]
REMARK SMILES IDX 3 1 4 2 5 3 6 4 2 5 1 6
REMARK H PARENT
REMARK Flexibility Score: inf
ROOT
ATOM      1  C   UNL     1      17.416 -34.515  -1.253  1.00  0.00     0.052 C 
ENDROOT
BRANCH   1   2
ATOM      2  C   UNL     1      17.289 -34.846   0.200  1.00  0.00     0.041 C 
ATOM      3  O   UNL     1      18.251 -34.636   0.985  1.00  0.00    -0.550 OA
ATOM      4  O   UNL     1      16.090 -35.340   0.698  1.00  0.00    -0.550 OA
ENDBRANCH   1   2
BRANCH   1   5
ATOM      5  C   UNL     1      16.849 -35.647  -2.113  1.00  0.00     0.003 C 
ATOM      6  C   UNL     1      17.867 -36.771  -2.285  1.00  0.00     0.004 C 
ENDBRANCH   1   5
TORSDOF 2
ENDMDL
MODEL 9
REMARK VINA RESULT:    -2.479     12.022     12.674
REMARK INTER + INTRA:          -2.809
REMARK INTER:                  -2.798
REMARK INTRA:                  -0.011
REMARK UNBOUND:                -0.041
REMARK SMILES CCCC(=O)[O-]
REMARK SMILES IDX 3 1 4 2 5 3 6 4 2 5 1 6
REMARK H PARENT
REMARK Flexibility Score: inf
ROOT
ATOM      1  C   UNL     1      29.728 -36.734  -1.902  1.00  0.00     0.052 C 
ENDROOT
BRANCH   1   2
ATOM      2  C   UNL     1      29.299 -35.306  -2.021  1.00  0.00     0.041 C 
ATOM      3  O   UNL     1      28.332 -34.876  -1.339  1.00  0.00    -0.550 OA
ATOM      4  O   UNL     1      29.998 -34.436  -2.848  1.00  0.00    -0.550 OA
ENDBRANCH   1   2
BRANCH   1   5
ATOM      5  C   UNL     1      28.652 -37.666  -2.462  1.00  0.00     0.003 C 
ATOM      6  C   UNL     1      28.747 -39.056  -1.839  1.00  0.00     0.004 C 
ENDBRANCH   1   5
TORSDOF 2
ENDMDL
