MODEL 1
REMARK VINA RESULT:    -4.429      0.000      0.000
REMARK INTER + INTRA:          -5.413
REMARK INTER:                  -5.076
REMARK INTRA:                  -0.337
REMARK UNBOUND:                -0.337
REMARK SMILES COc1ccc(C(C)=O)c(O)c1
REMARK SMILES IDX 6 1 10 2 12 3 3 4 4 5 5 6 7 7 8 8 9 9 11 10 2 12 1 13
REMARK H PARENT 11 11
REMARK Flexibility Score: inf
ROOT
ATOM      1  C   UNL     1      20.042  22.334  18.438  1.00  0.00     0.059 A 
ATOM      2  C   UNL     1      21.407  22.712  18.415  1.00  0.00     0.130 A 
ATOM      3  C   UNL     1      22.241  22.376  19.489  1.00  0.00     0.093 A 
ATOM      4  C   UNL     1      21.748  21.638  20.580  1.00  0.00     0.122 A 
ATOM      5  C   UNL     1      20.410  21.242  20.583  1.00  0.00     0.047 A 
ATOM      6  C   UNL     1      19.564  21.584  19.528  1.00  0.00     0.019 A 
ENDROOT
BRANCH   1   7
ATOM      7  C   UNL     1      19.098  22.736  17.369  1.00  0.00     0.163 C 
ATOM      8  C   UNL     1      18.042  21.794  16.875  1.00  0.00     0.093 C 
ATOM      9  O   UNL     1      19.120  23.913  16.919  1.00  0.00    -0.294 OA
ENDBRANCH   1   7
BRANCH   2  10
ATOM     10  O   UNL     1      21.977  23.390  17.335  1.00  0.00    -0.507 OA
ATOM     11  H   UNL     1      22.950  23.304  17.075  1.00  0.00     0.293 HD
ENDBRANCH   2  10
BRANCH   4  12
ATOM     12  O   UNL     1      22.553  21.276  21.671  1.00  0.00    -0.497 OA
ATOM     13  C   UNL     1      23.077  19.970  21.885  1.00  0.00     0.278 C 
ENDBRANCH   4  12
TORSDOF 3
ENDMDL
MODEL 2
REMARK VINA RESULT:    -4.355      1.348      2.270
REMARK INTER + INTRA:          -5.328
REMARK INTER:                  -4.997
REMARK INTRA:                  -0.331
REMARK UNBOUND:                -0.337
REMARK SMILES COc1ccc(C(C)=O)c(O)c1
REMARK SMILES IDX 6 1 10 2 12 3 3 4 4 5 5 6 7 7 8 8 9 9 11 10 2 12 1 13
REMARK H PARENT 11 11
REMARK Flexibility Score: inf
ROOT
ATOM      1  C   UNL     1      20.361  23.045  18.588  1.00  0.00     0.059 A 
ATOM      2  C   UNL     1      19.666  22.487  19.690  1.00  0.00     0.130 A 
ATOM      3  C   UNL     1      20.378  21.843  20.710  1.00  0.00     0.093 A 
ATOM      4  C   UNL     1      21.782  21.771  20.672  1.00  0.00     0.122 A 
ATOM      5  C   UNL     1      22.464  22.349  19.600  1.00  0.00     0.047 A 
ATOM      6  C   UNL     1      21.766  22.978  18.569  1.00  0.00     0.019 A 
ENDROOT
BRANCH   1   7
ATOM      7  C   UNL     1      19.653  23.661  17.442  1.00  0.00     0.163 C 
ATOM      8  C   UNL     1      20.095  24.976  16.875  1.00  0.00     0.093 C 
ATOM      9  O   UNL     1      18.714  23.040  16.875  1.00  0.00    -0.294 OA
ENDBRANCH   1   7
BRANCH   2  10
ATOM     10  O   UNL     1      18.278  22.579  19.822  1.00  0.00    -0.507 OA
ATOM     11  H   UNL     1      17.658  21.785  19.742  1.00  0.00     0.293 HD
ENDBRANCH   2  10
BRANCH   4  12
ATOM     12  O   UNL     1      22.532  21.142  21.678  1.00  0.00    -0.497 OA
ATOM     13  C   UNL     1      22.901  19.766  21.663  1.00  0.00     0.278 C 
ENDBRANCH   4  12
TORSDOF 3
ENDMDL
MODEL 3
REMARK VINA RESULT:    -4.209      2.796      3.665
REMARK INTER + INTRA:          -5.162
REMARK INTER:                  -4.854
REMARK INTRA:                  -0.307
REMARK UNBOUND:                -0.337
REMARK SMILES COc1ccc(C(C)=O)c(O)c1
REMARK SMILES IDX 6 1 10 2 12 3 3 4 4 5 5 6 7 7 8 8 9 9 11 10 2 12 1 13
REMARK H PARENT 11 11
REMARK Flexibility Score: inf
ROOT
ATOM      1  C   UNL     1      20.007  23.363  19.577  1.00  0.00     0.059 A 
ATOM      2  C   UNL     1      19.733  23.838  20.883  1.00  0.00     0.130 A 
ATOM      3  C   UNL     1      18.888  23.106  21.727  1.00  0.00     0.093 A 
ATOM      4  C   UNL     1      18.334  21.884  21.307  1.00  0.00     0.122 A 
ATOM      5  C   UNL     1      18.632  21.405  20.030  1.00  0.00     0.047 A 
ATOM      6  C   UNL     1      19.457  22.134  19.172  1.00  0.00     0.019 A 
ENDROOT
BRANCH   1   7
ATOM      7  C   UNL     1      20.823  24.140  18.614  1.00  0.00     0.163 C 
ATOM      8  C   UNL     1      21.334  23.514  17.352  1.00  0.00     0.093 C 
ATOM      9  O   UNL     1      21.027  25.368  18.809  1.00  0.00    -0.294 OA
ENDBRANCH   1   7
BRANCH   2  10
ATOM     10  O   UNL     1      20.300  25.011  21.387  1.00  0.00    -0.507 OA
ATOM     11  H   UNL     1      20.140  25.347  22.326  1.00  0.00     0.293 HD
ENDBRANCH   2  10
BRANCH   4  12
ATOM     12  O   UNL     1      17.491  21.117  22.125  1.00  0.00    -0.497 OA
ATOM     13  C   UNL     1      16.900  19.881  21.737  1.00  0.00     0.278 C 
ENDBRANCH   4  12
TORSDOF 3
ENDMDL
MODEL 4
REMARK VINA RESULT:    -4.015      4.653      6.982
REMARK INTER + INTRA:          -4.939
REMARK INTER:                  -4.598
REMARK INTRA:                  -0.340
REMARK UNBOUND:                -0.337
REMARK SMILES COc1ccc(C(C)=O)c(O)c1
REMARK SMILES IDX 6 1 10 2 12 3 3 4 4 5 5 6 7 7 8 8 9 9 11 10 2 12 1 13
REMARK H PARENT 11 11
REMARK Flexibility Score: inf
ROOT
ATOM      1  C   UNL     1      25.144  16.786  19.272  1.00  0.00     0.059 A 
ATOM      2  C   UNL     1      25.722  17.948  19.840  1.00  0.00     0.130 A 
ATOM      3  C   UNL     1      24.966  18.752  20.703  1.00  0.00     0.093 A 
ATOM      4  C   UNL     1      23.646  18.403  21.040  1.00  0.00     0.122 A 
ATOM      5  C   UNL     1      23.091  17.240  20.502  1.00  0.00     0.047 A 
ATOM      6  C   UNL     1      23.828  16.440  19.628  1.00  0.00     0.019 A 
ENDROOT
BRANCH   1   7
ATOM      7  C   UNL     1      25.869  15.948  18.289  1.00  0.00     0.163 C 
ATOM      8  C   UNL     1      25.272  15.634  16.951  1.00  0.00     0.093 C 
ATOM      9  O   UNL     1      27.041  15.556  18.539  1.00  0.00    -0.294 OA
ENDBRANCH   1   7
BRANCH   2  10
ATOM     10  O   UNL     1      27.047  18.319  19.598  1.00  0.00    -0.507 OA
ATOM     11  H   UNL     1      27.834  17.706  19.758  1.00  0.00     0.293 HD
ENDBRANCH   2  10
BRANCH   4  12
ATOM     12  O   UNL     1      22.860  19.178  21.906  1.00  0.00    -0.497 OA
ATOM     13  C   UNL     1      22.612  20.570  21.738  1.00  0.00     0.278 C 
ENDBRANCH   4  12
TORSDOF 3
ENDMDL
MODEL 5
REMARK VINA RESULT:    -3.956      2.099      2.738
REMARK INTER + INTRA:          -4.871
REMARK INTER:                  -4.534
REMARK INTRA:                  -0.337
REMARK UNBOUND:                -0.337
REMARK SMILES COc1ccc(C(C)=O)c(O)c1
REMARK SMILES IDX 6 1 10 2 12 3 3 4 4 5 5 6 7 7 8 8 9 9 11 10 2 12 1 13
REMARK H PARENT 11 11
REMARK Flexibility Score: inf
ROOT
ATOM      1  C   UNL     1      20.224  23.127  18.977  1.00  0.00     0.059 A 
ATOM      2  C   UNL     1      21.039  22.562  19.989  1.00  0.00     0.130 A 
ATOM      3  C   UNL     1      20.639  21.380  20.626  1.00  0.00     0.093 A 
ATOM      4  C   UNL     1      19.452  20.727  20.251  1.00  0.00     0.122 A 
ATOM      5  C   UNL     1      18.668  21.272  19.232  1.00  0.00     0.047 A 
ATOM      6  C   UNL     1      19.046  22.457  18.602  1.00  0.00     0.019 A 
ENDROOT
BRANCH   1   7
ATOM      7  C   UNL     1      20.557  24.419  18.331  1.00  0.00     0.163 C 
ATOM      8  C   UNL     1      20.287  24.648  16.875  1.00  0.00     0.093 C 
ATOM      9  O   UNL     1      20.997  25.375  19.025  1.00  0.00    -0.294 OA
ENDBRANCH   1   7
BRANCH   2  10
ATOM     10  O   UNL     1      22.261  23.124  20.366  1.00  0.00    -0.507 OA
ATOM     11  H   UNL     1      23.153  22.681  20.197  1.00  0.00     0.293 HD
ENDBRANCH   2  10
BRANCH   4  12
ATOM     12  O   UNL     1      19.021  19.538  20.860  1.00  0.00    -0.497 OA
ATOM     13  C   UNL     1      19.824  18.370  21.001  1.00  0.00     0.278 C 
ENDBRANCH   4  12
TORSDOF 3
ENDMDL
MODEL 6
REMARK VINA RESULT:    -3.933      5.714      6.705
REMARK INTER + INTRA:          -4.845
REMARK INTER:                  -4.502
REMARK INTRA:                  -0.343
REMARK UNBOUND:                -0.337
REMARK SMILES COc1ccc(C(C)=O)c(O)c1
REMARK SMILES IDX 6 1 10 2 12 3 3 4 4 5 5 6 7 7 8 8 9 9 11 10 2 12 1 13
REMARK H PARENT 11 11
REMARK Flexibility Score: inf
ROOT
ATOM      1  C   UNL     1      22.523  17.016  20.940  1.00  0.00     0.059 A 
ATOM      2  C   UNL     1      23.503  18.001  21.217  1.00  0.00     0.130 A 
ATOM      3  C   UNL     1      24.722  17.984  20.527  1.00  0.00     0.093 A 
ATOM      4  C   UNL     1      24.975  17.018  19.537  1.00  0.00     0.122 A 
ATOM      5  C   UNL     1      23.995  16.068  19.247  1.00  0.00     0.047 A 
ATOM      6  C   UNL     1      22.783  16.063  19.938  1.00  0.00     0.019 A 
ENDROOT
BRANCH   1   7
ATOM      7  C   UNL     1      21.253  16.936  21.699  1.00  0.00     0.163 C 
ATOM      8  C   UNL     1      20.910  15.723  22.508  1.00  0.00     0.093 C 
ATOM      9  O   UNL     1      20.479  17.931  21.737  1.00  0.00    -0.294 OA
ENDBRANCH   1   7
BRANCH   2  10
ATOM     10  O   UNL     1      23.292  19.026  22.142  1.00  0.00    -0.507 OA
ATOM     11  H   UNL     1      23.273  20.005  21.892  1.00  0.00     0.293 HD
ENDBRANCH   2  10
BRANCH   4  12
ATOM     12  O   UNL     1      26.180  16.972  18.819  1.00  0.00    -0.497 OA
ATOM     13  C   UNL     1      26.603  15.867  18.027  1.00  0.00     0.278 C 
ENDBRANCH   4  12
TORSDOF 3
ENDMDL
MODEL 7
REMARK VINA RESULT:    -3.915      2.252      4.613
REMARK INTER + INTRA:          -4.824
REMARK INTER:                  -4.477
REMARK INTRA:                  -0.347
REMARK UNBOUND:                -0.337
REMARK SMILES COc1ccc(C(C)=O)c(O)c1
REMARK SMILES IDX 6 1 10 2 12 3 3 4 4 5 5 6 7 7 8 8 9 9 11 10 2 12 1 13
REMARK H PARENT 11 11
REMARK Flexibility Score: inf
ROOT
ATOM      1  C   UNL     1      19.729  22.760  20.037  1.00  0.00     0.059 A 
ATOM      2  C   UNL     1      19.128  23.609  19.076  1.00  0.00     0.130 A 
ATOM      3  C   UNL     1      18.395  23.056  18.018  1.00  0.00     0.093 A 
ATOM      4  C   UNL     1      18.218  21.664  17.915  1.00  0.00     0.122 A 
ATOM      5  C   UNL     1      18.787  20.833  18.882  1.00  0.00     0.047 A 
ATOM      6  C   UNL     1      19.534  21.371  19.931  1.00  0.00     0.019 A 
ENDROOT
BRANCH   1   7
ATOM      7  C   UNL     1      20.585  23.287  21.126  1.00  0.00     0.163 C 
ATOM      8  C   UNL     1      21.927  22.688  21.414  1.00  0.00     0.093 C 
ATOM      9  O   UNL     1      20.224  24.307  21.772  1.00  0.00    -0.294 OA
ENDBRANCH   1   7
BRANCH   2  10
ATOM     10  O   UNL     1      19.209  25.002  19.153  1.00  0.00    -0.507 OA
ATOM     11  H   UNL     1      18.613  25.562  19.747  1.00  0.00     0.293 HD
ENDBRANCH   2  10
BRANCH   4  12
ATOM     12  O   UNL     1      17.485  21.072  16.876  1.00  0.00    -0.497 OA
ATOM     13  C   UNL     1      16.875  19.787  16.953  1.00  0.00     0.278 C 
ENDBRANCH   4  12
TORSDOF 3
ENDMDL
MODEL 8
REMARK VINA RESULT:    -3.692      5.409      6.964
REMARK INTER + INTRA:          -4.568
REMARK INTER:                  -4.238
REMARK INTRA:                  -0.331
REMARK UNBOUND:                -0.337
REMARK SMILES COc1ccc(C(C)=O)c(O)c1
REMARK SMILES IDX 6 1 10 2 12 3 3 4 4 5 5 6 7 7 8 8 9 9 11 10 2 12 1 13
REMARK H PARENT 11 11
REMARK Flexibility Score: inf
ROOT
ATOM      1  C   UNL     1      24.459  17.465  20.080  1.00  0.00     0.059 A 
ATOM      2  C   UNL     1      23.502  16.424  19.987  1.00  0.00     0.130 A 
ATOM      3  C   UNL     1      22.264  16.557  20.629  1.00  0.00     0.093 A 
ATOM      4  C   UNL     1      21.943  17.728  21.338  1.00  0.00     0.122 A 
ATOM      5  C   UNL     1      22.877  18.764  21.400  1.00  0.00     0.047 A 
ATOM      6  C   UNL     1      24.121  18.637  20.780  1.00  0.00     0.019 A 
ENDROOT
BRANCH   1   7
ATOM      7  C   UNL     1      25.814  17.341  19.493  1.00  0.00     0.163 C 
ATOM      8  C   UNL     1      27.023  17.834  20.228  1.00  0.00     0.093 C 
ATOM      9  O   UNL     1      25.973  16.739  18.397  1.00  0.00    -0.294 OA
ENDBRANCH   1   7
BRANCH   2  10
ATOM     10  O   UNL     1      23.731  15.262  19.247  1.00  0.00    -0.507 OA
ATOM     11  H   UNL     1      24.574  14.710  19.325  1.00  0.00     0.293 HD
ENDBRANCH   2  10
BRANCH   4  12
ATOM     12  O   UNL     1      20.711  17.903  21.987  1.00  0.00    -0.497 OA
ATOM     13  C   UNL     1      19.925  16.841  22.519  1.00  0.00     0.278 C 
ENDBRANCH   4  12
TORSDOF 3
ENDMDL
MODEL 9
REMARK VINA RESULT:    -3.508      2.924      4.603
REMARK INTER + INTRA:          -4.357
REMARK INTER:                  -4.102
REMARK INTRA:                  -0.255
REMARK UNBOUND:                -0.337
REMARK SMILES COc1ccc(C(C)=O)c(O)c1
REMARK SMILES IDX 6 1 10 2 12 3 3 4 4 5 5 6 7 7 8 8 9 9 11 10 2 12 1 13
REMARK H PARENT 11 11
REMARK Flexibility Score: inf
ROOT
ATOM      1  C   UNL     1      18.654  22.231  21.016  1.00  0.00     0.059 A 
ATOM      2  C   UNL     1      19.120  21.507  19.891  1.00  0.00     0.130 A 
ATOM      3  C   UNL     1      19.911  22.147  18.929  1.00  0.00     0.093 A 
ATOM      4  C   UNL     1      20.278  23.496  19.081  1.00  0.00     0.122 A 
ATOM      5  C   UNL     1      19.841  24.197  20.206  1.00  0.00     0.047 A 
ATOM      6  C   UNL     1      19.039  23.576  21.164  1.00  0.00     0.019 A 
ENDROOT
BRANCH   1   7
ATOM      7  C   UNL     1      17.746  21.626  22.018  1.00  0.00     0.163 C 
ATOM      8  C   UNL     1      17.352  22.374  23.257  1.00  0.00     0.093 C 
ATOM      9  O   UNL     1      17.224  20.500  21.797  1.00  0.00    -0.294 OA
ENDBRANCH   1   7
BRANCH   2  10
ATOM     10  O   UNL     1      18.847  20.149  19.711  1.00  0.00    -0.507 OA
ATOM     11  H   UNL     1      18.490  19.763  18.848  1.00  0.00     0.293 HD
ENDBRANCH   2  10
BRANCH   4  12
ATOM     12  O   UNL     1      21.075  24.171  18.143  1.00  0.00    -0.497 OA
ATOM     13  C   UNL     1      20.613  24.625  16.875  1.00  0.00     0.278 C 
ENDBRANCH   4  12
TORSDOF 3
ENDMDL
