MODEL 1
REMARK VINA RESULT:     0.000      0.000      0.000
REMARK INTER + INTRA:           0.000
REMARK INTER:                   0.000
REMARK INTRA:                   0.000
REMARK UNBOUND:                 0.000
REMARK SMILES [NH3+]CC(=O)[O-]
REMARK SMILES IDX 2 1 1 2 3 6 4 7 5 8
REMARK H PARENT 1 3 1 4 1 5
REMARK Flexibility Score: inf
ROOT
ATOM      1  C   UNL     1      -4.039  20.205 -54.764  1.00  0.00     0.312 C 
ENDROOT
BRANCH   1   2
ATOM      2  N   UNL     1      -2.776  19.751 -55.341  1.00  0.00    -0.353 N 
ATOM      3  H   UNL     1      -2.093  20.543 -55.379  1.00  0.00     0.344 HD
ATOM      4  H   UNL     1      -2.936  19.374 -56.304  1.00  0.00     0.344 HD
ATOM      5  H   UNL     1      -2.380  18.991 -54.742  1.00  0.00     0.344 HD
ENDBRANCH   1   2
BRANCH   1   6
ATOM      6  C   UNL     1      -3.835  20.690 -53.362  1.00  0.00     0.096 C 
ATOM      7  O   UNL     1      -3.523  21.891 -53.147  1.00  0.00    -0.544 OA
ATOM      8  O   UNL     1      -4.041  19.829 -52.292  1.00  0.00    -0.544 OA
ENDBRANCH   1   6
TORSDOF 2
ENDMDL
MODEL 2
REMARK VINA RESULT:     0.000      2.012      2.149
REMARK INTER + INTRA:           0.000
REMARK INTER:                   0.000
REMARK INTRA:                   0.000
REMARK UNBOUND:                 0.000
REMARK SMILES [NH3+]CC(=O)[O-]
REMARK SMILES IDX 2 1 1 2 3 6 4 7 5 8
REMARK H PARENT 1 3 1 4 1 5
REMARK Flexibility Score: inf
ROOT
ATOM      1  C   UNL     1      -2.853  20.280 -54.508  1.00  0.00     0.312 C 
ENDROOT
BRANCH   1   2
ATOM      2  N   UNL     1      -1.512  20.218 -55.085  1.00  0.00    -0.353 N 
ATOM      3  H   UNL     1      -1.560  20.367 -56.119  1.00  0.00     0.344 HD
ATOM      4  H   UNL     1      -1.075  19.290 -54.880  1.00  0.00     0.344 HD
ATOM      5  H   UNL     1      -0.923  20.971 -54.660  1.00  0.00     0.344 HD
ENDBRANCH   1   2
BRANCH   1   6
ATOM      6  C   UNL     1      -3.047  19.187 -53.503  1.00  0.00     0.096 C 
ATOM      7  O   UNL     1      -4.142  18.568 -53.444  1.00  0.00    -0.544 OA
ATOM      8  O   UNL     1      -2.002  18.818 -52.666  1.00  0.00    -0.544 OA
ENDBRANCH   1   6
TORSDOF 2
ENDMDL
MODEL 3
REMARK VINA RESULT:     0.000     13.278     13.637
REMARK INTER + INTRA:           0.000
REMARK INTER:                   0.000
REMARK INTRA:                   0.000
REMARK UNBOUND:                 0.000
REMARK SMILES [NH3+]CC(=O)[O-]
REMARK SMILES IDX 2 1 1 2 3 6 4 7 5 8
REMARK H PARENT 1 3 1 4 1 5
REMARK Flexibility Score: inf
ROOT
ATOM      1  C   UNL     1       5.688  19.781 -44.314  1.00  0.00     0.312 C 
ENDROOT
BRANCH   1   2
ATOM      2  N   UNL     1       6.143  18.849 -45.344  1.00  0.00    -0.353 N 
ATOM      3  H   UNL     1       5.937  19.237 -46.294  1.00  0.00     0.344 HD
ATOM      4  H   UNL     1       5.668  17.925 -45.227  1.00  0.00     0.344 HD
ATOM      5  H   UNL     1       7.176  18.714 -45.250  1.00  0.00     0.344 HD
ENDBRANCH   1   2
BRANCH   1   6
ATOM      6  C   UNL     1       4.997  19.047 -43.206  1.00  0.00     0.096 C 
ATOM      7  O   UNL     1       3.883  18.496 -43.410  1.00  0.00    -0.544 OA
ATOM      8  O   UNL     1       5.607  18.928 -41.964  1.00  0.00    -0.544 OA
ENDBRANCH   1   6
TORSDOF 2
ENDMDL
MODEL 4
REMARK VINA RESULT:     0.000     13.032     13.427
REMARK INTER + INTRA:           0.000
REMARK INTER:                   0.000
REMARK INTRA:                   0.000
REMARK UNBOUND:                 0.000
REMARK SMILES [NH3+]CC(=O)[O-]
REMARK SMILES IDX 2 1 1 2 3 6 4 7 5 8
REMARK H PARENT 1 3 1 4 1 5
REMARK Flexibility Score: inf
ROOT
ATOM      1  C   UNL     1       4.526  19.104 -43.705  1.00  0.00     0.312 C 
ENDROOT
BRANCH   1   2
ATOM      2  N   UNL     1       4.981  18.173 -44.735  1.00  0.00    -0.353 N 
ATOM      3  H   UNL     1       4.775  18.560 -45.685  1.00  0.00     0.344 HD
ATOM      4  H   UNL     1       4.506  17.249 -44.618  1.00  0.00     0.344 HD
ATOM      5  H   UNL     1       6.014  18.037 -44.641  1.00  0.00     0.344 HD
ENDBRANCH   1   2
BRANCH   1   6
ATOM      6  C   UNL     1       3.835  18.371 -42.597  1.00  0.00     0.096 C 
ATOM      7  O   UNL     1       4.314  18.385 -41.433  1.00  0.00    -0.544 OA
ATOM      8  O   UNL     1       2.635  17.716 -42.840  1.00  0.00    -0.544 OA
ENDBRANCH   1   6
TORSDOF 2
ENDMDL
MODEL 5
REMARK VINA RESULT:     0.000     11.392     11.794
REMARK INTER + INTRA:           0.000
REMARK INTER:                   0.000
REMARK INTRA:                   0.000
REMARK UNBOUND:                 0.000
REMARK SMILES [NH3+]CC(=O)[O-]
REMARK SMILES IDX 2 1 1 2 3 6 4 7 5 8
REMARK H PARENT 1 3 1 4 1 5
REMARK Flexibility Score: inf
ROOT
ATOM      1  C   UNL     1       3.603  18.981 -45.377  1.00  0.00     0.312 C 
ENDROOT
BRANCH   1   2
ATOM      2  N   UNL     1       4.292  18.572 -46.599  1.00  0.00    -0.353 N 
ATOM      3  H   UNL     1       3.829  19.002 -47.433  1.00  0.00     0.344 HD
ATOM      4  H   UNL     1       4.281  17.530 -46.686  1.00  0.00     0.344 HD
ATOM      5  H   UNL     1       5.285  18.898 -46.557  1.00  0.00     0.344 HD
ENDBRANCH   1   2
BRANCH   1   6
ATOM      6  C   UNL     1       3.431  17.817 -44.452  1.00  0.00     0.096 C 
ATOM      7  O   UNL     1       4.114  17.740 -43.397  1.00  0.00    -0.544 OA
ATOM      8  O   UNL     1       2.480  16.843 -44.729  1.00  0.00    -0.544 OA
ENDBRANCH   1   6
TORSDOF 2
ENDMDL
MODEL 6
REMARK VINA RESULT:     0.000     11.468     11.815
REMARK INTER + INTRA:           0.000
REMARK INTER:                   0.000
REMARK INTRA:                   0.000
REMARK UNBOUND:                 0.000
REMARK SMILES [NH3+]CC(=O)[O-]
REMARK SMILES IDX 2 1 1 2 3 6 4 7 5 8
REMARK H PARENT 1 3 1 4 1 5
REMARK Flexibility Score: inf
ROOT
ATOM      1  C   UNL     1       2.511  10.904 -49.319  1.00  0.00     0.312 C 
ENDROOT
BRANCH   1   2
ATOM      2  N   UNL     1       1.176  10.742 -48.747  1.00  0.00    -0.353 N 
ATOM      3  H   UNL     1       0.676  11.661 -48.739  1.00  0.00     0.344 HD
ATOM      4  H   UNL     1       1.246  10.367 -47.774  1.00  0.00     0.344 HD
ATOM      5  H   UNL     1       0.634  10.066 -49.333  1.00  0.00     0.344 HD
ENDBRANCH   1   2
BRANCH   1   6
ATOM      6  C   UNL     1       3.052  12.268 -49.021  1.00  0.00     0.096 C 
ATOM      7  O   UNL     1       4.213  12.400 -48.551  1.00  0.00    -0.544 OA
ATOM      8  O   UNL     1       2.294  13.395 -49.311  1.00  0.00    -0.544 OA
ENDBRANCH   1   6
TORSDOF 2
ENDMDL
MODEL 7
REMARK VINA RESULT:     0.000     11.852     12.175
REMARK INTER + INTRA:           0.000
REMARK INTER:                   0.000
REMARK INTRA:                   0.000
REMARK UNBOUND:                 0.000
REMARK SMILES [NH3+]CC(=O)[O-]
REMARK SMILES IDX 2 1 1 2 3 6 4 7 5 8
REMARK H PARENT 1 3 1 4 1 5
REMARK Flexibility Score: inf
ROOT
ATOM      1  C   UNL     1       2.232  10.537 -48.048  1.00  0.00     0.312 C 
ENDROOT
BRANCH   1   2
ATOM      2  N   UNL     1       1.533   9.635 -47.136  1.00  0.00    -0.353 N 
ATOM      3  H   UNL     1       0.560   9.462 -47.478  1.00  0.00     0.344 HD
ATOM      4  H   UNL     1       1.503  10.047 -46.175  1.00  0.00     0.344 HD
ATOM      5  H   UNL     1       2.045   8.724 -47.098  1.00  0.00     0.344 HD
ENDBRANCH   1   2
BRANCH   1   6
ATOM      6  C   UNL     1       1.637  11.910 -47.992  1.00  0.00     0.096 C 
ATOM      7  O   UNL     1       2.380  12.917 -47.853  1.00  0.00    -0.544 OA
ATOM      8  O   UNL     1       0.268  12.081 -48.147  1.00  0.00    -0.544 OA
ENDBRANCH   1   6
TORSDOF 2
ENDMDL
MODEL 8
REMARK VINA RESULT:     0.000     13.148     13.648
REMARK INTER + INTRA:           0.000
REMARK INTER:                   0.000
REMARK INTRA:                   0.000
REMARK UNBOUND:                 0.000
REMARK SMILES [NH3+]CC(=O)[O-]
REMARK SMILES IDX 2 1 1 2 3 6 4 7 5 8
REMARK H PARENT 1 3 1 4 1 5
REMARK Flexibility Score: inf
ROOT
ATOM      1  C   UNL     1       2.299  10.102 -46.237  1.00  0.00     0.312 C 
ENDROOT
BRANCH   1   2
ATOM      2  N   UNL     1       1.909  10.643 -44.937  1.00  0.00    -0.353 N 
ATOM      3  H   UNL     1       2.761  10.869 -44.372  1.00  0.00     0.344 HD
ATOM      4  H   UNL     1       1.316   9.952 -44.423  1.00  0.00     0.344 HD
ATOM      5  H   UNL     1       1.358  11.520 -45.083  1.00  0.00     0.344 HD
ENDBRANCH   1   2
BRANCH   1   6
ATOM      6  C   UNL     1       1.143  10.124 -47.187  1.00  0.00     0.096 C 
ATOM      7  O   UNL     1       0.730   9.055 -47.707  1.00  0.00    -0.544 OA
ATOM      8  O   UNL     1       0.488  11.319 -47.458  1.00  0.00    -0.544 OA
ENDBRANCH   1   6
TORSDOF 2
ENDMDL
MODEL 9
REMARK VINA RESULT:     0.000     10.989     11.311
REMARK INTER + INTRA:           0.000
REMARK INTER:                   0.000
REMARK INTRA:                   0.000
REMARK UNBOUND:                 0.000
REMARK SMILES [NH3+]CC(=O)[O-]
REMARK SMILES IDX 2 1 1 2 3 6 4 7 5 8
REMARK H PARENT 1 3 1 4 1 5
REMARK Flexibility Score: inf
ROOT
ATOM      1  C   UNL     1       1.908  25.841 -46.850  1.00  0.00     0.312 C 
ENDROOT
BRANCH   1   2
ATOM      2  N   UNL     1       1.083  24.694 -46.480  1.00  0.00    -0.353 N 
ATOM      3  H   UNL     1       0.075  24.972 -46.450  1.00  0.00     0.344 HD
ATOM      4  H   UNL     1       1.377  24.325 -45.547  1.00  0.00     0.344 HD
ATOM      5  H   UNL     1       1.205  23.941 -47.196  1.00  0.00     0.344 HD
ENDBRANCH   1   2
BRANCH   1   6
ATOM      6  C   UNL     1       3.243  25.772 -46.175  1.00  0.00     0.096 C 
ATOM      7  O   UNL     1       3.314  25.574 -44.933  1.00  0.00    -0.544 OA
ATOM      8  O   UNL     1       4.408  25.875 -46.924  1.00  0.00    -0.544 OA
ENDBRANCH   1   6
TORSDOF 2
ENDMDL
