MODEL 1
REMARK VINA RESULT:    -4.842      0.000      0.000
REMARK INTER + INTRA:          -5.444
REMARK INTER:                  -5.408
REMARK INTRA:                  -0.036
REMARK UNBOUND:                -0.036
REMARK SMILES O=C([O-])c1ccc(O)c(O)c1
REMARK SMILES IDX 4 1 11 2 5 3 9 4 6 5 7 6 2 7 1 8 3 9 10 10 8 12
REMARK H PARENT 10 11 8 13
REMARK Flexibility Score: inf
ROOT
ATOM      1  C   UNL     1      21.527   0.366 -20.934  1.00  0.00     0.001 A 
ATOM      2  C   UNL     1      20.267  -0.256 -20.887  1.00  0.00     0.060 A 
ATOM      3  C   UNL     1      22.199   0.635 -19.729  1.00  0.00     0.014 A 
ATOM      4  C   UNL     1      19.687  -0.605 -19.659  1.00  0.00     0.158 A 
ATOM      5  C   UNL     1      21.622   0.288 -18.504  1.00  0.00     0.051 A 
ATOM      6  C   UNL     1      20.370  -0.330 -18.461  1.00  0.00     0.157 A 
ENDROOT
BRANCH   1   7
ATOM      7  C   UNL     1      22.133   0.732 -22.233  1.00  0.00     0.072 C 
ATOM      8  O   UNL     1      22.656  -0.149 -22.967  1.00  0.00    -0.545 OA
ATOM      9  O   UNL     1      22.132   2.054 -22.663  1.00  0.00    -0.545 OA
ENDBRANCH   1   7
BRANCH   4  10
ATOM     10  O   UNL     1      18.437  -1.221 -19.624  1.00  0.00    -0.504 OA
ATOM     11  H   UNL     1      17.579  -0.683 -19.657  1.00  0.00     0.293 HD
ENDBRANCH   4  10
BRANCH   6  12
ATOM     12  O   UNL     1      19.820  -0.665 -17.225  1.00  0.00    -0.504 OA
ATOM     13  H   UNL     1      19.033  -0.162 -16.832  1.00  0.00     0.293 HD
ENDBRANCH   6  12
TORSDOF 3
ENDMDL
MODEL 2
REMARK VINA RESULT:    -4.826      1.368      4.540
REMARK INTER + INTRA:          -5.426
REMARK INTER:                  -5.382
REMARK INTRA:                  -0.044
REMARK UNBOUND:                -0.036
REMARK SMILES O=C([O-])c1ccc(O)c(O)c1
REMARK SMILES IDX 4 1 11 2 5 3 9 4 6 5 7 6 2 7 1 8 3 9 10 10 8 12
REMARK H PARENT 10 11 8 13
REMARK Flexibility Score: inf
ROOT
ATOM      1  C   UNL     1      20.893  -0.775 -20.103  1.00  0.00     0.001 A 
ATOM      2  C   UNL     1      21.265   0.551 -19.818  1.00  0.00     0.060 A 
ATOM      3  C   UNL     1      21.082  -1.270 -21.405  1.00  0.00     0.014 A 
ATOM      4  C   UNL     1      21.817   1.369 -20.815  1.00  0.00     0.158 A 
ATOM      5  C   UNL     1      21.632  -0.456 -22.399  1.00  0.00     0.051 A 
ATOM      6  C   UNL     1      22.000   0.861 -22.113  1.00  0.00     0.157 A 
ENDROOT
BRANCH   1   7
ATOM      7  C   UNL     1      20.311  -1.632 -19.047  1.00  0.00     0.072 C 
ATOM      8  O   UNL     1      20.105  -1.174 -17.892  1.00  0.00    -0.545 OA
ATOM      9  O   UNL     1      19.983  -2.956 -19.316  1.00  0.00    -0.545 OA
ENDBRANCH   1   7
BRANCH   4  10
ATOM     10  O   UNL     1      22.181   2.682 -20.522  1.00  0.00    -0.504 OA
ATOM     11  H   UNL     1      23.135   3.006 -20.636  1.00  0.00     0.293 HD
ENDBRANCH   4  10
BRANCH   6  12
ATOM     12  O   UNL     1      22.546   1.649 -23.125  1.00  0.00    -0.504 OA
ATOM     13  H   UNL     1      23.385   2.198 -22.986  1.00  0.00     0.293 HD
ENDBRANCH   6  12
TORSDOF 3
ENDMDL
MODEL 3
REMARK VINA RESULT:    -4.770     17.407     18.771
REMARK INTER + INTRA:          -5.364
REMARK INTER:                  -5.327
REMARK INTRA:                  -0.038
REMARK UNBOUND:                -0.036
REMARK SMILES O=C([O-])c1ccc(O)c(O)c1
REMARK SMILES IDX 4 1 11 2 5 3 9 4 6 5 7 6 2 7 1 8 3 9 10 10 8 12
REMARK H PARENT 10 11 8 13
REMARK Flexibility Score: inf
ROOT
ATOM      1  C   UNL     1       9.366  -6.689  -8.006  1.00  0.00     0.001 A 
ATOM      2  C   UNL     1      10.223  -5.882  -7.238  1.00  0.00     0.060 A 
ATOM      3  C   UNL     1       7.992  -6.703  -7.705  1.00  0.00     0.014 A 
ATOM      4  C   UNL     1       9.719  -5.101  -6.188  1.00  0.00     0.158 A 
ATOM      5  C   UNL     1       7.489  -5.925  -6.659  1.00  0.00     0.051 A 
ATOM      6  C   UNL     1       8.344  -5.124  -5.898  1.00  0.00     0.157 A 
ENDROOT
BRANCH   1   7
ATOM      7  C   UNL     1       9.904  -7.511  -9.112  1.00  0.00     0.072 C 
ATOM      8  O   UNL     1       9.510  -7.330 -10.295  1.00  0.00    -0.545 OA
ATOM      9  O   UNL     1      10.854  -8.494  -8.861  1.00  0.00    -0.545 OA
ENDBRANCH   1   7
BRANCH   4  10
ATOM     10  O   UNL     1      10.578  -4.304  -5.432  1.00  0.00    -0.504 OA
ATOM     11  H   UNL     1      10.275  -3.419  -5.041  1.00  0.00     0.293 HD
ENDBRANCH   4  10
BRANCH   6  12
ATOM     12  O   UNL     1       7.813  -4.359  -4.860  1.00  0.00    -0.504 OA
ATOM     13  H   UNL     1       7.329  -3.486  -5.029  1.00  0.00     0.293 HD
ENDBRANCH   6  12
TORSDOF 3
ENDMDL
MODEL 4
REMARK VINA RESULT:    -4.740      0.817      2.025
REMARK INTER + INTRA:          -5.331
REMARK INTER:                  -5.294
REMARK INTRA:                  -0.037
REMARK UNBOUND:                -0.036
REMARK SMILES O=C([O-])c1ccc(O)c(O)c1
REMARK SMILES IDX 4 1 11 2 5 3 9 4 6 5 7 6 2 7 1 8 3 9 10 10 8 12
REMARK H PARENT 10 11 8 13
REMARK Flexibility Score: inf
ROOT
ATOM      1  C   UNL     1      21.532   0.245 -21.105  1.00  0.00     0.001 A 
ATOM      2  C   UNL     1      22.094   0.605 -19.868  1.00  0.00     0.060 A 
ATOM      3  C   UNL     1      20.346  -0.511 -21.120  1.00  0.00     0.014 A 
ATOM      4  C   UNL     1      21.483   0.220 -18.666  1.00  0.00     0.158 A 
ATOM      5  C   UNL     1      19.737  -0.896 -19.923  1.00  0.00     0.051 A 
ATOM      6  C   UNL     1      20.299  -0.536 -18.695  1.00  0.00     0.157 A 
ENDROOT
BRANCH   1   7
ATOM      7  C   UNL     1      22.181   0.654 -22.369  1.00  0.00     0.072 C 
ATOM      8  O   UNL     1      22.711  -0.204 -23.125  1.00  0.00    -0.545 OA
ATOM      9  O   UNL     1      22.215   1.993 -22.743  1.00  0.00    -0.545 OA
ENDBRANCH   1   7
BRANCH   4  10
ATOM     10  O   UNL     1      22.049   0.582 -17.444  1.00  0.00    -0.504 OA
ATOM     11  H   UNL     1      22.721   1.338 -17.373  1.00  0.00     0.293 HD
ENDBRANCH   4  10
BRANCH   6  12
ATOM     12  O   UNL     1      19.668  -0.934 -17.517  1.00  0.00    -0.504 OA
ATOM     13  H   UNL     1      19.383  -0.270 -16.808  1.00  0.00     0.293 HD
ENDBRANCH   6  12
TORSDOF 3
ENDMDL
MODEL 5
REMARK VINA RESULT:    -4.673      1.497      4.376
REMARK INTER + INTRA:          -5.256
REMARK INTER:                  -5.218
REMARK INTRA:                  -0.037
REMARK UNBOUND:                -0.036
REMARK SMILES O=C([O-])c1ccc(O)c(O)c1
REMARK SMILES IDX 4 1 11 2 5 3 9 4 6 5 7 6 2 7 1 8 3 9 10 10 8 12
REMARK H PARENT 10 11 8 13
REMARK Flexibility Score: inf
ROOT
ATOM      1  C   UNL     1      21.373  -0.218 -18.995  1.00  0.00     0.001 A 
ATOM      2  C   UNL     1      21.733   0.779 -19.921  1.00  0.00     0.060 A 
ATOM      3  C   UNL     1      21.002  -1.487 -19.472  1.00  0.00     0.014 A 
ATOM      4  C   UNL     1      21.723   0.512 -21.297  1.00  0.00     0.158 A 
ATOM      5  C   UNL     1      20.993  -1.754 -20.843  1.00  0.00     0.051 A 
ATOM      6  C   UNL     1      21.350  -0.762 -21.760  1.00  0.00     0.157 A 
ENDROOT
BRANCH   1   7
ATOM      7  C   UNL     1      21.385   0.070 -17.545  1.00  0.00     0.072 C 
ATOM      8  O   UNL     1      22.457   0.381 -16.961  1.00  0.00    -0.545 OA
ATOM      9  O   UNL     1      20.210   0.003 -16.803  1.00  0.00    -0.545 OA
ENDBRANCH   1   7
BRANCH   4  10
ATOM     10  O   UNL     1      22.081   1.507 -22.207  1.00  0.00    -0.504 OA
ATOM     11  H   UNL     1      23.007   1.918 -22.207  1.00  0.00     0.293 HD
ENDBRANCH   4  10
BRANCH   6  12
ATOM     12  O   UNL     1      21.331  -1.057 -23.122  1.00  0.00    -0.504 OA
ATOM     13  H   UNL     1      20.560  -1.552 -23.555  1.00  0.00     0.293 HD
ENDBRANCH   6  12
TORSDOF 3
ENDMDL
MODEL 6
REMARK VINA RESULT:    -4.670      1.187      4.283
REMARK INTER + INTRA:          -5.252
REMARK INTER:                  -5.208
REMARK INTRA:                  -0.044
REMARK UNBOUND:                -0.036
REMARK SMILES O=C([O-])c1ccc(O)c(O)c1
REMARK SMILES IDX 4 1 11 2 5 3 9 4 6 5 7 6 2 7 1 8 3 9 10 10 8 12
REMARK H PARENT 10 11 8 13
REMARK Flexibility Score: inf
ROOT
ATOM      1  C   UNL     1      20.635  -0.490 -19.314  1.00  0.00     0.001 A 
ATOM      2  C   UNL     1      20.437  -1.197 -20.514  1.00  0.00     0.060 A 
ATOM      3  C   UNL     1      21.463   0.647 -19.322  1.00  0.00     0.014 A 
ATOM      4  C   UNL     1      21.054  -0.777 -21.701  1.00  0.00     0.158 A 
ATOM      5  C   UNL     1      22.077   1.066 -20.505  1.00  0.00     0.051 A 
ATOM      6  C   UNL     1      21.879   0.361 -21.695  1.00  0.00     0.157 A 
ENDROOT
BRANCH   1   7
ATOM      7  C   UNL     1      19.982  -0.939 -18.065  1.00  0.00     0.072 C 
ATOM      8  O   UNL     1      20.056  -0.243 -17.018  1.00  0.00    -0.545 OA
ATOM      9  O   UNL     1      19.277  -2.137 -18.030  1.00  0.00    -0.545 OA
ENDBRANCH   1   7
BRANCH   4  10
ATOM     10  O   UNL     1      20.852  -1.485 -22.885  1.00  0.00    -0.504 OA
ATOM     11  H   UNL     1      20.305  -1.100 -23.647  1.00  0.00     0.293 HD
ENDBRANCH   4  10
BRANCH   6  12
ATOM     12  O   UNL     1      22.506   0.804 -22.859  1.00  0.00    -0.504 OA
ATOM     13  H   UNL     1      22.258   1.680 -23.304  1.00  0.00     0.293 HD
ENDBRANCH   6  12
TORSDOF 3
ENDMDL
MODEL 7
REMARK VINA RESULT:    -4.624      1.730      4.824
REMARK INTER + INTRA:          -5.201
REMARK INTER:                  -5.164
REMARK INTRA:                  -0.036
REMARK UNBOUND:                -0.036
REMARK SMILES O=C([O-])c1ccc(O)c(O)c1
REMARK SMILES IDX 4 1 11 2 5 3 9 4 6 5 7 6 2 7 1 8 3 9 10 10 8 12
REMARK H PARENT 10 11 8 13
REMARK Flexibility Score: inf
ROOT
ATOM      1  C   UNL     1      19.690  -0.799 -18.369  1.00  0.00     0.001 A 
ATOM      2  C   UNL     1      20.914  -0.158 -18.107  1.00  0.00     0.060 A 
ATOM      3  C   UNL     1      19.237  -0.884 -19.698  1.00  0.00     0.014 A 
ATOM      4  C   UNL     1      21.674   0.387 -19.152  1.00  0.00     0.158 A 
ATOM      5  C   UNL     1      19.994  -0.341 -20.739  1.00  0.00     0.051 A 
ATOM      6  C   UNL     1      21.210   0.294 -20.475  1.00  0.00     0.157 A 
ENDROOT
BRANCH   1   7
ATOM      7  C   UNL     1      18.893  -1.371 -17.263  1.00  0.00     0.072 C 
ATOM      8  O   UNL     1      18.856  -2.616 -17.076  1.00  0.00    -0.545 OA
ATOM      9  O   UNL     1      18.172  -0.541 -16.410  1.00  0.00    -0.545 OA
ENDBRANCH   1   7
BRANCH   4  10
ATOM     10  O   UNL     1      22.886   1.020 -18.880  1.00  0.00    -0.504 OA
ATOM     11  H   UNL     1      23.171   1.238 -17.932  1.00  0.00     0.293 HD
ENDBRANCH   4  10
BRANCH   6  12
ATOM     12  O   UNL     1      21.942   0.826 -21.535  1.00  0.00    -0.504 OA
ATOM     13  H   UNL     1      22.732   1.443 -21.388  1.00  0.00     0.293 HD
ENDBRANCH   6  12
TORSDOF 3
ENDMDL
MODEL 8
REMARK VINA RESULT:    -4.508     17.525     18.233
REMARK INTER + INTRA:          -5.071
REMARK INTER:                  -5.035
REMARK INTRA:                  -0.036
REMARK UNBOUND:                -0.036
REMARK SMILES O=C([O-])c1ccc(O)c(O)c1
REMARK SMILES IDX 4 1 11 2 5 3 9 4 6 5 7 6 2 7 1 8 3 9 10 10 8 12
REMARK H PARENT 10 11 8 13
REMARK Flexibility Score: inf
ROOT
ATOM      1  C   UNL     1       8.608  -7.188  -9.363  1.00  0.00     0.001 A 
ATOM      2  C   UNL     1       7.957  -6.105  -8.746  1.00  0.00     0.060 A 
ATOM      3  C   UNL     1       9.932  -7.486  -8.994  1.00  0.00     0.014 A 
ATOM      4  C   UNL     1       8.614  -5.333  -7.778  1.00  0.00     0.158 A 
ATOM      5  C   UNL     1      10.588  -6.717  -8.029  1.00  0.00     0.051 A 
ATOM      6  C   UNL     1       9.937  -5.641  -7.419  1.00  0.00     0.157 A 
ENDROOT
BRANCH   1   7
ATOM      7  C   UNL     1       7.910  -7.998 -10.384  1.00  0.00     0.072 C 
ATOM      8  O   UNL     1       7.247  -9.017 -10.051  1.00  0.00    -0.545 OA
ATOM      9  O   UNL     1       7.973  -7.646 -11.728  1.00  0.00    -0.545 OA
ENDBRANCH   1   7
BRANCH   4  10
ATOM     10  O   UNL     1       7.959  -4.261  -7.173  1.00  0.00    -0.504 OA
ATOM     11  H   UNL     1       8.362  -3.331  -7.159  1.00  0.00     0.293 HD
ENDBRANCH   4  10
BRANCH   6  12
ATOM     12  O   UNL     1      10.618  -4.893  -6.459  1.00  0.00    -0.504 OA
ATOM     13  H   UNL     1      11.625  -4.927  -6.365  1.00  0.00     0.293 HD
ENDBRANCH   6  12
TORSDOF 3
ENDMDL
MODEL 9
REMARK VINA RESULT:    -4.348     15.859     17.901
REMARK INTER + INTRA:          -4.893
REMARK INTER:                  -4.849
REMARK INTRA:                  -0.044
REMARK UNBOUND:                -0.036
REMARK SMILES O=C([O-])c1ccc(O)c(O)c1
REMARK SMILES IDX 4 1 11 2 5 3 9 4 6 5 7 6 2 7 1 8 3 9 10 10 8 12
REMARK H PARENT 10 11 8 13
REMARK Flexibility Score: inf
ROOT
ATOM      1  C   UNL     1       9.462  -5.526  -8.966  1.00  0.00     0.001 A 
ATOM      2  C   UNL     1       8.152  -5.017  -9.009  1.00  0.00     0.060 A 
ATOM      3  C   UNL     1      10.058  -5.767  -7.716  1.00  0.00     0.014 A 
ATOM      4  C   UNL     1       7.448  -4.753  -7.825  1.00  0.00     0.158 A 
ATOM      5  C   UNL     1       9.358  -5.504  -6.536  1.00  0.00     0.051 A 
ATOM      6  C   UNL     1       8.056  -4.998  -6.582  1.00  0.00     0.157 A 
ENDROOT
BRANCH   1   7
ATOM      7  C   UNL     1      10.199  -5.801 -10.219  1.00  0.00     0.072 C 
ATOM      8  O   UNL     1      11.440  -6.016 -10.198  1.00  0.00    -0.545 OA
ATOM      9  O   UNL     1       9.531  -5.829 -11.438  1.00  0.00    -0.545 OA
ENDBRANCH   1   7
BRANCH   4  10
ATOM     10  O   UNL     1       6.150  -4.248  -7.879  1.00  0.00    -0.504 OA
ATOM     11  H   UNL     1       5.751  -3.725  -7.108  1.00  0.00     0.293 HD
ENDBRANCH   4  10
BRANCH   6  12
ATOM     12  O   UNL     1       7.383  -4.746  -5.387  1.00  0.00    -0.504 OA
ATOM     13  H   UNL     1       7.060  -5.493  -4.784  1.00  0.00     0.293 HD
ENDBRANCH   6  12
TORSDOF 3
ENDMDL
