MODEL 1
REMARK VINA RESULT:    -5.125      0.000      0.000
REMARK INTER + INTRA:         -14.503
REMARK INTER:                 -11.118
REMARK INTRA:                  -3.385
REMARK UNBOUND:                -3.385
REMARK SMILES CCCCCCCCCCCCCCCCCCCCCC(=O)[O-]
REMARK SMILES IDX 12 1 11 2 10 3 9 4 8 5 7 6 6 7 5 8 4 9 3 10 2 11 1 12 13 13
REMARK SMILES IDX 14 14 15 15 16 16 17 17 18 18 19 19 20 20 21 21 22 22 23 23
REMARK SMILES IDX 24 24
REMARK H PARENT
REMARK Flexibility Score: inf
ROOT
ATOM      1  C   UNL     1      24.069  42.767 149.808  1.00  0.00     0.000 C 
ENDROOT
BRANCH   1   2
ATOM      2  C   UNL     1      25.183  42.385 150.798  1.00  0.00     0.000 C 
BRANCH   2   3
ATOM      3  C   UNL     1      25.265  40.868 151.050  1.00  0.00     0.000 C 
BRANCH   3   4
ATOM      4  C   UNL     1      26.648  40.244 150.792  1.00  0.00    -0.000 C 
BRANCH   4   5
ATOM      5  C   UNL     1      27.616  41.204 150.086  1.00  0.00    -0.000 C 
BRANCH   5   6
ATOM      6  C   UNL     1      28.456  40.464 149.035  1.00  0.00    -0.000 C 
BRANCH   6   7
ATOM      7  C   UNL     1      28.648  38.971 149.359  1.00  0.00    -0.000 C 
BRANCH   7   8
ATOM      8  C   UNL     1      28.563  38.024 148.148  1.00  0.00    -0.000 C 
BRANCH   8   9
ATOM      9  C   UNL     1      27.636  36.820 148.389  1.00  0.00    -0.000 C 
BRANCH   9  10
ATOM     10  C   UNL     1      27.334  36.601 149.886  1.00  0.00    -0.000 C 
BRANCH  10  11
ATOM     11  C   UNL     1      27.579  35.160 150.366  1.00  0.00    -0.003 C 
ATOM     12  C   UNL     1      28.169  34.259 149.284  1.00  0.00     0.004 C 
ENDBRANCH  10  11
ENDBRANCH   9  10
ENDBRANCH   8   9
ENDBRANCH   7   8
ENDBRANCH   6   7
ENDBRANCH   5   6
ENDBRANCH   4   5
ENDBRANCH   3   4
ENDBRANCH   2   3
ENDBRANCH   1   2
BRANCH   1  13
ATOM     13  C   UNL     1      24.590  42.926 148.370  1.00  0.00     0.000 C 
BRANCH  13  14
ATOM     14  C   UNL     1      24.119  41.791 147.445  1.00  0.00     0.000 C 
BRANCH  14  15
ATOM     15  C   UNL     1      25.241  40.795 147.109  1.00  0.00     0.000 C 
BRANCH  15  16
ATOM     16  C   UNL     1      25.017  39.415 147.753  1.00  0.00     0.000 C 
BRANCH  16  17
ATOM     17  C   UNL     1      23.617  38.850 147.467  1.00  0.00     0.000 C 
BRANCH  17  18
ATOM     18  C   UNL     1      23.055  38.033 148.640  1.00  0.00     0.000 C 
BRANCH  18  19
ATOM     19  C   UNL     1      23.908  36.781 148.894  1.00  0.00     0.000 C 
BRANCH  19  20
ATOM     20  C   UNL     1      24.160  35.953 147.622  1.00  0.00     0.006 C 
BRANCH  20  21
ATOM     21  C   UNL     1      23.386  34.623 147.578  1.00  0.00     0.053 C 
BRANCH  21  22
ATOM     22  C   UNL     1      24.072  33.530 148.340  1.00  0.00     0.041 C 
ATOM     23  O   UNL     1      24.359  32.442 147.774  1.00  0.00    -0.550 OA
ATOM     24  O   UNL     1      24.427  33.724 149.669  1.00  0.00    -0.550 OA
ENDBRANCH  21  22
ENDBRANCH  20  21
ENDBRANCH  19  20
ENDBRANCH  18  19
ENDBRANCH  17  18
ENDBRANCH  16  17
ENDBRANCH  15  16
ENDBRANCH  14  15
ENDBRANCH  13  14
ENDBRANCH   1  13
TORSDOF 20
ENDMDL
MODEL 2
REMARK VINA RESULT:    -5.051      3.188      5.388
REMARK INTER + INTRA:         -14.343
REMARK INTER:                 -10.499
REMARK INTRA:                  -3.844
REMARK UNBOUND:                -3.385
REMARK SMILES CCCCCCCCCCCCCCCCCCCCCC(=O)[O-]
REMARK SMILES IDX 12 1 11 2 10 3 9 4 8 5 7 6 6 7 5 8 4 9 3 10 2 11 1 12 13 13
REMARK SMILES IDX 14 14 15 15 16 16 17 17 18 18 19 19 20 20 21 21 22 22 23 23
REMARK SMILES IDX 24 24
REMARK H PARENT
REMARK Flexibility Score: inf
ROOT
ATOM      1  C   UNL     1      23.222  39.245 147.615  1.00  0.00     0.000 C 
ENDROOT
BRANCH   1   2
ATOM      2  C   UNL     1      23.032  38.293 148.809  1.00  0.00     0.000 C 
BRANCH   2   3
ATOM      3  C   UNL     1      23.998  37.094 148.778  1.00  0.00     0.000 C 
BRANCH   3   4
ATOM      4  C   UNL     1      24.627  36.806 147.403  1.00  0.00    -0.000 C 
BRANCH   4   5
ATOM      5  C   UNL     1      26.123  37.146 147.347  1.00  0.00    -0.000 C 
BRANCH   5   6
ATOM      6  C   UNL     1      26.955  35.910 146.971  1.00  0.00    -0.000 C 
BRANCH   6   7
ATOM      7  C   UNL     1      28.079  35.611 147.980  1.00  0.00    -0.000 C 
BRANCH   7   8
ATOM      8  C   UNL     1      27.658  34.757 149.190  1.00  0.00    -0.000 C 
BRANCH   8   9
ATOM      9  C   UNL     1      26.541  33.752 148.858  1.00  0.00    -0.000 C 
BRANCH   9  10
ATOM     10  C   UNL     1      25.324  33.894 149.796  1.00  0.00    -0.000 C 
BRANCH  10  11
ATOM     11  C   UNL     1      24.010  33.367 149.195  1.00  0.00    -0.003 C 
ATOM     12  C   UNL     1      24.123  33.026 147.711  1.00  0.00     0.004 C 
ENDBRANCH  10  11
ENDBRANCH   9  10
ENDBRANCH   8   9
ENDBRANCH   7   8
ENDBRANCH   6   7
ENDBRANCH   5   6
ENDBRANCH   4   5
ENDBRANCH   3   4
ENDBRANCH   2   3
ENDBRANCH   1   2
BRANCH   1  13
ATOM     13  C   UNL     1      23.907  40.561 148.015  1.00  0.00     0.000 C 
BRANCH  13  14
ATOM     14  C   UNL     1      25.250  40.768 147.295  1.00  0.00     0.000 C 
BRANCH  14  15
ATOM     15  C   UNL     1      26.417  40.996 148.270  1.00  0.00     0.000 C 
BRANCH  15  16
ATOM     16  C   UNL     1      26.279  40.167 149.559  1.00  0.00     0.000 C 
BRANCH  16  17
ATOM     17  C   UNL     1      27.428  39.162 149.741  1.00  0.00     0.000 C 
BRANCH  17  18
ATOM     18  C   UNL     1      28.798  39.752 149.375  1.00  0.00     0.000 C 
BRANCH  18  19
ATOM     19  C   UNL     1      29.456  38.948 148.244  1.00  0.00     0.000 C 
BRANCH  19  20
ATOM     20  C   UNL     1      29.527  39.721 146.915  1.00  0.00     0.006 C 
BRANCH  20  21
ATOM     21  C   UNL     1      28.604  39.163 145.817  1.00  0.00     0.053 C 
BRANCH  21  22
ATOM     22  C   UNL     1      29.052  39.541 144.438  1.00  0.00     0.041 C 
ATOM     23  O   UNL     1      29.919  38.850 143.838  1.00  0.00    -0.550 OA
ATOM     24  O   UNL     1      28.489  40.638 143.799  1.00  0.00    -0.550 OA
ENDBRANCH  21  22
ENDBRANCH  20  21
ENDBRANCH  19  20
ENDBRANCH  18  19
ENDBRANCH  17  18
ENDBRANCH  16  17
ENDBRANCH  15  16
ENDBRANCH  14  15
ENDBRANCH  13  14
ENDBRANCH   1  13
TORSDOF 20
ENDMDL
MODEL 3
REMARK VINA RESULT:    -5.004      3.715      6.887
REMARK INTER + INTRA:         -14.241
REMARK INTER:                 -10.792
REMARK INTRA:                  -3.449
REMARK UNBOUND:                -3.385
REMARK SMILES CCCCCCCCCCCCCCCCCCCCCC(=O)[O-]
REMARK SMILES IDX 12 1 11 2 10 3 9 4 8 5 7 6 6 7 5 8 4 9 3 10 2 11 1 12 13 13
REMARK SMILES IDX 14 14 15 15 16 16 17 17 18 18 19 19 20 20 21 21 22 22 23 23
REMARK SMILES IDX 24 24
REMARK H PARENT
REMARK Flexibility Score: inf
ROOT
ATOM      1  C   UNL     1      24.287  34.291 146.957  1.00  0.00     0.000 C 
ENDROOT
BRANCH   1   2
ATOM      2  C   UNL     1      24.166  33.098 147.920  1.00  0.00     0.000 C 
BRANCH   2   3
ATOM      3  C   UNL     1      25.351  32.997 148.899  1.00  0.00     0.000 C 
BRANCH   3   4
ATOM      4  C   UNL     1      25.436  34.135 149.931  1.00  0.00    -0.000 C 
BRANCH   4   5
ATOM      5  C   UNL     1      26.820  34.800 149.977  1.00  0.00    -0.000 C 
BRANCH   5   6
ATOM      6  C   UNL     1      27.667  34.392 148.763  1.00  0.00    -0.000 C 
BRANCH   6   7
ATOM      7  C   UNL     1      28.249  35.598 148.001  1.00  0.00    -0.000 C 
BRANCH   7   8
ATOM      8  C   UNL     1      27.263  36.312 147.059  1.00  0.00    -0.000 C 
BRANCH   8   9
ATOM      9  C   UNL     1      27.166  37.824 147.324  1.00  0.00    -0.000 C 
BRANCH   9  10
ATOM     10  C   UNL     1      27.238  38.164 148.828  1.00  0.00    -0.000 C 
BRANCH  10  11
ATOM     11  C   UNL     1      28.475  38.988 149.221  1.00  0.00    -0.003 C 
ATOM     12  C   UNL     1      28.273  40.492 149.053  1.00  0.00     0.004 C 
ENDBRANCH  10  11
ENDBRANCH   9  10
ENDBRANCH   8   9
ENDBRANCH   7   8
ENDBRANCH   6   7
ENDBRANCH   5   6
ENDBRANCH   4   5
ENDBRANCH   3   4
ENDBRANCH   2   3
ENDBRANCH   1   2
BRANCH   1  13
ATOM     13  C   UNL     1      23.144  35.304 147.129  1.00  0.00     0.000 C 
BRANCH  13  14
ATOM     14  C   UNL     1      23.655  36.733 147.377  1.00  0.00     0.000 C 
BRANCH  14  15
ATOM     15  C   UNL     1      23.654  37.114 148.866  1.00  0.00     0.000 C 
BRANCH  15  16
ATOM     16  C   UNL     1      23.383  38.612 149.092  1.00  0.00     0.000 C 
BRANCH  16  17
ATOM     17  C   UNL     1      23.796  39.475 147.888  1.00  0.00     0.000 C 
BRANCH  17  18
ATOM     18  C   UNL     1      24.403  40.823 148.304  1.00  0.00     0.000 C 
BRANCH  18  19
ATOM     19  C   UNL     1      24.707  40.846 149.809  1.00  0.00     0.000 C 
BRANCH  19  20
ATOM     20  C   UNL     1      25.029  42.254 150.339  1.00  0.00     0.006 C 
BRANCH  20  21
ATOM     21  C   UNL     1      23.785  43.107 150.645  1.00  0.00     0.053 C 
BRANCH  21  22
ATOM     22  C   UNL     1      23.940  44.533 150.213  1.00  0.00     0.041 C 
ATOM     23  O   UNL     1      25.013  45.154 150.439  1.00  0.00    -0.550 OA
ATOM     24  O   UNL     1      22.913  45.170 149.529  1.00  0.00    -0.550 OA
ENDBRANCH  21  22
ENDBRANCH  20  21
ENDBRANCH  19  20
ENDBRANCH  18  19
ENDBRANCH  17  18
ENDBRANCH  16  17
ENDBRANCH  15  16
ENDBRANCH  14  15
ENDBRANCH  13  14
ENDBRANCH   1  13
TORSDOF 20
ENDMDL
MODEL 4
REMARK VINA RESULT:    -4.997      2.406      5.546
REMARK INTER + INTRA:         -14.225
REMARK INTER:                 -10.392
REMARK INTRA:                  -3.833
REMARK UNBOUND:                -3.385
REMARK SMILES CCCCCCCCCCCCCCCCCCCCCC(=O)[O-]
REMARK SMILES IDX 12 1 11 2 10 3 9 4 8 5 7 6 6 7 5 8 4 9 3 10 2 11 1 12 13 13
REMARK SMILES IDX 14 14 15 15 16 16 17 17 18 18 19 19 20 20 21 21 22 22 23 23
REMARK SMILES IDX 24 24
REMARK H PARENT
REMARK Flexibility Score: inf
ROOT
ATOM      1  C   UNL     1      24.321  37.365 147.399  1.00  0.00     0.000 C 
ENDROOT
BRANCH   1   2
ATOM      2  C   UNL     1      23.891  38.526 148.311  1.00  0.00     0.000 C 
BRANCH   2   3
ATOM      3  C   UNL     1      24.843  38.734 149.504  1.00  0.00     0.000 C 
BRANCH   3   4
ATOM      4  C   UNL     1      24.329  39.706 150.581  1.00  0.00    -0.000 C 
BRANCH   4   5
ATOM      5  C   UNL     1      25.124  41.019 150.631  1.00  0.00    -0.000 C 
BRANCH   5   6
ATOM      6  C   UNL     1      24.280  42.193 150.114  1.00  0.00    -0.000 C 
BRANCH   6   7
ATOM      7  C   UNL     1      24.343  42.351 148.583  1.00  0.00    -0.000 C 
BRANCH   7   8
ATOM      8  C   UNL     1      25.750  42.228 147.971  1.00  0.00    -0.000 C 
BRANCH   8   9
ATOM      9  C   UNL     1      25.815  41.222 146.808  1.00  0.00    -0.000 C 
BRANCH   9  10
ATOM     10  C   UNL     1      26.989  40.231 146.953  1.00  0.00    -0.000 C 
BRANCH  10  11
ATOM     11  C   UNL     1      27.865  40.481 148.192  1.00  0.00    -0.003 C 
ATOM     12  C   UNL     1      29.297  40.878 147.846  1.00  0.00     0.004 C 
ENDBRANCH  10  11
ENDBRANCH   9  10
ENDBRANCH   8   9
ENDBRANCH   7   8
ENDBRANCH   6   7
ENDBRANCH   5   6
ENDBRANCH   4   5
ENDBRANCH   3   4
ENDBRANCH   2   3
ENDBRANCH   1   2
BRANCH   1  13
ATOM     13  C   UNL     1      23.388  36.149 147.515  1.00  0.00     0.000 C 
BRANCH  13  14
ATOM     14  C   UNL     1      24.084  34.833 147.128  1.00  0.00     0.000 C 
BRANCH  14  15
ATOM     15  C   UNL     1      24.034  33.783 148.249  1.00  0.00     0.000 C 
BRANCH  15  16
ATOM     16  C   UNL     1      25.219  33.901 149.223  1.00  0.00     0.000 C 
BRANCH  16  17
ATOM     17  C   UNL     1      26.561  33.538 148.567  1.00  0.00     0.000 C 
BRANCH  17  18
ATOM     18  C   UNL     1      27.735  34.361 149.119  1.00  0.00     0.000 C 
BRANCH  18  19
ATOM     19  C   UNL     1      27.255  35.733 149.617  1.00  0.00     0.000 C 
BRANCH  19  20
ATOM     20  C   UNL     1      27.791  36.903 148.773  1.00  0.00     0.006 C 
BRANCH  20  21
ATOM     21  C   UNL     1      27.891  36.595 147.269  1.00  0.00     0.053 C 
BRANCH  21  22
ATOM     22  C   UNL     1      29.158  37.110 146.656  1.00  0.00     0.041 C 
ATOM     23  O   UNL     1      29.124  37.780 145.590  1.00  0.00    -0.550 OA
ATOM     24  O   UNL     1      30.377  36.879 147.281  1.00  0.00    -0.550 OA
ENDBRANCH  21  22
ENDBRANCH  20  21
ENDBRANCH  19  20
ENDBRANCH  18  19
ENDBRANCH  17  18
ENDBRANCH  16  17
ENDBRANCH  15  16
ENDBRANCH  14  15
ENDBRANCH  13  14
ENDBRANCH   1  13
TORSDOF 20
ENDMDL
MODEL 5
REMARK VINA RESULT:    -4.981      2.941      5.242
REMARK INTER + INTRA:         -14.191
REMARK INTER:                 -10.966
REMARK INTRA:                  -3.224
REMARK UNBOUND:                -3.385
REMARK SMILES CCCCCCCCCCCCCCCCCCCCCC(=O)[O-]
REMARK SMILES IDX 12 1 11 2 10 3 9 4 8 5 7 6 6 7 5 8 4 9 3 10 2 11 1 12 13 13
REMARK SMILES IDX 14 14 15 15 16 16 17 17 18 18 19 19 20 20 21 21 22 22 23 23
REMARK SMILES IDX 24 24
REMARK H PARENT
REMARK Flexibility Score: inf
ROOT
ATOM      1  C   UNL     1      25.138  41.547 148.029  1.00  0.00     0.000 C 
ENDROOT
BRANCH   1   2
ATOM      2  C   UNL     1      24.955  40.155 147.401  1.00  0.00     0.000 C 
BRANCH   2   3
ATOM      3  C   UNL     1      23.609  39.504 147.771  1.00  0.00     0.000 C 
BRANCH   3   4
ATOM      4  C   UNL     1      23.719  38.115 148.425  1.00  0.00    -0.000 C 
BRANCH   4   5
ATOM      5  C   UNL     1      24.285  37.049 147.476  1.00  0.00    -0.000 C 
BRANCH   5   6
ATOM      6  C   UNL     1      23.290  35.895 147.288  1.00  0.00    -0.000 C 
BRANCH   6   7
ATOM      7  C   UNL     1      23.940  34.507 147.444  1.00  0.00    -0.000 C 
BRANCH   7   8
ATOM      8  C   UNL     1      24.052  33.998 148.892  1.00  0.00    -0.000 C 
BRANCH   8   9
ATOM      9  C   UNL     1      25.466  33.511 149.251  1.00  0.00    -0.000 C 
BRANCH   9  10
ATOM     10  C   UNL     1      26.400  34.669 149.662  1.00  0.00    -0.000 C 
BRANCH  10  11
ATOM     11  C   UNL     1      27.893  34.374 149.437  1.00  0.00    -0.003 C 
ATOM     12  C   UNL     1      28.152  33.482 148.225  1.00  0.00     0.004 C 
ENDBRANCH  10  11
ENDBRANCH   9  10
ENDBRANCH   8   9
ENDBRANCH   7   8
ENDBRANCH   6   7
ENDBRANCH   5   6
ENDBRANCH   4   5
ENDBRANCH   3   4
ENDBRANCH   2   3
ENDBRANCH   1   2
BRANCH   1  13
ATOM     13  C   UNL     1      24.459  41.668 149.402  1.00  0.00     0.000 C 
BRANCH  13  14
ATOM     14  C   UNL     1      25.456  41.533 150.566  1.00  0.00     0.000 C 
BRANCH  14  15
ATOM     15  C   UNL     1      25.601  40.084 151.058  1.00  0.00     0.000 C 
BRANCH  15  16
ATOM     16  C   UNL     1      27.032  39.544 150.887  1.00  0.00     0.000 C 
BRANCH  16  17
ATOM     17  C   UNL     1      27.079  38.249 150.059  1.00  0.00     0.000 C 
BRANCH  17  18
ATOM     18  C   UNL     1      28.090  38.318 148.904  1.00  0.00     0.000 C 
BRANCH  18  19
ATOM     19  C   UNL     1      27.527  37.647 147.643  1.00  0.00     0.000 C 
BRANCH  19  20
ATOM     20  C   UNL     1      28.608  36.953 146.794  1.00  0.00     0.006 C 
BRANCH  20  21
ATOM     21  C   UNL     1      29.058  37.768 145.569  1.00  0.00     0.053 C 
BRANCH  21  22
ATOM     22  C   UNL     1      30.491  38.200 145.657  1.00  0.00     0.041 C 
ATOM     23  O   UNL     1      30.948  39.055 144.852  1.00  0.00    -0.550 OA
ATOM     24  O   UNL     1      31.314  37.685 146.650  1.00  0.00    -0.550 OA
ENDBRANCH  21  22
ENDBRANCH  20  21
ENDBRANCH  19  20
ENDBRANCH  18  19
ENDBRANCH  17  18
ENDBRANCH  16  17
ENDBRANCH  15  16
ENDBRANCH  14  15
ENDBRANCH  13  14
ENDBRANCH   1  13
TORSDOF 20
ENDMDL
MODEL 6
REMARK VINA RESULT:    -4.953      3.244      5.941
REMARK INTER + INTRA:         -14.130
REMARK INTER:                 -10.068
REMARK INTRA:                  -4.063
REMARK UNBOUND:                -3.385
REMARK SMILES CCCCCCCCCCCCCCCCCCCCCC(=O)[O-]
REMARK SMILES IDX 12 1 11 2 10 3 9 4 8 5 7 6 6 7 5 8 4 9 3 10 2 11 1 12 13 13
REMARK SMILES IDX 14 14 15 15 16 16 17 17 18 18 19 19 20 20 21 21 22 22 23 23
REMARK SMILES IDX 24 24
REMARK H PARENT
REMARK Flexibility Score: inf
ROOT
ATOM      1  C   UNL     1      23.760  36.996 147.419  1.00  0.00     0.000 C 
ENDROOT
BRANCH   1   2
ATOM      2  C   UNL     1      24.028  35.840 148.399  1.00  0.00     0.000 C 
BRANCH   2   3
ATOM      3  C   UNL     1      24.609  34.593 147.707  1.00  0.00     0.000 C 
BRANCH   3   4
ATOM      4  C   UNL     1      25.579  33.767 148.572  1.00  0.00    -0.000 C 
BRANCH   4   5
ATOM      5  C   UNL     1      26.058  34.522 149.821  1.00  0.00    -0.000 C 
BRANCH   5   6
ATOM      6  C   UNL     1      27.586  34.679 149.816  1.00  0.00    -0.000 C 
BRANCH   6   7
ATOM      7  C   UNL     1      28.205  34.508 148.416  1.00  0.00    -0.000 C 
BRANCH   7   8
ATOM      8  C   UNL     1      28.667  35.814 147.744  1.00  0.00    -0.000 C 
BRANCH   8   9
ATOM      9  C   UNL     1      27.558  36.493 146.922  1.00  0.00    -0.000 C 
BRANCH   9  10
ATOM     10  C   UNL     1      27.320  37.956 147.352  1.00  0.00    -0.000 C 
BRANCH  10  11
ATOM     11  C   UNL     1      27.813  38.275 148.773  1.00  0.00    -0.003 C 
ATOM     12  C   UNL     1      26.687  38.323 149.803  1.00  0.00     0.004 C 
ENDBRANCH  10  11
ENDBRANCH   9  10
ENDBRANCH   8   9
ENDBRANCH   7   8
ENDBRANCH   6   7
ENDBRANCH   5   6
ENDBRANCH   4   5
ENDBRANCH   3   4
ENDBRANCH   2   3
ENDBRANCH   1   2
BRANCH   1  13
ATOM     13  C   UNL     1      23.399  38.305 148.138  1.00  0.00     0.000 C 
BRANCH  13  14
ATOM     14  C   UNL     1      23.994  39.542 147.444  1.00  0.00     0.000 C 
BRANCH  14  15
ATOM     15  C   UNL     1      24.074  40.763 148.374  1.00  0.00     0.000 C 
BRANCH  15  16
ATOM     16  C   UNL     1      24.995  41.866 147.821  1.00  0.00     0.000 C 
BRANCH  16  17
ATOM     17  C   UNL     1      26.369  41.889 148.510  1.00  0.00     0.000 C 
BRANCH  17  18
ATOM     18  C   UNL     1      27.535  41.782 147.515  1.00  0.00     0.000 C 
BRANCH  18  19
ATOM     19  C   UNL     1      27.044  41.282 146.149  1.00  0.00     0.000 C 
BRANCH  19  20
ATOM     20  C   UNL     1      27.990  41.655 144.994  1.00  0.00     0.006 C 
BRANCH  20  21
ATOM     21  C   UNL     1      28.478  40.448 144.171  1.00  0.00     0.053 C 
BRANCH  21  22
ATOM     22  C   UNL     1      29.569  39.684 144.857  1.00  0.00     0.041 C 
ATOM     23  O   UNL     1      30.368  40.273 145.632  1.00  0.00    -0.550 OA
ATOM     24  O   UNL     1      29.684  38.313 144.666  1.00  0.00    -0.550 OA
ENDBRANCH  21  22
ENDBRANCH  20  21
ENDBRANCH  19  20
ENDBRANCH  18  19
ENDBRANCH  17  18
ENDBRANCH  16  17
ENDBRANCH  15  16
ENDBRANCH  14  15
ENDBRANCH  13  14
ENDBRANCH   1  13
TORSDOF 20
ENDMDL
MODEL 7
REMARK VINA RESULT:    -4.952      3.526      6.748
REMARK INTER + INTRA:         -14.127
REMARK INTER:                 -10.461
REMARK INTRA:                  -3.666
REMARK UNBOUND:                -3.385
REMARK SMILES CCCCCCCCCCCCCCCCCCCCCC(=O)[O-]
REMARK SMILES IDX 12 1 11 2 10 3 9 4 8 5 7 6 6 7 5 8 4 9 3 10 2 11 1 12 13 13
REMARK SMILES IDX 14 14 15 15 16 16 17 17 18 18 19 19 20 20 21 21 22 22 23 23
REMARK SMILES IDX 24 24
REMARK H PARENT
REMARK Flexibility Score: inf
ROOT
ATOM      1  C   UNL     1      23.303  35.584 147.052  1.00  0.00     0.000 C 
ENDROOT
BRANCH   1   2
ATOM      2  C   UNL     1      24.287  34.405 147.131  1.00  0.00     0.000 C 
BRANCH   2   3
ATOM      3  C   UNL     1      24.011  33.475 148.328  1.00  0.00     0.000 C 
BRANCH   3   4
ATOM      4  C   UNL     1      24.968  33.653 149.520  1.00  0.00    -0.000 C 
BRANCH   4   5
ATOM      5  C   UNL     1      26.363  34.137 149.100  1.00  0.00    -0.000 C 
BRANCH   5   6
ATOM      6  C   UNL     1      26.893  35.199 150.074  1.00  0.00    -0.000 C 
BRANCH   6   7
ATOM      7  C   UNL     1      27.110  36.572 149.410  1.00  0.00    -0.000 C 
BRANCH   7   8
ATOM      8  C   UNL     1      27.493  36.521 147.919  1.00  0.00    -0.000 C 
BRANCH   8   9
ATOM      9  C   UNL     1      27.252  37.854 147.190  1.00  0.00    -0.000 C 
BRANCH   9  10
ATOM     10  C   UNL     1      28.207  38.967 147.669  1.00  0.00    -0.000 C 
BRANCH  10  11
ATOM     11  C   UNL     1      28.050  40.292 146.904  1.00  0.00    -0.003 C 
ATOM     12  C   UNL     1      26.596  40.729 146.751  1.00  0.00     0.004 C 
ENDBRANCH  10  11
ENDBRANCH   9  10
ENDBRANCH   8   9
ENDBRANCH   7   8
ENDBRANCH   6   7
ENDBRANCH   5   6
ENDBRANCH   4   5
ENDBRANCH   3   4
ENDBRANCH   2   3
ENDBRANCH   1   2
BRANCH   1  13
ATOM     13  C   UNL     1      23.615  36.682 148.081  1.00  0.00     0.000 C 
BRANCH  13  14
ATOM     14  C   UNL     1      23.758  38.071 147.436  1.00  0.00     0.000 C 
BRANCH  14  15
ATOM     15  C   UNL     1      23.849  39.201 148.475  1.00  0.00     0.000 C 
BRANCH  15  16
ATOM     16  C   UNL     1      24.045  38.672 149.907  1.00  0.00     0.000 C 
BRANCH  16  17
ATOM     17  C   UNL     1      24.690  39.711 150.837  1.00  0.00     0.000 C 
BRANCH  17  18
ATOM     18  C   UNL     1      26.154  40.004 150.478  1.00  0.00     0.000 C 
BRANCH  18  19
ATOM     19  C   UNL     1      26.386  41.512 150.308  1.00  0.00     0.000 C 
BRANCH  19  20
ATOM     20  C   UNL     1      25.089  42.336 150.393  1.00  0.00     0.006 C 
BRANCH  20  21
ATOM     21  C   UNL     1      24.702  43.031 149.075  1.00  0.00     0.053 C 
BRANCH  21  22
ATOM     22  C   UNL     1      23.724  44.149 149.276  1.00  0.00     0.041 C 
ATOM     23  O   UNL     1      23.248  44.380 150.419  1.00  0.00    -0.550 OA
ATOM     24  O   UNL     1      23.364  44.959 148.207  1.00  0.00    -0.550 OA
ENDBRANCH  21  22
ENDBRANCH  20  21
ENDBRANCH  19  20
ENDBRANCH  18  19
ENDBRANCH  17  18
ENDBRANCH  16  17
ENDBRANCH  15  16
ENDBRANCH  14  15
ENDBRANCH  13  14
ENDBRANCH   1  13
TORSDOF 20
ENDMDL
MODEL 8
REMARK VINA RESULT:    -4.941      2.044      3.198
REMARK INTER + INTRA:         -14.104
REMARK INTER:                 -10.497
REMARK INTRA:                  -3.607
REMARK UNBOUND:                -3.385
REMARK SMILES CCCCCCCCCCCCCCCCCCCCCC(=O)[O-]
REMARK SMILES IDX 12 1 11 2 10 3 9 4 8 5 7 6 6 7 5 8 4 9 3 10 2 11 1 12 13 13
REMARK SMILES IDX 14 14 15 15 16 16 17 17 18 18 19 19 20 20 21 21 22 22 23 23
REMARK SMILES IDX 24 24
REMARK H PARENT
REMARK Flexibility Score: inf
ROOT
ATOM      1  C   UNL     1      25.997  42.075 149.627  1.00  0.00     0.000 C 
ENDROOT
BRANCH   1   2
ATOM      2  C   UNL     1      25.666  41.472 151.003  1.00  0.00     0.000 C 
BRANCH   2   3
ATOM      3  C   UNL     1      25.626  39.932 150.987  1.00  0.00     0.000 C 
BRANCH   3   4
ATOM      4  C   UNL     1      26.991  39.251 150.788  1.00  0.00    -0.000 C 
BRANCH   4   5
ATOM      5  C   UNL     1      26.890  37.912 150.045  1.00  0.00    -0.000 C 
BRANCH   5   6
ATOM      6  C   UNL     1      27.886  37.853 148.878  1.00  0.00    -0.000 C 
BRANCH   6   7
ATOM      7  C   UNL     1      28.628  39.183 148.652  1.00  0.00    -0.000 C 
BRANCH   7   8
ATOM      8  C   UNL     1      28.712  39.641 147.184  1.00  0.00    -0.000 C 
BRANCH   8   9
ATOM      9  C   UNL     1      28.290  38.548 146.188  1.00  0.00    -0.000 C 
BRANCH   9  10
ATOM     10  C   UNL     1      29.393  38.236 145.155  1.00  0.00    -0.000 C 
BRANCH  10  11
ATOM     11  C   UNL     1      29.292  39.069 143.866  1.00  0.00    -0.003 C 
ATOM     12  C   UNL     1      30.289  40.224 143.818  1.00  0.00     0.004 C 
ENDBRANCH  10  11
ENDBRANCH   9  10
ENDBRANCH   8   9
ENDBRANCH   7   8
ENDBRANCH   6   7
ENDBRANCH   5   6
ENDBRANCH   4   5
ENDBRANCH   3   4
ENDBRANCH   2   3
ENDBRANCH   1   2
BRANCH   1  13
ATOM     13  C   UNL     1      24.871  41.856 148.603  1.00  0.00     0.000 C 
BRANCH  13  14
ATOM     14  C   UNL     1      25.350  41.096 147.355  1.00  0.00     0.000 C 
BRANCH  14  15
ATOM     15  C   UNL     1      24.935  39.616 147.365  1.00  0.00     0.000 C 
BRANCH  15  16
ATOM     16  C   UNL     1      23.515  39.406 147.920  1.00  0.00     0.000 C 
BRANCH  16  17
ATOM     17  C   UNL     1      23.232  37.938 148.278  1.00  0.00     0.000 C 
BRANCH  17  18
ATOM     18  C   UNL     1      24.242  36.967 147.649  1.00  0.00     0.000 C 
BRANCH  18  19
ATOM     19  C   UNL     1      23.584  35.612 147.348  1.00  0.00     0.000 C 
BRANCH  19  20
ATOM     20  C   UNL     1      24.600  34.517 146.974  1.00  0.00     0.006 C 
BRANCH  20  21
ATOM     21  C   UNL     1      26.060  34.882 147.299  1.00  0.00     0.053 C 
BRANCH  21  22
ATOM     22  C   UNL     1      26.571  34.186 148.523  1.00  0.00     0.041 C 
ATOM     23  O   UNL     1      27.563  33.413 148.448  1.00  0.00    -0.550 OA
ATOM     24  O   UNL     1      25.974  34.416 149.756  1.00  0.00    -0.550 OA
ENDBRANCH  21  22
ENDBRANCH  20  21
ENDBRANCH  19  20
ENDBRANCH  18  19
ENDBRANCH  17  18
ENDBRANCH  16  17
ENDBRANCH  15  16
ENDBRANCH  14  15
ENDBRANCH  13  14
ENDBRANCH   1  13
TORSDOF 20
ENDMDL
MODEL 9
REMARK VINA RESULT:    -4.912      3.186      7.021
REMARK INTER + INTRA:         -14.040
REMARK INTER:                 -10.229
REMARK INTRA:                  -3.811
REMARK UNBOUND:                -3.385
REMARK SMILES CCCCCCCCCCCCCCCCCCCCCC(=O)[O-]
REMARK SMILES IDX 12 1 11 2 10 3 9 4 8 5 7 6 6 7 5 8 4 9 3 10 2 11 1 12 13 13
REMARK SMILES IDX 14 14 15 15 16 16 17 17 18 18 19 19 20 20 21 21 22 22 23 23
REMARK SMILES IDX 24 24
REMARK H PARENT
REMARK Flexibility Score: inf
ROOT
ATOM      1  C   UNL     1      24.151  33.164 148.238  1.00  0.00     0.000 C 
ENDROOT
BRANCH   1   2
ATOM      2  C   UNL     1      24.321  34.133 147.056  1.00  0.00     0.000 C 
BRANCH   2   3
ATOM      3  C   UNL     1      23.266  35.255 147.045  1.00  0.00     0.000 C 
BRANCH   3   4
ATOM      4  C   UNL     1      23.804  36.652 147.406  1.00  0.00    -0.000 C 
BRANCH   4   5
ATOM      5  C   UNL     1      23.547  37.031 148.872  1.00  0.00    -0.000 C 
BRANCH   5   6
ATOM      6  C   UNL     1      23.650  38.550 149.073  1.00  0.00    -0.000 C 
BRANCH   6   7
ATOM      7  C   UNL     1      23.623  39.337 147.749  1.00  0.00    -0.000 C 
BRANCH   7   8
ATOM      8  C   UNL     1      24.065  40.808 147.855  1.00  0.00    -0.000 C 
BRANCH   8   9
ATOM      9  C   UNL     1      25.590  40.986 147.760  1.00  0.00    -0.000 C 
BRANCH   9  10
ATOM     10  C   UNL     1      26.212  41.456 149.091  1.00  0.00    -0.000 C 
BRANCH  10  11
ATOM     11  C   UNL     1      27.035  40.374 149.809  1.00  0.00    -0.003 C 
ATOM     12  C   UNL     1      26.345  39.820 151.053  1.00  0.00     0.004 C 
ENDBRANCH  10  11
ENDBRANCH   9  10
ENDBRANCH   8   9
ENDBRANCH   7   8
ENDBRANCH   6   7
ENDBRANCH   5   6
ENDBRANCH   4   5
ENDBRANCH   3   4
ENDBRANCH   2   3
ENDBRANCH   1   2
BRANCH   1  13
ATOM     13  C   UNL     1      24.963  33.592 149.471  1.00  0.00     0.000 C 
BRANCH  13  14
ATOM     14  C   UNL     1      26.387  34.047 149.110  1.00  0.00     0.000 C 
BRANCH  14  15
ATOM     15  C   UNL     1      26.985  35.007 150.151  1.00  0.00     0.000 C 
BRANCH  15  16
ATOM     16  C   UNL     1      27.204  36.424 149.591  1.00  0.00     0.000 C 
BRANCH  16  17
ATOM     17  C   UNL     1      27.569  36.419 148.098  1.00  0.00     0.000 C 
BRANCH  17  18
ATOM     18  C   UNL     1      27.101  37.687 147.368  1.00  0.00     0.000 C 
BRANCH  18  19
ATOM     19  C   UNL     1      28.299  38.474 146.815  1.00  0.00     0.000 C 
BRANCH  19  20
ATOM     20  C   UNL     1      29.635  38.079 147.469  1.00  0.00     0.006 C 
BRANCH  20  21
ATOM     21  C   UNL     1      30.154  39.100 148.497  1.00  0.00     0.053 C 
BRANCH  21  22
ATOM     22  C   UNL     1      30.440  40.439 147.888  1.00  0.00     0.041 C 
ATOM     23  O   UNL     1      30.132  41.496 148.500  1.00  0.00    -0.550 OA
ATOM     24  O   UNL     1      31.078  40.522 146.657  1.00  0.00    -0.550 OA
ENDBRANCH  21  22
ENDBRANCH  20  21
ENDBRANCH  19  20
ENDBRANCH  18  19
ENDBRANCH  17  18
ENDBRANCH  16  17
ENDBRANCH  15  16
ENDBRANCH  14  15
ENDBRANCH  13  14
ENDBRANCH   1  13
TORSDOF 20
ENDMDL
