MODEL 1
REMARK VINA RESULT:    -4.917      0.000      0.000
REMARK INTER + INTRA:          -5.629
REMARK INTER:                  -5.349
REMARK INTRA:                  -0.281
REMARK UNBOUND:                -0.281
REMARK SMILES C[C@H]1[C@H]2C3=CC[C@H]4[C@@]5(C)CC[C@H](O)C(C)(C)[C@@H]5CC[C@@]4(C)[C@@]3(C)CC[C@@]2(C(=O)[O-])CC[C@@H]1C
REMARK SMILES IDX 26 1 30 2 25 3 3 4 31 5 24 6 4 7 2 8 32 9 22 10 5 11 1 12
REMARK SMILES IDX 33 13 23 14 20 15 6 16 7 17 19 18 21 19 8 20 18 21 17 22
REMARK SMILES IDX 10 23 9 24 14 25 11 26 12 27 15 28 16 29 27 30 28 31 29 32
REMARK SMILES IDX 13 33
REMARK H PARENT 13 34
REMARK Flexibility Score: inf
ROOT
ATOM      1  C   UNL     1      -1.821  -6.926  -5.937  1.00  0.00     0.017 C 
ATOM      2  C   UNL     1      -0.263  -6.941  -6.041  1.00  0.00     0.014 C 
ATOM      3  C   UNL     1      -2.351  -6.082  -7.125  1.00  0.00     0.014 C 
ATOM      4  C   UNL     1      -2.321  -6.327  -4.544  1.00  0.00     0.030 C 
ATOM      5  C   UNL     1       0.362  -5.648  -5.501  1.00  0.00     0.004 C 
ATOM      6  C   UNL     1      -3.869  -5.925  -7.066  1.00  0.00     0.013 C 
ATOM      7  C   UNL     1      -3.254  -5.096  -4.726  1.00  0.00    -0.063 C 
ATOM      8  C   UNL     1      -1.146  -6.253  -3.509  1.00  0.00    -0.003 C 
ATOM      9  C   UNL     1       0.038  -5.381  -4.005  1.00  0.00    -0.011 C 
ATOM     10  C   UNL     1      -4.389  -5.178  -5.773  1.00  0.00    -0.006 C 
ATOM     11  C   UNL     1      -3.245  -4.076  -3.852  1.00  0.00    -0.027 C 
ATOM     12  C   UNL     1      -1.580  -6.001  -2.031  1.00  0.00     0.008 C 
ATOM     13  C   UNL     1       1.287  -5.614  -3.135  1.00  0.00     0.008 C 
ATOM     14  C   UNL     1      -5.497  -6.064  -5.136  1.00  0.00     0.017 C 
ATOM     15  C   UNL     1      -4.966  -3.718  -6.150  1.00  0.00    -0.020 C 
ATOM     16  C   UNL     1      -4.362  -3.095  -3.673  1.00  0.00     0.032 C 
ATOM     17  C   UNL     1      -5.407  -2.949  -4.830  1.00  0.00     0.006 C 
ATOM     18  C   UNL     1      -3.858  -2.854  -6.868  1.00  0.00     0.008 C 
ATOM     19  C   UNL     1      -6.185  -3.900  -7.125  1.00  0.00     0.012 C 
ATOM     20  C   UNL     1      -5.826  -1.411  -5.046  1.00  0.00    -0.025 C 
ATOM     21  C   UNL     1      -4.218  -1.360  -7.058  1.00  0.00     0.005 C 
ATOM     22  C   UNL     1      -4.609  -0.679  -5.726  1.00  0.00     0.003 C 
ATOM     23  C   UNL     1      -6.166  -0.731  -3.666  1.00  0.00     0.010 C 
ATOM     24  C   UNL     1      -7.154  -1.336  -5.882  1.00  0.00     0.012 C 
ATOM     25  C   UNL     1      -4.679   0.905  -5.774  1.00  0.00    -0.006 C 
ATOM     26  C   UNL     1      -6.311   0.793  -3.765  1.00  0.00     0.033 C 
ATOM     27  C   UNL     1      -5.052   1.440  -4.352  1.00  0.00     0.120 C 
ATOM     28  C   UNL     1      -5.655   1.439  -6.851  1.00  0.00     0.014 C 
ATOM     29  C   UNL     1      -3.271   1.482  -6.111  1.00  0.00     0.014 C 
ENDROOT
BRANCH   1  30
ATOM     30  C   UNL     1      -2.291  -8.375  -6.113  1.00  0.00     0.048 C 
ATOM     31  O   UNL     1      -1.744  -9.125  -6.969  1.00  0.00    -0.550 OA
ATOM     32  O   UNL     1      -3.240  -8.941  -5.273  1.00  0.00    -0.550 OA
ENDBRANCH   1  30
BRANCH  27  33
ATOM     33  O   UNL     1      -5.231   2.839  -4.361  1.00  0.00    -0.393 OA
ATOM     34  H   UNL     1      -4.863   3.197  -5.210  1.00  0.00     0.210 HD
ENDBRANCH  27  33
TORSDOF 2
ENDMDL
MODEL 2
REMARK VINA RESULT:    -2.888      2.595      7.691
REMARK INTER + INTRA:          -3.422
REMARK INTER:                  -3.673
REMARK INTRA:                   0.251
REMARK UNBOUND:                -0.281
REMARK SMILES C[C@H]1[C@H]2C3=CC[C@H]4[C@@]5(C)CC[C@H](O)C(C)(C)[C@@H]5CC[C@@]4(C)[C@@]3(C)CC[C@@]2(C(=O)[O-])CC[C@@H]1C
REMARK SMILES IDX 26 1 30 2 25 3 3 4 31 5 24 6 4 7 2 8 32 9 22 10 5 11 1 12
REMARK SMILES IDX 33 13 23 14 20 15 6 16 7 17 19 18 21 19 8 20 18 21 17 22
REMARK SMILES IDX 10 23 9 24 14 25 11 26 12 27 15 28 16 29 27 30 28 31 29 32
REMARK SMILES IDX 13 33
REMARK H PARENT 13 34
REMARK Flexibility Score: inf
ROOT
ATOM      1  C   UNL     1      -5.273  -4.072  -5.396  1.00  0.00     0.017 C 
ATOM      2  C   UNL     1      -5.764  -2.830  -4.589  1.00  0.00     0.014 C 
ATOM      3  C   UNL     1      -5.165  -5.255  -4.398  1.00  0.00     0.014 C 
ATOM      4  C   UNL     1      -3.872  -3.803  -6.114  1.00  0.00     0.030 C 
ATOM      5  C   UNL     1      -4.624  -2.166  -3.805  1.00  0.00     0.004 C 
ATOM      6  C   UNL     1      -4.601  -6.504  -5.070  1.00  0.00     0.013 C 
ATOM      7  C   UNL     1      -2.777  -4.820  -5.682  1.00  0.00    -0.063 C 
ATOM      8  C   UNL     1      -3.535  -2.272  -6.131  1.00  0.00    -0.003 C 
ATOM      9  C   UNL     1      -3.467  -1.655  -4.709  1.00  0.00    -0.011 C 
ATOM     10  C   UNL     1      -3.139  -6.322  -5.644  1.00  0.00    -0.006 C 
ATOM     11  C   UNL     1      -1.489  -4.456  -5.573  1.00  0.00    -0.027 C 
ATOM     12  C   UNL     1      -2.370  -1.862  -7.086  1.00  0.00     0.008 C 
ATOM     13  C   UNL     1      -3.481  -0.117  -4.782  1.00  0.00     0.008 C 
ATOM     14  C   UNL     1      -3.156  -6.798  -7.125  1.00  0.00     0.017 C 
ATOM     15  C   UNL     1      -2.076  -7.175  -4.778  1.00  0.00    -0.020 C 
ATOM     16  C   UNL     1      -0.328  -5.401  -5.609  1.00  0.00     0.032 C 
ATOM     17  C   UNL     1      -0.603  -6.915  -5.316  1.00  0.00     0.006 C 
ATOM     18  C   UNL     1      -2.122  -6.741  -3.262  1.00  0.00     0.008 C 
ATOM     19  C   UNL     1      -2.451  -8.697  -4.887  1.00  0.00     0.012 C 
ATOM     20  C   UNL     1       0.571  -7.557  -4.423  1.00  0.00    -0.025 C 
ATOM     21  C   UNL     1      -0.984  -7.315  -2.383  1.00  0.00     0.005 C 
ATOM     22  C   UNL     1       0.416  -6.997  -2.960  1.00  0.00     0.003 C 
ATOM     23  C   UNL     1       1.984  -7.171  -5.004  1.00  0.00     0.010 C 
ATOM     24  C   UNL     1       0.504  -9.125  -4.508  1.00  0.00     0.012 C 
ATOM     25  C   UNL     1       1.627  -7.263  -1.972  1.00  0.00    -0.006 C 
ATOM     26  C   UNL     1       3.140  -7.521  -4.059  1.00  0.00     0.033 C 
ATOM     27  C   UNL     1       2.961  -6.865  -2.685  1.00  0.00     0.120 C 
ATOM     28  C   UNL     1       1.680  -8.720  -1.452  1.00  0.00     0.014 C 
ATOM     29  C   UNL     1       1.499  -6.339  -0.723  1.00  0.00     0.014 C 
ENDROOT
BRANCH   1  30
ATOM     30  C   UNL     1      -6.365  -4.393  -6.424  1.00  0.00     0.048 C 
ATOM     31  O   UNL     1      -7.204  -3.512  -6.762  1.00  0.00    -0.550 OA
ATOM     32  O   UNL     1      -6.399  -5.607  -7.097  1.00  0.00    -0.550 OA
ENDBRANCH   1  30
BRANCH  27  33
ATOM     33  O   UNL     1       4.082  -7.179  -1.890  1.00  0.00    -0.393 OA
ATOM     34  H   UNL     1       4.861  -7.321  -2.489  1.00  0.00     0.210 HD
ENDBRANCH  27  33
TORSDOF 2
ENDMDL
