MODEL 1
REMARK VINA RESULT:    -3.161      0.000      0.000
REMARK INTER + INTRA:          -4.374
REMARK INTER:                  -4.085
REMARK INTRA:                  -0.289
REMARK UNBOUND:                -0.289
REMARK SMILES CCCCCCC(=O)[O-]
REMARK SMILES IDX 5 1 6 2 7 3 8 4 9 5 4 6 3 7 2 8 1 9
REMARK H PARENT
REMARK Flexibility Score: inf
ROOT
ATOM      1  C   UNL     1      19.939  -9.328 187.693  1.00  0.00     0.006 C 
ENDROOT
BRANCH   1   2
ATOM      2  C   UNL     1      19.770  -9.149 186.178  1.00  0.00     0.053 C 
BRANCH   2   3
ATOM      3  C   UNL     1      18.427  -8.584 185.828  1.00  0.00     0.041 C 
ATOM      4  O   UNL     1      17.591  -9.284 185.198  1.00  0.00    -0.550 OA
ATOM      5  O   UNL     1      18.110  -7.276 186.171  1.00  0.00    -0.550 OA
ENDBRANCH   2   3
ENDBRANCH   1   2
BRANCH   1   6
ATOM      6  C   UNL     1      19.146 -10.533 188.226  1.00  0.00     0.000 C 
BRANCH   6   7
ATOM      7  C   UNL     1      19.421 -11.826 187.437  1.00  0.00    -0.000 C 
BRANCH   7   8
ATOM      8  C   UNL     1      18.174 -12.491 186.828  1.00  0.00    -0.003 C 
ATOM      9  C   UNL     1      18.245 -14.018 186.838  1.00  0.00     0.004 C 
ENDBRANCH   7   8
ENDBRANCH   6   7
ENDBRANCH   1   6
TORSDOF 5
ENDMDL
MODEL 2
REMARK VINA RESULT:    -3.151      1.840      2.905
REMARK INTER + INTRA:          -4.362
REMARK INTER:                  -4.251
REMARK INTRA:                  -0.111
REMARK UNBOUND:                -0.289
REMARK SMILES CCCCCCC(=O)[O-]
REMARK SMILES IDX 5 1 6 2 7 3 8 4 9 5 4 6 3 7 2 8 1 9
REMARK H PARENT
REMARK Flexibility Score: inf
ROOT
ATOM      1  C   UNL     1      18.591 -11.816 186.928  1.00  0.00     0.006 C 
ENDROOT
BRANCH   1   2
ATOM      2  C   UNL     1      19.834 -11.233 187.615  1.00  0.00     0.053 C 
BRANCH   2   3
ATOM      3  C   UNL     1      19.847  -9.736 187.570  1.00  0.00     0.041 C 
ATOM      4  O   UNL     1      20.045  -9.138 186.480  1.00  0.00    -0.550 OA
ATOM      5  O   UNL     1      19.671  -9.003 188.737  1.00  0.00    -0.550 OA
ENDBRANCH   2   3
ENDBRANCH   1   2
BRANCH   1   6
ATOM      6  C   UNL     1      18.612 -13.354 186.899  1.00  0.00     0.000 C 
BRANCH   6   7
ATOM      7  C   UNL     1      17.218 -13.967 186.677  1.00  0.00    -0.000 C 
BRANCH   7   8
ATOM      8  C   UNL     1      17.171 -15.505 186.715  1.00  0.00    -0.003 C 
ATOM      9  C   UNL     1      18.412 -16.125 187.356  1.00  0.00     0.004 C 
ENDBRANCH   7   8
ENDBRANCH   6   7
ENDBRANCH   1   6
TORSDOF 5
ENDMDL
MODEL 3
REMARK VINA RESULT:    -3.150      3.720      5.177
REMARK INTER + INTRA:          -4.361
REMARK INTER:                  -4.230
REMARK INTRA:                  -0.131
REMARK UNBOUND:                -0.289
REMARK SMILES CCCCCCC(=O)[O-]
REMARK SMILES IDX 5 1 6 2 7 3 8 4 9 5 4 6 3 7 2 8 1 9
REMARK H PARENT
REMARK Flexibility Score: inf
ROOT
ATOM      1  C   UNL     1      18.370 -12.511 186.570  1.00  0.00     0.006 C 
ENDROOT
BRANCH   1   2
ATOM      2  C   UNL     1      17.488 -13.616 187.170  1.00  0.00     0.053 C 
BRANCH   2   3
ATOM      3  C   UNL     1      17.904 -14.977 186.704  1.00  0.00     0.041 C 
ATOM      4  O   UNL     1      17.064 -15.748 186.170  1.00  0.00    -0.550 OA
ATOM      5  O   UNL     1      19.213 -15.406 186.887  1.00  0.00    -0.550 OA
ENDBRANCH   2   3
ENDBRANCH   1   2
BRANCH   1   6
ATOM      6  C   UNL     1      19.437 -12.019 187.562  1.00  0.00     0.000 C 
BRANCH   6   7
ATOM      7  C   UNL     1      19.735 -10.515 187.423  1.00  0.00    -0.000 C 
BRANCH   7   8
ATOM      8  C   UNL     1      18.791  -9.591 188.211  1.00  0.00    -0.003 C 
ATOM      9  C   UNL     1      19.421  -9.043 189.491  1.00  0.00     0.004 C 
ENDBRANCH   7   8
ENDBRANCH   6   7
ENDBRANCH   1   6
TORSDOF 5
ENDMDL
MODEL 4
REMARK VINA RESULT:    -3.104      1.842      2.633
REMARK INTER + INTRA:          -4.301
REMARK INTER:                  -4.221
REMARK INTRA:                  -0.080
REMARK UNBOUND:                -0.289
REMARK SMILES CCCCCCC(=O)[O-]
REMARK SMILES IDX 5 1 6 2 7 3 8 4 9 5 4 6 3 7 2 8 1 9
REMARK H PARENT
REMARK Flexibility Score: inf
ROOT
ATOM      1  C   UNL     1      18.981 -11.019 186.866  1.00  0.00     0.006 C 
ENDROOT
BRANCH   1   2
ATOM      2  C   UNL     1      20.065 -10.145 187.511  1.00  0.00     0.053 C 
BRANCH   2   3
ATOM      3  C   UNL     1      19.477  -9.041 188.334  1.00  0.00     0.041 C 
ATOM      4  O   UNL     1      18.899  -8.073 187.774  1.00  0.00    -0.550 OA
ATOM      5  O   UNL     1      19.593  -9.066 189.718  1.00  0.00    -0.550 OA
ENDBRANCH   2   3
ENDBRANCH   1   2
BRANCH   1   6
ATOM      6  C   UNL     1      19.054 -12.480 187.342  1.00  0.00     0.000 C 
BRANCH   6   7
ATOM      7  C   UNL     1      17.996 -13.379 186.677  1.00  0.00    -0.000 C 
BRANCH   7   8
ATOM      8  C   UNL     1      18.227 -14.890 186.851  1.00  0.00    -0.003 C 
ATOM      9  C   UNL     1      17.188 -15.555 187.753  1.00  0.00     0.004 C 
ENDBRANCH   7   8
ENDBRANCH   6   7
ENDBRANCH   1   6
TORSDOF 5
ENDMDL
MODEL 5
REMARK VINA RESULT:    -3.041      3.369      5.185
REMARK INTER + INTRA:          -4.219
REMARK INTER:                  -4.099
REMARK INTRA:                  -0.119
REMARK UNBOUND:                -0.289
REMARK SMILES CCCCCCC(=O)[O-]
REMARK SMILES IDX 5 1 6 2 7 3 8 4 9 5 4 6 3 7 2 8 1 9
REMARK H PARENT
REMARK Flexibility Score: inf
ROOT
ATOM      1  C   UNL     1      18.192 -12.551 186.937  1.00  0.00     0.006 C 
ENDROOT
BRANCH   1   2
ATOM      2  C   UNL     1      18.557 -14.041 186.905  1.00  0.00     0.053 C 
BRANCH   2   3
ATOM      3  C   UNL     1      17.347 -14.916 187.028  1.00  0.00     0.041 C 
ATOM      4  O   UNL     1      17.141 -15.565 188.087  1.00  0.00    -0.550 OA
ATOM      5  O   UNL     1      16.465 -15.038 185.962  1.00  0.00    -0.550 OA
ENDBRANCH   2   3
ENDBRANCH   1   2
BRANCH   1   6
ATOM      6  C   UNL     1      19.397 -11.665 187.297  1.00  0.00     0.000 C 
BRANCH   6   7
ATOM      7  C   UNL     1      19.035 -10.531 188.272  1.00  0.00    -0.000 C 
BRANCH   7   8
ATOM      8  C   UNL     1      19.751  -9.194 188.007  1.00  0.00    -0.003 C 
ATOM      9  C   UNL     1      20.124  -8.997 186.539  1.00  0.00     0.004 C 
ENDBRANCH   7   8
ENDBRANCH   6   7
ENDBRANCH   1   6
TORSDOF 5
ENDMDL
MODEL 6
REMARK VINA RESULT:    -3.028      3.179      5.214
REMARK INTER + INTRA:          -4.203
REMARK INTER:                  -4.097
REMARK INTRA:                  -0.106
REMARK UNBOUND:                -0.289
REMARK SMILES CCCCCCC(=O)[O-]
REMARK SMILES IDX 5 1 6 2 7 3 8 4 9 5 4 6 3 7 2 8 1 9
REMARK H PARENT
REMARK Flexibility Score: inf
ROOT
ATOM      1  C   UNL     1      18.339 -13.600 186.851  1.00  0.00     0.006 C 
ENDROOT
BRANCH   1   2
ATOM      2  C   UNL     1      16.924 -14.090 187.189  1.00  0.00     0.053 C 
BRANCH   2   3
ATOM      3  C   UNL     1      16.242 -14.690 185.998  1.00  0.00     0.041 C 
ATOM      4  O   UNL     1      15.549 -13.967 185.234  1.00  0.00    -0.550 OA
ATOM      5  O   UNL     1      16.345 -16.053 185.749  1.00  0.00    -0.550 OA
ENDBRANCH   2   3
ENDBRANCH   1   2
BRANCH   1   6
ATOM      6  C   UNL     1      18.445 -12.066 186.884  1.00  0.00     0.000 C 
BRANCH   6   7
ATOM      7  C   UNL     1      19.737 -11.570 187.558  1.00  0.00    -0.000 C 
BRANCH   7   8
ATOM      8  C   UNL     1      19.895 -10.040 187.612  1.00  0.00    -0.003 C 
ATOM      9  C   UNL     1      19.405  -9.435 188.927  1.00  0.00     0.004 C 
ENDBRANCH   7   8
ENDBRANCH   6   7
ENDBRANCH   1   6
TORSDOF 5
ENDMDL
MODEL 7
REMARK VINA RESULT:    -2.916      1.244      1.841
REMARK INTER + INTRA:          -4.058
REMARK INTER:                  -3.742
REMARK INTRA:                  -0.316
REMARK UNBOUND:                -0.289
REMARK SMILES CCCCCCC(=O)[O-]
REMARK SMILES IDX 5 1 6 2 7 3 8 4 9 5 4 6 3 7 2 8 1 9
REMARK H PARENT
REMARK Flexibility Score: inf
ROOT
ATOM      1  C   UNL     1      19.098 -10.695 187.970  1.00  0.00     0.006 C 
ENDROOT
BRANCH   1   2
ATOM      2  C   UNL     1      20.125  -9.639 187.536  1.00  0.00     0.053 C 
BRANCH   2   3
ATOM      3  C   UNL     1      19.531  -8.635 186.596  1.00  0.00     0.041 C 
ATOM      4  O   UNL     1      18.740  -9.007 185.689  1.00  0.00    -0.550 OA
ATOM      5  O   UNL     1      19.874  -7.293 186.703  1.00  0.00    -0.550 OA
ENDBRANCH   2   3
ENDBRANCH   1   2
BRANCH   1   6
ATOM      6  C   UNL     1      19.377 -12.069 187.339  1.00  0.00     0.000 C 
BRANCH   6   7
ATOM      7  C   UNL     1      18.092 -12.807 186.920  1.00  0.00    -0.000 C 
BRANCH   7   8
ATOM      8  C   UNL     1      16.904 -11.893 186.571  1.00  0.00    -0.003 C 
ATOM      9  C   UNL     1      16.626 -11.820 185.070  1.00  0.00     0.004 C 
ENDBRANCH   7   8
ENDBRANCH   6   7
ENDBRANCH   1   6
TORSDOF 5
ENDMDL
MODEL 8
REMARK VINA RESULT:    -2.887      2.191      3.238
REMARK INTER + INTRA:          -4.020
REMARK INTER:                  -3.896
REMARK INTRA:                  -0.124
REMARK UNBOUND:                -0.289
REMARK SMILES CCCCCCC(=O)[O-]
REMARK SMILES IDX 5 1 6 2 7 3 8 4 9 5 4 6 3 7 2 8 1 9
REMARK H PARENT
REMARK Flexibility Score: inf
ROOT
ATOM      1  C   UNL     1      18.410 -12.158 186.778  1.00  0.00     0.006 C 
ENDROOT
BRANCH   1   2
ATOM      2  C   UNL     1      19.465 -11.387 187.583  1.00  0.00     0.053 C 
BRANCH   2   3
ATOM      3  C   UNL     1      18.863 -10.246 188.346  1.00  0.00     0.041 C 
ATOM      4  O   UNL     1      17.613 -10.102 188.386  1.00  0.00    -0.550 OA
ATOM      5  O   UNL     1      19.684  -9.326 188.985  1.00  0.00    -0.550 OA
ENDBRANCH   2   3
ENDBRANCH   1   2
BRANCH   1   6
ATOM      6  C   UNL     1      18.588 -13.681 186.899  1.00  0.00     0.000 C 
BRANCH   6   7
ATOM      7  C   UNL     1      17.263 -14.419 187.166  1.00  0.00    -0.000 C 
BRANCH   7   8
ATOM      8  C   UNL     1      16.179 -14.215 186.093  1.00  0.00    -0.003 C 
ATOM      9  C   UNL     1      15.761 -15.516 185.410  1.00  0.00     0.004 C 
ENDBRANCH   7   8
ENDBRANCH   6   7
ENDBRANCH   1   6
TORSDOF 5
ENDMDL
MODEL 9
REMARK VINA RESULT:    -2.872      2.205      4.074
REMARK INTER + INTRA:          -4.000
REMARK INTER:                  -3.761
REMARK INTRA:                  -0.239
REMARK UNBOUND:                -0.289
REMARK SMILES CCCCCCC(=O)[O-]
REMARK SMILES IDX 5 1 6 2 7 3 8 4 9 5 4 6 3 7 2 8 1 9
REMARK H PARENT
REMARK Flexibility Score: inf
ROOT
ATOM      1  C   UNL     1      18.132 -12.764 186.893  1.00  0.00     0.006 C 
ENDROOT
BRANCH   1   2
ATOM      2  C   UNL     1      16.961 -11.853 186.501  1.00  0.00     0.053 C 
BRANCH   2   3
ATOM      3  C   UNL     1      16.341 -12.268 185.202  1.00  0.00     0.041 C 
ATOM      4  O   UNL     1      16.379 -11.497 184.208  1.00  0.00    -0.550 OA
ATOM      5  O   UNL     1      15.694 -13.493 185.099  1.00  0.00    -0.550 OA
ENDBRANCH   2   3
ENDBRANCH   1   2
BRANCH   1   6
ATOM      6  C   UNL     1      19.350 -11.964 187.387  1.00  0.00     0.000 C 
BRANCH   6   7
ATOM      7  C   UNL     1      19.341 -10.503 186.903  1.00  0.00    -0.000 C 
BRANCH   7   8
ATOM      8  C   UNL     1      20.033  -9.503 187.845  1.00  0.00    -0.003 C 
ATOM      9  C   UNL     1      19.267  -9.282 189.149  1.00  0.00     0.004 C 
ENDBRANCH   7   8
ENDBRANCH   6   7
ENDBRANCH   1   6
TORSDOF 5
ENDMDL
