MODEL 1
REMARK VINA RESULT:    -4.815      0.000      0.000
REMARK INTER + INTRA:          -7.175
REMARK INTER:                  -6.504
REMARK INTRA:                  -0.671
REMARK UNBOUND:                -0.671
REMARK SMILES CCCCCCC=CC(=O)[O-]
REMARK SMILES IDX 5 1 6 2 7 3 8 4 9 5 10 6 11 7 4 8 3 9 2 10 1 11
REMARK H PARENT
REMARK Flexibility Score: inf
ROOT
ATOM      1  C   UNL     1      13.445 -11.064  35.455  1.00  0.00     0.004 C 
ENDROOT
BRANCH   1   2
ATOM      2  C   UNL     1      12.680 -12.397  35.508  1.00  0.00     0.027 C 
BRANCH   2   3
ATOM      3  C   UNL     1      13.245 -13.342  36.537  1.00  0.00    -0.025 C 
ATOM      4  C   UNL     1      12.549 -14.233  37.259  1.00  0.00     0.020 C 
BRANCH   4   5
ATOM      5  C   UNL     1      11.085 -14.436  37.236  1.00  0.00     0.064 C 
ATOM      6  O   UNL     1      10.611 -15.359  36.524  1.00  0.00    -0.545 OA
ATOM      7  O   UNL     1      10.217 -13.662  37.995  1.00  0.00    -0.545 OA
ENDBRANCH   4   5
ENDBRANCH   2   3
ENDBRANCH   1   2
BRANCH   1   8
ATOM      8  C   UNL     1      13.540 -10.399  36.836  1.00  0.00     0.000 C 
BRANCH   8   9
ATOM      9  C   UNL     1      12.160  -9.910  37.305  1.00  0.00    -0.000 C 
BRANCH   9  10
ATOM     10  C   UNL     1      11.868 -10.285  38.766  1.00  0.00    -0.003 C 
ATOM     11  C   UNL     1      13.134 -10.383  39.617  1.00  0.00     0.004 C 
ENDBRANCH   9  10
ENDBRANCH   8   9
ENDBRANCH   1   8
TORSDOF 6
ENDMDL
MODEL 2
REMARK VINA RESULT:    -4.801      3.950      5.419
REMARK INTER + INTRA:          -7.156
REMARK INTER:                  -6.314
REMARK INTRA:                  -0.842
REMARK UNBOUND:                -0.671
REMARK SMILES CCCCCCC=CC(=O)[O-]
REMARK SMILES IDX 5 1 6 2 7 3 8 4 9 5 10 6 11 7 4 8 3 9 2 10 1 11
REMARK H PARENT
REMARK Flexibility Score: inf
ROOT
ATOM      1  C   UNL     1       8.364 -12.813  38.462  1.00  0.00     0.004 C 
ENDROOT
BRANCH   1   2
ATOM      2  C   UNL     1       7.562 -12.331  37.242  1.00  0.00     0.027 C 
BRANCH   2   3
ATOM      3  C   UNL     1       7.389 -13.413  36.207  1.00  0.00    -0.025 C 
ATOM      4  C   UNL     1       8.057 -13.512  35.047  1.00  0.00     0.020 C 
BRANCH   4   5
ATOM      5  C   UNL     1       9.057 -12.559  34.523  1.00  0.00     0.064 C 
ATOM      6  O   UNL     1       8.781 -11.893  33.491  1.00  0.00    -0.545 OA
ATOM      7  O   UNL     1      10.281 -12.348  35.146  1.00  0.00    -0.545 OA
ENDBRANCH   4   5
ENDBRANCH   2   3
ENDBRANCH   1   2
BRANCH   1   8
ATOM      8  C   UNL     1       8.027 -14.263  38.838  1.00  0.00     0.000 C 
BRANCH   8   9
ATOM      9  C   UNL     1       9.292 -15.134  38.855  1.00  0.00    -0.000 C 
BRANCH   9  10
ATOM     10  C   UNL     1      10.430 -14.537  38.012  1.00  0.00    -0.003 C 
ATOM     11  C   UNL     1      10.810 -15.419  36.822  1.00  0.00     0.004 C 
ENDBRANCH   9  10
ENDBRANCH   8   9
ENDBRANCH   1   8
TORSDOF 6
ENDMDL
MODEL 3
REMARK VINA RESULT:    -4.763      2.896      4.659
REMARK INTER + INTRA:          -7.104
REMARK INTER:                  -6.213
REMARK INTRA:                  -0.891
REMARK UNBOUND:                -0.671
REMARK SMILES CCCCCCC=CC(=O)[O-]
REMARK SMILES IDX 5 1 6 2 7 3 8 4 9 5 10 6 11 7 4 8 3 9 2 10 1 11
REMARK H PARENT
REMARK Flexibility Score: inf
ROOT
ATOM      1  C   UNL     1       8.793 -12.030  38.110  1.00  0.00     0.004 C 
ENDROOT
BRANCH   1   2
ATOM      2  C   UNL     1      10.330 -12.008  38.133  1.00  0.00     0.027 C 
BRANCH   2   3
ATOM      3  C   UNL     1      10.923 -11.957  36.748  1.00  0.00    -0.025 C 
ATOM      4  C   UNL     1      11.572 -12.955  36.129  1.00  0.00     0.020 C 
BRANCH   4   5
ATOM      5  C   UNL     1      11.886 -14.286  36.692  1.00  0.00     0.064 C 
ATOM      6  O   UNL     1      12.959 -14.438  37.332  1.00  0.00    -0.545 OA
ATOM      7  O   UNL     1      11.022 -15.367  36.567  1.00  0.00    -0.545 OA
ENDBRANCH   4   5
ENDBRANCH   2   3
ENDBRANCH   1   2
BRANCH   1   8
ATOM      8  C   UNL     1       8.241 -13.431  37.811  1.00  0.00     0.000 C 
BRANCH   8   9
ATOM      9  C   UNL     1       7.300 -13.402  36.596  1.00  0.00    -0.000 C 
BRANCH   9  10
ATOM     10  C   UNL     1       8.023 -13.740  35.283  1.00  0.00    -0.003 C 
ATOM     11  C   UNL     1       8.078 -12.557  34.316  1.00  0.00     0.004 C 
ENDBRANCH   9  10
ENDBRANCH   8   9
ENDBRANCH   1   8
TORSDOF 6
ENDMDL
MODEL 4
REMARK VINA RESULT:    -4.728      1.585      2.048
REMARK INTER + INTRA:          -7.057
REMARK INTER:                  -6.132
REMARK INTRA:                  -0.924
REMARK UNBOUND:                -0.671
REMARK SMILES CCCCCCC=CC(=O)[O-]
REMARK SMILES IDX 5 1 6 2 7 3 8 4 9 5 10 6 11 7 4 8 3 9 2 10 1 11
REMARK H PARENT
REMARK Flexibility Score: inf
ROOT
ATOM      1  C   UNL     1      11.430 -10.835  35.091  1.00  0.00     0.004 C 
ENDROOT
BRANCH   1   2
ATOM      2  C   UNL     1      10.489 -12.048  35.190  1.00  0.00     0.027 C 
BRANCH   2   3
ATOM      3  C   UNL     1      10.035 -12.306  36.604  1.00  0.00    -0.025 C 
ATOM      4  C   UNL     1      10.527 -13.238  37.435  1.00  0.00     0.020 C 
BRANCH   4   5
ATOM      5  C   UNL     1      11.574 -14.233  37.122  1.00  0.00     0.064 C 
ATOM      6  O   UNL     1      11.235 -15.332  36.612  1.00  0.00    -0.545 OA
ATOM      7  O   UNL     1      12.923 -13.985  37.344  1.00  0.00    -0.545 OA
ENDBRANCH   4   5
ENDBRANCH   2   3
ENDBRANCH   1   2
BRANCH   1   8
ATOM      8  C   UNL     1      12.909 -11.249  35.112  1.00  0.00     0.000 C 
BRANCH   8   9
ATOM      9  C   UNL     1      13.663 -10.530  36.240  1.00  0.00    -0.000 C 
BRANCH   9  10
ATOM     10  C   UNL     1      12.718  -9.935  37.296  1.00  0.00    -0.003 C 
ATOM     11  C   UNL     1      12.925 -10.541  38.684  1.00  0.00     0.004 C 
ENDBRANCH   9  10
ENDBRANCH   8   9
ENDBRANCH   1   8
TORSDOF 6
ENDMDL
MODEL 5
REMARK VINA RESULT:    -4.689      1.390      2.231
REMARK INTER + INTRA:          -7.005
REMARK INTER:                  -6.219
REMARK INTRA:                  -0.786
REMARK UNBOUND:                -0.671
REMARK SMILES CCCCCCC=CC(=O)[O-]
REMARK SMILES IDX 5 1 6 2 7 3 8 4 9 5 10 6 11 7 4 8 3 9 2 10 1 11
REMARK H PARENT
REMARK Flexibility Score: inf
ROOT
ATOM      1  C   UNL     1      13.269 -13.083  35.562  1.00  0.00     0.004 C 
ENDROOT
BRANCH   1   2
ATOM      2  C   UNL     1      12.771 -13.649  36.902  1.00  0.00     0.027 C 
BRANCH   2   3
ATOM      3  C   UNL     1      11.493 -14.434  36.752  1.00  0.00    -0.025 C 
ATOM      4  C   UNL     1      10.248 -13.951  36.882  1.00  0.00     0.020 C 
BRANCH   4   5
ATOM      5  C   UNL     1       9.873 -12.569  37.248  1.00  0.00     0.064 C 
ATOM      6  O   UNL     1       9.900 -12.233  38.461  1.00  0.00    -0.545 OA
ATOM      7  O   UNL     1       9.521 -11.619  36.298  1.00  0.00    -0.545 OA
ENDBRANCH   4   5
ENDBRANCH   2   3
ENDBRANCH   1   2
BRANCH   1   8
ATOM      8  C   UNL     1      12.919 -11.596  35.398  1.00  0.00     0.000 C 
BRANCH   8   9
ATOM      9  C   UNL     1      13.640 -10.744  36.453  1.00  0.00    -0.000 C 
BRANCH   9  10
ATOM     10  C   UNL     1      12.664 -10.004  37.381  1.00  0.00    -0.003 C 
ATOM     11  C   UNL     1      12.873 -10.349  38.856  1.00  0.00     0.004 C 
ENDBRANCH   9  10
ENDBRANCH   8   9
ENDBRANCH   1   8
TORSDOF 6
ENDMDL
MODEL 6
REMARK VINA RESULT:    -4.682      3.012      5.067
REMARK INTER + INTRA:          -6.995
REMARK INTER:                  -6.286
REMARK INTRA:                  -0.709
REMARK UNBOUND:                -0.671
REMARK SMILES CCCCCCC=CC(=O)[O-]
REMARK SMILES IDX 5 1 6 2 7 3 8 4 9 5 10 6 11 7 4 8 3 9 2 10 1 11
REMARK H PARENT
REMARK Flexibility Score: inf
ROOT
ATOM      1  C   UNL     1       8.392 -14.435  38.574  1.00  0.00     0.004 C 
ENDROOT
BRANCH   1   2
ATOM      2  C   UNL     1       9.882 -14.811  38.527  1.00  0.00     0.027 C 
BRANCH   2   3
ATOM      3  C   UNL     1      10.286 -15.388  37.194  1.00  0.00    -0.025 C 
ATOM      4  C   UNL     1      11.118 -14.822  36.307  1.00  0.00     0.020 C 
BRANCH   4   5
ATOM      5  C   UNL     1      11.767 -13.499  36.427  1.00  0.00     0.064 C 
ATOM      6  O   UNL     1      12.851 -13.409  37.060  1.00  0.00    -0.545 OA
ATOM      7  O   UNL     1      11.238 -12.357  35.840  1.00  0.00    -0.545 OA
ENDBRANCH   4   5
ENDBRANCH   2   3
ENDBRANCH   1   2
BRANCH   1   8
ATOM      8  C   UNL     1       8.096 -13.153  37.781  1.00  0.00     0.000 C 
BRANCH   8   9
ATOM      9  C   UNL     1       7.230 -13.459  36.550  1.00  0.00    -0.000 C 
BRANCH   9  10
ATOM     10  C   UNL     1       7.578 -12.566  35.348  1.00  0.00    -0.003 C 
ATOM     11  C   UNL     1       7.891 -13.369  34.085  1.00  0.00     0.004 C 
ENDBRANCH   9  10
ENDBRANCH   8   9
ENDBRANCH   1   8
TORSDOF 6
ENDMDL
MODEL 7
REMARK VINA RESULT:    -4.666      2.622      4.390
REMARK INTER + INTRA:          -6.973
REMARK INTER:                  -6.275
REMARK INTRA:                  -0.699
REMARK UNBOUND:                -0.671
REMARK SMILES CCCCCCC=CC(=O)[O-]
REMARK SMILES IDX 5 1 6 2 7 3 8 4 9 5 10 6 11 7 4 8 3 9 2 10 1 11
REMARK H PARENT
REMARK Flexibility Score: inf
ROOT
ATOM      1  C   UNL     1      11.555 -14.629  37.433  1.00  0.00     0.004 C 
ENDROOT
BRANCH   1   2
ATOM      2  C   UNL     1      12.834 -13.910  36.974  1.00  0.00     0.027 C 
BRANCH   2   3
ATOM      3  C   UNL     1      12.891 -12.482  37.454  1.00  0.00    -0.025 C 
ATOM      4  C   UNL     1      12.748 -11.386  36.693  1.00  0.00     0.020 C 
BRANCH   4   5
ATOM      5  C   UNL     1      12.558 -11.348  35.228  1.00  0.00     0.064 C 
ATOM      6  O   UNL     1      11.389 -11.387  34.765  1.00  0.00    -0.545 OA
ATOM      7  O   UNL     1      13.625 -11.242  34.344  1.00  0.00    -0.545 OA
ENDBRANCH   4   5
ENDBRANCH   2   3
ENDBRANCH   1   2
BRANCH   1   8
ATOM      8  C   UNL     1      10.500 -14.697  36.319  1.00  0.00     0.000 C 
BRANCH   8   9
ATOM      9  C   UNL     1       9.308 -13.781  36.635  1.00  0.00    -0.000 C 
BRANCH   9  10
ATOM     10  C   UNL     1       9.175 -13.484  38.137  1.00  0.00    -0.003 C 
ATOM     11  C   UNL     1       7.914 -14.094  38.751  1.00  0.00     0.004 C 
ENDBRANCH   9  10
ENDBRANCH   8   9
ENDBRANCH   1   8
TORSDOF 6
ENDMDL
MODEL 8
REMARK VINA RESULT:    -4.647      2.329      3.708
REMARK INTER + INTRA:          -6.948
REMARK INTER:                  -6.258
REMARK INTRA:                  -0.690
REMARK UNBOUND:                -0.671
REMARK SMILES CCCCCCC=CC(=O)[O-]
REMARK SMILES IDX 5 1 6 2 7 3 8 4 9 5 10 6 11 7 4 8 3 9 2 10 1 11
REMARK H PARENT
REMARK Flexibility Score: inf
ROOT
ATOM      1  C   UNL     1      12.406 -14.619  37.363  1.00  0.00     0.004 C 
ENDROOT
BRANCH   1   2
ATOM      2  C   UNL     1      11.010 -14.729  36.730  1.00  0.00     0.027 C 
BRANCH   2   3
ATOM      3  C   UNL     1       9.906 -14.566  37.744  1.00  0.00    -0.025 C 
ATOM      4  C   UNL     1       9.404 -13.403  38.186  1.00  0.00     0.020 C 
BRANCH   4   5
ATOM      5  C   UNL     1       9.861 -12.048  37.813  1.00  0.00     0.064 C 
ATOM      6  O   UNL     1      10.702 -11.466  38.547  1.00  0.00    -0.545 OA
ATOM      7  O   UNL     1       9.418 -11.405  36.665  1.00  0.00    -0.545 OA
ENDBRANCH   4   5
ENDBRANCH   2   3
ENDBRANCH   1   2
BRANCH   1   8
ATOM      8  C   UNL     1      13.210 -13.444  36.787  1.00  0.00     0.000 C 
BRANCH   8   9
ATOM      9  C   UNL     1      12.561 -12.916  35.499  1.00  0.00    -0.000 C 
BRANCH   9  10
ATOM     10  C   UNL     1      12.868 -11.430  35.250  1.00  0.00    -0.003 C 
ATOM     11  C   UNL     1      14.196 -11.215  34.522  1.00  0.00     0.004 C 
ENDBRANCH   9  10
ENDBRANCH   8   9
ENDBRANCH   1   8
TORSDOF 6
ENDMDL
MODEL 9
REMARK VINA RESULT:    -4.631      1.785      3.148
REMARK INTER + INTRA:          -6.925
REMARK INTER:                  -6.376
REMARK INTRA:                  -0.549
REMARK UNBOUND:                -0.671
REMARK SMILES CCCCCCC=CC(=O)[O-]
REMARK SMILES IDX 5 1 6 2 7 3 8 4 9 5 10 6 11 7 4 8 3 9 2 10 1 11
REMARK H PARENT
REMARK Flexibility Score: inf
ROOT
ATOM      1  C   UNL     1      12.908 -13.407  36.875  1.00  0.00     0.004 C 
ENDROOT
BRANCH   1   2
ATOM      2  C   UNL     1      11.818 -14.367  37.379  1.00  0.00     0.027 C 
BRANCH   2   3
ATOM      3  C   UNL     1      10.605 -14.376  36.485  1.00  0.00    -0.025 C 
ATOM      4  C   UNL     1       9.394 -13.883  36.790  1.00  0.00     0.020 C 
BRANCH   4   5
ATOM      5  C   UNL     1       8.986 -13.282  38.077  1.00  0.00     0.064 C 
ATOM      6  O   UNL     1       8.259 -13.950  38.857  1.00  0.00    -0.545 OA
ATOM      7  O   UNL     1       9.402 -12.016  38.469  1.00  0.00    -0.545 OA
ENDBRANCH   4   5
ENDBRANCH   2   3
ENDBRANCH   1   2
BRANCH   1   8
ATOM      8  C   UNL     1      12.847 -12.044  37.579  1.00  0.00     0.000 C 
BRANCH   8   9
ATOM      9  C   UNL     1      13.159 -10.905  36.596  1.00  0.00    -0.000 C 
BRANCH   9  10
ATOM     10  C   UNL     1      13.047 -11.346  35.128  1.00  0.00    -0.003 C 
ATOM     11  C   UNL     1      14.367 -11.213  34.368  1.00  0.00     0.004 C 
ENDBRANCH   9  10
ENDBRANCH   8   9
ENDBRANCH   1   8
TORSDOF 6
ENDMDL
