MODEL 1
REMARK VINA RESULT:    -6.613      0.000      0.000
REMARK INTER + INTRA:          -7.955
REMARK INTER:                  -8.160
REMARK INTRA:                   0.205
REMARK UNBOUND:                 0.205
REMARK SMILES O=c1c(O)c(-c2cc(O)c(O)c(O)c2)oc2cc(O)cc(O)c12
REMARK SMILES IDX 5 1 3 2 2 3 1 4 23 5 21 6 20 7 18 8 17 9 16 10 15 11 6 12
REMARK SMILES IDX 7 13 8 14 14 15 10 16 12 17 9 18 11 20 13 22 4 24 22 26
REMARK SMILES IDX 19 28
REMARK H PARENT 9 19 11 21 13 23 4 25 22 27 19 29
REMARK Flexibility Score: inf
ROOT
ATOM      1  C   UNL     1      30.993 -92.169  37.783  1.00  0.00     0.180 A 
ATOM      2  C   UNL     1      32.220 -92.775  38.104  1.00  0.00     0.208 A 
ATOM      3  C   UNL     1      32.265 -94.169  38.279  1.00  0.00     0.238 A 
ATOM      4  O   UNL     1      33.376 -94.712  38.513  1.00  0.00    -0.285 OA
ATOM      5  C   UNL     1      31.082 -94.934  38.146  1.00  0.00     0.111 A 
ATOM      6  C   UNL     1      31.003 -96.346  38.340  1.00  0.00     0.134 A 
ATOM      7  C   UNL     1      29.808 -97.017  38.055  1.00  0.00     0.093 A 
ATOM      8  C   UNL     1      28.670 -96.318  37.644  1.00  0.00     0.123 A 
ATOM      9  C   UNL     1      28.720 -94.933  37.509  1.00  0.00     0.094 A 
ATOM     10  C   UNL     1      29.908 -94.240  37.752  1.00  0.00     0.146 A 
ATOM     11  O   UNL     1      29.915 -92.920  37.601  1.00  0.00    -0.452 OA
ENDROOT
BRANCH   1  12
ATOM     12  C   UNL     1      30.862 -90.703  37.609  1.00  0.00     0.029 A 
ATOM     13  C   UNL     1      31.904 -89.936  37.064  1.00  0.00     0.062 A 
ATOM     14  C   UNL     1      31.770 -88.547  36.929  1.00  0.00     0.162 A 
ATOM     15  C   UNL     1      29.696 -90.058  38.051  1.00  0.00     0.062 A 
ATOM     16  C   UNL     1      30.591 -87.912  37.352  1.00  0.00     0.200 A 
ATOM     17  C   UNL     1      29.554 -88.673  37.918  1.00  0.00     0.162 A 
BRANCH  14  18
ATOM     18  O   UNL     1      32.809 -87.796  36.380  1.00  0.00    -0.504 OA
ATOM     19  H   UNL     1      33.569 -87.444  36.949  1.00  0.00     0.293 HD
ENDBRANCH  14  18
BRANCH  16  20
ATOM     20  O   UNL     1      30.440 -86.530  37.222  1.00  0.00    -0.502 OA
ATOM     21  H   UNL     1      30.129 -86.100  36.359  1.00  0.00     0.293 HD
ENDBRANCH  16  20
BRANCH  17  22
ATOM     22  O   UNL     1      28.375 -88.071  38.356  1.00  0.00    -0.504 OA
ATOM     23  H   UNL     1      27.630 -87.816  37.718  1.00  0.00     0.293 HD
ENDBRANCH  17  22
ENDBRANCH   1  12
BRANCH   2  24
ATOM     24  O   UNL     1      33.380 -92.004  38.210  1.00  0.00    -0.502 OA
ATOM     25  H   UNL     1      34.134 -92.060  37.535  1.00  0.00     0.293 HD
ENDBRANCH   2  24
BRANCH   6  26
ATOM     26  O   UNL     1      32.054 -97.125  38.834  1.00  0.00    -0.507 OA
ATOM     27  H   UNL     1      32.906 -97.326  38.332  1.00  0.00     0.293 HD
ENDBRANCH   6  26
BRANCH   8  28
ATOM     28  O   UNL     1      27.480 -96.993  37.378  1.00  0.00    -0.508 OA
ATOM     29  H   UNL     1      26.847 -96.684  36.649  1.00  0.00     0.293 HD
ENDBRANCH   8  28
TORSDOF 7
ENDMDL
MODEL 2
REMARK VINA RESULT:    -5.811      1.470      3.320
REMARK INTER + INTRA:          -6.964
REMARK INTER:                  -6.741
REMARK INTRA:                  -0.223
REMARK UNBOUND:                 0.205
REMARK SMILES O=c1c(O)c(-c2cc(O)c(O)c(O)c2)oc2cc(O)cc(O)c12
REMARK SMILES IDX 5 1 3 2 2 3 1 4 23 5 21 6 20 7 18 8 17 9 16 10 15 11 6 12
REMARK SMILES IDX 7 13 8 14 14 15 10 16 12 17 9 18 11 20 13 22 4 24 22 26
REMARK SMILES IDX 19 28
REMARK H PARENT 9 19 11 21 13 23 4 25 22 27 19 29
REMARK Flexibility Score: inf
ROOT
ATOM      1  C   UNL     1      31.238 -91.961  37.816  1.00  0.00     0.180 A 
ATOM      2  C   UNL     1      30.014 -92.558  37.468  1.00  0.00     0.208 A 
ATOM      3  C   UNL     1      29.890 -93.955  37.557  1.00  0.00     0.238 A 
ATOM      4  O   UNL     1      28.775 -94.479  37.295  1.00  0.00    -0.285 OA
ATOM      5  C   UNL     1      30.992 -94.736  37.979  1.00  0.00     0.111 A 
ATOM      6  C   UNL     1      30.990 -96.160  38.068  1.00  0.00     0.134 A 
ATOM      7  C   UNL     1      32.094 -96.818  38.623  1.00  0.00     0.093 A 
ATOM      8  C   UNL     1      33.226 -96.108  39.031  1.00  0.00     0.123 A 
ATOM      9  C   UNL     1      33.261 -94.724  38.893  1.00  0.00     0.094 A 
ATOM     10  C   UNL     1      32.161 -94.035  38.376  1.00  0.00     0.146 A 
ATOM     11  O   UNL     1      32.231 -92.713  38.271  1.00  0.00    -0.452 OA
ENDROOT
BRANCH   1  12
ATOM     12  C   UNL     1      31.453 -90.498  37.723  1.00  0.00     0.029 A 
ATOM     13  C   UNL     1      30.778 -89.604  38.570  1.00  0.00     0.062 A 
ATOM     14  C   UNL     1      30.977 -88.221  38.451  1.00  0.00     0.162 A 
ATOM     15  C   UNL     1      32.306 -89.988  36.731  1.00  0.00     0.062 A 
ATOM     16  C   UNL     1      31.850 -87.721  37.470  1.00  0.00     0.200 A 
ATOM     17  C   UNL     1      32.512 -88.611  36.606  1.00  0.00     0.162 A 
BRANCH  14  18
ATOM     18  O   UNL     1      30.307 -87.344  39.302  1.00  0.00    -0.504 OA
ATOM     19  H   UNL     1      30.725 -87.015  40.164  1.00  0.00     0.293 HD
ENDBRANCH  14  18
BRANCH  16  20
ATOM     20  O   UNL     1      32.063 -86.347  37.340  1.00  0.00    -0.502 OA
ATOM     21  H   UNL     1      31.770 -85.687  38.050  1.00  0.00     0.293 HD
ENDBRANCH  16  20
BRANCH  17  22
ATOM     22  O   UNL     1      33.377 -88.145  35.618  1.00  0.00    -0.504 OA
ATOM     23  H   UNL     1      33.066 -87.534  34.871  1.00  0.00     0.293 HD
ENDBRANCH  17  22
ENDBRANCH   1  12
BRANCH   2  24
ATOM     24  O   UNL     1      28.932 -91.768  37.074  1.00  0.00    -0.502 OA
ATOM     25  H   UNL     1      28.863 -90.785  37.308  1.00  0.00     0.293 HD
ENDBRANCH   2  24
BRANCH   6  26
ATOM     26  O   UNL     1      29.948 -96.969  37.605  1.00  0.00    -0.507 OA
ATOM     27  H   UNL     1      28.968 -96.788  37.759  1.00  0.00     0.293 HD
ENDBRANCH   6  26
BRANCH   8  28
ATOM     28  O   UNL     1      34.327 -96.774  39.567  1.00  0.00    -0.508 OA
ATOM     29  H   UNL     1      34.575 -96.687  40.546  1.00  0.00     0.293 HD
ENDBRANCH   8  28
TORSDOF 7
ENDMDL
MODEL 3
REMARK VINA RESULT:    -5.656      9.219     10.852
REMARK INTER + INTRA:          -6.774
REMARK INTER:                  -6.525
REMARK INTRA:                  -0.249
REMARK UNBOUND:                 0.205
REMARK SMILES O=c1c(O)c(-c2cc(O)c(O)c(O)c2)oc2cc(O)cc(O)c12
REMARK SMILES IDX 5 1 3 2 2 3 1 4 23 5 21 6 20 7 18 8 17 9 16 10 15 11 6 12
REMARK SMILES IDX 7 13 8 14 14 15 10 16 12 17 9 18 11 20 13 22 4 24 22 26
REMARK SMILES IDX 19 28
REMARK H PARENT 9 19 11 21 13 23 4 25 22 27 19 29
REMARK Flexibility Score: inf
ROOT
ATOM      1  C   UNL     1      37.793 -95.023  31.530  1.00  0.00     0.180 A 
ATOM      2  C   UNL     1      38.527 -95.649  30.508  1.00  0.00     0.208 A 
ATOM      3  C   UNL     1      37.956 -95.755  29.228  1.00  0.00     0.238 A 
ATOM      4  O   UNL     1      38.640 -96.269  28.304  1.00  0.00    -0.285 OA
ATOM      5  C   UNL     1      36.656 -95.248  28.992  1.00  0.00     0.111 A 
ATOM      6  C   UNL     1      35.966 -95.337  27.745  1.00  0.00     0.134 A 
ATOM      7  C   UNL     1      34.737 -94.686  27.590  1.00  0.00     0.093 A 
ATOM      8  C   UNL     1      34.142 -94.004  28.655  1.00  0.00     0.123 A 
ATOM      9  C   UNL     1      34.780 -93.962  29.891  1.00  0.00     0.094 A 
ATOM     10  C   UNL     1      36.024 -94.572  30.068  1.00  0.00     0.146 A 
ATOM     11  O   UNL     1      36.604 -94.500  31.261  1.00  0.00    -0.452 OA
ENDROOT
BRANCH   1  12
ATOM     12  C   UNL     1      38.316 -94.897  32.910  1.00  0.00     0.029 A 
ATOM     13  C   UNL     1      39.385 -94.037  33.211  1.00  0.00     0.062 A 
ATOM     14  C   UNL     1      39.883 -93.949  34.518  1.00  0.00     0.162 A 
ATOM     15  C   UNL     1      37.773 -95.694  33.930  1.00  0.00     0.062 A 
ATOM     16  C   UNL     1      39.318 -94.734  35.538  1.00  0.00     0.200 A 
ATOM     17  C   UNL     1      38.262 -95.611  35.238  1.00  0.00     0.162 A 
BRANCH  14  18
ATOM     18  O   UNL     1      40.940 -93.086  34.806  1.00  0.00    -0.504 OA
ATOM     19  H   UNL     1      41.749 -93.016  34.200  1.00  0.00     0.293 HD
ENDBRANCH  14  18
BRANCH  16  20
ATOM     20  O   UNL     1      39.799 -94.655  36.846  1.00  0.00    -0.502 OA
ATOM     21  H   UNL     1      39.187 -94.718  37.650  1.00  0.00     0.293 HD
ENDBRANCH  16  20
BRANCH  17  22
ATOM     22  O   UNL     1      37.686 -96.409  36.225  1.00  0.00    -0.504 OA
ATOM     23  H   UNL     1      37.900 -97.395  36.315  1.00  0.00     0.293 HD
ENDBRANCH  17  22
ENDBRANCH   1  12
BRANCH   2  24
ATOM     24  O   UNL     1      39.817 -96.123  30.757  1.00  0.00    -0.502 OA
ATOM     25  H   UNL     1      40.595 -95.936  30.136  1.00  0.00     0.293 HD
ENDBRANCH   2  24
BRANCH   6  26
ATOM     26  O   UNL     1      36.428 -96.070  26.648  1.00  0.00    -0.507 OA
ATOM     27  H   UNL     1      37.254 -96.649  26.650  1.00  0.00     0.293 HD
ENDBRANCH   6  26
BRANCH   8  28
ATOM     28  O   UNL     1      32.910 -93.372  28.494  1.00  0.00    -0.508 OA
ATOM     29  H   UNL     1      32.755 -92.692  27.760  1.00  0.00     0.293 HD
ENDBRANCH   8  28
TORSDOF 7
ENDMDL
MODEL 4
REMARK VINA RESULT:    -5.641      9.316     11.027
REMARK INTER + INTRA:          -6.755
REMARK INTER:                  -6.436
REMARK INTRA:                  -0.318
REMARK UNBOUND:                 0.205
REMARK SMILES O=c1c(O)c(-c2cc(O)c(O)c(O)c2)oc2cc(O)cc(O)c12
REMARK SMILES IDX 5 1 3 2 2 3 1 4 23 5 21 6 20 7 18 8 17 9 16 10 15 11 6 12
REMARK SMILES IDX 7 13 8 14 14 15 10 16 12 17 9 18 11 20 13 22 4 24 22 26
REMARK SMILES IDX 19 28
REMARK H PARENT 9 19 11 21 13 23 4 25 22 27 19 29
REMARK Flexibility Score: inf
ROOT
ATOM      1  C   UNL     1      36.877 -95.101  30.707  1.00  0.00     0.180 A 
ATOM      2  C   UNL     1      37.898 -95.633  29.901  1.00  0.00     0.208 A 
ATOM      3  C   UNL     1      39.219 -95.621  30.378  1.00  0.00     0.238 A 
ATOM      4  O   UNL     1      40.121 -96.147  29.674  1.00  0.00    -0.285 OA
ATOM      5  C   UNL     1      39.504 -95.064  31.648  1.00  0.00     0.111 A 
ATOM      6  C   UNL     1      40.811 -94.962  32.213  1.00  0.00     0.134 A 
ATOM      7  C   UNL     1      40.960 -94.512  33.530  1.00  0.00     0.093 A 
ATOM      8  C   UNL     1      39.855 -94.099  34.280  1.00  0.00     0.123 A 
ATOM      9  C   UNL     1      38.583 -94.137  33.716  1.00  0.00     0.094 A 
ATOM     10  C   UNL     1      38.398 -94.615  32.416  1.00  0.00     0.146 A 
ATOM     11  O   UNL     1      37.167 -94.646  31.920  1.00  0.00    -0.452 OA
ENDROOT
BRANCH   1  12
ATOM     12  C   UNL     1      35.465 -95.056  30.262  1.00  0.00     0.029 A 
ATOM     13  C   UNL     1      34.529 -96.006  30.701  1.00  0.00     0.062 A 
ATOM     14  C   UNL     1      33.203 -95.961  30.250  1.00  0.00     0.162 A 
ATOM     15  C   UNL     1      35.065 -94.079  29.336  1.00  0.00     0.062 A 
ATOM     16  C   UNL     1      32.805 -94.966  29.341  1.00  0.00     0.200 A 
ATOM     17  C   UNL     1      33.744 -94.026  28.882  1.00  0.00     0.162 A 
BRANCH  14  18
ATOM     18  O   UNL     1      32.280 -96.905  30.698  1.00  0.00    -0.504 OA
ATOM     19  H   UNL     1      32.575 -97.789  31.095  1.00  0.00     0.293 HD
ENDBRANCH  14  18
BRANCH  16  20
ATOM     20  O   UNL     1      31.487 -94.904  28.884  1.00  0.00    -0.502 OA
ATOM     21  H   UNL     1      31.016 -94.024  28.713  1.00  0.00     0.293 HD
ENDBRANCH  16  20
BRANCH  17  22
ATOM     22  O   UNL     1      33.382 -93.031  27.973  1.00  0.00    -0.504 OA
ATOM     23  H   UNL     1      32.985 -93.247  27.067  1.00  0.00     0.293 HD
ENDBRANCH  17  22
ENDBRANCH   1  12
BRANCH   2  24
ATOM     24  O   UNL     1      37.592 -96.198  28.660  1.00  0.00    -0.502 OA
ATOM     25  H   UNL     1      38.174 -96.063  27.842  1.00  0.00     0.293 HD
ENDBRANCH   2  24
BRANCH   6  26
ATOM     26  O   UNL     1      41.987 -95.263  31.519  1.00  0.00    -0.507 OA
ATOM     27  H   UNL     1      42.327 -94.754  30.717  1.00  0.00     0.293 HD
ENDBRANCH   6  26
BRANCH   8  28
ATOM     28  O   UNL     1      40.015 -93.636  35.585  1.00  0.00    -0.508 OA
ATOM     29  H   UNL     1      39.314 -93.806  36.297  1.00  0.00     0.293 HD
ENDBRANCH   8  28
TORSDOF 7
ENDMDL
MODEL 5
REMARK VINA RESULT:    -5.603      9.096     10.461
REMARK INTER + INTRA:          -6.708
REMARK INTER:                  -6.343
REMARK INTRA:                  -0.365
REMARK UNBOUND:                 0.205
REMARK SMILES O=c1c(O)c(-c2cc(O)c(O)c(O)c2)oc2cc(O)cc(O)c12
REMARK SMILES IDX 5 1 3 2 2 3 1 4 23 5 21 6 20 7 18 8 17 9 16 10 15 11 6 12
REMARK SMILES IDX 7 13 8 14 14 15 10 16 12 17 9 18 11 20 13 22 4 24 22 26
REMARK SMILES IDX 19 28
REMARK H PARENT 9 19 11 21 13 23 4 25 22 27 19 29
REMARK Flexibility Score: inf
ROOT
ATOM      1  C   UNL     1      30.818 -95.543  28.774  1.00  0.00     0.180 A 
ATOM      2  C   UNL     1      29.824 -95.377  27.795  1.00  0.00     0.208 A 
ATOM      3  C   UNL     1      28.487 -95.652  28.129  1.00  0.00     0.238 A 
ATOM      4  O   UNL     1      27.595 -95.450  27.263  1.00  0.00    -0.285 OA
ATOM      5  C   UNL     1      28.165 -96.104  29.430  1.00  0.00     0.111 A 
ATOM      6  C   UNL     1      26.850 -96.450  29.865  1.00  0.00     0.134 A 
ATOM      7  C   UNL     1      26.628 -96.760  31.212  1.00  0.00     0.093 A 
ATOM      8  C   UNL     1      27.685 -96.799  32.126  1.00  0.00     0.123 A 
ATOM      9  C   UNL     1      28.980 -96.521  31.699  1.00  0.00     0.094 A 
ATOM     10  C   UNL     1      29.228 -96.173  30.369  1.00  0.00     0.146 A 
ATOM     11  O   UNL     1      30.476 -95.905  30.004  1.00  0.00    -0.452 OA
ENDROOT
BRANCH   1  12
ATOM     12  C   UNL     1      32.251 -95.298  28.490  1.00  0.00     0.029 A 
ATOM     13  C   UNL     1      33.070 -96.299  27.944  1.00  0.00     0.062 A 
ATOM     14  C   UNL     1      34.430 -96.055  27.704  1.00  0.00     0.162 A 
ATOM     15  C   UNL     1      32.819 -94.059  28.827  1.00  0.00     0.062 A 
ATOM     16  C   UNL     1      34.985 -94.804  28.023  1.00  0.00     0.200 A 
ATOM     17  C   UNL     1      34.174 -93.806  28.590  1.00  0.00     0.162 A 
BRANCH  14  18
ATOM     18  O   UNL     1      35.232 -97.054  27.154  1.00  0.00    -0.504 OA
ATOM     19  H   UNL     1      34.832 -97.869  26.704  1.00  0.00     0.293 HD
ENDBRANCH  14  18
BRANCH  16  20
ATOM     20  O   UNL     1      36.336 -94.543  27.787  1.00  0.00    -0.502 OA
ATOM     21  H   UNL     1      36.805 -94.849  26.944  1.00  0.00     0.293 HD
ENDBRANCH  16  20
BRANCH  17  22
ATOM     22  O   UNL     1      34.696 -92.558  28.925  1.00  0.00    -0.504 OA
ATOM     23  H   UNL     1      34.527 -92.126  29.826  1.00  0.00     0.293 HD
ENDBRANCH  17  22
ENDBRANCH   1  12
BRANCH   2  24
ATOM     24  O   UNL     1      30.162 -94.909  26.523  1.00  0.00    -0.502 OA
ATOM     25  H   UNL     1      29.961 -93.964  26.219  1.00  0.00     0.293 HD
ENDBRANCH   2  24
BRANCH   6  26
ATOM     26  O   UNL     1      25.743 -96.531  29.015  1.00  0.00    -0.507 OA
ATOM     27  H   UNL     1      24.803 -96.741  29.314  1.00  0.00     0.293 HD
ENDBRANCH   6  26
BRANCH   8  28
ATOM     28  O   UNL     1      27.456 -97.125  33.462  1.00  0.00    -0.508 OA
ATOM     29  H   UNL     1      27.765 -98.008  33.853  1.00  0.00     0.293 HD
ENDBRANCH   8  28
TORSDOF 7
ENDMDL
MODEL 6
REMARK VINA RESULT:    -5.602      3.173      5.922
REMARK INTER + INTRA:          -6.707
REMARK INTER:                  -6.428
REMARK INTRA:                  -0.279
REMARK UNBOUND:                 0.205
REMARK SMILES O=c1c(O)c(-c2cc(O)c(O)c(O)c2)oc2cc(O)cc(O)c12
REMARK SMILES IDX 5 1 3 2 2 3 1 4 23 5 21 6 20 7 18 8 17 9 16 10 15 11 6 12
REMARK SMILES IDX 7 13 8 14 14 15 10 16 12 17 9 18 11 20 13 22 4 24 22 26
REMARK SMILES IDX 19 28
REMARK H PARENT 9 19 11 21 13 23 4 25 22 27 19 29
REMARK Flexibility Score: inf
ROOT
ATOM      1  C   UNL     1      29.159 -95.269  38.793  1.00  0.00     0.180 A 
ATOM      2  C   UNL     1      28.365 -95.463  37.650  1.00  0.00     0.208 A 
ATOM      3  C   UNL     1      27.023 -95.845  37.810  1.00  0.00     0.238 A 
ATOM      4  O   UNL     1      26.302 -95.964  36.784  1.00  0.00    -0.285 OA
ATOM      5  C   UNL     1      26.497 -96.043  39.109  1.00  0.00     0.111 A 
ATOM      6  C   UNL     1      25.163 -96.469  39.387  1.00  0.00     0.134 A 
ATOM      7  C   UNL     1      24.713 -96.506  40.712  1.00  0.00     0.093 A 
ATOM      8  C   UNL     1      25.568 -96.195  41.773  1.00  0.00     0.123 A 
ATOM      9  C   UNL     1      26.888 -95.836  41.515  1.00  0.00     0.094 A 
ATOM     10  C   UNL     1      27.357 -95.755  40.202  1.00  0.00     0.146 A 
ATOM     11  O   UNL     1      28.619 -95.399  39.998  1.00  0.00    -0.452 OA
ENDROOT
BRANCH   1  12
ATOM     12  C   UNL     1      30.589 -94.892  38.704  1.00  0.00     0.029 A 
ATOM     13  C   UNL     1      31.608 -95.809  39.005  1.00  0.00     0.062 A 
ATOM     14  C   UNL     1      32.955 -95.426  38.938  1.00  0.00     0.162 A 
ATOM     15  C   UNL     1      30.934 -93.573  38.366  1.00  0.00     0.062 A 
ATOM     16  C   UNL     1      33.292 -94.110  38.577  1.00  0.00     0.200 A 
ATOM     17  C   UNL     1      32.275 -93.183  38.295  1.00  0.00     0.162 A 
BRANCH  14  18
ATOM     18  O   UNL     1      33.959 -96.348  39.232  1.00  0.00    -0.504 OA
ATOM     19  H   UNL     1      34.802 -96.412  38.675  1.00  0.00     0.293 HD
ENDBRANCH  14  18
BRANCH  16  20
ATOM     20  O   UNL     1      34.628 -93.713  38.501  1.00  0.00    -0.502 OA
ATOM     21  H   UNL     1      35.239 -94.014  37.751  1.00  0.00     0.293 HD
ENDBRANCH  16  20
BRANCH  17  22
ATOM     22  O   UNL     1      32.577 -91.868  37.942  1.00  0.00    -0.504 OA
ATOM     23  H   UNL     1      33.114 -91.641  37.114  1.00  0.00     0.293 HD
ENDBRANCH  17  22
ENDBRANCH   1  12
BRANCH   2  24
ATOM     24  O   UNL     1      28.898 -95.241  36.378  1.00  0.00    -0.502 OA
ATOM     25  H   UNL     1      29.894 -95.263  36.194  1.00  0.00     0.293 HD
ENDBRANCH   2  24
BRANCH   6  26
ATOM     26  O   UNL     1      24.258 -96.889  38.408  1.00  0.00    -0.507 OA
ATOM     27  H   UNL     1      24.437 -97.618  37.734  1.00  0.00     0.293 HD
ENDBRANCH   6  26
BRANCH   8  28
ATOM     28  O   UNL     1      25.115 -96.250  43.090  1.00  0.00    -0.508 OA
ATOM     29  H   UNL     1      24.175 -95.964  43.340  1.00  0.00     0.293 HD
ENDBRANCH   8  28
TORSDOF 7
ENDMDL
MODEL 7
REMARK VINA RESULT:    -5.583     11.021     13.020
REMARK INTER + INTRA:          -6.684
REMARK INTER:                  -6.339
REMARK INTRA:                  -0.345
REMARK UNBOUND:                 0.205
REMARK SMILES O=c1c(O)c(-c2cc(O)c(O)c(O)c2)oc2cc(O)cc(O)c12
REMARK SMILES IDX 5 1 3 2 2 3 1 4 23 5 21 6 20 7 18 8 17 9 16 10 15 11 6 12
REMARK SMILES IDX 7 13 8 14 14 15 10 16 12 17 9 18 11 20 13 22 4 24 22 26
REMARK SMILES IDX 19 28
REMARK H PARENT 9 19 11 21 13 23 4 25 22 27 19 29
REMARK Flexibility Score: inf
ROOT
ATOM      1  C   UNL     1      40.333 -94.713  31.305  1.00  0.00     0.180 A 
ATOM      2  C   UNL     1      38.977 -94.863  31.644  1.00  0.00     0.208 A 
ATOM      3  C   UNL     1      38.616 -94.915  33.001  1.00  0.00     0.238 A 
ATOM      4  O   UNL     1      37.395 -94.996  33.298  1.00  0.00    -0.285 OA
ATOM      5  C   UNL     1      39.615 -94.830  34.000  1.00  0.00     0.111 A 
ATOM      6  C   UNL     1      39.368 -94.911  35.403  1.00  0.00     0.134 A 
ATOM      7  C   UNL     1      40.416 -94.683  36.303  1.00  0.00     0.093 A 
ATOM      8  C   UNL     1      41.716 -94.442  35.849  1.00  0.00     0.123 A 
ATOM      9  C   UNL     1      41.979 -94.421  34.483  1.00  0.00     0.094 A 
ATOM     10  C   UNL     1      40.947 -94.609  33.559  1.00  0.00     0.146 A 
ATOM     11  O   UNL     1      41.238 -94.570  32.265  1.00  0.00    -0.452 OA
ENDROOT
BRANCH   1  12
ATOM     12  C   UNL     1      40.792 -94.676  29.898  1.00  0.00     0.029 A 
ATOM     13  C   UNL     1      40.761 -93.489  29.149  1.00  0.00     0.062 A 
ATOM     14  C   UNL     1      41.178 -93.480  27.810  1.00  0.00     0.162 A 
ATOM     15  C   UNL     1      41.215 -95.864  29.279  1.00  0.00     0.062 A 
ATOM     16  C   UNL     1      41.621 -94.668  27.206  1.00  0.00     0.200 A 
ATOM     17  C   UNL     1      41.634 -95.863  27.945  1.00  0.00     0.162 A 
BRANCH  14  18
ATOM     18  O   UNL     1      41.149 -92.293  27.078  1.00  0.00    -0.504 OA
ATOM     19  H   UNL     1      40.711 -92.241  26.167  1.00  0.00     0.293 HD
ENDBRANCH  14  18
BRANCH  16  20
ATOM     20  O   UNL     1      42.043 -94.675  25.875  1.00  0.00    -0.502 OA
ATOM     21  H   UNL     1      42.900 -95.129  25.583  1.00  0.00     0.293 HD
ENDBRANCH  16  20
BRANCH  17  22
ATOM     22  O   UNL     1      42.060 -97.060  27.371  1.00  0.00    -0.504 OA
ATOM     23  H   UNL     1      41.786 -97.338  26.436  1.00  0.00     0.293 HD
ENDBRANCH  17  22
ENDBRANCH   1  12
BRANCH   2  24
ATOM     24  O   UNL     1      38.004 -94.924  30.643  1.00  0.00    -0.502 OA
ATOM     25  H   UNL     1      38.225 -95.163  29.684  1.00  0.00     0.293 HD
ENDBRANCH   2  24
BRANCH   6  26
ATOM     26  O   UNL     1      38.127 -95.235  35.959  1.00  0.00    -0.507 OA
ATOM     27  H   UNL     1      37.935 -95.284  36.948  1.00  0.00     0.293 HD
ENDBRANCH   6  26
BRANCH   8  28
ATOM     28  O   UNL     1      42.756 -94.234  36.753  1.00  0.00    -0.508 OA
ATOM     29  H   UNL     1      42.590 -94.193  37.752  1.00  0.00     0.293 HD
ENDBRANCH   8  28
TORSDOF 7
ENDMDL
MODEL 8
REMARK VINA RESULT:    -5.523      9.654     11.827
REMARK INTER + INTRA:          -6.609
REMARK INTER:                  -6.628
REMARK INTRA:                   0.019
REMARK UNBOUND:                 0.205
REMARK SMILES O=c1c(O)c(-c2cc(O)c(O)c(O)c2)oc2cc(O)cc(O)c12
REMARK SMILES IDX 5 1 3 2 2 3 1 4 23 5 21 6 20 7 18 8 17 9 16 10 15 11 6 12
REMARK SMILES IDX 7 13 8 14 14 15 10 16 12 17 9 18 11 20 13 22 4 24 22 26
REMARK SMILES IDX 19 28
REMARK H PARENT 9 19 11 21 13 23 4 25 22 27 19 29
REMARK Flexibility Score: inf
ROOT
ATOM      1  C   UNL     1      41.213 -94.903  36.100  1.00  0.00     0.180 A 
ATOM      2  C   UNL     1      42.365 -94.969  35.296  1.00  0.00     0.208 A 
ATOM      3  C   UNL     1      42.225 -94.908  33.900  1.00  0.00     0.238 A 
ATOM      4  O   UNL     1      43.264 -94.914  33.188  1.00  0.00    -0.285 OA
ATOM      5  C   UNL     1      40.937 -94.797  33.325  1.00  0.00     0.111 A 
ATOM      6  C   UNL     1      40.675 -94.768  31.922  1.00  0.00     0.134 A 
ATOM      7  C   UNL     1      39.373 -94.524  31.468  1.00  0.00     0.093 A 
ATOM      8  C   UNL     1      38.313 -94.374  32.366  1.00  0.00     0.123 A 
ATOM      9  C   UNL     1      38.549 -94.461  33.735  1.00  0.00     0.094 A 
ATOM     10  C   UNL     1      39.842 -94.667  34.220  1.00  0.00     0.146 A 
ATOM     11  O   UNL     1      40.026 -94.733  35.533  1.00  0.00    -0.452 OA
ENDROOT
BRANCH   1  12
ATOM     12  C   UNL     1      41.279 -94.986  37.577  1.00  0.00     0.029 A 
ATOM     13  C   UNL     1      42.080 -95.943  38.221  1.00  0.00     0.062 A 
ATOM     14  C   UNL     1      42.111 -96.021  39.620  1.00  0.00     0.162 A 
ATOM     15  C   UNL     1      40.480 -94.130  38.352  1.00  0.00     0.062 A 
ATOM     16  C   UNL     1      41.326 -95.146  40.389  1.00  0.00     0.200 A 
ATOM     17  C   UNL     1      40.506 -94.201  39.749  1.00  0.00     0.162 A 
BRANCH  14  18
ATOM     18  O   UNL     1      42.916 -96.971  40.248  1.00  0.00    -0.504 OA
ATOM     19  H   UNL     1      42.576 -97.527  41.024  1.00  0.00     0.293 HD
ENDBRANCH  14  18
BRANCH  16  20
ATOM     20  O   UNL     1      41.347 -95.209  41.783  1.00  0.00    -0.502 OA
ATOM     21  H   UNL     1      41.139 -94.405  42.363  1.00  0.00     0.293 HD
ENDBRANCH  16  20
BRANCH  17  22
ATOM     22  O   UNL     1      39.708 -93.324  40.484  1.00  0.00    -0.504 OA
ATOM     23  H   UNL     1      39.023 -92.722  40.045  1.00  0.00     0.293 HD
ENDBRANCH  17  22
ENDBRANCH   1  12
BRANCH   2  24
ATOM     24  O   UNL     1      43.629 -95.057  35.885  1.00  0.00    -0.502 OA
ATOM     25  H   UNL     1      44.483 -95.065  35.341  1.00  0.00     0.293 HD
ENDBRANCH   2  24
BRANCH   6  26
ATOM     26  O   UNL     1      41.646 -94.997  30.942  1.00  0.00    -0.507 OA
ATOM     27  H   UNL     1      42.148 -94.274  30.451  1.00  0.00     0.293 HD
ENDBRANCH   6  26
BRANCH   8  28
ATOM     28  O   UNL     1      37.018 -94.148  31.903  1.00  0.00    -0.508 OA
ATOM     29  H   UNL     1      36.222 -94.153  32.532  1.00  0.00     0.293 HD
ENDBRANCH   8  28
TORSDOF 7
ENDMDL
MODEL 9
REMARK VINA RESULT:    -5.508      9.112     10.508
REMARK INTER + INTRA:          -6.591
REMARK INTER:                  -6.272
REMARK INTRA:                  -0.319
REMARK UNBOUND:                 0.205
REMARK SMILES O=c1c(O)c(-c2cc(O)c(O)c(O)c2)oc2cc(O)cc(O)c12
REMARK SMILES IDX 5 1 3 2 2 3 1 4 23 5 21 6 20 7 18 8 17 9 16 10 15 11 6 12
REMARK SMILES IDX 7 13 8 14 14 15 10 16 12 17 9 18 11 20 13 22 4 24 22 26
REMARK SMILES IDX 19 28
REMARK H PARENT 9 19 11 21 13 23 4 25 22 27 19 29
REMARK Flexibility Score: inf
ROOT
ATOM      1  C   UNL     1      35.655 -95.166  30.176  1.00  0.00     0.180 A 
ATOM      2  C   UNL     1      35.381 -94.694  28.881  1.00  0.00     0.208 A 
ATOM      3  C   UNL     1      34.058 -94.731  28.409  1.00  0.00     0.238 A 
ATOM      4  O   UNL     1      33.811 -94.257  27.269  1.00  0.00    -0.285 OA
ATOM      5  C   UNL     1      33.031 -95.252  29.231  1.00  0.00     0.111 A 
ATOM      6  C   UNL     1      31.663 -95.374  28.841  1.00  0.00     0.134 A 
ATOM      7  C   UNL     1      30.711 -95.782  29.782  1.00  0.00     0.093 A 
ATOM      8  C   UNL     1      31.086 -96.135  31.080  1.00  0.00     0.123 A 
ATOM      9  C   UNL     1      32.426 -96.077  31.453  1.00  0.00     0.094 A 
ATOM     10  C   UNL     1      33.395 -95.639  30.548  1.00  0.00     0.146 A 
ATOM     11  O   UNL     1      34.661 -95.588  30.947  1.00  0.00    -0.452 OA
ENDROOT
BRANCH   1  12
ATOM     12  C   UNL     1      37.028 -95.184  30.733  1.00  0.00     0.029 A 
ATOM     13  C   UNL     1      37.966 -96.150  30.335  1.00  0.00     0.062 A 
ATOM     14  C   UNL     1      39.253 -96.165  30.892  1.00  0.00     0.162 A 
ATOM     15  C   UNL     1      37.383 -94.252  31.721  1.00  0.00     0.062 A 
ATOM     16  C   UNL     1      39.607 -95.214  31.863  1.00  0.00     0.200 A 
ATOM     17  C   UNL     1      38.665 -94.258  32.280  1.00  0.00     0.162 A 
BRANCH  14  18
ATOM     18  O   UNL     1      40.178 -97.125  30.484  1.00  0.00    -0.504 OA
ATOM     19  H   UNL     1      40.220 -97.449  29.525  1.00  0.00     0.293 HD
ENDBRANCH  14  18
BRANCH  16  20
ATOM     20  O   UNL     1      40.886 -95.212  32.424  1.00  0.00    -0.502 OA
ATOM     21  H   UNL     1      41.101 -94.706  33.274  1.00  0.00     0.293 HD
ENDBRANCH  16  20
BRANCH  17  22
ATOM     22  O   UNL     1      38.984 -93.307  33.248  1.00  0.00    -0.504 OA
ATOM     23  H   UNL     1      39.363 -93.563  34.152  1.00  0.00     0.293 HD
ENDBRANCH  17  22
ENDBRANCH   1  12
BRANCH   2  24
ATOM     24  O   UNL     1      36.406 -94.164  28.094  1.00  0.00    -0.502 OA
ATOM     25  H   UNL     1      36.313 -94.036  27.093  1.00  0.00     0.293 HD
ENDBRANCH   2  24
BRANCH   6  26
ATOM     26  O   UNL     1      31.198 -95.133  27.544  1.00  0.00    -0.507 OA
ATOM     27  H   UNL     1      31.664 -94.552  26.865  1.00  0.00     0.293 HD
ENDBRANCH   6  26
BRANCH   8  28
ATOM     28  O   UNL     1      30.132 -96.557  32.006  1.00  0.00    -0.508 OA
ATOM     29  H   UNL     1      29.144 -96.569  31.780  1.00  0.00     0.293 HD
ENDBRANCH   8  28
TORSDOF 7
ENDMDL
