MODEL 1
REMARK VINA RESULT:    -3.884      0.000      0.000
REMARK INTER + INTRA:          -5.562
REMARK INTER:                  -5.246
REMARK INTRA:                  -0.316
REMARK UNBOUND:                -0.316
REMARK SMILES CCCCCCCC(=O)[O-]
REMARK SMILES IDX 5 1 6 2 7 3 8 4 9 5 10 6 4 7 3 8 2 9 1 10
REMARK H PARENT
REMARK Flexibility Score: inf
ROOT
ATOM      1  C   UNL     1       2.079  49.181  22.018  1.00  0.00     0.000 C 
ENDROOT
BRANCH   1   2
ATOM      2  C   UNL     1       0.963  48.129  21.931  1.00  0.00     0.006 C 
BRANCH   2   3
ATOM      3  C   UNL     1      -0.026  48.218  23.100  1.00  0.00     0.053 C 
BRANCH   3   4
ATOM      4  C   UNL     1      -0.377  46.850  23.593  1.00  0.00     0.041 C 
ATOM      5  O   UNL     1      -0.132  46.524  24.785  1.00  0.00    -0.550 OA
ATOM      6  O   UNL     1      -0.928  45.917  22.723  1.00  0.00    -0.550 OA
ENDBRANCH   3   4
ENDBRANCH   2   3
ENDBRANCH   1   2
BRANCH   1   7
ATOM      7  C   UNL     1       1.752  50.459  21.230  1.00  0.00     0.000 C 
BRANCH   7   8
ATOM      8  C   UNL     1       1.404  51.614  22.180  1.00  0.00    -0.000 C 
BRANCH   8   9
ATOM      9  C   UNL     1       2.329  51.673  23.405  1.00  0.00    -0.003 C 
ATOM     10  C   UNL     1       3.463  52.684  23.241  1.00  0.00     0.004 C 
ENDBRANCH   8   9
ENDBRANCH   7   8
ENDBRANCH   1   7
TORSDOF 6
ENDMDL
MODEL 2
REMARK VINA RESULT:    -3.861      3.630      5.626
REMARK INTER + INTRA:          -5.531
REMARK INTER:                  -5.364
REMARK INTRA:                  -0.167
REMARK UNBOUND:                -0.316
REMARK SMILES CCCCCCCC(=O)[O-]
REMARK SMILES IDX 5 1 6 2 7 3 8 4 9 5 10 6 4 7 3 8 2 9 1 10
REMARK H PARENT
REMARK Flexibility Score: inf
ROOT
ATOM      1  C   UNL     1       2.111  49.124  21.773  1.00  0.00     0.000 C 
ENDROOT
BRANCH   1   2
ATOM      2  C   UNL     1       1.675  50.504  21.257  1.00  0.00     0.006 C 
BRANCH   2   3
ATOM      3  C   UNL     1       1.550  51.542  22.380  1.00  0.00     0.053 C 
BRANCH   3   4
ATOM      4  C   UNL     1       1.668  52.927  21.827  1.00  0.00     0.041 C 
ATOM      5  O   UNL     1       0.925  53.296  20.880  1.00  0.00    -0.550 OA
ATOM      6  O   UNL     1       2.633  53.794  22.323  1.00  0.00    -0.550 OA
ENDBRANCH   3   4
ENDBRANCH   2   3
ENDBRANCH   1   2
BRANCH   1   7
ATOM      7  C   UNL     1       0.992  48.076  21.683  1.00  0.00     0.000 C 
BRANCH   7   8
ATOM      8  C   UNL     1       0.177  48.031  22.983  1.00  0.00    -0.000 C 
BRANCH   8   9
ATOM      9  C   UNL     1      -0.562  46.697  23.173  1.00  0.00    -0.003 C 
ATOM     10  C   UNL     1      -0.546  46.213  24.622  1.00  0.00     0.004 C 
ENDBRANCH   8   9
ENDBRANCH   7   8
ENDBRANCH   1   7
TORSDOF 6
ENDMDL
MODEL 3
REMARK VINA RESULT:    -3.785      0.927      1.796
REMARK INTER + INTRA:          -5.428
REMARK INTER:                  -5.029
REMARK INTRA:                  -0.399
REMARK UNBOUND:                -0.316
REMARK SMILES CCCCCCCC(=O)[O-]
REMARK SMILES IDX 5 1 6 2 7 3 8 4 9 5 10 6 4 7 3 8 2 9 1 10
REMARK H PARENT
REMARK Flexibility Score: inf
ROOT
ATOM      1  C   UNL     1       1.749  50.448  21.253  1.00  0.00     0.000 C 
ENDROOT
BRANCH   1   2
ATOM      2  C   UNL     1       2.076  49.115  21.944  1.00  0.00     0.006 C 
BRANCH   2   3
ATOM      3  C   UNL     1       1.058  48.015  21.617  1.00  0.00     0.053 C 
BRANCH   3   4
ATOM      4  C   UNL     1       0.194  47.734  22.806  1.00  0.00     0.041 C 
ATOM      5  O   UNL     1      -0.534  46.707  22.831  1.00  0.00    -0.550 OA
ATOM      6  O   UNL     1       0.154  48.633  23.864  1.00  0.00    -0.550 OA
ENDBRANCH   3   4
ENDBRANCH   2   3
ENDBRANCH   1   2
BRANCH   1   7
ATOM      7  C   UNL     1       1.451  51.577  22.252  1.00  0.00     0.000 C 
BRANCH   7   8
ATOM      8  C   UNL     1       2.353  51.466  23.489  1.00  0.00    -0.000 C 
BRANCH   8   9
ATOM      9  C   UNL     1       3.370  52.615  23.585  1.00  0.00    -0.003 C 
ATOM     10  C   UNL     1       3.033  53.781  22.657  1.00  0.00     0.004 C 
ENDBRANCH   8   9
ENDBRANCH   7   8
ENDBRANCH   1   7
TORSDOF 6
ENDMDL
MODEL 4
REMARK VINA RESULT:    -3.745      1.596      2.752
REMARK INTER + INTRA:          -5.375
REMARK INTER:                  -5.184
REMARK INTRA:                  -0.191
REMARK UNBOUND:                -0.316
REMARK SMILES CCCCCCCC(=O)[O-]
REMARK SMILES IDX 5 1 6 2 7 3 8 4 9 5 10 6 4 7 3 8 2 9 1 10
REMARK H PARENT
REMARK Flexibility Score: inf
ROOT
ATOM      1  C   UNL     1       0.073  47.999  22.958  1.00  0.00     0.000 C 
ENDROOT
BRANCH   1   2
ATOM      2  C   UNL     1      -0.573  46.613  23.116  1.00  0.00     0.006 C 
BRANCH   2   3
ATOM      3  C   UNL     1      -0.659  46.165  24.580  1.00  0.00     0.053 C 
BRANCH   3   4
ATOM      4  C   UNL     1      -2.083  46.150  25.039  1.00  0.00     0.041 C 
ATOM      5  O   UNL     1      -2.931  45.432  24.448  1.00  0.00    -0.550 OA
ATOM      6  O   UNL     1      -2.484  46.969  26.087  1.00  0.00    -0.550 OA
ENDBRANCH   3   4
ENDBRANCH   2   3
ENDBRANCH   1   2
BRANCH   1   7
ATOM      7  C   UNL     1       1.001  48.085  21.736  1.00  0.00     0.000 C 
BRANCH   7   8
ATOM      8  C   UNL     1       2.086  49.150  21.946  1.00  0.00    -0.000 C 
BRANCH   8   9
ATOM      9  C   UNL     1       1.765  50.472  21.230  1.00  0.00    -0.003 C 
ATOM     10  C   UNL     1       1.208  51.535  22.176  1.00  0.00     0.004 C 
ENDBRANCH   8   9
ENDBRANCH   7   8
ENDBRANCH   1   7
TORSDOF 6
ENDMDL
MODEL 5
REMARK VINA RESULT:    -3.683      3.819      5.535
REMARK INTER + INTRA:          -5.291
REMARK INTER:                  -4.962
REMARK INTRA:                  -0.329
REMARK UNBOUND:                -0.316
REMARK SMILES CCCCCCCC(=O)[O-]
REMARK SMILES IDX 5 1 6 2 7 3 8 4 9 5 10 6 4 7 3 8 2 9 1 10
REMARK H PARENT
REMARK Flexibility Score: inf
ROOT
ATOM      1  C   UNL     1       1.987  49.868  23.211  1.00  0.00     0.000 C 
ENDROOT
BRANCH   1   2
ATOM      2  C   UNL     1       1.973  51.392  23.017  1.00  0.00     0.006 C 
BRANCH   2   3
ATOM      3  C   UNL     1       1.534  51.804  21.606  1.00  0.00     0.053 C 
BRANCH   3   4
ATOM      4  C   UNL     1       1.475  53.295  21.492  1.00  0.00     0.041 C 
ATOM      5  O   UNL     1       2.387  54.005  21.993  1.00  0.00    -0.550 OA
ATOM      6  O   UNL     1       0.388  53.903  20.877  1.00  0.00    -0.550 OA
ENDBRANCH   3   4
ENDBRANCH   2   3
ENDBRANCH   1   2
BRANCH   1   7
ATOM      7  C   UNL     1       2.059  49.101  21.881  1.00  0.00     0.000 C 
BRANCH   7   8
ATOM      8  C   UNL     1       0.893  48.111  21.756  1.00  0.00    -0.000 C 
BRANCH   8   9
ATOM      9  C   UNL     1      -0.006  48.094  23.002  1.00  0.00    -0.003 C 
ATOM     10  C   UNL     1      -0.597  46.713  23.285  1.00  0.00     0.004 C 
ENDBRANCH   8   9
ENDBRANCH   7   8
ENDBRANCH   1   7
TORSDOF 6
ENDMDL
MODEL 6
REMARK VINA RESULT:    -3.612      3.574      5.624
REMARK INTER + INTRA:          -5.194
REMARK INTER:                  -4.964
REMARK INTRA:                  -0.231
REMARK UNBOUND:                -0.316
REMARK SMILES CCCCCCCC(=O)[O-]
REMARK SMILES IDX 5 1 6 2 7 3 8 4 9 5 10 6 4 7 3 8 2 9 1 10
REMARK H PARENT
REMARK Flexibility Score: inf
ROOT
ATOM      1  C   UNL     1       1.721  50.485  21.263  1.00  0.00     0.000 C 
ENDROOT
BRANCH   1   2
ATOM      2  C   UNL     1       1.156  51.508  22.261  1.00  0.00     0.006 C 
BRANCH   2   3
ATOM      3  C   UNL     1       1.651  52.934  21.989  1.00  0.00     0.053 C 
BRANCH   3   4
ATOM      4  C   UNL     1       2.862  53.233  22.815  1.00  0.00     0.041 C 
ATOM      5  O   UNL     1       3.608  54.203  22.518  1.00  0.00    -0.550 OA
ATOM      6  O   UNL     1       3.195  52.410  23.883  1.00  0.00    -0.550 OA
ENDBRANCH   3   4
ENDBRANCH   2   3
ENDBRANCH   1   2
BRANCH   1   7
ATOM      7  C   UNL     1       2.104  49.155  21.930  1.00  0.00     0.000 C 
BRANCH   7   8
ATOM      8  C   UNL     1       0.980  48.121  21.777  1.00  0.00    -0.000 C 
BRANCH   8   9
ATOM      9  C   UNL     1       0.062  48.058  23.009  1.00  0.00    -0.003 C 
ATOM     10  C   UNL     1      -0.603  46.693  23.180  1.00  0.00     0.004 C 
ENDBRANCH   8   9
ENDBRANCH   7   8
ENDBRANCH   1   7
TORSDOF 6
ENDMDL
MODEL 7
REMARK VINA RESULT:    -3.513      1.749      2.818
REMARK INTER + INTRA:          -5.061
REMARK INTER:                  -4.616
REMARK INTRA:                  -0.446
REMARK UNBOUND:                -0.316
REMARK SMILES CCCCCCCC(=O)[O-]
REMARK SMILES IDX 5 1 6 2 7 3 8 4 9 5 10 6 4 7 3 8 2 9 1 10
REMARK H PARENT
REMARK Flexibility Score: inf
ROOT
ATOM      1  C   UNL     1       0.896  49.130  25.200  1.00  0.00     0.000 C 
ENDROOT
BRANCH   1   2
ATOM      2  C   UNL     1      -0.351  48.385  24.700  1.00  0.00     0.006 C 
BRANCH   2   3
ATOM      3  C   UNL     1      -0.260  46.868  24.915  1.00  0.00     0.053 C 
BRANCH   3   4
ATOM      4  C   UNL     1      -1.074  46.146  23.889  1.00  0.00     0.041 C 
ATOM      5  O   UNL     1      -0.758  46.205  22.672  1.00  0.00    -0.550 OA
ATOM      6  O   UNL     1      -2.213  45.447  24.271  1.00  0.00    -0.550 OA
ENDBRANCH   3   4
ENDBRANCH   2   3
ENDBRANCH   1   2
BRANCH   1   7
ATOM      7  C   UNL     1       1.703  49.768  24.058  1.00  0.00     0.000 C 
BRANCH   7   8
ATOM      8  C   UNL     1       0.770  50.361  22.993  1.00  0.00    -0.000 C 
BRANCH   8   9
ATOM      9  C   UNL     1       1.108  49.876  21.574  1.00  0.00    -0.003 C 
ATOM     10  C   UNL     1       1.694  48.465  21.556  1.00  0.00     0.004 C 
ENDBRANCH   8   9
ENDBRANCH   7   8
ENDBRANCH   1   7
TORSDOF 6
ENDMDL
MODEL 8
REMARK VINA RESULT:    -3.405     18.007     19.039
REMARK INTER + INTRA:          -4.916
REMARK INTER:                  -4.799
REMARK INTRA:                  -0.117
REMARK UNBOUND:                -0.316
REMARK SMILES CCCCCCCC(=O)[O-]
REMARK SMILES IDX 5 1 6 2 7 3 8 4 9 5 10 6 4 7 3 8 2 9 1 10
REMARK H PARENT
REMARK Flexibility Score: inf
ROOT
ATOM      1  C   UNL     1      -7.231  47.525  38.637  1.00  0.00     0.000 C 
ENDROOT
BRANCH   1   2
ATOM      2  C   UNL     1      -6.153  46.458  38.879  1.00  0.00     0.006 C 
BRANCH   2   3
ATOM      3  C   UNL     1      -6.746  45.093  39.254  1.00  0.00     0.053 C 
BRANCH   3   4
ATOM      4  C   UNL     1      -5.682  44.041  39.240  1.00  0.00     0.041 C 
ATOM      5  O   UNL     1      -4.589  44.237  39.833  1.00  0.00    -0.550 OA
ATOM      6  O   UNL     1      -5.880  42.863  38.531  1.00  0.00    -0.550 OA
ENDBRANCH   3   4
ENDBRANCH   2   3
ENDBRANCH   1   2
BRANCH   1   7
ATOM      7  C   UNL     1      -8.012  47.880  39.912  1.00  0.00     0.000 C 
BRANCH   7   8
ATOM      8  C   UNL     1      -8.779  49.198  39.736  1.00  0.00    -0.000 C 
BRANCH   8   9
ATOM      9  C   UNL     1      -9.132  49.861  41.076  1.00  0.00    -0.003 C 
ATOM     10  C   UNL     1      -8.778  51.347  41.112  1.00  0.00     0.004 C 
ENDBRANCH   8   9
ENDBRANCH   7   8
ENDBRANCH   1   7
TORSDOF 6
ENDMDL
MODEL 9
REMARK VINA RESULT:    -3.382      4.631      6.393
REMARK INTER + INTRA:          -4.885
REMARK INTER:                  -4.656
REMARK INTRA:                  -0.229
REMARK UNBOUND:                -0.316
REMARK SMILES CCCCCCCC(=O)[O-]
REMARK SMILES IDX 5 1 6 2 7 3 8 4 9 5 10 6 4 7 3 8 2 9 1 10
REMARK H PARENT
REMARK Flexibility Score: inf
ROOT
ATOM      1  C   UNL     1       0.734  52.074  22.029  1.00  0.00     0.000 C 
ENDROOT
BRANCH   1   2
ATOM      2  C   UNL     1       1.464  53.420  21.912  1.00  0.00     0.006 C 
BRANCH   2   3
ATOM      3  C   UNL     1       2.784  53.446  22.694  1.00  0.00     0.053 C 
BRANCH   3   4
ATOM      4  C   UNL     1       3.328  54.839  22.753  1.00  0.00     0.041 C 
ATOM      5  O   UNL     1       2.791  55.697  23.502  1.00  0.00    -0.550 OA
ATOM      6  O   UNL     1       4.396  55.203  21.944  1.00  0.00    -0.550 OA
ENDBRANCH   3   4
ENDBRANCH   2   3
ENDBRANCH   1   2
BRANCH   1   7
ATOM      7  C   UNL     1       1.676  50.918  22.401  1.00  0.00     0.000 C 
BRANCH   7   8
ATOM      8  C   UNL     1       1.834  49.940  21.228  1.00  0.00    -0.000 C 
BRANCH   8   9
ATOM      9  C   UNL     1       1.418  48.507  21.592  1.00  0.00    -0.003 C 
ATOM     10  C   UNL     1       0.408  48.458  22.738  1.00  0.00     0.004 C 
ENDBRANCH   8   9
ENDBRANCH   7   8
ENDBRANCH   1   7
TORSDOF 6
ENDMDL
