MODEL 1
REMARK VINA RESULT:    17.856      0.000      0.000
REMARK INTER + INTRA:          44.393
REMARK INTER:                  44.997
REMARK INTRA:                  -0.604
REMARK UNBOUND:                -0.604
REMARK SMILES CCCCCCCCCCCCCCCCCCCCCCCCCCCC(=O)[O-]
REMARK SMILES IDX 15 1 16 2 17 3 18 4 19 5 20 6 21 7 22 8 23 9 24 10 25 11
REMARK SMILES IDX 26 12 27 13 28 14 29 15 30 16 14 17 13 18 12 19 11 20 10 21
REMARK SMILES IDX 9 22 8 23 7 24 6 25 5 26 4 27 3 28 2 29 1 30
REMARK H PARENT
REMARK Flexibility Score: inf
ROOT
ATOM      1  C   UNL     1      -3.199  16.456  -9.863  1.00  0.00     0.000 C 
ENDROOT
BRANCH   1   2
ATOM      2  C   UNL     1      -3.460  17.364 -11.079  1.00  0.00     0.000 C 
BRANCH   2   3
ATOM      3  C   UNL     1      -3.101  18.834 -10.805  1.00  0.00     0.000 C 
BRANCH   3   4
ATOM      4  C   UNL     1      -4.344  19.728 -10.652  1.00  0.00     0.000 C 
BRANCH   4   5
ATOM      5  C   UNL     1      -5.584  19.134 -11.353  1.00  0.00     0.000 C 
BRANCH   5   6
ATOM      6  C   UNL     1      -6.369  20.157 -12.192  1.00  0.00     0.000 C 
BRANCH   6   7
ATOM      7  C   UNL     1      -6.840  21.369 -11.372  1.00  0.00     0.000 C 
BRANCH   7   8
ATOM      8  C   UNL     1      -5.958  22.613 -11.609  1.00  0.00     0.000 C 
BRANCH   8   9
ATOM      9  C   UNL     1      -4.468  22.380 -11.298  1.00  0.00     0.000 C 
BRANCH   9  10
ATOM     10  C   UNL     1      -3.619  23.647 -11.485  1.00  0.00     0.000 C 
BRANCH  10  11
ATOM     11  C   UNL     1      -4.469  24.912 -11.713  1.00  0.00     0.000 C 
BRANCH  11  12
ATOM     12  C   UNL     1      -3.811  26.236 -11.275  1.00  0.00     0.006 C 
BRANCH  12  13
ATOM     13  C   UNL     1      -4.732  27.174 -10.477  1.00  0.00     0.053 C 
BRANCH  13  14
ATOM     14  C   UNL     1      -5.850  27.709 -11.319  1.00  0.00     0.041 C 
ATOM     15  O   UNL     1      -5.683  28.746 -12.015  1.00  0.00    -0.550 OA
ATOM     16  O   UNL     1      -7.072  27.047 -11.353  1.00  0.00    -0.550 OA
ENDBRANCH  13  14
ENDBRANCH  12  13
ENDBRANCH  11  12
ENDBRANCH  10  11
ENDBRANCH   9  10
ENDBRANCH   8   9
ENDBRANCH   7   8
ENDBRANCH   6   7
ENDBRANCH   5   6
ENDBRANCH   4   5
ENDBRANCH   3   4
ENDBRANCH   2   3
ENDBRANCH   1   2
BRANCH   1  17
ATOM     17  C   UNL     1      -3.130  14.966 -10.237  1.00  0.00     0.000 C 
BRANCH  17  18
ATOM     18  C   UNL     1      -4.266  14.469 -11.151  1.00  0.00     0.000 C 
BRANCH  18  19
ATOM     19  C   UNL     1      -5.675  14.908 -10.695  1.00  0.00     0.000 C 
BRANCH  19  20
ATOM     20  C   UNL     1      -6.409  15.743 -11.759  1.00  0.00     0.000 C 
BRANCH  20  21
ATOM     21  C   UNL     1      -7.525  14.936 -12.460  1.00  0.00     0.000 C 
BRANCH  21  22
ATOM     22  C   UNL     1      -8.946  15.366 -12.051  1.00  0.00    -0.000 C 
BRANCH  22  23
ATOM     23  C   UNL     1      -9.850  14.175 -11.696  1.00  0.00    -0.000 C 
BRANCH  23  24
ATOM     24  C   UNL     1     -10.502  14.311 -10.309  1.00  0.00    -0.000 C 
BRANCH  24  25
ATOM     25  C   UNL     1     -10.762  15.758  -9.835  1.00  0.00    -0.000 C 
BRANCH  25  26
ATOM     26  C   UNL     1     -10.281  16.087  -8.405  1.00  0.00    -0.000 C 
BRANCH  26  27
ATOM     27  C   UNL     1     -11.293  16.897  -7.561  1.00  0.00    -0.000 C 
BRANCH  27  28
ATOM     28  C   UNL     1     -11.463  16.375  -6.121  1.00  0.00    -0.000 C 
BRANCH  28  29
ATOM     29  C   UNL     1     -12.865  15.832  -5.797  1.00  0.00    -0.003 C 
ATOM     30  C   UNL     1     -12.874  14.329  -5.519  1.00  0.00     0.004 C 
ENDBRANCH  28  29
ENDBRANCH  27  28
ENDBRANCH  26  27
ENDBRANCH  25  26
ENDBRANCH  24  25
ENDBRANCH  23  24
ENDBRANCH  22  23
ENDBRANCH  21  22
ENDBRANCH  20  21
ENDBRANCH  19  20
ENDBRANCH  18  19
ENDBRANCH  17  18
ENDBRANCH   1  17
TORSDOF 26
ENDMDL
MODEL 2
REMARK VINA RESULT:    18.054      0.796      1.726
REMARK INTER + INTRA:          44.892
REMARK INTER:                  46.309
REMARK INTRA:                  -1.416
REMARK UNBOUND:                -0.604
REMARK SMILES CCCCCCCCCCCCCCCCCCCCCCCCCCCC(=O)[O-]
REMARK SMILES IDX 15 1 16 2 17 3 18 4 19 5 20 6 21 7 22 8 23 9 24 10 25 11
REMARK SMILES IDX 26 12 27 13 28 14 29 15 30 16 14 17 13 18 12 19 11 20 10 21
REMARK SMILES IDX 9 22 8 23 7 24 6 25 5 26 4 27 3 28 2 29 1 30
REMARK H PARENT
REMARK Flexibility Score: inf
ROOT
ATOM      1  C   UNL     1      -4.159  14.830 -10.373  1.00  0.00     0.000 C 
ENDROOT
BRANCH   1   2
ATOM      2  C   UNL     1      -3.365  16.099 -10.012  1.00  0.00     0.000 C 
BRANCH   2   3
ATOM      3  C   UNL     1      -3.555  17.226 -11.039  1.00  0.00     0.000 C 
BRANCH   3   4
ATOM      4  C   UNL     1      -3.447  18.626 -10.408  1.00  0.00     0.000 C 
BRANCH   4   5
ATOM      5  C   UNL     1      -4.205  19.697 -11.220  1.00  0.00     0.000 C 
BRANCH   5   6
ATOM      6  C   UNL     1      -5.669  19.881 -10.784  1.00  0.00     0.000 C 
BRANCH   6   7
ATOM      7  C   UNL     1      -6.592  20.294 -11.942  1.00  0.00     0.000 C 
BRANCH   7   8
ATOM      8  C   UNL     1      -6.352  21.753 -12.387  1.00  0.00     0.000 C 
BRANCH   8   9
ATOM      9  C   UNL     1      -5.630  22.609 -11.331  1.00  0.00     0.000 C 
BRANCH   9  10
ATOM     10  C   UNL     1      -4.261  23.114 -11.814  1.00  0.00     0.000 C 
BRANCH  10  11
ATOM     11  C   UNL     1      -4.147  24.650 -11.795  1.00  0.00     0.000 C 
BRANCH  11  12
ATOM     12  C   UNL     1      -5.035  25.364 -10.755  1.00  0.00     0.006 C 
BRANCH  12  13
ATOM     13  C   UNL     1      -4.786  26.876 -10.633  1.00  0.00     0.053 C 
BRANCH  13  14
ATOM     14  C   UNL     1      -5.798  27.674 -11.396  1.00  0.00     0.041 C 
ATOM     15  O   UNL     1      -6.943  27.200 -11.623  1.00  0.00    -0.550 OA
ATOM     16  O   UNL     1      -5.484  28.953 -11.839  1.00  0.00    -0.550 OA
ENDBRANCH  13  14
ENDBRANCH  12  13
ENDBRANCH  11  12
ENDBRANCH  10  11
ENDBRANCH   9  10
ENDBRANCH   8   9
ENDBRANCH   7   8
ENDBRANCH   6   7
ENDBRANCH   5   6
ENDBRANCH   4   5
ENDBRANCH   3   4
ENDBRANCH   2   3
ENDBRANCH   1   2
BRANCH   1  17
ATOM     17  C   UNL     1      -5.231  15.083 -11.447  1.00  0.00     0.000 C 
BRANCH  17  18
ATOM     18  C   UNL     1      -6.312  16.111 -11.059  1.00  0.00     0.000 C 
BRANCH  18  19
ATOM     19  C   UNL     1      -7.207  16.555 -12.236  1.00  0.00     0.000 C 
BRANCH  19  20
ATOM     20  C   UNL     1      -8.269  15.503 -12.603  1.00  0.00     0.000 C 
BRANCH  20  21
ATOM     21  C   UNL     1      -9.596  15.731 -11.845  1.00  0.00     0.000 C 
BRANCH  21  22
ATOM     22  C   UNL     1     -10.102  14.484 -11.099  1.00  0.00    -0.000 C 
BRANCH  22  23
ATOM     23  C   UNL     1     -10.446  14.767  -9.628  1.00  0.00    -0.000 C 
BRANCH  23  24
ATOM     24  C   UNL     1      -9.246  15.298  -8.824  1.00  0.00    -0.000 C 
BRANCH  24  25
ATOM     25  C   UNL     1      -9.433  16.696  -8.193  1.00  0.00    -0.000 C 
BRANCH  25  26
ATOM     26  C   UNL     1     -10.528  16.797  -7.110  1.00  0.00    -0.000 C 
BRANCH  26  27
ATOM     27  C   UNL     1     -11.974  16.714  -7.653  1.00  0.00    -0.000 C 
BRANCH  27  28
ATOM     28  C   UNL     1     -12.830  15.623  -6.981  1.00  0.00    -0.000 C 
BRANCH  28  29
ATOM     29  C   UNL     1     -12.660  15.523  -5.456  1.00  0.00    -0.003 C 
ATOM     30  C   UNL     1     -13.070  14.161  -4.898  1.00  0.00     0.004 C 
ENDBRANCH  28  29
ENDBRANCH  27  28
ENDBRANCH  26  27
ENDBRANCH  25  26
ENDBRANCH  24  25
ENDBRANCH  23  24
ENDBRANCH  22  23
ENDBRANCH  21  22
ENDBRANCH  20  21
ENDBRANCH  19  20
ENDBRANCH  18  19
ENDBRANCH  17  18
ENDBRANCH   1  17
TORSDOF 26
ENDMDL
MODEL 3
REMARK VINA RESULT:    18.056      3.743      4.935
REMARK INTER + INTRA:          44.897
REMARK INTER:                  47.137
REMARK INTRA:                  -2.240
REMARK UNBOUND:                -0.604
REMARK SMILES CCCCCCCCCCCCCCCCCCCCCCCCCCCC(=O)[O-]
REMARK SMILES IDX 15 1 16 2 17 3 18 4 19 5 20 6 21 7 22 8 23 9 24 10 25 11
REMARK SMILES IDX 26 12 27 13 28 14 29 15 30 16 14 17 13 18 12 19 11 20 10 21
REMARK SMILES IDX 9 22 8 23 7 24 6 25 5 26 4 27 3 28 2 29 1 30
REMARK H PARENT
REMARK Flexibility Score: inf
ROOT
ATOM      1  C   UNL     1      -3.504  14.857 -10.508  1.00  0.00     0.000 C 
ENDROOT
BRANCH   1   2
ATOM      2  C   UNL     1      -3.283  16.246  -9.882  1.00  0.00     0.000 C 
BRANCH   2   3
ATOM      3  C   UNL     1      -3.012  17.332 -10.936  1.00  0.00     0.000 C 
BRANCH   3   4
ATOM      4  C   UNL     1      -3.929  18.557 -10.771  1.00  0.00     0.000 C 
BRANCH   4   5
ATOM      5  C   UNL     1      -3.146  19.886 -10.804  1.00  0.00     0.000 C 
BRANCH   5   6
ATOM      6  C   UNL     1      -4.034  21.130 -10.633  1.00  0.00     0.000 C 
BRANCH   6   7
ATOM      7  C   UNL     1      -4.951  21.382 -11.841  1.00  0.00     0.000 C 
BRANCH   7   8
ATOM      8  C   UNL     1      -6.410  20.959 -11.564  1.00  0.00     0.000 C 
BRANCH   8   9
ATOM      9  C   UNL     1      -7.095  20.284 -12.766  1.00  0.00     0.000 C 
BRANCH   9  10
ATOM     10  C   UNL     1      -6.746  20.959 -14.102  1.00  0.00     0.000 C 
BRANCH  10  11
ATOM     11  C   UNL     1      -6.572  19.952 -15.255  1.00  0.00     0.000 C 
BRANCH  11  12
ATOM     12  C   UNL     1      -5.783  20.476 -16.473  1.00  0.00     0.006 C 
BRANCH  12  13
ATOM     13  C   UNL     1      -6.206  19.864 -17.819  1.00  0.00     0.053 C 
BRANCH  13  14
ATOM     14  C   UNL     1      -5.757  18.441 -17.953  1.00  0.00     0.041 C 
ATOM     15  O   UNL     1      -4.543  18.140 -17.800  1.00  0.00    -0.550 OA
ATOM     16  O   UNL     1      -6.684  17.443 -18.225  1.00  0.00    -0.550 OA
ENDBRANCH  13  14
ENDBRANCH  12  13
ENDBRANCH  11  12
ENDBRANCH  10  11
ENDBRANCH   9  10
ENDBRANCH   8   9
ENDBRANCH   7   8
ENDBRANCH   6   7
ENDBRANCH   5   6
ENDBRANCH   4   5
ENDBRANCH   3   4
ENDBRANCH   2   3
ENDBRANCH   1   2
BRANCH   1  17
ATOM     17  C   UNL     1      -4.989  14.551 -10.771  1.00  0.00     0.000 C 
BRANCH  17  18
ATOM     18  C   UNL     1      -5.633  15.375 -11.902  1.00  0.00     0.000 C 
BRANCH  18  19
ATOM     19  C   UNL     1      -6.709  16.373 -11.417  1.00  0.00     0.000 C 
BRANCH  19  20
ATOM     20  C   UNL     1      -7.484  17.020 -12.578  1.00  0.00     0.000 C 
BRANCH  20  21
ATOM     21  C   UNL     1      -8.699  16.167 -13.009  1.00  0.00     0.000 C 
BRANCH  21  22
ATOM     22  C   UNL     1      -9.036  15.033 -12.024  1.00  0.00    -0.000 C 
BRANCH  22  23
ATOM     23  C   UNL     1     -10.282  15.332 -11.175  1.00  0.00    -0.000 C 
BRANCH  23  24
ATOM     24  C   UNL     1     -10.061  15.068  -9.675  1.00  0.00    -0.000 C 
BRANCH  24  25
ATOM     25  C   UNL     1      -8.914  15.869  -9.020  1.00  0.00    -0.000 C 
BRANCH  25  26
ATOM     26  C   UNL     1      -9.277  16.602  -7.710  1.00  0.00    -0.000 C 
BRANCH  26  27
ATOM     27  C   UNL     1     -10.774  16.968  -7.577  1.00  0.00    -0.000 C 
BRANCH  27  28
ATOM     28  C   UNL     1     -11.410  16.511  -6.250  1.00  0.00    -0.000 C 
BRANCH  28  29
ATOM     29  C   UNL     1     -12.619  15.573  -6.407  1.00  0.00    -0.003 C 
ATOM     30  C   UNL     1     -13.552  15.595  -5.197  1.00  0.00     0.004 C 
ENDBRANCH  28  29
ENDBRANCH  27  28
ENDBRANCH  26  27
ENDBRANCH  25  26
ENDBRANCH  24  25
ENDBRANCH  23  24
ENDBRANCH  22  23
ENDBRANCH  21  22
ENDBRANCH  20  21
ENDBRANCH  19  20
ENDBRANCH  18  19
ENDBRANCH  17  18
ENDBRANCH   1  17
TORSDOF 26
ENDMDL
MODEL 4
REMARK VINA RESULT:    18.271      3.955      9.722
REMARK INTER + INTRA:          45.438
REMARK INTER:                  45.899
REMARK INTRA:                  -0.460
REMARK UNBOUND:                -0.604
REMARK SMILES CCCCCCCCCCCCCCCCCCCCCCCCCCCC(=O)[O-]
REMARK SMILES IDX 15 1 16 2 17 3 18 4 19 5 20 6 21 7 22 8 23 9 24 10 25 11
REMARK SMILES IDX 26 12 27 13 28 14 29 15 30 16 14 17 13 18 12 19 11 20 10 21
REMARK SMILES IDX 9 22 8 23 7 24 6 25 5 26 4 27 3 28 2 29 1 30
REMARK H PARENT
REMARK Flexibility Score: inf
ROOT
ATOM      1  C   UNL     1      -3.516  14.308  -9.963  1.00  0.00     0.000 C 
ENDROOT
BRANCH   1   2
ATOM      2  C   UNL     1      -4.570  14.056 -11.056  1.00  0.00     0.000 C 
BRANCH   2   3
ATOM      3  C   UNL     1      -5.601  15.192 -11.155  1.00  0.00     0.000 C 
BRANCH   3   4
ATOM      4  C   UNL     1      -6.590  14.994 -12.318  1.00  0.00     0.000 C 
BRANCH   4   5
ATOM      5  C   UNL     1      -7.517  16.212 -12.515  1.00  0.00     0.000 C 
BRANCH   5   6
ATOM      6  C   UNL     1      -8.945  15.837 -12.946  1.00  0.00     0.000 C 
BRANCH   6   7
ATOM      7  C   UNL     1      -9.918  15.719 -11.761  1.00  0.00     0.000 C 
BRANCH   7   8
ATOM      8  C   UNL     1      -9.869  14.323 -11.104  1.00  0.00     0.000 C 
BRANCH   8   9
ATOM      9  C   UNL     1     -10.571  14.262  -9.735  1.00  0.00     0.000 C 
BRANCH   9  10
ATOM     10  C   UNL     1     -10.127  15.391  -8.791  1.00  0.00     0.000 C 
BRANCH  10  11
ATOM     11  C   UNL     1     -11.213  16.465  -8.587  1.00  0.00     0.000 C 
BRANCH  11  12
ATOM     12  C   UNL     1     -11.299  17.054  -7.164  1.00  0.00     0.006 C 
BRANCH  12  13
ATOM     13  C   UNL     1     -11.422  16.007  -6.045  1.00  0.00     0.053 C 
BRANCH  13  14
ATOM     14  C   UNL     1     -12.816  15.468  -5.935  1.00  0.00     0.041 C 
ATOM     15  O   UNL     1     -13.704  15.826  -6.754  1.00  0.00    -0.550 OA
ATOM     16  O   UNL     1     -13.129  14.550  -4.939  1.00  0.00    -0.550 OA
ENDBRANCH  13  14
ENDBRANCH  12  13
ENDBRANCH  11  12
ENDBRANCH  10  11
ENDBRANCH   9  10
ENDBRANCH   8   9
ENDBRANCH   7   8
ENDBRANCH   6   7
ENDBRANCH   5   6
ENDBRANCH   4   5
ENDBRANCH   3   4
ENDBRANCH   2   3
ENDBRANCH   1   2
BRANCH   1  17
ATOM     17  C   UNL     1      -2.972  15.747  -9.979  1.00  0.00     0.000 C 
BRANCH  17  18
ATOM     18  C   UNL     1      -3.714  16.713 -10.923  1.00  0.00     0.000 C 
BRANCH  18  19
ATOM     19  C   UNL     1      -3.033  18.091 -11.073  1.00  0.00     0.000 C 
BRANCH  19  20
ATOM     20  C   UNL     1      -3.962  19.256 -10.689  1.00  0.00     0.000 C 
BRANCH  20  21
ATOM     21  C   UNL     1      -5.454  18.880 -10.838  1.00  0.00     0.000 C 
BRANCH  21  22
ATOM     22  C   UNL     1      -6.395  20.097 -10.883  1.00  0.00    -0.000 C 
BRANCH  22  23
ATOM     23  C   UNL     1      -6.790  20.492 -12.315  1.00  0.00    -0.000 C 
BRANCH  23  24
ATOM     24  C   UNL     1      -6.320  21.907 -12.696  1.00  0.00    -0.000 C 
BRANCH  24  25
ATOM     25  C   UNL     1      -5.219  22.508 -11.795  1.00  0.00    -0.000 C 
BRANCH  25  26
ATOM     26  C   UNL     1      -4.719  23.912 -12.200  1.00  0.00    -0.000 C 
BRANCH  26  27
ATOM     27  C   UNL     1      -3.624  24.491 -11.273  1.00  0.00    -0.000 C 
BRANCH  27  28
ATOM     28  C   UNL     1      -3.581  26.032 -11.250  1.00  0.00    -0.000 C 
BRANCH  28  29
ATOM     29  C   UNL     1      -4.941  26.709 -11.011  1.00  0.00    -0.003 C 
ATOM     30  C   UNL     1      -4.987  27.512  -9.711  1.00  0.00     0.004 C 
ENDBRANCH  28  29
ENDBRANCH  27  28
ENDBRANCH  26  27
ENDBRANCH  25  26
ENDBRANCH  24  25
ENDBRANCH  23  24
ENDBRANCH  22  23
ENDBRANCH  21  22
ENDBRANCH  20  21
ENDBRANCH  19  20
ENDBRANCH  18  19
ENDBRANCH  17  18
ENDBRANCH   1  17
TORSDOF 26
ENDMDL
MODEL 5
REMARK VINA RESULT:    18.412      4.565      9.485
REMARK INTER + INTRA:          45.794
REMARK INTER:                  48.218
REMARK INTRA:                  -2.424
REMARK UNBOUND:                -0.604
REMARK SMILES CCCCCCCCCCCCCCCCCCCCCCCCCCCC(=O)[O-]
REMARK SMILES IDX 15 1 16 2 17 3 18 4 19 5 20 6 21 7 22 8 23 9 24 10 25 11
REMARK SMILES IDX 26 12 27 13 28 14 29 15 30 16 14 17 13 18 12 19 11 20 10 21
REMARK SMILES IDX 9 22 8 23 7 24 6 25 5 26 4 27 3 28 2 29 1 30
REMARK H PARENT
REMARK Flexibility Score: inf
ROOT
ATOM      1  C   UNL     1      -5.347  14.974 -10.361  1.00  0.00     0.000 C 
ENDROOT
BRANCH   1   2
ATOM      2  C   UNL     1      -5.628  15.798 -11.632  1.00  0.00     0.000 C 
BRANCH   2   3
ATOM      3  C   UNL     1      -6.902  16.650 -11.512  1.00  0.00     0.000 C 
BRANCH   3   4
ATOM      4  C   UNL     1      -7.588  16.881 -12.870  1.00  0.00     0.000 C 
BRANCH   4   5
ATOM      5  C   UNL     1      -8.827  15.983 -13.063  1.00  0.00     0.000 C 
BRANCH   5   6
ATOM      6  C   UNL     1      -9.009  14.935 -11.950  1.00  0.00     0.000 C 
BRANCH   6   7
ATOM      7  C   UNL     1     -10.350  15.072 -11.211  1.00  0.00     0.000 C 
BRANCH   7   8
ATOM      8  C   UNL     1     -10.202  14.861  -9.689  1.00  0.00     0.000 C 
BRANCH   8   9
ATOM      9  C   UNL     1      -8.964  15.552  -9.089  1.00  0.00     0.000 C 
BRANCH   9  10
ATOM     10  C   UNL     1      -9.318  16.505  -7.937  1.00  0.00     0.000 C 
BRANCH  10  11
ATOM     11  C   UNL     1     -10.782  16.983  -7.981  1.00  0.00     0.000 C 
BRANCH  11  12
ATOM     12  C   UNL     1     -11.403  17.331  -6.613  1.00  0.00     0.006 C 
BRANCH  12  13
ATOM     13  C   UNL     1     -11.481  16.152  -5.629  1.00  0.00     0.053 C 
BRANCH  13  14
ATOM     14  C   UNL     1     -12.771  15.401  -5.755  1.00  0.00     0.041 C 
ATOM     15  O   UNL     1     -13.000  14.402  -5.024  1.00  0.00    -0.550 OA
ATOM     16  O   UNL     1     -13.732  15.822  -6.667  1.00  0.00    -0.550 OA
ENDBRANCH  13  14
ENDBRANCH  12  13
ENDBRANCH  11  12
ENDBRANCH  10  11
ENDBRANCH   9  10
ENDBRANCH   8   9
ENDBRANCH   7   8
ENDBRANCH   6   7
ENDBRANCH   5   6
ENDBRANCH   4   5
ENDBRANCH   3   4
ENDBRANCH   2   3
ENDBRANCH   1   2
BRANCH   1  17
ATOM     17  C   UNL     1      -3.845  14.754 -10.114  1.00  0.00     0.000 C 
BRANCH  17  18
ATOM     18  C   UNL     1      -2.913  15.744 -10.839  1.00  0.00     0.000 C 
BRANCH  18  19
ATOM     19  C   UNL     1      -2.846  17.140 -10.181  1.00  0.00     0.000 C 
BRANCH  19  20
ATOM     20  C   UNL     1      -3.270  18.268 -11.139  1.00  0.00     0.000 C 
BRANCH  20  21
ATOM     21  C   UNL     1      -4.489  19.053 -10.604  1.00  0.00     0.000 C 
BRANCH  21  22
ATOM     22  C   UNL     1      -4.711  20.402 -11.310  1.00  0.00    -0.000 C 
BRANCH  22  23
ATOM     23  C   UNL     1      -6.199  20.764 -11.450  1.00  0.00    -0.000 C 
BRANCH  23  24
ATOM     24  C   UNL     1      -6.722  20.598 -12.888  1.00  0.00    -0.000 C 
BRANCH  24  25
ATOM     25  C   UNL     1      -6.745  21.885 -13.741  1.00  0.00    -0.000 C 
BRANCH  25  26
ATOM     26  C   UNL     1      -6.830  21.671 -15.268  1.00  0.00    -0.000 C 
BRANCH  26  27
ATOM     27  C   UNL     1      -5.824  20.638 -15.825  1.00  0.00    -0.000 C 
BRANCH  27  28
ATOM     28  C   UNL     1      -6.282  19.968 -17.136  1.00  0.00    -0.000 C 
BRANCH  28  29
ATOM     29  C   UNL     1      -5.365  18.838 -17.633  1.00  0.00    -0.003 C 
ATOM     30  C   UNL     1      -6.122  17.742 -18.383  1.00  0.00     0.004 C 
ENDBRANCH  28  29
ENDBRANCH  27  28
ENDBRANCH  26  27
ENDBRANCH  25  26
ENDBRANCH  24  25
ENDBRANCH  23  24
ENDBRANCH  22  23
ENDBRANCH  21  22
ENDBRANCH  20  21
ENDBRANCH  19  20
ENDBRANCH  18  19
ENDBRANCH  17  18
ENDBRANCH   1  17
TORSDOF 26
ENDMDL
MODEL 6
REMARK VINA RESULT:    18.426      4.626      9.431
REMARK INTER + INTRA:          45.830
REMARK INTER:                  45.005
REMARK INTRA:                   0.825
REMARK UNBOUND:                -0.604
REMARK SMILES CCCCCCCCCCCCCCCCCCCCCCCCCCCC(=O)[O-]
REMARK SMILES IDX 15 1 16 2 17 3 18 4 19 5 20 6 21 7 22 8 23 9 24 10 25 11
REMARK SMILES IDX 26 12 27 13 28 14 29 15 30 16 14 17 13 18 12 19 11 20 10 21
REMARK SMILES IDX 9 22 8 23 7 24 6 25 5 26 4 27 3 28 2 29 1 30
REMARK H PARENT
REMARK Flexibility Score: inf
ROOT
ATOM      1  C   UNL     1      -3.359  16.424 -10.506  1.00  0.00     0.000 C 
ENDROOT
BRANCH   1   2
ATOM      2  C   UNL     1      -2.588  15.379  -9.677  1.00  0.00     0.000 C 
BRANCH   2   3
ATOM      3  C   UNL     1      -3.031  13.940  -9.985  1.00  0.00     0.000 C 
BRANCH   3   4
ATOM      4  C   UNL     1      -4.316  13.884 -10.829  1.00  0.00     0.000 C 
BRANCH   4   5
ATOM      5  C   UNL     1      -4.769  15.281 -11.302  1.00  0.00     0.000 C 
BRANCH   5   6
ATOM      6  C   UNL     1      -6.298  15.448 -11.359  1.00  0.00     0.000 C 
BRANCH   6   7
ATOM      7  C   UNL     1      -6.737  16.919 -11.441  1.00  0.00     0.000 C 
BRANCH   7   8
ATOM      8  C   UNL     1      -7.041  17.516 -10.050  1.00  0.00     0.000 C 
BRANCH   8   9
ATOM      9  C   UNL     1      -7.893  16.595  -9.158  1.00  0.00     0.000 C 
BRANCH   9  10
ATOM     10  C   UNL     1      -8.848  17.377  -8.241  1.00  0.00     0.000 C 
BRANCH  10  11
ATOM     11  C   UNL     1      -9.674  16.463  -7.315  1.00  0.00     0.000 C 
BRANCH  11  12
ATOM     12  C   UNL     1     -10.944  17.104  -6.719  1.00  0.00     0.006 C 
BRANCH  12  13
ATOM     13  C   UNL     1     -11.555  16.331  -5.538  1.00  0.00     0.053 C 
BRANCH  13  14
ATOM     14  C   UNL     1     -12.751  15.530  -5.953  1.00  0.00     0.041 C 
ATOM     15  O   UNL     1     -13.164  14.584  -5.232  1.00  0.00    -0.550 OA
ATOM     16  O   UNL     1     -13.423  15.844  -7.128  1.00  0.00    -0.550 OA
ENDBRANCH  13  14
ENDBRANCH  12  13
ENDBRANCH  11  12
ENDBRANCH  10  11
ENDBRANCH   9  10
ENDBRANCH   8   9
ENDBRANCH   7   8
ENDBRANCH   6   7
ENDBRANCH   5   6
ENDBRANCH   4   5
ENDBRANCH   3   4
ENDBRANCH   2   3
ENDBRANCH   1   2
BRANCH   1  17
ATOM     17  C   UNL     1      -2.776  17.841 -10.369  1.00  0.00     0.000 C 
BRANCH  17  18
ATOM     18  C   UNL     1      -3.540  18.937 -11.135  1.00  0.00     0.000 C 
BRANCH  18  19
ATOM     19  C   UNL     1      -3.165  20.375 -10.715  1.00  0.00     0.000 C 
BRANCH  19  20
ATOM     20  C   UNL     1      -4.358  21.344 -10.787  1.00  0.00     0.000 C 
BRANCH  20  21
ATOM     21  C   UNL     1      -5.704  20.596 -10.917  1.00  0.00     0.000 C 
BRANCH  21  22
ATOM     22  C   UNL     1      -6.699  21.277 -11.873  1.00  0.00    -0.000 C 
BRANCH  22  23
ATOM     23  C   UNL     1      -6.912  20.487 -13.175  1.00  0.00    -0.000 C 
BRANCH  23  24
ATOM     24  C   UNL     1      -6.490  21.273 -14.428  1.00  0.00    -0.000 C 
BRANCH  24  25
ATOM     25  C   UNL     1      -6.890  20.639 -15.779  1.00  0.00    -0.000 C 
BRANCH  25  26
ATOM     26  C   UNL     1      -5.729  20.051 -16.609  1.00  0.00    -0.000 C 
BRANCH  26  27
ATOM     27  C   UNL     1      -6.126  19.603 -18.035  1.00  0.00    -0.000 C 
BRANCH  27  28
ATOM     28  C   UNL     1      -5.802  18.127 -18.336  1.00  0.00    -0.000 C 
BRANCH  28  29
ATOM     29  C   UNL     1      -6.864  17.125 -17.852  1.00  0.00    -0.003 C 
ATOM     30  C   UNL     1      -7.401  16.236 -18.973  1.00  0.00     0.004 C 
ENDBRANCH  28  29
ENDBRANCH  27  28
ENDBRANCH  26  27
ENDBRANCH  25  26
ENDBRANCH  24  25
ENDBRANCH  23  24
ENDBRANCH  22  23
ENDBRANCH  21  22
ENDBRANCH  20  21
ENDBRANCH  19  20
ENDBRANCH  18  19
ENDBRANCH  17  18
ENDBRANCH   1  17
TORSDOF 26
ENDMDL
MODEL 7
REMARK VINA RESULT:    18.761      4.357      9.397
REMARK INTER + INTRA:          46.673
REMARK INTER:                  48.223
REMARK INTRA:                  -1.549
REMARK UNBOUND:                -0.604
REMARK SMILES CCCCCCCCCCCCCCCCCCCCCCCCCCCC(=O)[O-]
REMARK SMILES IDX 15 1 16 2 17 3 18 4 19 5 20 6 21 7 22 8 23 9 24 10 25 11
REMARK SMILES IDX 26 12 27 13 28 14 29 15 30 16 14 17 13 18 12 19 11 20 10 21
REMARK SMILES IDX 9 22 8 23 7 24 6 25 5 26 4 27 3 28 2 29 1 30
REMARK H PARENT
REMARK Flexibility Score: inf
ROOT
ATOM      1  C   UNL     1      -6.220  16.187 -10.455  1.00  0.00     0.000 C 
ENDROOT
BRANCH   1   2
ATOM      2  C   UNL     1      -7.125  16.934 -11.452  1.00  0.00     0.000 C 
BRANCH   2   3
ATOM      3  C   UNL     1      -7.557  16.051 -12.633  1.00  0.00     0.000 C 
BRANCH   3   4
ATOM      4  C   UNL     1      -9.043  15.658 -12.565  1.00  0.00     0.000 C 
BRANCH   4   5
ATOM      5  C   UNL     1      -9.244  14.190 -12.134  1.00  0.00     0.000 C 
BRANCH   5   6
ATOM      6  C   UNL     1     -10.671  13.877 -11.654  1.00  0.00     0.000 C 
BRANCH   6   7
ATOM      7  C   UNL     1     -10.809  13.911 -10.123  1.00  0.00     0.000 C 
BRANCH   7   8
ATOM      8  C   UNL     1     -10.693  15.343  -9.558  1.00  0.00     0.000 C 
BRANCH   8   9
ATOM      9  C   UNL     1      -9.289  15.683  -9.026  1.00  0.00     0.000 C 
BRANCH   9  10
ATOM     10  C   UNL     1      -9.319  16.269  -7.606  1.00  0.00     0.000 C 
BRANCH  10  11
ATOM     11  C   UNL     1     -10.645  16.982  -7.279  1.00  0.00     0.000 C 
BRANCH  11  12
ATOM     12  C   UNL     1     -10.971  17.111  -5.777  1.00  0.00     0.006 C 
BRANCH  12  13
ATOM     13  C   UNL     1     -12.435  16.811  -5.413  1.00  0.00     0.053 C 
BRANCH  13  14
ATOM     14  C   UNL     1     -12.911  15.529  -6.024  1.00  0.00     0.041 C 
ATOM     15  O   UNL     1     -12.822  14.447  -5.384  1.00  0.00    -0.550 OA
ATOM     16  O   UNL     1     -13.476  15.532  -7.293  1.00  0.00    -0.550 OA
ENDBRANCH  13  14
ENDBRANCH  12  13
ENDBRANCH  11  12
ENDBRANCH  10  11
ENDBRANCH   9  10
ENDBRANCH   8   9
ENDBRANCH   7   8
ENDBRANCH   6   7
ENDBRANCH   5   6
ENDBRANCH   4   5
ENDBRANCH   3   4
ENDBRANCH   2   3
ENDBRANCH   1   2
BRANCH   1  17
ATOM     17  C   UNL     1      -5.517  14.971 -11.083  1.00  0.00     0.000 C 
BRANCH  17  18
ATOM     18  C   UNL     1      -4.022  14.833 -10.739  1.00  0.00     0.000 C 
BRANCH  18  19
ATOM     19  C   UNL     1      -3.343  16.163 -10.343  1.00  0.00     0.000 C 
BRANCH  19  20
ATOM     20  C   UNL     1      -3.412  17.220 -11.459  1.00  0.00     0.000 C 
BRANCH  20  21
ATOM     21  C   UNL     1      -4.075  18.530 -10.976  1.00  0.00     0.000 C 
BRANCH  21  22
ATOM     22  C   UNL     1      -3.071  19.664 -10.702  1.00  0.00    -0.000 C 
BRANCH  22  23
ATOM     23  C   UNL     1      -3.753  20.973 -10.272  1.00  0.00    -0.000 C 
BRANCH  23  24
ATOM     24  C   UNL     1      -4.558  21.629 -11.408  1.00  0.00    -0.000 C 
BRANCH  24  25
ATOM     25  C   UNL     1      -6.094  21.582 -11.249  1.00  0.00    -0.000 C 
BRANCH  25  26
ATOM     26  C   UNL     1      -6.805  20.427 -11.986  1.00  0.00    -0.000 C 
BRANCH  26  27
ATOM     27  C   UNL     1      -6.777  20.541 -13.528  1.00  0.00    -0.000 C 
BRANCH  27  28
ATOM     28  C   UNL     1      -6.642  21.987 -14.043  1.00  0.00    -0.000 C 
BRANCH  28  29
ATOM     29  C   UNL     1      -7.692  22.397 -15.090  1.00  0.00    -0.003 C 
ATOM     30  C   UNL     1      -7.963  23.901 -15.106  1.00  0.00     0.004 C 
ENDBRANCH  28  29
ENDBRANCH  27  28
ENDBRANCH  26  27
ENDBRANCH  25  26
ENDBRANCH  24  25
ENDBRANCH  23  24
ENDBRANCH  22  23
ENDBRANCH  21  22
ENDBRANCH  20  21
ENDBRANCH  19  20
ENDBRANCH  18  19
ENDBRANCH  17  18
ENDBRANCH   1  17
TORSDOF 26
ENDMDL
MODEL 8
REMARK VINA RESULT:    18.934      3.870     10.151
REMARK INTER + INTRA:          47.108
REMARK INTER:                  45.129
REMARK INTRA:                   1.980
REMARK UNBOUND:                -0.604
REMARK SMILES CCCCCCCCCCCCCCCCCCCCCCCCCCCC(=O)[O-]
REMARK SMILES IDX 15 1 16 2 17 3 18 4 19 5 20 6 21 7 22 8 23 9 24 10 25 11
REMARK SMILES IDX 26 12 27 13 28 14 29 15 30 16 14 17 13 18 12 19 11 20 10 21
REMARK SMILES IDX 9 22 8 23 7 24 6 25 5 26 4 27 3 28 2 29 1 30
REMARK H PARENT
REMARK Flexibility Score: inf
ROOT
ATOM      1  C   UNL     1      -2.838  17.946 -10.638  1.00  0.00     0.000 C 
ENDROOT
BRANCH   1   2
ATOM      2  C   UNL     1      -3.617  16.618 -10.682  1.00  0.00     0.000 C 
BRANCH   2   3
ATOM      3  C   UNL     1      -2.761  15.418 -10.244  1.00  0.00     0.000 C 
BRANCH   3   4
ATOM      4  C   UNL     1      -3.597  14.143 -10.030  1.00  0.00     0.000 C 
BRANCH   4   5
ATOM      5  C   UNL     1      -5.047  14.300 -10.534  1.00  0.00     0.000 C 
BRANCH   5   6
ATOM      6  C   UNL     1      -5.309  15.633 -11.256  1.00  0.00     0.000 C 
BRANCH   6   7
ATOM      7  C   UNL     1      -6.704  16.209 -10.963  1.00  0.00     0.000 C 
BRANCH   7   8
ATOM      8  C   UNL     1      -7.271  15.708  -9.619  1.00  0.00     0.000 C 
BRANCH   8   9
ATOM      9  C   UNL     1      -7.606  16.840  -8.630  1.00  0.00     0.000 C 
BRANCH   9  10
ATOM     10  C   UNL     1      -8.766  16.480  -7.689  1.00  0.00     0.000 C 
BRANCH  10  11
ATOM     11  C   UNL     1     -10.074  16.168  -8.440  1.00  0.00     0.000 C 
BRANCH  11  12
ATOM     12  C   UNL     1     -11.323  16.916  -7.928  1.00  0.00     0.006 C 
BRANCH  12  13
ATOM     13  C   UNL     1     -12.450  16.002  -7.418  1.00  0.00     0.053 C 
BRANCH  13  14
ATOM     14  C   UNL     1     -12.382  15.804  -5.935  1.00  0.00     0.041 C 
ATOM     15  O   UNL     1     -13.210  15.052  -5.355  1.00  0.00    -0.550 OA
ATOM     16  O   UNL     1     -11.388  16.433  -5.195  1.00  0.00    -0.550 OA
ENDBRANCH  13  14
ENDBRANCH  12  13
ENDBRANCH  11  12
ENDBRANCH  10  11
ENDBRANCH   9  10
ENDBRANCH   8   9
ENDBRANCH   7   8
ENDBRANCH   6   7
ENDBRANCH   5   6
ENDBRANCH   4   5
ENDBRANCH   3   4
ENDBRANCH   2   3
ENDBRANCH   1   2
BRANCH   1  17
ATOM     17  C   UNL     1      -3.635  19.123 -11.224  1.00  0.00     0.000 C 
BRANCH  17  18
ATOM     18  C   UNL     1      -4.884  19.529 -10.419  1.00  0.00     0.000 C 
BRANCH  18  19
ATOM     19  C   UNL     1      -6.219  19.166 -11.106  1.00  0.00     0.000 C 
BRANCH  19  20
ATOM     20  C   UNL     1      -6.560  20.107 -12.274  1.00  0.00     0.000 C 
BRANCH  20  21
ATOM     21  C   UNL     1      -6.520  21.593 -11.850  1.00  0.00     0.000 C 
BRANCH  21  22
ATOM     22  C   UNL     1      -5.095  22.157 -11.713  1.00  0.00    -0.000 C 
BRANCH  22  23
ATOM     23  C   UNL     1      -5.073  23.679 -11.496  1.00  0.00    -0.000 C 
BRANCH  23  24
ATOM     24  C   UNL     1      -3.747  24.327 -11.933  1.00  0.00    -0.000 C 
BRANCH  24  25
ATOM     25  C   UNL     1      -3.190  25.408 -10.981  1.00  0.00    -0.000 C 
BRANCH  25  26
ATOM     26  C   UNL     1      -3.718  26.840 -11.216  1.00  0.00    -0.000 C 
BRANCH  26  27
ATOM     27  C   UNL     1      -4.935  27.223 -10.342  1.00  0.00    -0.000 C 
BRANCH  27  28
ATOM     28  C   UNL     1      -6.291  27.054 -11.056  1.00  0.00    -0.000 C 
BRANCH  28  29
ATOM     29  C   UNL     1      -6.753  28.284 -11.854  1.00  0.00    -0.003 C 
ATOM     30  C   UNL     1      -5.628  29.286 -12.111  1.00  0.00     0.004 C 
ENDBRANCH  28  29
ENDBRANCH  27  28
ENDBRANCH  26  27
ENDBRANCH  25  26
ENDBRANCH  24  25
ENDBRANCH  23  24
ENDBRANCH  22  23
ENDBRANCH  21  22
ENDBRANCH  20  21
ENDBRANCH  19  20
ENDBRANCH  18  19
ENDBRANCH  17  18
ENDBRANCH   1  17
TORSDOF 26
ENDMDL
MODEL 9
REMARK VINA RESULT:    19.196      3.965      9.966
REMARK INTER + INTRA:          47.771
REMARK INTER:                  47.830
REMARK INTRA:                  -0.060
REMARK UNBOUND:                -0.604
REMARK SMILES CCCCCCCCCCCCCCCCCCCCCCCCCCCC(=O)[O-]
REMARK SMILES IDX 15 1 16 2 17 3 18 4 19 5 20 6 21 7 22 8 23 9 24 10 25 11
REMARK SMILES IDX 26 12 27 13 28 14 29 15 30 16 14 17 13 18 12 19 11 20 10 21
REMARK SMILES IDX 9 22 8 23 7 24 6 25 5 26 4 27 3 28 2 29 1 30
REMARK H PARENT
REMARK Flexibility Score: inf
ROOT
ATOM      1  C   UNL     1      -5.324  14.788 -10.767  1.00  0.00     0.000 C 
ENDROOT
BRANCH   1   2
ATOM      2  C   UNL     1      -5.644  16.089 -11.526  1.00  0.00     0.000 C 
BRANCH   2   3
ATOM      3  C   UNL     1      -7.154  16.365 -11.614  1.00  0.00     0.000 C 
BRANCH   3   4
ATOM      4  C   UNL     1      -7.794  15.755 -12.874  1.00  0.00     0.000 C 
BRANCH   4   5
ATOM      5  C   UNL     1      -9.278  15.392 -12.662  1.00  0.00     0.000 C 
BRANCH   5   6
ATOM      6  C   UNL     1      -9.492  14.178 -11.741  1.00  0.00     0.000 C 
BRANCH   6   7
ATOM      7  C   UNL     1     -10.823  14.234 -10.974  1.00  0.00     0.000 C 
BRANCH   7   8
ATOM      8  C   UNL     1     -10.629  14.635  -9.496  1.00  0.00     0.000 C 
BRANCH   8   9
ATOM      9  C   UNL     1      -9.197  15.091  -9.165  1.00  0.00     0.000 C 
BRANCH   9  10
ATOM     10  C   UNL     1      -9.134  16.557  -8.705  1.00  0.00     0.000 C 
BRANCH  10  11
ATOM     11  C   UNL     1      -9.592  16.749  -7.247  1.00  0.00     0.000 C 
BRANCH  11  12
ATOM     12  C   UNL     1     -11.117  16.846  -7.043  1.00  0.00     0.006 C 
BRANCH  12  13
ATOM     13  C   UNL     1     -11.623  16.259  -5.714  1.00  0.00     0.053 C 
BRANCH  13  14
ATOM     14  C   UNL     1     -12.881  15.465  -5.897  1.00  0.00     0.041 C 
ATOM     15  O   UNL     1     -13.734  15.814  -6.754  1.00  0.00    -0.550 OA
ATOM     16  O   UNL     1     -13.099  14.325  -5.133  1.00  0.00    -0.550 OA
ENDBRANCH  13  14
ENDBRANCH  12  13
ENDBRANCH  11  12
ENDBRANCH  10  11
ENDBRANCH   9  10
ENDBRANCH   8   9
ENDBRANCH   7   8
ENDBRANCH   6   7
ENDBRANCH   5   6
ENDBRANCH   4   5
ENDBRANCH   3   4
ENDBRANCH   2   3
ENDBRANCH   1   2
BRANCH   1  17
ATOM     17  C   UNL     1      -3.844  14.682 -10.364  1.00  0.00     0.000 C 
BRANCH  17  18
ATOM     18  C   UNL     1      -3.059  16.006 -10.411  1.00  0.00     0.000 C 
BRANCH  18  19
ATOM     19  C   UNL     1      -3.953  17.266 -10.422  1.00  0.00     0.000 C 
BRANCH  19  20
ATOM     20  C   UNL     1      -3.297  18.452 -11.150  1.00  0.00     0.000 C 
BRANCH  20  21
ATOM     21  C   UNL     1      -3.908  19.805 -10.719  1.00  0.00     0.000 C 
BRANCH  21  22
ATOM     22  C   UNL     1      -5.381  19.976 -11.134  1.00  0.00    -0.000 C 
BRANCH  22  23
ATOM     23  C   UNL     1      -5.732  21.426 -11.503  1.00  0.00    -0.000 C 
BRANCH  23  24
ATOM     24  C   UNL     1      -4.495  22.337 -11.593  1.00  0.00    -0.000 C 
BRANCH  24  25
ATOM     25  C   UNL     1      -4.773  23.851 -11.469  1.00  0.00    -0.000 C 
BRANCH  25  26
ATOM     26  C   UNL     1      -3.565  24.775 -11.734  1.00  0.00    -0.000 C 
BRANCH  26  27
ATOM     27  C   UNL     1      -3.866  26.283 -11.573  1.00  0.00    -0.000 C 
BRANCH  27  28
ATOM     28  C   UNL     1      -4.760  26.613 -10.361  1.00  0.00    -0.000 C 
BRANCH  28  29
ATOM     29  C   UNL     1      -5.648  27.856 -10.538  1.00  0.00    -0.003 C 
ATOM     30  C   UNL     1      -6.473  27.821 -11.825  1.00  0.00     0.004 C 
ENDBRANCH  28  29
ENDBRANCH  27  28
ENDBRANCH  26  27
ENDBRANCH  25  26
ENDBRANCH  24  25
ENDBRANCH  23  24
ENDBRANCH  22  23
ENDBRANCH  21  22
ENDBRANCH  20  21
ENDBRANCH  19  20
ENDBRANCH  18  19
ENDBRANCH  17  18
ENDBRANCH   1  17
TORSDOF 26
ENDMDL
