MODEL 1
REMARK VINA RESULT:    -3.412      0.000      0.000
REMARK INTER + INTRA:          -4.774
REMARK INTER:                  -4.409
REMARK INTRA:                  -0.365
REMARK UNBOUND:                -0.365
REMARK SMILES CCO[C@H]1O[C@@H](CO)[C@H](O)[C@@H](O)[C@H]1O
REMARK SMILES IDX 4 1 13 2 11 3 9 4 6 5 5 6 3 7 2 8 1 9 14 10 12 12 7 14 8 15
REMARK SMILES IDX 10 17
REMARK H PARENT 14 11 12 13 8 16 10 18
REMARK Flexibility Score: inf
ROOT
ATOM      1  C   UNL     1      12.422  42.075  19.921  1.00  0.00     0.281 C 
ATOM      2  C   UNL     1      12.527  42.073  18.368  1.00  0.00     0.202 C 
ATOM      3  C   UNL     1      13.772  42.855  17.880  1.00  0.00     0.179 C 
ATOM      4  C   UNL     1      14.037  44.074  18.785  1.00  0.00     0.177 C 
ATOM      5  C   UNL     1      14.107  43.647  20.286  1.00  0.00     0.178 C 
ATOM      6  O   UNL     1      13.699  42.301  20.490  1.00  0.00    -0.341 OA
ENDROOT
BRANCH   1   7
ATOM      7  O   UNL     1      11.948  40.825  20.396  1.00  0.00    -0.350 OA
BRANCH   7   8
ATOM      8  C   UNL     1      12.669  40.389  21.535  1.00  0.00     0.160 C 
ATOM      9  C   UNL     1      11.891  40.705  22.807  1.00  0.00     0.035 C 
ENDBRANCH   7   8
ENDBRANCH   1   7
BRANCH   2  10
ATOM     10  O   UNL     1      12.557  40.755  17.877  1.00  0.00    -0.385 OA
ATOM     11  H   UNL     1      12.966  40.194  18.587  1.00  0.00     0.211 HD
ENDBRANCH   2  10
BRANCH   3  12
ATOM     12  O   UNL     1      14.909  42.026  17.888  1.00  0.00    -0.387 OA
ATOM     13  H   UNL     1      15.442  42.267  18.690  1.00  0.00     0.211 HD
ENDBRANCH   3  12
BRANCH   5  14
ATOM     14  C   UNL     1      15.522  43.825  20.862  1.00  0.00     0.191 C 
BRANCH  14  15
ATOM     15  O   UNL     1      16.492  43.780  19.850  1.00  0.00    -0.394 OA
ATOM     16  H   UNL     1      17.279  43.309  20.230  1.00  0.00     0.210 HD
ENDBRANCH  14  15
ENDBRANCH   5  14
BRANCH   4  17
ATOM     17  O   UNL     1      13.004  45.015  18.621  1.00  0.00    -0.387 OA
ATOM     18  H   UNL     1      13.333  45.874  18.997  1.00  0.00     0.211 HD
ENDBRANCH   4  17
TORSDOF 7
ENDMDL
MODEL 2
REMARK VINA RESULT:    -1.885      1.556      3.072
REMARK INTER + INTRA:          -2.802
REMARK INTER:                  -2.615
REMARK INTRA:                  -0.187
REMARK UNBOUND:                -0.365
REMARK SMILES CCO[C@H]1O[C@@H](CO)[C@H](O)[C@@H](O)[C@H]1O
REMARK SMILES IDX 4 1 13 2 11 3 9 4 6 5 5 6 3 7 2 8 1 9 14 10 12 12 7 14 8 15
REMARK SMILES IDX 10 17
REMARK H PARENT 14 11 12 13 8 16 10 18
REMARK Flexibility Score: inf
ROOT
ATOM      1  C   UNL     1      13.520  42.127  19.455  1.00  0.00     0.281 C 
ATOM      2  C   UNL     1      14.524  42.039  20.642  1.00  0.00     0.202 C 
ATOM      3  C   UNL     1      15.482  43.257  20.670  1.00  0.00     0.179 C 
ATOM      4  C   UNL     1      15.840  43.698  19.237  1.00  0.00     0.177 C 
ATOM      5  C   UNL     1      14.549  43.929  18.387  1.00  0.00     0.178 C 
ATOM      6  O   UNL     1      13.374  43.474  19.046  1.00  0.00    -0.341 OA
ENDROOT
BRANCH   1   7
ATOM      7  O   UNL     1      12.242  41.646  19.840  1.00  0.00    -0.350 OA
BRANCH   7   8
ATOM      8  C   UNL     1      12.010  40.334  19.359  1.00  0.00     0.160 C 
ATOM      9  C   UNL     1      11.875  39.360  20.524  1.00  0.00     0.035 C 
ENDBRANCH   7   8
ENDBRANCH   1   7
BRANCH   2  10
ATOM     10  O   UNL     1      13.835  41.935  21.865  1.00  0.00    -0.385 OA
ATOM     11  H   UNL     1      12.887  42.169  21.680  1.00  0.00     0.211 HD
ENDBRANCH   2  10
BRANCH   3  12
ATOM     12  O   UNL     1      14.886  44.338  21.344  1.00  0.00    -0.387 OA
ATOM     13  H   UNL     1      14.558  44.970  20.653  1.00  0.00     0.211 HD
ENDBRANCH   3  12
BRANCH   5  14
ATOM     14  C   UNL     1      14.366  45.411  18.022  1.00  0.00     0.191 C 
BRANCH  14  15
ATOM     15  O   UNL     1      13.009  45.738  17.887  1.00  0.00    -0.394 OA
ATOM     16  H   UNL     1      12.877  46.030  16.947  1.00  0.00     0.210 HD
ENDBRANCH  14  15
ENDBRANCH   5  14
BRANCH   4  17
ATOM     17  O   UNL     1      16.625  42.707  18.621  1.00  0.00    -0.387 OA
ATOM     18  H   UNL     1      17.532  43.093  18.494  1.00  0.00     0.211 HD
ENDBRANCH   4  17
TORSDOF 7
ENDMDL
MODEL 3
REMARK VINA RESULT:    -1.805      1.506      3.055
REMARK INTER + INTRA:          -2.698
REMARK INTER:                  -2.280
REMARK INTRA:                  -0.418
REMARK UNBOUND:                -0.365
REMARK SMILES CCO[C@H]1O[C@@H](CO)[C@H](O)[C@@H](O)[C@H]1O
REMARK SMILES IDX 4 1 13 2 11 3 9 4 6 5 5 6 3 7 2 8 1 9 14 10 12 12 7 14 8 15
REMARK SMILES IDX 10 17
REMARK H PARENT 14 11 12 13 8 16 10 18
REMARK Flexibility Score: inf
ROOT
ATOM      1  C   UNL     1      13.585  42.159  20.482  1.00  0.00     0.281 C 
ATOM      2  C   UNL     1      15.055  42.539  20.822  1.00  0.00     0.202 C 
ATOM      3  C   UNL     1      15.579  43.672  19.902  1.00  0.00     0.179 C 
ATOM      4  C   UNL     1      15.008  43.522  18.479  1.00  0.00     0.177 C 
ATOM      5  C   UNL     1      13.450  43.405  18.514  1.00  0.00     0.178 C 
ATOM      6  O   UNL     1      12.945  43.242  19.833  1.00  0.00    -0.341 OA
ENDROOT
BRANCH   1   7
ATOM      7  O   UNL     1      12.855  41.865  21.663  1.00  0.00    -0.350 OA
BRANCH   7   8
ATOM      8  C   UNL     1      12.594  40.478  21.785  1.00  0.00     0.160 C 
ATOM      9  C   UNL     1      12.009  39.933  20.487  1.00  0.00     0.035 C 
ENDBRANCH   7   8
ENDBRANCH   1   7
BRANCH   2  10
ATOM     10  O   UNL     1      15.169  42.918  22.172  1.00  0.00    -0.385 OA
ATOM     11  H   UNL     1      14.315  42.666  22.612  1.00  0.00     0.211 HD
ENDBRANCH   2  10
BRANCH   3  12
ATOM     12  O   UNL     1      15.208  44.930  20.412  1.00  0.00    -0.387 OA
ATOM     13  H   UNL     1      14.862  45.465  19.652  1.00  0.00     0.211 HD
ENDBRANCH   3  12
BRANCH   5  14
ATOM     14  C   UNL     1      12.773  44.629  17.875  1.00  0.00     0.191 C 
BRANCH  14  15
ATOM     15  O   UNL     1      13.629  45.741  17.877  1.00  0.00    -0.394 OA
ATOM     16  H   UNL     1      14.184  45.673  18.696  1.00  0.00     0.210 HD
ENDBRANCH  14  15
ENDBRANCH   5  14
BRANCH   4  17
ATOM     17  O   UNL     1      15.543  42.371  17.875  1.00  0.00    -0.387 OA
ATOM     18  H   UNL     1      14.808  41.946  17.359  1.00  0.00     0.211 HD
ENDBRANCH   4  17
TORSDOF 7
ENDMDL
MODEL 4
REMARK VINA RESULT:    -1.001      1.719      3.490
REMARK INTER + INTRA:          -1.658
REMARK INTER:                  -2.475
REMARK INTRA:                   0.816
REMARK UNBOUND:                -0.365
REMARK SMILES CCO[C@H]1O[C@@H](CO)[C@H](O)[C@@H](O)[C@H]1O
REMARK SMILES IDX 4 1 13 2 11 3 9 4 6 5 5 6 3 7 2 8 1 9 14 10 12 12 7 14 8 15
REMARK SMILES IDX 10 17
REMARK H PARENT 14 11 12 13 8 16 10 18
REMARK Flexibility Score: inf
ROOT
ATOM      1  C   UNL     1      13.389  43.850  19.666  1.00  0.00     0.281 C 
ATOM      2  C   UNL     1      14.744  44.556  19.367  1.00  0.00     0.202 C 
ATOM      3  C   UNL     1      15.929  43.828  20.052  1.00  0.00     0.179 C 
ATOM      4  C   UNL     1      15.503  43.272  21.424  1.00  0.00     0.177 C 
ATOM      5  C   UNL     1      14.214  42.398  21.295  1.00  0.00     0.178 C 
ATOM      6  O   UNL     1      13.616  42.496  20.009  1.00  0.00    -0.341 OA
ENDROOT
BRANCH   1   7
ATOM      7  O   UNL     1      12.544  43.876  18.527  1.00  0.00    -0.350 OA
BRANCH   7   8
ATOM      8  C   UNL     1      11.875  42.641  18.342  1.00  0.00     0.160 C 
ATOM      9  C   UNL     1      12.857  41.572  17.876  1.00  0.00     0.035 C 
ENDBRANCH   7   8
ENDBRANCH   1   7
BRANCH   2  10
ATOM     10  O   UNL     1      14.961  44.639  17.979  1.00  0.00    -0.385 OA
ATOM     11  H   UNL     1      14.206  45.163  17.602  1.00  0.00     0.211 HD
ENDBRANCH   2  10
BRANCH   3  12
ATOM     12  O   UNL     1      16.384  42.765  19.250  1.00  0.00    -0.387 OA
ATOM     13  H   UNL     1      17.282  42.508  19.585  1.00  0.00     0.211 HD
ENDBRANCH   3  12
BRANCH   5  14
ATOM     14  C   UNL     1      14.500  40.917  21.594  1.00  0.00     0.191 C 
BRANCH  14  15
ATOM     15  O   UNL     1      13.804  40.077  20.712  1.00  0.00    -0.394 OA
ATOM     16  H   UNL     1      12.894  40.460  20.611  1.00  0.00     0.210 HD
ENDBRANCH  14  15
ENDBRANCH   5  14
BRANCH   4  17
ATOM     17  O   UNL     1      15.250  44.337  22.307  1.00  0.00    -0.387 OA
ATOM     18  H   UNL     1      14.588  44.012  22.972  1.00  0.00     0.211 HD
ENDBRANCH   4  17
TORSDOF 7
ENDMDL
MODEL 5
REMARK VINA RESULT:    -0.964      1.530      4.498
REMARK INTER + INTRA:          -1.611
REMARK INTER:                  -1.330
REMARK INTRA:                  -0.281
REMARK UNBOUND:                -0.365
REMARK SMILES CCO[C@H]1O[C@@H](CO)[C@H](O)[C@@H](O)[C@H]1O
REMARK SMILES IDX 4 1 13 2 11 3 9 4 6 5 5 6 3 7 2 8 1 9 14 10 12 12 7 14 8 15
REMARK SMILES IDX 10 17
REMARK H PARENT 14 11 12 13 8 16 10 18
REMARK Flexibility Score: inf
ROOT
ATOM      1  C   UNL     1      15.114  43.437  19.533  1.00  0.00     0.281 C 
ATOM      2  C   UNL     1      14.470  43.495  20.948  1.00  0.00     0.202 C 
ATOM      3  C   UNL     1      13.216  42.589  21.041  1.00  0.00     0.179 C 
ATOM      4  C   UNL     1      12.438  42.602  19.711  1.00  0.00     0.177 C 
ATOM      5  C   UNL     1      13.379  42.258  18.512  1.00  0.00     0.178 C 
ATOM      6  O   UNL     1      14.751  42.232  18.886  1.00  0.00    -0.341 OA
ENDROOT
BRANCH   1   7
ATOM      7  O   UNL     1      16.530  43.475  19.622  1.00  0.00    -0.350 OA
BRANCH   7   8
ATOM      8  C   UNL     1      17.064  44.626  18.992  1.00  0.00     0.160 C 
ATOM      9  C   UNL     1      15.939  45.510  18.464  1.00  0.00     0.035 C 
ENDBRANCH   7   8
ENDBRANCH   1   7
BRANCH   2  10
ATOM     10  O   UNL     1      15.406  43.132  21.933  1.00  0.00    -0.385 OA
ATOM     11  H   UNL     1      15.019  43.399  22.809  1.00  0.00     0.211 HD
ENDBRANCH   2  10
BRANCH   3  12
ATOM     12  O   UNL     1      13.587  41.265  21.340  1.00  0.00    -0.387 OA
ATOM     13  H   UNL     1      13.293  40.699  20.579  1.00  0.00     0.211 HD
ENDBRANCH   3  12
BRANCH   5  14
ATOM     14  C   UNL     1      13.017  40.906  17.875  1.00  0.00     0.191 C 
BRANCH  14  15
ATOM     15  O   UNL     1      12.013  40.252  18.605  1.00  0.00    -0.394 OA
ATOM     16  H   UNL     1      12.294  40.271  19.557  1.00  0.00     0.210 HD
ENDBRANCH  14  15
ENDBRANCH   5  14
BRANCH   4  17
ATOM     17  O   UNL     1      11.877  43.875  19.506  1.00  0.00    -0.387 OA
ATOM     18  H   UNL     1      10.959  43.734  19.153  1.00  0.00     0.211 HD
ENDBRANCH   4  17
TORSDOF 7
ENDMDL
