MODEL 1
REMARK VINA RESULT:    71.750      0.000      0.000
REMARK INTER + INTRA:         105.443
REMARK INTER:                  96.918
REMARK INTRA:                   8.525
REMARK UNBOUND:                 8.525
REMARK SMILES CC[C@H](CC[C@H](C)[C@H]1CC[C@H]2[C@@H]3CC(=O)C4=CC(=O)CC[C@@]4(C)[C@H]3CC[C@@]12C)C(C)C
REMARK SMILES IDX 4 1 3 2 2 3 1 4 29 5 30 6 31 7 5 8 6 9 7 10 8 11 9 12 27 13
REMARK SMILES IDX 10 14 11 15 26 16 28 17 12 18 25 19 24 20 13 21 22 22 14 23
REMARK SMILES IDX 16 24 21 25 23 26 15 27 17 28 20 29 18 30 19 31
REMARK H PARENT
REMARK Flexibility Score: inf
ROOT
ATOM      1  C   UNL     1      30.121  13.405  20.529  1.00  0.00     0.004 C 
ENDROOT
BRANCH   1   2
ATOM      2  C   UNL     1      28.983  12.509  19.949  1.00  0.00    -0.009 C 
BRANCH   2   3
ATOM      3  C   UNL     1      29.493  11.713  18.714  1.00  0.00     0.000 C 
ATOM      4  C   UNL     1      29.819  10.252  19.045  1.00  0.00     0.004 C 
ENDBRANCH   2   3
BRANCH   2   5
ATOM      5  C   UNL     1      28.317  11.540  20.985  1.00  0.00    -0.014 C 
ATOM      6  C   UNL     1      27.094  12.147  21.685  1.00  0.00     0.007 C 
ATOM      7  C   UNL     1      29.293  10.961  22.026  1.00  0.00     0.007 C 
ENDBRANCH   2   5
ENDBRANCH   1   2
BRANCH   1   8
ATOM      8  C   UNL     1      29.671  14.337  21.678  1.00  0.00     0.004 C 
BRANCH   8   9
ATOM      9  C   UNL     1      28.429  13.831  22.478  1.00  0.00    -0.011 C 
ATOM     10  C   UNL     1      27.200  14.662  22.040  1.00  0.00     0.008 C 
BRANCH   9  11
ATOM     11  C   UNL     1      28.649  13.792  24.051  1.00  0.00    -0.002 C 
ATOM     12  C   UNL     1      27.365  14.098  24.842  1.00  0.00     0.005 C 
ATOM     13  C   UNL     1      29.120  12.421  24.695  1.00  0.00    -0.026 C 
ATOM     14  C   UNL     1      26.682  12.761  25.005  1.00  0.00     0.005 C 
ATOM     15  C   UNL     1      27.821  11.777  25.293  1.00  0.00    -0.001 C 
ATOM     16  C   UNL     1      29.837  11.436  23.731  1.00  0.00     0.007 C 
ATOM     17  C   UNL     1      30.108  12.752  25.852  1.00  0.00     0.012 C 
ATOM     18  C   UNL     1      27.514  10.330  24.798  1.00  0.00     0.004 C 
ATOM     19  C   UNL     1      30.037  10.026  24.317  1.00  0.00     0.005 C 
ATOM     20  C   UNL     1      28.762   9.421  25.011  1.00  0.00     0.003 C 
ATOM     21  C   UNL     1      26.305   9.769  25.572  1.00  0.00     0.085 C 
ATOM     22  C   UNL     1      28.492   7.846  24.799  1.00  0.00    -0.000 C 
ATOM     23  C   UNL     1      25.964   8.399  25.105  1.00  0.00     0.159 C 
ATOM     24  C   UNL     1      27.010   7.542  24.511  1.00  0.00     0.005 C 
ATOM     25  C   UNL     1      29.360   7.226  23.652  1.00  0.00     0.020 C 
ATOM     26  C   UNL     1      28.842   7.122  26.125  1.00  0.00     0.017 C 
ATOM     27  O   UNL     1      24.793   7.965  25.283  1.00  0.00    -0.295 OA
ATOM     28  C   UNL     1      26.630   6.446  23.821  1.00  0.00     0.055 C 
ATOM     29  C   UNL     1      29.067   5.747  23.371  1.00  0.00     0.081 C 
ATOM     30  C   UNL     1      27.600   5.514  23.231  1.00  0.00     0.156 C 
ATOM     31  O   UNL     1      27.189   4.485  22.632  1.00  0.00    -0.295 OA
ENDBRANCH   9  11
ENDBRANCH   8   9
ENDBRANCH   1   8
TORSDOF 6
ENDMDL
