MODEL 1
REMARK VINA RESULT:    -5.191      0.000      0.000
REMARK INTER + INTRA:          -9.625
REMARK INTER:                  -8.832
REMARK INTRA:                  -0.794
REMARK UNBOUND:                -0.794
REMARK SMILES CCCCCCCCCCCCCC(=O)[O-]
REMARK SMILES IDX 8 1 9 2 10 3 11 4 12 5 13 6 14 7 15 8 16 9 7 10 6 11 5 12
REMARK SMILES IDX 4 13 3 14 2 15 1 16
REMARK H PARENT
REMARK Flexibility Score: inf
ROOT
ATOM      1  C   UNL     1      -2.263  28.314  56.114  1.00  0.00     0.000 C 
ENDROOT
BRANCH   1   2
ATOM      2  C   UNL     1      -3.778  28.434  55.893  1.00  0.00     0.000 C 
BRANCH   2   3
ATOM      3  C   UNL     1      -4.487  29.227  57.007  1.00  0.00     0.000 C 
BRANCH   3   4
ATOM      4  C   UNL     1      -3.555  30.050  57.916  1.00  0.00     0.000 C 
BRANCH   4   5
ATOM      5  C   UNL     1      -4.319  30.982  58.871  1.00  0.00     0.006 C 
BRANCH   5   6
ATOM      6  C   UNL     1      -3.556  32.285  59.142  1.00  0.00     0.053 C 
BRANCH   6   7
ATOM      7  C   UNL     1      -3.144  32.401  60.577  1.00  0.00     0.041 C 
ATOM      8  O   UNL     1      -3.931  32.049  61.494  1.00  0.00    -0.550 OA
ATOM      9  O   UNL     1      -1.877  32.873  60.901  1.00  0.00    -0.550 OA
ENDBRANCH   6   7
ENDBRANCH   5   6
ENDBRANCH   4   5
ENDBRANCH   3   4
ENDBRANCH   2   3
ENDBRANCH   1   2
BRANCH   1  10
ATOM     10  C   UNL     1      -1.855  26.854  56.347  1.00  0.00     0.000 C 
BRANCH  10  11
ATOM     11  C   UNL     1      -2.150  25.995  55.107  1.00  0.00    -0.000 C 
BRANCH  11  12
ATOM     12  C   UNL     1      -0.985  25.986  54.105  1.00  0.00    -0.000 C 
BRANCH  12  13
ATOM     13  C   UNL     1      -1.450  26.205  52.655  1.00  0.00    -0.000 C 
BRANCH  13  14
ATOM     14  C   UNL     1      -2.979  26.299  52.534  1.00  0.00    -0.000 C 
BRANCH  14  15
ATOM     15  C   UNL     1      -3.446  26.465  51.080  1.00  0.00    -0.003 C 
ATOM     16  C   UNL     1      -2.301  26.929  50.184  1.00  0.00     0.004 C 
ENDBRANCH  14  15
ENDBRANCH  13  14
ENDBRANCH  12  13
ENDBRANCH  11  12
ENDBRANCH  10  11
ENDBRANCH   1  10
TORSDOF 12
ENDMDL
MODEL 2
REMARK VINA RESULT:    -5.179      1.839      3.991
REMARK INTER + INTRA:          -9.606
REMARK INTER:                  -8.604
REMARK INTRA:                  -1.002
REMARK UNBOUND:                -0.794
REMARK SMILES CCCCCCCCCCCCCC(=O)[O-]
REMARK SMILES IDX 8 1 9 2 10 3 11 4 12 5 13 6 14 7 15 8 16 9 7 10 6 11 5 12
REMARK SMILES IDX 4 13 3 14 2 15 1 16
REMARK H PARENT
REMARK Flexibility Score: inf
ROOT
ATOM      1  C   UNL     1      -3.571  26.408  52.663  1.00  0.00     0.000 C 
ENDROOT
BRANCH   1   2
ATOM      2  C   UNL     1      -2.470  26.365  53.733  1.00  0.00     0.000 C 
BRANCH   2   3
ATOM      3  C   UNL     1      -3.025  26.424  55.168  1.00  0.00     0.000 C 
BRANCH   3   4
ATOM      4  C   UNL     1      -4.101  27.500  55.407  1.00  0.00     0.000 C 
BRANCH   4   5
ATOM      5  C   UNL     1      -3.625  28.627  56.339  1.00  0.00     0.006 C 
BRANCH   5   6
ATOM      6  C   UNL     1      -4.767  29.193  57.193  1.00  0.00     0.053 C 
BRANCH   6   7
ATOM      7  C   UNL     1      -4.262  30.121  58.255  1.00  0.00     0.041 C 
ATOM      8  O   UNL     1      -4.967  30.373  59.266  1.00  0.00    -0.550 OA
ATOM      9  O   UNL     1      -2.997  30.685  58.140  1.00  0.00    -0.550 OA
ENDBRANCH   6   7
ENDBRANCH   5   6
ENDBRANCH   4   5
ENDBRANCH   3   4
ENDBRANCH   2   3
ENDBRANCH   1   2
BRANCH   1  10
ATOM     10  C   UNL     1      -3.040  25.922  51.308  1.00  0.00     0.000 C 
BRANCH  10  11
ATOM     11  C   UNL     1      -2.535  27.099  50.460  1.00  0.00    -0.000 C 
BRANCH  11  12
ATOM     12  C   UNL     1      -1.027  27.017  50.174  1.00  0.00    -0.000 C 
BRANCH  12  13
ATOM     13  C   UNL     1      -0.455  25.610  50.418  1.00  0.00    -0.000 C 
BRANCH  13  14
ATOM     14  C   UNL     1       0.762  25.621  51.355  1.00  0.00    -0.000 C 
BRANCH  14  15
ATOM     15  C   UNL     1       0.604  24.657  52.540  1.00  0.00    -0.003 C 
ATOM     16  C   UNL     1       1.123  25.283  53.831  1.00  0.00     0.004 C 
ENDBRANCH  14  15
ENDBRANCH  13  14
ENDBRANCH  12  13
ENDBRANCH  11  12
ENDBRANCH  10  11
ENDBRANCH   1  10
TORSDOF 12
ENDMDL
MODEL 3
REMARK VINA RESULT:    -5.076      1.321      2.308
REMARK INTER + INTRA:          -9.430
REMARK INTER:                  -8.584
REMARK INTRA:                  -0.846
REMARK UNBOUND:                -0.794
REMARK SMILES CCCCCCCCCCCCCC(=O)[O-]
REMARK SMILES IDX 8 1 9 2 10 3 11 4 12 5 13 6 14 7 15 8 16 9 7 10 6 11 5 12
REMARK SMILES IDX 4 13 3 14 2 15 1 16
REMARK H PARENT
REMARK Flexibility Score: inf
ROOT
ATOM      1  C   UNL     1      -1.990  26.647  54.517  1.00  0.00     0.000 C 
ENDROOT
BRANCH   1   2
ATOM      2  C   UNL     1      -2.563  27.339  55.761  1.00  0.00     0.000 C 
BRANCH   2   3
ATOM      3  C   UNL     1      -4.093  27.504  55.706  1.00  0.00     0.000 C 
BRANCH   3   4
ATOM      4  C   UNL     1      -4.656  28.657  56.557  1.00  0.00     0.000 C 
BRANCH   4   5
ATOM      5  C   UNL     1      -3.561  29.458  57.281  1.00  0.00     0.006 C 
BRANCH   5   6
ATOM      6  C   UNL     1      -4.038  30.861  57.680  1.00  0.00     0.053 C 
BRANCH   6   7
ATOM      7  C   UNL     1      -4.255  30.976  59.158  1.00  0.00     0.041 C 
ATOM      8  O   UNL     1      -3.664  31.869  59.819  1.00  0.00    -0.550 OA
ATOM      9  O   UNL     1      -5.134  30.112  59.800  1.00  0.00    -0.550 OA
ENDBRANCH   6   7
ENDBRANCH   5   6
ENDBRANCH   4   5
ENDBRANCH   3   4
ENDBRANCH   2   3
ENDBRANCH   1   2
BRANCH   1  10
ATOM     10  C   UNL     1      -0.613  26.037  54.811  1.00  0.00     0.000 C 
BRANCH  10  11
ATOM     11  C   UNL     1      -0.295  24.895  53.833  1.00  0.00    -0.000 C 
BRANCH  11  12
ATOM     12  C   UNL     1       0.348  25.396  52.531  1.00  0.00    -0.000 C 
BRANCH  12  13
ATOM     13  C   UNL     1      -0.616  25.333  51.333  1.00  0.00    -0.000 C 
BRANCH  13  14
ATOM     14  C   UNL     1      -1.117  26.721  50.905  1.00  0.00    -0.000 C 
BRANCH  14  15
ATOM     15  C   UNL     1      -2.531  26.679  50.306  1.00  0.00    -0.003 C 
ATOM     16  C   UNL     1      -3.548  26.192  51.333  1.00  0.00     0.004 C 
ENDBRANCH  14  15
ENDBRANCH  13  14
ENDBRANCH  12  13
ENDBRANCH  11  12
ENDBRANCH  10  11
ENDBRANCH   1  10
TORSDOF 12
ENDMDL
MODEL 4
REMARK VINA RESULT:    -5.000      2.057      3.886
REMARK INTER + INTRA:          -9.301
REMARK INTER:                  -8.600
REMARK INTRA:                  -0.701
REMARK UNBOUND:                -0.794
REMARK SMILES CCCCCCCCCCCCCC(=O)[O-]
REMARK SMILES IDX 8 1 9 2 10 3 11 4 12 5 13 6 14 7 15 8 16 9 7 10 6 11 5 12
REMARK SMILES IDX 4 13 3 14 2 15 1 16
REMARK H PARENT
REMARK Flexibility Score: inf
ROOT
ATOM      1  C   UNL     1      -2.835  26.747  55.103  1.00  0.00     0.000 C 
ENDROOT
BRANCH   1   2
ATOM      2  C   UNL     1      -4.300  27.206  55.103  1.00  0.00     0.000 C 
BRANCH   2   3
ATOM      3  C   UNL     1      -4.608  28.231  56.210  1.00  0.00     0.000 C 
BRANCH   3   4
ATOM      4  C   UNL     1      -3.619  29.408  56.303  1.00  0.00     0.000 C 
BRANCH   4   5
ATOM      5  C   UNL     1      -3.175  29.706  57.745  1.00  0.00     0.006 C 
BRANCH   5   6
ATOM      6  C   UNL     1      -3.687  31.065  58.239  1.00  0.00     0.053 C 
BRANCH   6   7
ATOM      7  C   UNL     1      -4.279  30.972  59.612  1.00  0.00     0.041 C 
ATOM      8  O   UNL     1      -5.099  30.058  59.889  1.00  0.00    -0.550 OA
ATOM      9  O   UNL     1      -3.901  31.879  60.595  1.00  0.00    -0.550 OA
ENDBRANCH   6   7
ENDBRANCH   5   6
ENDBRANCH   4   5
ENDBRANCH   3   4
ENDBRANCH   2   3
ENDBRANCH   1   2
BRANCH   1  10
ATOM     10  C   UNL     1      -2.430  26.196  53.729  1.00  0.00     0.000 C 
BRANCH  10  11
ATOM     11  C   UNL     1      -0.908  26.010  53.636  1.00  0.00    -0.000 C 
BRANCH  11  12
ATOM     12  C   UNL     1      -0.231  25.986  55.016  1.00  0.00    -0.000 C 
BRANCH  12  13
ATOM     13  C   UNL     1       1.269  25.655  54.932  1.00  0.00    -0.000 C 
BRANCH  13  14
ATOM     14  C   UNL     1       2.116  26.514  55.884  1.00  0.00    -0.000 C 
BRANCH  14  15
ATOM     15  C   UNL     1       1.291  27.109  57.035  1.00  0.00    -0.003 C 
ATOM     16  C   UNL     1       2.029  26.981  58.364  1.00  0.00     0.004 C 
ENDBRANCH  14  15
ENDBRANCH  13  14
ENDBRANCH  12  13
ENDBRANCH  11  12
ENDBRANCH  10  11
ENDBRANCH   1  10
TORSDOF 12
ENDMDL
MODEL 5
REMARK VINA RESULT:    -4.892      1.656      3.505
REMARK INTER + INTRA:          -9.118
REMARK INTER:                  -8.557
REMARK INTRA:                  -0.561
REMARK UNBOUND:                -0.794
REMARK SMILES CCCCCCCCCCCCCC(=O)[O-]
REMARK SMILES IDX 8 1 9 2 10 3 11 4 12 5 13 6 14 7 15 8 16 9 7 10 6 11 5 12
REMARK SMILES IDX 4 13 3 14 2 15 1 16
REMARK H PARENT
REMARK Flexibility Score: inf
ROOT
ATOM      1  C   UNL     1      -4.480  30.071  58.476  1.00  0.00     0.000 C 
ENDROOT
BRANCH   1   2
ATOM      2  C   UNL     1      -4.181  31.572  58.587  1.00  0.00     0.000 C 
BRANCH   2   3
ATOM      3  C   UNL     1      -3.178  31.903  59.708  1.00  0.00     0.000 C 
BRANCH   3   4
ATOM      4  C   UNL     1      -3.777  31.955  61.125  1.00  0.00     0.000 C 
BRANCH   4   5
ATOM      5  C   UNL     1      -3.327  33.191  61.922  1.00  0.00     0.006 C 
BRANCH   5   6
ATOM      6  C   UNL     1      -2.704  32.813  63.272  1.00  0.00     0.053 C 
BRANCH   6   7
ATOM      7  C   UNL     1      -1.351  32.192  63.106  1.00  0.00     0.041 C 
ATOM      8  O   UNL     1      -1.041  31.160  63.757  1.00  0.00    -0.550 OA
ATOM      9  O   UNL     1      -0.441  32.737  62.208  1.00  0.00    -0.550 OA
ENDBRANCH   6   7
ENDBRANCH   5   6
ENDBRANCH   4   5
ENDBRANCH   3   4
ENDBRANCH   2   3
ENDBRANCH   1   2
BRANCH   1  10
ATOM     10  C   UNL     1      -3.950  29.500  57.155  1.00  0.00     0.000 C 
BRANCH  10  11
ATOM     11  C   UNL     1      -5.022  28.656  56.448  1.00  0.00    -0.000 C 
BRANCH  11  12
ATOM     12  C   UNL     1      -4.420  27.624  55.483  1.00  0.00    -0.000 C 
BRANCH  12  13
ATOM     13  C   UNL     1      -2.936  27.339  55.772  1.00  0.00    -0.000 C 
BRANCH  13  14
ATOM     14  C   UNL     1      -2.311  26.371  54.756  1.00  0.00    -0.000 C 
BRANCH  14  15
ATOM     15  C   UNL     1      -3.005  26.425  53.386  1.00  0.00    -0.003 C 
ATOM     16  C   UNL     1      -2.011  26.173  52.256  1.00  0.00     0.004 C 
ENDBRANCH  14  15
ENDBRANCH  13  14
ENDBRANCH  12  13
ENDBRANCH  11  12
ENDBRANCH  10  11
ENDBRANCH   1  10
TORSDOF 12
ENDMDL
MODEL 6
REMARK VINA RESULT:    -4.862      3.715      5.214
REMARK INTER + INTRA:          -9.067
REMARK INTER:                  -7.866
REMARK INTRA:                  -1.201
REMARK UNBOUND:                -0.794
REMARK SMILES CCCCCCCCCCCCCC(=O)[O-]
REMARK SMILES IDX 8 1 9 2 10 3 11 4 12 5 13 6 14 7 15 8 16 9 7 10 6 11 5 12
REMARK SMILES IDX 4 13 3 14 2 15 1 16
REMARK H PARENT
REMARK Flexibility Score: inf
ROOT
ATOM      1  C   UNL     1      -3.158  29.437  56.225  1.00  0.00     0.000 C 
ENDROOT
BRANCH   1   2
ATOM      2  C   UNL     1      -2.161  29.466  57.392  1.00  0.00     0.000 C 
BRANCH   2   3
ATOM      3  C   UNL     1      -0.705  29.235  56.944  1.00  0.00     0.000 C 
BRANCH   3   4
ATOM      4  C   UNL     1       0.367  29.761  57.916  1.00  0.00     0.000 C 
BRANCH   4   5
ATOM      5  C   UNL     1       1.719  29.043  57.763  1.00  0.00     0.006 C 
BRANCH   5   6
ATOM      6  C   UNL     1       1.552  27.528  57.586  1.00  0.00     0.053 C 
BRANCH   6   7
ATOM      7  C   UNL     1       2.374  26.758  58.575  1.00  0.00     0.041 C 
ATOM      8  O   UNL     1       3.333  26.044  58.184  1.00  0.00    -0.550 OA
ATOM      9  O   UNL     1       2.096  26.854  59.933  1.00  0.00    -0.550 OA
ENDBRANCH   6   7
ENDBRANCH   5   6
ENDBRANCH   4   5
ENDBRANCH   3   4
ENDBRANCH   2   3
ENDBRANCH   1   2
BRANCH   1  10
ATOM     10  C   UNL     1      -4.447  28.704  56.621  1.00  0.00     0.000 C 
BRANCH  10  11
ATOM     11  C   UNL     1      -4.874  27.712  55.529  1.00  0.00    -0.000 C 
BRANCH  11  12
ATOM     12  C   UNL     1      -3.818  26.625  55.273  1.00  0.00    -0.000 C 
BRANCH  12  13
ATOM     13  C   UNL     1      -3.478  26.470  53.781  1.00  0.00    -0.000 C 
BRANCH  13  14
ATOM     14  C   UNL     1      -1.966  26.366  53.528  1.00  0.00    -0.000 C 
BRANCH  14  15
ATOM     15  C   UNL     1      -1.145  26.420  54.825  1.00  0.00    -0.003 C 
ATOM     16  C   UNL     1       0.105  25.552  54.721  1.00  0.00     0.004 C 
ENDBRANCH  14  15
ENDBRANCH  13  14
ENDBRANCH  12  13
ENDBRANCH  11  12
ENDBRANCH  10  11
ENDBRANCH   1  10
TORSDOF 12
ENDMDL
MODEL 7
REMARK VINA RESULT:    -4.834      1.717      2.856
REMARK INTER + INTRA:          -9.019
REMARK INTER:                  -8.691
REMARK INTRA:                  -0.328
REMARK UNBOUND:                -0.794
REMARK SMILES CCCCCCCCCCCCCC(=O)[O-]
REMARK SMILES IDX 8 1 9 2 10 3 11 4 12 5 13 6 14 7 15 8 16 9 7 10 6 11 5 12
REMARK SMILES IDX 4 13 3 14 2 15 1 16
REMARK H PARENT
REMARK Flexibility Score: inf
ROOT
ATOM      1  C   UNL     1      -4.401  29.064  56.733  1.00  0.00     0.000 C 
ENDROOT
BRANCH   1   2
ATOM      2  C   UNL     1      -3.540  30.025  57.565  1.00  0.00     0.000 C 
BRANCH   2   3
ATOM      3  C   UNL     1      -4.273  30.564  58.808  1.00  0.00     0.000 C 
BRANCH   3   4
ATOM      4  C   UNL     1      -3.686  31.857  59.402  1.00  0.00     0.000 C 
BRANCH   4   5
ATOM      5  C   UNL     1      -3.783  31.912  60.936  1.00  0.00     0.006 C 
BRANCH   5   6
ATOM      6  C   UNL     1      -2.918  33.030  61.531  1.00  0.00     0.053 C 
BRANCH   6   7
ATOM      7  C   UNL     1      -2.187  32.576  62.758  1.00  0.00     0.041 C 
ATOM      8  O   UNL     1      -2.825  32.227  63.785  1.00  0.00    -0.550 OA
ATOM      9  O   UNL     1      -0.799  32.511  62.755  1.00  0.00    -0.550 OA
ENDBRANCH   6   7
ENDBRANCH   5   6
ENDBRANCH   4   5
ENDBRANCH   3   4
ENDBRANCH   2   3
ENDBRANCH   1   2
BRANCH   1  10
ATOM     10  C   UNL     1      -3.562  27.892  56.205  1.00  0.00     0.000 C 
BRANCH  10  11
ATOM     11  C   UNL     1      -4.283  27.173  55.055  1.00  0.00    -0.000 C 
BRANCH  11  12
ATOM     12  C   UNL     1      -3.310  26.466  54.099  1.00  0.00    -0.000 C 
BRANCH  12  13
ATOM     13  C   UNL     1      -1.868  26.443  54.633  1.00  0.00    -0.000 C 
BRANCH  13  14
ATOM     14  C   UNL     1      -0.878  25.826  53.633  1.00  0.00    -0.000 C 
BRANCH  14  15
ATOM     15  C   UNL     1       0.221  25.002  54.323  1.00  0.00    -0.003 C 
ATOM     16  C   UNL     1       1.280  24.552  53.322  1.00  0.00     0.004 C 
ENDBRANCH  14  15
ENDBRANCH  13  14
ENDBRANCH  12  13
ENDBRANCH  11  12
ENDBRANCH  10  11
ENDBRANCH   1  10
TORSDOF 12
ENDMDL
MODEL 8
REMARK VINA RESULT:    -4.724      3.498      5.111
REMARK INTER + INTRA:          -8.831
REMARK INTER:                  -7.796
REMARK INTRA:                  -1.035
REMARK UNBOUND:                -0.794
REMARK SMILES CCCCCCCCCCCCCC(=O)[O-]
REMARK SMILES IDX 8 1 9 2 10 3 11 4 12 5 13 6 14 7 15 8 16 9 7 10 6 11 5 12
REMARK SMILES IDX 4 13 3 14 2 15 1 16
REMARK H PARENT
REMARK Flexibility Score: inf
ROOT
ATOM      1  C   UNL     1       0.504  25.861  54.891  1.00  0.00     0.000 C 
ENDROOT
BRANCH   1   2
ATOM      2  C   UNL     1      -0.945  26.321  55.110  1.00  0.00     0.000 C 
BRANCH   2   3
ATOM      3  C   UNL     1      -1.844  26.083  53.882  1.00  0.00     0.000 C 
BRANCH   3   4
ATOM      4  C   UNL     1      -3.274  26.641  54.004  1.00  0.00     0.000 C 
BRANCH   4   5
ATOM      5  C   UNL     1      -3.750  26.758  55.462  1.00  0.00     0.006 C 
BRANCH   5   6
ATOM      6  C   UNL     1      -4.601  28.014  55.693  1.00  0.00     0.053 C 
BRANCH   6   7
ATOM      7  C   UNL     1      -3.899  29.008  56.567  1.00  0.00     0.041 C 
ATOM      8  O   UNL     1      -4.538  29.642  57.447  1.00  0.00    -0.550 OA
ATOM      9  O   UNL     1      -2.532  29.215  56.426  1.00  0.00    -0.550 OA
ENDBRANCH   6   7
ENDBRANCH   5   6
ENDBRANCH   4   5
ENDBRANCH   3   4
ENDBRANCH   2   3
ENDBRANCH   1   2
BRANCH   1  10
ATOM     10  C   UNL     1       0.547  24.489  54.205  1.00  0.00     0.000 C 
BRANCH  10  11
ATOM     11  C   UNL     1       1.995  24.064  53.915  1.00  0.00    -0.000 C 
BRANCH  11  12
ATOM     12  C   UNL     1       2.966  25.254  53.892  1.00  0.00    -0.000 C 
BRANCH  12  13
ATOM     13  C   UNL     1       4.048  25.113  52.808  1.00  0.00    -0.000 C 
BRANCH  13  14
ATOM     14  C   UNL     1       3.515  24.464  51.522  1.00  0.00    -0.000 C 
BRANCH  14  15
ATOM     15  C   UNL     1       2.924  25.490  50.544  1.00  0.00    -0.003 C 
ATOM     16  C   UNL     1       1.404  25.377  50.481  1.00  0.00     0.004 C 
ENDBRANCH  14  15
ENDBRANCH  13  14
ENDBRANCH  12  13
ENDBRANCH  11  12
ENDBRANCH  10  11
ENDBRANCH   1  10
TORSDOF 12
ENDMDL
MODEL 9
REMARK VINA RESULT:    -4.704      4.630      8.809
REMARK INTER + INTRA:          -8.798
REMARK INTER:                  -8.440
REMARK INTRA:                  -0.358
REMARK UNBOUND:                -0.794
REMARK SMILES CCCCCCCCCCCCCC(=O)[O-]
REMARK SMILES IDX 8 1 9 2 10 3 11 4 12 5 13 6 14 7 15 8 16 9 7 10 6 11 5 12
REMARK SMILES IDX 4 13 3 14 2 15 1 16
REMARK H PARENT
REMARK Flexibility Score: inf
ROOT
ATOM      1  C   UNL     1      -3.582  27.449  55.990  1.00  0.00     0.000 C 
ENDROOT
BRANCH   1   2
ATOM      2  C   UNL     1      -4.092  26.820  54.685  1.00  0.00     0.000 C 
BRANCH   2   3
ATOM      3  C   UNL     1      -2.955  26.408  53.732  1.00  0.00     0.000 C 
BRANCH   3   4
ATOM      4  C   UNL     1      -1.546  26.424  54.352  1.00  0.00     0.000 C 
BRANCH   4   5
ATOM      5  C   UNL     1      -0.504  25.687  53.493  1.00  0.00     0.006 C 
BRANCH   5   6
ATOM      6  C   UNL     1       0.326  24.693  54.316  1.00  0.00     0.053 C 
BRANCH   6   7
ATOM      7  C   UNL     1       1.619  24.353  53.639  1.00  0.00     0.041 C 
ATOM      8  O   UNL     1       2.546  23.797  54.284  1.00  0.00    -0.550 OA
ATOM      9  O   UNL     1       1.788  24.627  52.287  1.00  0.00    -0.550 OA
ENDBRANCH   6   7
ENDBRANCH   5   6
ENDBRANCH   4   5
ENDBRANCH   3   4
ENDBRANCH   2   3
ENDBRANCH   1   2
BRANCH   1  10
ATOM     10  C   UNL     1      -4.469  28.625  56.418  1.00  0.00     0.000 C 
BRANCH  10  11
ATOM     11  C   UNL     1      -3.652  29.686  57.171  1.00  0.00    -0.000 C 
BRANCH  11  12
ATOM     12  C   UNL     1      -4.348  30.164  58.455  1.00  0.00    -0.000 C 
BRANCH  12  13
ATOM     13  C   UNL     1      -3.878  31.561  58.897  1.00  0.00    -0.000 C 
BRANCH  13  14
ATOM     14  C   UNL     1      -3.896  31.734  60.423  1.00  0.00    -0.000 C 
BRANCH  14  15
ATOM     15  C   UNL     1      -2.785  32.670  60.925  1.00  0.00    -0.003 C 
ATOM     16  C   UNL     1      -2.698  32.652  62.448  1.00  0.00     0.004 C 
ENDBRANCH  14  15
ENDBRANCH  13  14
ENDBRANCH  12  13
ENDBRANCH  11  12
ENDBRANCH  10  11
ENDBRANCH   1  10
TORSDOF 12
ENDMDL
