MODEL 1
REMARK VINA RESULT:    -3.960      0.000      0.000
REMARK INTER + INTRA:          -3.960
REMARK INTER:                  -3.960
REMARK INTRA:                   0.000
REMARK UNBOUND:                 0.000
REMARK SMILES CC1=CC[C@@H]2C[C@H]1C2(C)C
REMARK SMILES IDX 1 1 2 2 3 3 4 4 5 5 6 6 7 7 8 8 9 9 10 10
REMARK H PARENT
REMARK Flexibility Score: inf
ROOT
ATOM      1  C   UNL     1     144.989 140.571 133.406  1.00  0.00     0.039 C 
ATOM      2  C   UNL     1     143.937 139.531 133.161  1.00  0.00    -0.074 C 
ATOM      3  C   UNL     1     143.290 138.916 134.195  1.00  0.00    -0.027 C 
ATOM      4  C   UNL     1     142.198 137.877 133.873  1.00  0.00     0.031 C 
ATOM      5  C   UNL     1     142.073 137.691 132.320  1.00  0.00    -0.000 C 
ATOM      6  C   UNL     1     143.518 137.549 131.798  1.00  0.00     0.013 C 
ATOM      7  C   UNL     1     143.550 139.089 131.743  1.00  0.00     0.021 C 
ATOM      8  C   UNL     1     142.003 139.074 131.614  1.00  0.00    -0.026 C 
ATOM      9  C   UNL     1     141.537 138.957 130.142  1.00  0.00     0.012 C 
ATOM     10  C   UNL     1     141.195 140.216 132.292  1.00  0.00     0.012 C 
ENDROOT
TORSDOF 0
ENDMDL
MODEL 2
REMARK VINA RESULT:    -3.938      3.164      4.418
REMARK INTER + INTRA:          -3.938
REMARK INTER:                  -3.938
REMARK INTRA:                   0.000
REMARK UNBOUND:                 0.000
REMARK SMILES CC1=CC[C@@H]2C[C@H]1C2(C)C
REMARK SMILES IDX 1 1 2 2 3 3 4 4 5 5 6 6 7 7 8 8 9 9 10 10
REMARK H PARENT
REMARK Flexibility Score: inf
ROOT
ATOM      1  C   UNL     1     140.666 137.217 133.298  1.00  0.00     0.039 C 
ATOM      2  C   UNL     1     139.587 138.240 133.105  1.00  0.00    -0.074 C 
ATOM      3  C   UNL     1     138.961 138.823 134.169  1.00  0.00    -0.027 C 
ATOM      4  C   UNL     1     137.880 139.889 133.899  1.00  0.00     0.031 C 
ATOM      5  C   UNL     1     137.674 140.069 132.354  1.00  0.00    -0.000 C 
ATOM      6  C   UNL     1     137.578 138.641 131.777  1.00  0.00     0.013 C 
ATOM      7  C   UNL     1     139.118 138.667 131.706  1.00  0.00     0.021 C 
ATOM      8  C   UNL     1     139.047 140.216 131.640  1.00  0.00    -0.026 C 
ATOM      9  C   UNL     1     138.899 140.736 130.189  1.00  0.00     0.012 C 
ATOM     10  C   UNL     1     140.166 141.037 132.341  1.00  0.00     0.012 C 
ENDROOT
TORSDOF 0
ENDMDL
MODEL 3
REMARK VINA RESULT:    -3.934      3.957      6.227
REMARK INTER + INTRA:          -3.934
REMARK INTER:                  -3.934
REMARK INTRA:                   0.000
REMARK UNBOUND:                 0.000
REMARK SMILES CC1=CC[C@@H]2C[C@H]1C2(C)C
REMARK SMILES IDX 1 1 2 2 3 3 4 4 5 5 6 6 7 7 8 8 9 9 10 10
REMARK H PARENT
REMARK Flexibility Score: inf
ROOT
ATOM      1  C   UNL     1     137.165 141.549 133.467  1.00  0.00     0.039 C 
ATOM      2  C   UNL     1     138.230 142.587 133.276  1.00  0.00    -0.074 C 
ATOM      3  C   UNL     1     138.808 143.218 134.339  1.00  0.00    -0.027 C 
ATOM      4  C   UNL     1     139.919 144.254 134.073  1.00  0.00     0.031 C 
ATOM      5  C   UNL     1     140.144 144.415 132.529  1.00  0.00    -0.000 C 
ATOM      6  C   UNL     1     138.736 144.547 131.912  1.00  0.00     0.013 C 
ATOM      7  C   UNL     1     138.709 143.006 131.878  1.00  0.00     0.021 C 
ATOM      8  C   UNL     1     140.261 143.021 131.851  1.00  0.00    -0.026 C 
ATOM      9  C   UNL     1     140.822 143.116 130.411  1.00  0.00     0.012 C 
ATOM     10  C   UNL     1     141.023 141.892 132.599  1.00  0.00     0.012 C 
ENDROOT
TORSDOF 0
ENDMDL
MODEL 4
REMARK VINA RESULT:    -3.931      3.173      4.427
REMARK INTER + INTRA:          -3.931
REMARK INTER:                  -3.931
REMARK INTRA:                   0.000
REMARK UNBOUND:                 0.000
REMARK SMILES CC1=CC[C@@H]2C[C@H]1C2(C)C
REMARK SMILES IDX 1 1 2 2 3 3 4 4 5 5 6 6 7 7 8 8 9 9 10 10
REMARK H PARENT
REMARK Flexibility Score: inf
ROOT
ATOM      1  C   UNL     1     141.549 145.016 133.484  1.00  0.00     0.039 C 
ATOM      2  C   UNL     1     142.590 143.957 133.279  1.00  0.00    -0.074 C 
ATOM      3  C   UNL     1     143.232 143.376 134.334  1.00  0.00    -0.027 C 
ATOM      4  C   UNL     1     144.270 142.271 134.054  1.00  0.00     0.031 C 
ATOM      5  C   UNL     1     144.419 142.053 132.507  1.00  0.00    -0.000 C 
ATOM      6  C   UNL     1     144.541 143.464 131.896  1.00  0.00     0.013 C 
ATOM      7  C   UNL     1     142.999 143.485 131.876  1.00  0.00     0.021 C 
ATOM      8  C   UNL     1     143.020 141.934 131.841  1.00  0.00    -0.026 C 
ATOM      9  C   UNL     1     143.105 141.379 130.398  1.00  0.00     0.012 C 
ATOM     10  C   UNL     1     141.900 141.163 132.595  1.00  0.00     0.012 C 
ENDROOT
TORSDOF 0
ENDMDL
MODEL 5
REMARK VINA RESULT:    -3.920      3.926      5.775
REMARK INTER + INTRA:          -3.920
REMARK INTER:                  -3.920
REMARK INTRA:                   0.000
REMARK UNBOUND:                 0.000
REMARK SMILES CC1=CC[C@@H]2C[C@H]1C2(C)C
REMARK SMILES IDX 1 1 2 2 3 3 4 4 5 5 6 6 7 7 8 8 9 9 10 10
REMARK H PARENT
REMARK Flexibility Score: inf
ROOT
ATOM      1  C   UNL     1     137.704 138.754 131.638  1.00  0.00     0.039 C 
ATOM      2  C   UNL     1     137.958 139.639 132.820  1.00  0.00    -0.074 C 
ATOM      3  C   UNL     1     138.370 139.127 134.017  1.00  0.00    -0.027 C 
ATOM      4  C   UNL     1     138.641 140.097 135.185  1.00  0.00     0.031 C 
ATOM      5  C   UNL     1     138.327 141.570 134.745  1.00  0.00    -0.000 C 
ATOM      6  C   UNL     1     136.960 141.510 134.030  1.00  0.00     0.013 C 
ATOM      7  C   UNL     1     137.749 141.159 132.753  1.00  0.00     0.021 C 
ATOM      8  C   UNL     1     138.982 141.874 133.368  1.00  0.00    -0.026 C 
ATOM      9  C   UNL     1     139.000 143.390 133.051  1.00  0.00     0.012 C 
ATOM     10  C   UNL     1     140.394 141.296 133.072  1.00  0.00     0.012 C 
ENDROOT
TORSDOF 0
ENDMDL
MODEL 6
REMARK VINA RESULT:    -3.900      2.576      4.469
REMARK INTER + INTRA:          -3.900
REMARK INTER:                  -3.900
REMARK INTRA:                   0.000
REMARK UNBOUND:                 0.000
REMARK SMILES CC1=CC[C@@H]2C[C@H]1C2(C)C
REMARK SMILES IDX 1 1 2 2 3 3 4 4 5 5 6 6 7 7 8 8 9 9 10 10
REMARK H PARENT
REMARK Flexibility Score: inf
ROOT
ATOM      1  C   UNL     1     142.857 143.628 135.286  1.00  0.00     0.039 C 
ATOM      2  C   UNL     1     143.382 142.293 134.849  1.00  0.00    -0.074 C 
ATOM      3  C   UNL     1     144.414 142.190 133.962  1.00  0.00    -0.027 C 
ATOM      4  C   UNL     1     144.925 140.787 133.578  1.00  0.00     0.031 C 
ATOM      5  C   UNL     1     144.070 139.687 134.300  1.00  0.00    -0.000 C 
ATOM      6  C   UNL     1     142.598 140.105 134.102  1.00  0.00     0.013 C 
ATOM      7  C   UNL     1     142.775 140.978 135.361  1.00  0.00     0.021 C 
ATOM      8  C   UNL     1     143.916 140.027 135.809  1.00  0.00    -0.026 C 
ATOM      9  C   UNL     1     143.389 138.823 136.629  1.00  0.00     0.012 C 
ATOM     10  C   UNL     1     145.132 140.636 136.563  1.00  0.00     0.012 C 
ENDROOT
TORSDOF 0
ENDMDL
MODEL 7
REMARK VINA RESULT:    -3.881      4.154      6.157
REMARK INTER + INTRA:          -3.881
REMARK INTER:                  -3.881
REMARK INTRA:                   0.000
REMARK UNBOUND:                 0.000
REMARK SMILES CC1=CC[C@@H]2C[C@H]1C2(C)C
REMARK SMILES IDX 1 1 2 2 3 3 4 4 5 5 6 6 7 7 8 8 9 9 10 10
REMARK H PARENT
REMARK Flexibility Score: inf
ROOT
ATOM      1  C   UNL     1     138.762 144.478 131.690  1.00  0.00     0.039 C 
ATOM      2  C   UNL     1     139.596 144.175 132.898  1.00  0.00    -0.074 C 
ATOM      3  C   UNL     1     139.043 143.650 134.031  1.00  0.00    -0.027 C 
ATOM      4  C   UNL     1     139.963 143.334 135.227  1.00  0.00     0.031 C 
ATOM      5  C   UNL     1     141.439 143.749 134.894  1.00  0.00    -0.000 C 
ATOM      6  C   UNL     1     141.349 145.162 134.281  1.00  0.00     0.013 C 
ATOM      7  C   UNL     1     141.105 144.458 132.931  1.00  0.00     0.021 C 
ATOM      8  C   UNL     1     141.847 143.216 133.492  1.00  0.00    -0.026 C 
ATOM      9  C   UNL     1     143.376 143.291 133.260  1.00  0.00     0.012 C 
ATOM     10  C   UNL     1     141.357 141.805 133.060  1.00  0.00     0.012 C 
ENDROOT
TORSDOF 0
ENDMDL
MODEL 8
REMARK VINA RESULT:    -3.879      1.755      3.496
REMARK INTER + INTRA:          -3.879
REMARK INTER:                  -3.879
REMARK INTRA:                   0.000
REMARK UNBOUND:                 0.000
REMARK SMILES CC1=CC[C@@H]2C[C@H]1C2(C)C
REMARK SMILES IDX 1 1 2 2 3 3 4 4 5 5 6 6 7 7 8 8 9 9 10 10
REMARK H PARENT
REMARK Flexibility Score: inf
ROOT
ATOM      1  C   UNL     1     143.581 138.861 136.511  1.00  0.00     0.039 C 
ATOM      2  C   UNL     1     143.678 139.440 135.132  1.00  0.00    -0.074 C 
ATOM      3  C   UNL     1     143.259 138.743 134.036  1.00  0.00    -0.027 C 
ATOM      4  C   UNL     1     143.359 139.410 132.650  1.00  0.00     0.031 C 
ATOM      5  C   UNL     1     144.005 140.833 132.783  1.00  0.00    -0.000 C 
ATOM      6  C   UNL     1     145.237 140.649 133.694  1.00  0.00     0.013 C 
ATOM      7  C   UNL     1     144.269 140.835 134.880  1.00  0.00     0.021 C 
ATOM      8  C   UNL     1     143.328 141.628 133.934  1.00  0.00    -0.026 C 
ATOM      9  C   UNL     1     143.677 143.136 133.888  1.00  0.00     0.012 C 
ATOM     10  C   UNL     1     141.793 141.488 134.133  1.00  0.00     0.012 C 
ENDROOT
TORSDOF 0
ENDMDL
MODEL 9
REMARK VINA RESULT:    -3.874      2.008      3.532
REMARK INTER + INTRA:          -3.874
REMARK INTER:                  -3.874
REMARK INTRA:                   0.000
REMARK UNBOUND:                 0.000
REMARK SMILES CC1=CC[C@@H]2C[C@H]1C2(C)C
REMARK SMILES IDX 1 1 2 2 3 3 4 4 5 5 6 6 7 7 8 8 9 9 10 10
REMARK H PARENT
REMARK Flexibility Score: inf
ROOT
ATOM      1  C   UNL     1     144.749 143.241 131.463  1.00  0.00     0.039 C 
ATOM      2  C   UNL     1     144.344 142.501 132.701  1.00  0.00    -0.074 C 
ATOM      3  C   UNL     1     143.779 143.146 133.764  1.00  0.00    -0.027 C 
ATOM      4  C   UNL     1     143.358 142.319 134.995  1.00  0.00     0.031 C 
ATOM      5  C   UNL     1     143.728 140.810 134.782  1.00  0.00    -0.000 C 
ATOM      6  C   UNL     1     145.176 140.806 134.249  1.00  0.00     0.013 C 
ATOM      7  C   UNL     1     144.560 140.988 132.847  1.00  0.00     0.021 C 
ATOM      8  C   UNL     1     143.259 140.332 133.379  1.00  0.00    -0.026 C 
ATOM      9  C   UNL     1     143.282 138.789 133.249  1.00  0.00     0.012 C 
ATOM     10  C   UNL     1     141.896 140.847 132.835  1.00  0.00     0.012 C 
ENDROOT
TORSDOF 0
ENDMDL
