MODEL 1
REMARK VINA RESULT:    -4.954      0.000      0.000
REMARK INTER + INTRA:         -11.441
REMARK INTER:                  -9.008
REMARK INTRA:                  -2.433
REMARK UNBOUND:                -2.433
REMARK SMILES CCCCCC=CCC=CCCCCCCCC(=O)[O-]
REMARK SMILES IDX 11 1 12 2 13 3 14 4 15 5 16 6 17 7 18 8 19 9 20 10 10 11
REMARK SMILES IDX 9 12 8 13 7 14 6 15 5 16 4 17 3 18 2 19 1 20
REMARK H PARENT
REMARK Flexibility Score: inf
ROOT
ATOM      1  C   UNL     1     -10.535  38.444   5.880  1.00  0.00     0.027 C 
ENDROOT
BRANCH   1   2
ATOM      2  C   UNL     1      -9.188  38.815   6.528  1.00  0.00     0.004 C 
BRANCH   2   3
ATOM      3  C   UNL     1      -8.013  37.943   6.049  1.00  0.00     0.000 C 
BRANCH   3   4
ATOM      4  C   UNL     1      -8.468  36.629   5.393  1.00  0.00     0.000 C 
BRANCH   4   5
ATOM      5  C   UNL     1      -8.573  35.472   6.399  1.00  0.00     0.000 C 
BRANCH   5   6
ATOM      6  C   UNL     1      -9.020  34.157   5.738  1.00  0.00     0.006 C 
BRANCH   6   7
ATOM      7  C   UNL     1      -8.594  32.925   6.548  1.00  0.00     0.053 C 
BRANCH   7   8
ATOM      8  C   UNL     1      -7.376  32.270   5.975  1.00  0.00     0.041 C 
ATOM      9  O   UNL     1      -7.470  31.168   5.372  1.00  0.00    -0.550 OA
ATOM     10  O   UNL     1      -6.132  32.872   6.117  1.00  0.00    -0.550 OA
ENDBRANCH   7   8
ENDBRANCH   6   7
ENDBRANCH   5   6
ENDBRANCH   4   5
ENDBRANCH   3   4
ENDBRANCH   2   3
ENDBRANCH   1   2
BRANCH   1  11
ATOM     11  C   UNL     1     -11.364  39.659   5.533  1.00  0.00    -0.031 C 
ATOM     12  C   UNL     1     -12.435  40.053   6.243  1.00  0.00    -0.027 C 
BRANCH  12  13
ATOM     13  C   UNL     1     -12.945  39.351   7.476  1.00  0.00     0.054 C 
BRANCH  13  14
ATOM     14  C   UNL     1     -12.388  39.959   8.739  1.00  0.00    -0.027 C 
ATOM     15  C   UNL     1     -12.051  39.267   9.842  1.00  0.00    -0.031 C 
BRANCH  15  16
ATOM     16  C   UNL     1     -12.118  37.767   9.962  1.00  0.00     0.027 C 
BRANCH  16  17
ATOM     17  C   UNL     1     -10.793  37.130   9.521  1.00  0.00     0.004 C 
BRANCH  17  18
ATOM     18  C   UNL     1     -10.995  35.755   8.867  1.00  0.00     0.000 C 
BRANCH  18  19
ATOM     19  C   UNL     1     -12.078  35.777   7.779  1.00  0.00    -0.003 C 
ATOM     20  C   UNL     1     -12.600  34.371   7.494  1.00  0.00     0.004 C 
ENDBRANCH  18  19
ENDBRANCH  17  18
ENDBRANCH  16  17
ENDBRANCH  15  16
ENDBRANCH  13  14
ENDBRANCH  12  13
ENDBRANCH   1  11
TORSDOF 14
ENDMDL
MODEL 2
REMARK VINA RESULT:    -4.769     13.934     16.254
REMARK INTER + INTRA:         -11.106
REMARK INTER:                  -8.506
REMARK INTRA:                  -2.599
REMARK UNBOUND:                -2.433
REMARK SMILES CCCCCC=CCC=CCCCCCCCC(=O)[O-]
REMARK SMILES IDX 11 1 12 2 13 3 14 4 15 5 16 6 17 7 18 8 19 9 20 10 10 11
REMARK SMILES IDX 9 12 8 13 7 14 6 15 5 16 4 17 3 18 2 19 1 20
REMARK H PARENT
REMARK Flexibility Score: inf
ROOT
ATOM      1  C   UNL     1       0.221  42.596   2.014  1.00  0.00     0.027 C 
ENDROOT
BRANCH   1   2
ATOM      2  C   UNL     1       1.622  42.614   2.653  1.00  0.00     0.004 C 
BRANCH   2   3
ATOM      3  C   UNL     1       2.446  41.345   2.369  1.00  0.00     0.000 C 
BRANCH   3   4
ATOM      4  C   UNL     1       3.920  41.646   2.048  1.00  0.00     0.000 C 
BRANCH   4   5
ATOM      5  C   UNL     1       4.808  40.394   2.123  1.00  0.00     0.000 C 
BRANCH   5   6
ATOM      6  C   UNL     1       6.182  40.608   1.464  1.00  0.00     0.006 C 
BRANCH   6   7
ATOM      7  C   UNL     1       6.062  41.088   0.011  1.00  0.00     0.053 C 
BRANCH   7   8
ATOM      8  C   UNL     1       6.354  39.992  -0.967  1.00  0.00     0.041 C 
ATOM      9  O   UNL     1       6.959  38.952  -0.595  1.00  0.00    -0.550 OA
ATOM     10  O   UNL     1       5.968  40.126  -2.295  1.00  0.00    -0.550 OA
ENDBRANCH   7   8
ENDBRANCH   6   7
ENDBRANCH   5   6
ENDBRANCH   4   5
ENDBRANCH   3   4
ENDBRANCH   2   3
ENDBRANCH   1   2
BRANCH   1  11
ATOM     11  C   UNL     1       0.179  41.786   0.738  1.00  0.00    -0.031 C 
ATOM     12  C   UNL     1      -0.415  42.211  -0.390  1.00  0.00    -0.027 C 
BRANCH  12  13
ATOM     13  C   UNL     1      -1.105  43.544  -0.540  1.00  0.00     0.054 C 
BRANCH  13  14
ATOM     14  C   UNL     1      -0.604  44.303  -1.743  1.00  0.00    -0.027 C 
ATOM     15  C   UNL     1       0.012  45.498  -1.696  1.00  0.00    -0.031 C 
BRANCH  15  16
ATOM     16  C   UNL     1       0.355  46.232  -0.426  1.00  0.00     0.027 C 
BRANCH  16  17
ATOM     17  C   UNL     1       1.877  46.311  -0.241  1.00  0.00     0.004 C 
BRANCH  17  18
ATOM     18  C   UNL     1       2.466  45.006   0.314  1.00  0.00     0.000 C 
BRANCH  18  19
ATOM     19  C   UNL     1       3.503  44.382  -0.632  1.00  0.00    -0.003 C 
ATOM     20  C   UNL     1       2.998  43.062  -1.207  1.00  0.00     0.004 C 
ENDBRANCH  18  19
ENDBRANCH  17  18
ENDBRANCH  16  17
ENDBRANCH  15  16
ENDBRANCH  13  14
ENDBRANCH  12  13
ENDBRANCH   1  11
TORSDOF 14
ENDMDL
MODEL 3
REMARK VINA RESULT:    -4.738      1.513      3.175
REMARK INTER + INTRA:         -11.048
REMARK INTER:                  -9.795
REMARK INTRA:                  -1.253
REMARK UNBOUND:                -2.433
REMARK SMILES CCCCCC=CCC=CCCCCCCCC(=O)[O-]
REMARK SMILES IDX 11 1 12 2 13 3 14 4 15 5 16 6 17 7 18 8 19 9 20 10 10 11
REMARK SMILES IDX 9 12 8 13 7 14 6 15 5 16 4 17 3 18 2 19 1 20
REMARK H PARENT
REMARK Flexibility Score: inf
ROOT
ATOM      1  C   UNL     1      -8.576  36.703   5.353  1.00  0.00     0.027 C 
ENDROOT
BRANCH   1   2
ATOM      2  C   UNL     1      -9.647  35.731   5.882  1.00  0.00     0.004 C 
BRANCH   2   3
ATOM      3  C   UNL     1      -9.066  34.427   6.459  1.00  0.00     0.000 C 
BRANCH   3   4
ATOM      4  C   UNL     1      -7.774  33.982   5.753  1.00  0.00     0.000 C 
BRANCH   4   5
ATOM      5  C   UNL     1      -7.745  32.472   5.471  1.00  0.00     0.000 C 
BRANCH   5   6
ATOM      6  C   UNL     1      -6.983  31.687   6.552  1.00  0.00     0.006 C 
BRANCH   6   7
ATOM      7  C   UNL     1      -5.476  31.972   6.524  1.00  0.00     0.053 C 
BRANCH   7   8
ATOM      8  C   UNL     1      -4.665  30.715   6.591  1.00  0.00     0.041 C 
ATOM      9  O   UNL     1      -3.723  30.609   7.420  1.00  0.00    -0.550 OA
ATOM     10  O   UNL     1      -4.944  29.662   5.728  1.00  0.00    -0.550 OA
ENDBRANCH   7   8
ENDBRANCH   6   7
ENDBRANCH   5   6
ENDBRANCH   4   5
ENDBRANCH   3   4
ENDBRANCH   2   3
ENDBRANCH   1   2
BRANCH   1  11
ATOM     11  C   UNL     1      -8.499  37.976   6.165  1.00  0.00    -0.031 C 
ATOM     12  C   UNL     1      -9.489  38.884   6.215  1.00  0.00    -0.027 C 
BRANCH  12  13
ATOM     13  C   UNL     1     -10.801  38.756   5.483  1.00  0.00     0.054 C 
BRANCH  13  14
ATOM     14  C   UNL     1     -11.697  39.944   5.725  1.00  0.00    -0.027 C 
ATOM     15  C   UNL     1     -12.622  40.025   6.698  1.00  0.00    -0.031 C 
BRANCH  15  16
ATOM     16  C   UNL     1     -12.860  38.963   7.740  1.00  0.00     0.027 C 
BRANCH  16  17
ATOM     17  C   UNL     1     -11.966  39.198   8.965  1.00  0.00     0.004 C 
BRANCH  17  18
ATOM     18  C   UNL     1     -12.230  38.181  10.085  1.00  0.00     0.000 C 
BRANCH  18  19
ATOM     19  C   UNL     1     -11.851  36.750   9.678  1.00  0.00    -0.003 C 
ATOM     20  C   UNL     1     -10.386  36.667   9.257  1.00  0.00     0.004 C 
ENDBRANCH  18  19
ENDBRANCH  17  18
ENDBRANCH  16  17
ENDBRANCH  15  16
ENDBRANCH  13  14
ENDBRANCH  12  13
ENDBRANCH   1  11
TORSDOF 14
ENDMDL
MODEL 4
REMARK VINA RESULT:    -4.728      4.358      9.336
REMARK INTER + INTRA:         -11.030
REMARK INTER:                  -9.746
REMARK INTRA:                  -1.284
REMARK UNBOUND:                -2.433
REMARK SMILES CCCCCC=CCC=CCCCCCCCC(=O)[O-]
REMARK SMILES IDX 11 1 12 2 13 3 14 4 15 5 16 6 17 7 18 8 19 9 20 10 10 11
REMARK SMILES IDX 9 12 8 13 7 14 6 15 5 16 4 17 3 18 2 19 1 20
REMARK H PARENT
REMARK Flexibility Score: inf
ROOT
ATOM      1  C   UNL     1      -7.285  31.849   6.775  1.00  0.00     0.027 C 
ENDROOT
BRANCH   1   2
ATOM      2  C   UNL     1      -6.806  33.116   6.042  1.00  0.00     0.004 C 
BRANCH   2   3
ATOM      3  C   UNL     1      -7.884  33.758   5.151  1.00  0.00     0.000 C 
BRANCH   3   4
ATOM      4  C   UNL     1      -8.124  35.243   5.474  1.00  0.00     0.000 C 
BRANCH   4   5
ATOM      5  C   UNL     1      -9.515  35.499   6.076  1.00  0.00     0.000 C 
BRANCH   5   6
ATOM      6  C   UNL     1      -9.450  36.325   7.372  1.00  0.00     0.006 C 
BRANCH   6   7
ATOM      7  C   UNL     1     -10.297  37.602   7.291  1.00  0.00     0.053 C 
BRANCH   7   8
ATOM      8  C   UNL     1      -9.714  38.603   6.342  1.00  0.00     0.041 C 
ATOM      9  O   UNL     1      -8.483  38.868   6.375  1.00  0.00    -0.550 OA
ATOM     10  O   UNL     1     -10.534  39.251   5.427  1.00  0.00    -0.550 OA
ENDBRANCH   7   8
ENDBRANCH   6   7
ENDBRANCH   5   6
ENDBRANCH   4   5
ENDBRANCH   3   4
ENDBRANCH   2   3
ENDBRANCH   1   2
BRANCH   1  11
ATOM     11  C   UNL     1      -8.419  31.158   6.053  1.00  0.00    -0.031 C 
ATOM     12  C   UNL     1      -8.417  29.848   5.750  1.00  0.00    -0.027 C 
BRANCH  12  13
ATOM     13  C   UNL     1      -7.299  28.897   6.095  1.00  0.00     0.054 C 
BRANCH  13  14
ATOM     14  C   UNL     1      -6.286  28.795   4.983  1.00  0.00    -0.027 C 
ATOM     15  C   UNL     1      -4.986  29.123   5.094  1.00  0.00    -0.031 C 
BRANCH  15  16
ATOM     16  C   UNL     1      -4.327  29.581   6.369  1.00  0.00     0.027 C 
BRANCH  16  17
ATOM     17  C   UNL     1      -3.120  28.694   6.703  1.00  0.00     0.004 C 
BRANCH  17  18
ATOM     18  C   UNL     1      -2.819  28.658   8.208  1.00  0.00     0.000 C 
BRANCH  18  19
ATOM     19  C   UNL     1      -2.158  27.341   8.643  1.00  0.00    -0.003 C 
ATOM     20  C   UNL     1      -2.318  27.114  10.143  1.00  0.00     0.004 C 
ENDBRANCH  18  19
ENDBRANCH  17  18
ENDBRANCH  16  17
ENDBRANCH  15  16
ENDBRANCH  13  14
ENDBRANCH  12  13
ENDBRANCH   1  11
TORSDOF 14
ENDMDL
MODEL 5
REMARK VINA RESULT:    -4.690      1.335      2.756
REMARK INTER + INTRA:         -10.961
REMARK INTER:                  -8.498
REMARK INTRA:                  -2.464
REMARK UNBOUND:                -2.433
REMARK SMILES CCCCCC=CCC=CCCCCCCCC(=O)[O-]
REMARK SMILES IDX 11 1 12 2 13 3 14 4 15 5 16 6 17 7 18 8 19 9 20 10 10 11
REMARK SMILES IDX 9 12 8 13 7 14 6 15 5 16 4 17 3 18 2 19 1 20
REMARK H PARENT
REMARK Flexibility Score: inf
ROOT
ATOM      1  C   UNL     1     -12.642  39.523   7.049  1.00  0.00     0.027 C 
ENDROOT
BRANCH   1   2
ATOM      2  C   UNL     1     -11.592  39.591   5.924  1.00  0.00     0.004 C 
BRANCH   2   3
ATOM      3  C   UNL     1     -10.294  38.829   6.245  1.00  0.00     0.000 C 
BRANCH   3   4
ATOM      4  C   UNL     1     -10.130  37.545   5.415  1.00  0.00     0.000 C 
BRANCH   4   5
ATOM      5  C   UNL     1      -8.737  36.914   5.569  1.00  0.00     0.000 C 
BRANCH   5   6
ATOM      6  C   UNL     1      -8.785  35.550   6.278  1.00  0.00     0.006 C 
BRANCH   6   7
ATOM      7  C   UNL     1      -8.852  34.382   5.286  1.00  0.00     0.053 C 
BRANCH   7   8
ATOM      8  C   UNL     1      -7.713  33.426   5.466  1.00  0.00     0.041 C 
ATOM      9  O   UNL     1      -6.556  33.856   5.720  1.00  0.00    -0.550 OA
ATOM     10  O   UNL     1      -7.927  32.059   5.343  1.00  0.00    -0.550 OA
ENDBRANCH   7   8
ENDBRANCH   6   7
ENDBRANCH   5   6
ENDBRANCH   4   5
ENDBRANCH   3   4
ENDBRANCH   2   3
ENDBRANCH   1   2
BRANCH   1  11
ATOM     11  C   UNL     1     -12.195  40.245   8.300  1.00  0.00    -0.031 C 
ATOM     12  C   UNL     1     -12.076  39.648   9.498  1.00  0.00    -0.027 C 
BRANCH  12  13
ATOM     13  C   UNL     1     -12.358  38.189   9.754  1.00  0.00     0.054 C 
BRANCH  13  14
ATOM     14  C   UNL     1     -11.116  37.345   9.618  1.00  0.00    -0.027 C 
ATOM     15  C   UNL     1     -11.021  36.232   8.868  1.00  0.00    -0.031 C 
BRANCH  15  16
ATOM     16  C   UNL     1     -12.124  35.694   7.995  1.00  0.00     0.027 C 
BRANCH  16  17
ATOM     17  C   UNL     1     -11.939  34.189   7.755  1.00  0.00     0.004 C 
BRANCH  17  18
ATOM     18  C   UNL     1     -10.834  33.588   8.635  1.00  0.00     0.000 C 
BRANCH  18  19
ATOM     19  C   UNL     1     -11.387  32.621   9.692  1.00  0.00    -0.003 C 
ATOM     20  C   UNL     1     -10.769  32.890  11.061  1.00  0.00     0.004 C 
ENDBRANCH  18  19
ENDBRANCH  17  18
ENDBRANCH  16  17
ENDBRANCH  15  16
ENDBRANCH  13  14
ENDBRANCH  12  13
ENDBRANCH   1  11
TORSDOF 14
ENDMDL
MODEL 6
REMARK VINA RESULT:    -4.631      1.372      2.844
REMARK INTER + INTRA:         -10.854
REMARK INTER:                  -9.036
REMARK INTRA:                  -1.817
REMARK UNBOUND:                -2.433
REMARK SMILES CCCCCC=CCC=CCCCCCCCC(=O)[O-]
REMARK SMILES IDX 11 1 12 2 13 3 14 4 15 5 16 6 17 7 18 8 19 9 20 10 10 11
REMARK SMILES IDX 9 12 8 13 7 14 6 15 5 16 4 17 3 18 2 19 1 20
REMARK H PARENT
REMARK Flexibility Score: inf
ROOT
ATOM      1  C   UNL     1      -8.496  36.594   5.500  1.00  0.00     0.027 C 
ENDROOT
BRANCH   1   2
ATOM      2  C   UNL     1      -8.924  35.515   6.512  1.00  0.00     0.004 C 
BRANCH   2   3
ATOM      3  C   UNL     1      -9.382  34.200   5.855  1.00  0.00     0.000 C 
BRANCH   3   4
ATOM      4  C   UNL     1      -8.259  33.497   5.073  1.00  0.00     0.000 C 
BRANCH   4   5
ATOM      5  C   UNL     1      -6.968  33.353   5.895  1.00  0.00     0.000 C 
BRANCH   5   6
ATOM      6  C   UNL     1      -6.677  31.892   6.280  1.00  0.00     0.006 C 
BRANCH   6   7
ATOM      7  C   UNL     1      -7.952  31.040   6.330  1.00  0.00     0.053 C 
BRANCH   7   8
ATOM      8  C   UNL     1      -7.790  29.745   5.594  1.00  0.00     0.041 C 
ATOM      9  O   UNL     1      -7.657  29.738   4.341  1.00  0.00    -0.550 OA
ATOM     10  O   UNL     1      -7.797  28.544   6.292  1.00  0.00    -0.550 OA
ENDBRANCH   7   8
ENDBRANCH   6   7
ENDBRANCH   5   6
ENDBRANCH   4   5
ENDBRANCH   3   4
ENDBRANCH   2   3
ENDBRANCH   1   2
BRANCH   1  11
ATOM     11  C   UNL     1      -8.304  37.948   6.144  1.00  0.00    -0.031 C 
ATOM     12  C   UNL     1      -9.245  38.907   6.147  1.00  0.00    -0.027 C 
BRANCH  12  13
ATOM     13  C   UNL     1     -10.611  38.763   5.524  1.00  0.00     0.054 C 
BRANCH  13  14
ATOM     14  C   UNL     1     -11.613  39.704   6.145  1.00  0.00    -0.027 C 
ATOM     15  C   UNL     1     -12.421  39.396   7.176  1.00  0.00    -0.031 C 
BRANCH  15  16
ATOM     16  C   UNL     1     -12.402  38.082   7.913  1.00  0.00     0.027 C 
BRANCH  16  17
ATOM     17  C   UNL     1     -11.439  38.144   9.106  1.00  0.00     0.004 C 
BRANCH  17  18
ATOM     18  C   UNL     1     -10.781  36.788   9.399  1.00  0.00     0.000 C 
BRANCH  18  19
ATOM     19  C   UNL     1     -11.695  35.605   9.045  1.00  0.00    -0.003 C 
ATOM     20  C   UNL     1     -11.018  34.274   9.358  1.00  0.00     0.004 C 
ENDBRANCH  18  19
ENDBRANCH  17  18
ENDBRANCH  16  17
ENDBRANCH  15  16
ENDBRANCH  13  14
ENDBRANCH  12  13
ENDBRANCH   1  11
TORSDOF 14
ENDMDL
MODEL 7
REMARK VINA RESULT:    -4.602      2.660      4.410
REMARK INTER + INTRA:         -10.801
REMARK INTER:                  -9.262
REMARK INTRA:                  -1.539
REMARK UNBOUND:                -2.433
REMARK SMILES CCCCCC=CCC=CCCCCCCCC(=O)[O-]
REMARK SMILES IDX 11 1 12 2 13 3 14 4 15 5 16 6 17 7 18 8 19 9 20 10 10 11
REMARK SMILES IDX 9 12 8 13 7 14 6 15 5 16 4 17 3 18 2 19 1 20
REMARK H PARENT
REMARK Flexibility Score: inf
ROOT
ATOM      1  C   UNL     1      -9.077  34.624   5.531  1.00  0.00     0.027 C 
ENDROOT
BRANCH   1   2
ATOM      2  C   UNL     1      -8.566  33.416   6.338  1.00  0.00     0.004 C 
BRANCH   2   3
ATOM      3  C   UNL     1      -7.172  32.929   5.903  1.00  0.00     0.000 C 
BRANCH   3   4
ATOM      4  C   UNL     1      -6.576  31.883   6.860  1.00  0.00     0.000 C 
BRANCH   4   5
ATOM      5  C   UNL     1      -5.211  31.358   6.386  1.00  0.00     0.000 C 
BRANCH   5   6
ATOM      6  C   UNL     1      -5.261  29.876   5.976  1.00  0.00     0.006 C 
BRANCH   6   7
ATOM      7  C   UNL     1      -3.865  29.245   5.905  1.00  0.00     0.053 C 
BRANCH   7   8
ATOM      8  C   UNL     1      -3.523  28.496   7.156  1.00  0.00     0.041 C 
ATOM      9  O   UNL     1      -4.046  27.373   7.387  1.00  0.00    -0.550 OA
ATOM     10  O   UNL     1      -2.633  29.043   8.071  1.00  0.00    -0.550 OA
ENDBRANCH   7   8
ENDBRANCH   6   7
ENDBRANCH   5   6
ENDBRANCH   4   5
ENDBRANCH   3   4
ENDBRANCH   2   3
ENDBRANCH   1   2
BRANCH   1  11
ATOM     11  C   UNL     1      -8.256  35.870   5.774  1.00  0.00    -0.031 C 
ATOM     12  C   UNL     1      -8.747  37.116   5.655  1.00  0.00    -0.027 C 
BRANCH  12  13
ATOM     13  C   UNL     1     -10.170  37.438   5.278  1.00  0.00     0.054 C 
BRANCH  13  14
ATOM     14  C   UNL     1     -10.538  38.857   5.634  1.00  0.00    -0.027 C 
ATOM     15  C   UNL     1     -11.361  39.210   6.638  1.00  0.00    -0.031 C 
BRANCH  15  16
ATOM     16  C   UNL     1     -11.992  38.242   7.604  1.00  0.00     0.027 C 
BRANCH  16  17
ATOM     17  C   UNL     1     -11.104  38.058   8.843  1.00  0.00     0.004 C 
BRANCH  17  18
ATOM     18  C   UNL     1     -10.462  36.664   8.900  1.00  0.00     0.000 C 
BRANCH  18  19
ATOM     19  C   UNL     1     -11.478  35.565   9.244  1.00  0.00    -0.003 C 
ATOM     20  C   UNL     1     -11.660  34.600   8.075  1.00  0.00     0.004 C 
ENDBRANCH  18  19
ENDBRANCH  17  18
ENDBRANCH  16  17
ENDBRANCH  15  16
ENDBRANCH  13  14
ENDBRANCH  12  13
ENDBRANCH   1  11
TORSDOF 14
ENDMDL
MODEL 8
REMARK VINA RESULT:    -4.585      3.253      6.694
REMARK INTER + INTRA:         -10.770
REMARK INTER:                  -9.637
REMARK INTRA:                  -1.133
REMARK UNBOUND:                -2.433
REMARK SMILES CCCCCC=CCC=CCCCCCCCC(=O)[O-]
REMARK SMILES IDX 11 1 12 2 13 3 14 4 15 5 16 6 17 7 18 8 19 9 20 10 10 11
REMARK SMILES IDX 9 12 8 13 7 14 6 15 5 16 4 17 3 18 2 19 1 20
REMARK H PARENT
REMARK Flexibility Score: inf
ROOT
ATOM      1  C   UNL     1      -7.912  31.469   6.315  1.00  0.00     0.027 C 
ENDROOT
BRANCH   1   2
ATOM      2  C   UNL     1      -7.841  30.453   5.160  1.00  0.00     0.004 C 
BRANCH   2   3
ATOM      3  C   UNL     1      -7.999  28.990   5.615  1.00  0.00     0.000 C 
BRANCH   3   4
ATOM      4  C   UNL     1      -6.656  28.246   5.722  1.00  0.00     0.000 C 
BRANCH   4   5
ATOM      5  C   UNL     1      -5.482  29.063   5.161  1.00  0.00     0.000 C 
BRANCH   5   6
ATOM      6  C   UNL     1      -4.123  28.391   5.418  1.00  0.00     0.006 C 
BRANCH   6   7
ATOM      7  C   UNL     1      -3.951  27.967   6.882  1.00  0.00     0.053 C 
BRANCH   7   8
ATOM      8  C   UNL     1      -2.930  28.803   7.592  1.00  0.00     0.041 C 
ATOM      9  O   UNL     1      -1.876  28.276   8.037  1.00  0.00    -0.550 OA
ATOM     10  O   UNL     1      -3.150  30.163   7.771  1.00  0.00    -0.550 OA
ENDBRANCH   7   8
ENDBRANCH   6   7
ENDBRANCH   5   6
ENDBRANCH   4   5
ENDBRANCH   3   4
ENDBRANCH   2   3
ENDBRANCH   1   2
BRANCH   1  11
ATOM     11  C   UNL     1      -6.893  32.575   6.176  1.00  0.00    -0.031 C 
ATOM     12  C   UNL     1      -7.194  33.811   5.740  1.00  0.00    -0.027 C 
BRANCH  12  13
ATOM     13  C   UNL     1      -8.578  34.261   5.346  1.00  0.00     0.054 C 
BRANCH  13  14
ATOM     14  C   UNL     1      -9.312  34.896   6.500  1.00  0.00    -0.027 C 
ATOM     15  C   UNL     1      -9.381  36.219   6.733  1.00  0.00    -0.031 C 
BRANCH  15  16
ATOM     16  C   UNL     1      -8.789  37.276   5.837  1.00  0.00     0.027 C 
BRANCH  16  17
ATOM     17  C   UNL     1      -9.174  38.678   6.327  1.00  0.00     0.004 C 
BRANCH  17  18
ATOM     18  C   UNL     1     -10.458  39.197   5.663  1.00  0.00     0.000 C 
BRANCH  18  19
ATOM     19  C   UNL     1     -11.685  39.067   6.578  1.00  0.00    -0.003 C 
ATOM     20  C   UNL     1     -11.298  39.243   8.044  1.00  0.00     0.004 C 
ENDBRANCH  18  19
ENDBRANCH  17  18
ENDBRANCH  16  17
ENDBRANCH  15  16
ENDBRANCH  13  14
ENDBRANCH  12  13
ENDBRANCH   1  11
TORSDOF 14
ENDMDL
MODEL 9
REMARK VINA RESULT:    -4.548     13.973     16.138
REMARK INTER + INTRA:         -10.704
REMARK INTER:                  -8.353
REMARK INTRA:                  -2.350
REMARK UNBOUND:                -2.433
REMARK SMILES CCCCCC=CCC=CCCCCCCCC(=O)[O-]
REMARK SMILES IDX 11 1 12 2 13 3 14 4 15 5 16 6 17 7 18 8 19 9 20 10 10 11
REMARK SMILES IDX 9 12 8 13 7 14 6 15 5 16 4 17 3 18 2 19 1 20
REMARK H PARENT
REMARK Flexibility Score: inf
ROOT
ATOM      1  C   UNL     1       0.221  42.602   2.042  1.00  0.00     0.027 C 
ENDROOT
BRANCH   1   2
ATOM      2  C   UNL     1       1.218  41.452   1.810  1.00  0.00     0.004 C 
BRANCH   2   3
ATOM      3  C   UNL     1       2.455  41.515   2.725  1.00  0.00     0.000 C 
BRANCH   3   4
ATOM      4  C   UNL     1       3.779  41.548   1.942  1.00  0.00     0.000 C 
BRANCH   4   5
ATOM      5  C   UNL     1       4.733  40.413   2.347  1.00  0.00     0.000 C 
BRANCH   5   6
ATOM      6  C   UNL     1       6.042  40.429   1.539  1.00  0.00     0.006 C 
BRANCH   6   7
ATOM      7  C   UNL     1       5.882  41.138   0.188  1.00  0.00     0.053 C 
BRANCH   7   8
ATOM      8  C   UNL     1       6.223  40.240  -0.962  1.00  0.00     0.041 C 
ATOM      9  O   UNL     1       5.689  40.420  -2.089  1.00  0.00    -0.550 OA
ATOM     10  O   UNL     1       7.124  39.199  -0.785  1.00  0.00    -0.550 OA
ENDBRANCH   7   8
ENDBRANCH   6   7
ENDBRANCH   5   6
ENDBRANCH   4   5
ENDBRANCH   3   4
ENDBRANCH   2   3
ENDBRANCH   1   2
BRANCH   1  11
ATOM     11  C   UNL     1       0.767  43.662   2.971  1.00  0.00    -0.031 C 
ATOM     12  C   UNL     1       0.990  44.933   2.596  1.00  0.00    -0.027 C 
BRANCH  12  13
ATOM     13  C   UNL     1       0.720  45.474   1.215  1.00  0.00     0.054 C 
BRANCH  13  14
ATOM     14  C   UNL     1       1.988  45.913   0.527  1.00  0.00    -0.027 C 
ATOM     15  C   UNL     1       2.785  45.112  -0.203  1.00  0.00    -0.031 C 
BRANCH  15  16
ATOM     16  C   UNL     1       2.497  43.664  -0.501  1.00  0.00     0.027 C 
BRANCH  16  17
ATOM     17  C   UNL     1       1.794  43.520  -1.858  1.00  0.00     0.004 C 
BRANCH  17  18
ATOM     18  C   UNL     1       0.477  42.738  -1.755  1.00  0.00     0.000 C 
BRANCH  18  19
ATOM     19  C   UNL     1      -0.691  43.616  -1.282  1.00  0.00    -0.003 C 
ATOM     20  C   UNL     1      -0.787  44.895  -2.109  1.00  0.00     0.004 C 
ENDBRANCH  18  19
ENDBRANCH  17  18
ENDBRANCH  16  17
ENDBRANCH  15  16
ENDBRANCH  13  14
ENDBRANCH  12  13
ENDBRANCH   1  11
TORSDOF 14
ENDMDL
