MODEL 1
REMARK VINA RESULT:    -1.951      0.000      0.000
REMARK INTER + INTRA:          -1.951
REMARK INTER:                  -1.951
REMARK INTRA:                   0.000
REMARK UNBOUND:                 0.000
REMARK SMILES CC(=O)[O-]
REMARK SMILES IDX 1 1 2 2 3 3 4 4
REMARK H PARENT
REMARK Flexibility Score: inf
ROOT
ATOM      1  C   UNL     1       6.262  13.574   7.501  1.00  0.00     0.063 C 
ATOM      2  C   UNL     1       7.694  13.390   7.874  1.00  0.00     0.038 C 
ATOM      3  O   UNL     1       8.604  13.797   7.106  1.00  0.00    -0.550 OA
ATOM      4  O   UNL     1       8.027  12.819   9.095  1.00  0.00    -0.550 OA
ENDROOT
TORSDOF 0
ENDMDL
MODEL 2
REMARK VINA RESULT:    -1.932      0.107      1.623
REMARK INTER + INTRA:          -1.932
REMARK INTER:                  -1.932
REMARK INTRA:                   0.000
REMARK UNBOUND:                 0.000
REMARK SMILES CC(=O)[O-]
REMARK SMILES IDX 1 1 2 2 3 3 4 4
REMARK H PARENT
REMARK Flexibility Score: inf
ROOT
ATOM      1  C   UNL     1       6.216  13.419   7.556  1.00  0.00     0.063 C 
ATOM      2  C   UNL     1       7.652  13.365   7.953  1.00  0.00     0.038 C 
ATOM      3  O   UNL     1       7.982  12.873   9.064  1.00  0.00    -0.550 OA
ATOM      4  O   UNL     1       8.634  13.805   7.075  1.00  0.00    -0.550 OA
ENDROOT
TORSDOF 0
ENDMDL
MODEL 3
REMARK VINA RESULT:    -1.871      8.463      8.946
REMARK INTER + INTRA:          -1.871
REMARK INTER:                  -1.871
REMARK INTRA:                   0.000
REMARK UNBOUND:                 0.000
REMARK SMILES CC(=O)[O-]
REMARK SMILES IDX 1 1 2 2 3 3 4 4
REMARK H PARENT
REMARK Flexibility Score: inf
ROOT
ATOM      1  C   UNL     1       4.904  20.708   1.201  1.00  0.00     0.063 C 
ATOM      2  C   UNL     1       5.203  19.515   2.042  1.00  0.00     0.038 C 
ATOM      3  O   UNL     1       4.955  18.359   1.610  1.00  0.00    -0.550 OA
ATOM      4  O   UNL     1       5.807  19.671   3.283  1.00  0.00    -0.550 OA
ENDROOT
TORSDOF 0
ENDMDL
MODEL 4
REMARK VINA RESULT:    -1.830      2.420      2.981
REMARK INTER + INTRA:          -1.830
REMARK INTER:                  -1.830
REMARK INTRA:                   0.000
REMARK UNBOUND:                 0.000
REMARK SMILES CC(=O)[O-]
REMARK SMILES IDX 1 1 2 2 3 3 4 4
REMARK H PARENT
REMARK Flexibility Score: inf
ROOT
ATOM      1  C   UNL     1       8.216  10.388   7.266  1.00  0.00     0.063 C 
ATOM      2  C   UNL     1       9.026  11.495   7.851  1.00  0.00     0.038 C 
ATOM      3  O   UNL     1       9.391  11.443   9.055  1.00  0.00    -0.550 OA
ATOM      4  O   UNL     1       9.429  12.559   7.055  1.00  0.00    -0.550 OA
ENDROOT
TORSDOF 0
ENDMDL
MODEL 5
REMARK VINA RESULT:    -1.812      2.381      2.570
REMARK INTER + INTRA:          -1.812
REMARK INTER:                  -1.812
REMARK INTRA:                   0.000
REMARK UNBOUND:                 0.000
REMARK SMILES CC(=O)[O-]
REMARK SMILES IDX 1 1 2 2 3 3 4 4
REMARK H PARENT
REMARK Flexibility Score: inf
ROOT
ATOM      1  C   UNL     1       8.521  10.316   7.068  1.00  0.00     0.063 C 
ATOM      2  C   UNL     1       9.078  11.530   7.732  1.00  0.00     0.038 C 
ATOM      3  O   UNL     1       9.417  12.527   7.042  1.00  0.00    -0.550 OA
ATOM      4  O   UNL     1       9.173  11.585   9.116  1.00  0.00    -0.550 OA
ENDROOT
TORSDOF 0
ENDMDL
MODEL 6
REMARK VINA RESULT:    -1.655     11.009     11.375
REMARK INTER + INTRA:          -1.655
REMARK INTER:                  -1.655
REMARK INTRA:                   0.000
REMARK UNBOUND:                 0.000
REMARK SMILES CC(=O)[O-]
REMARK SMILES IDX 1 1 2 2 3 3 4 4
REMARK H PARENT
REMARK Flexibility Score: inf
ROOT
ATOM      1  C   UNL     1      13.301  14.765  -2.013  1.00  0.00     0.063 C 
ATOM      2  C   UNL     1      12.154  13.857  -2.302  1.00  0.00     0.038 C 
ATOM      3  O   UNL     1      12.143  12.687  -1.838  1.00  0.00    -0.550 OA
ATOM      4  O   UNL     1      11.069  14.317  -3.035  1.00  0.00    -0.550 OA
ENDROOT
TORSDOF 0
ENDMDL
MODEL 7
REMARK VINA RESULT:    -1.564      7.769      8.343
REMARK INTER + INTRA:          -1.564
REMARK INTER:                  -1.564
REMARK INTRA:                   0.000
REMARK UNBOUND:                 0.000
REMARK SMILES CC(=O)[O-]
REMARK SMILES IDX 1 1 2 2 3 3 4 4
REMARK H PARENT
REMARK Flexibility Score: inf
ROOT
ATOM      1  C   UNL     1      13.664   7.469   4.448  1.00  0.00     0.063 C 
ATOM      2  C   UNL     1      13.096   8.827   4.207  1.00  0.00     0.038 C 
ATOM      3  O   UNL     1      12.043   9.184   4.797  1.00  0.00    -0.550 OA
ATOM      4  O   UNL     1      13.757   9.721   3.376  1.00  0.00    -0.550 OA
ENDROOT
TORSDOF 0
ENDMDL
MODEL 8
REMARK VINA RESULT:    -1.546      7.799      8.237
REMARK INTER + INTRA:          -1.546
REMARK INTER:                  -1.546
REMARK INTRA:                   0.000
REMARK UNBOUND:                 0.000
REMARK SMILES CC(=O)[O-]
REMARK SMILES IDX 1 1 2 2 3 3 4 4
REMARK H PARENT
REMARK Flexibility Score: inf
ROOT
ATOM      1  C   UNL     1      13.725   7.425   4.428  1.00  0.00     0.063 C 
ATOM      2  C   UNL     1      13.170   8.796   4.237  1.00  0.00     0.038 C 
ATOM      3  O   UNL     1      13.732   9.600   3.449  1.00  0.00    -0.550 OA
ATOM      4  O   UNL     1      12.000   9.170   4.885  1.00  0.00    -0.550 OA
ENDROOT
TORSDOF 0
ENDMDL
MODEL 9
REMARK VINA RESULT:    -1.479      9.677     10.078
REMARK INTER + INTRA:          -1.479
REMARK INTER:                  -1.479
REMARK INTRA:                   0.000
REMARK UNBOUND:                 0.000
REMARK SMILES CC(=O)[O-]
REMARK SMILES IDX 1 1 2 2 3 3 4 4
REMARK H PARENT
REMARK Flexibility Score: inf
ROOT
ATOM      1  C   UNL     1      15.102   6.918  10.543  1.00  0.00     0.063 C 
ATOM      2  C   UNL     1      14.653   7.612  11.784  1.00  0.00     0.038 C 
ATOM      3  O   UNL     1      13.441   7.577  12.123  1.00  0.00    -0.550 OA
ATOM      4  O   UNL     1      15.578   8.250  12.599  1.00  0.00    -0.550 OA
ENDROOT
TORSDOF 0
ENDMDL
