MODEL 1
REMARK VINA RESULT:    22.205      0.000      0.000
REMARK INTER + INTRA:          23.503
REMARK INTER:                  23.503
REMARK INTRA:                   0.000
REMARK UNBOUND:                 0.000
REMARK SMILES CC1(C)[C@@H](O)CC[C@@]2(C)[C@H]3C=CC4=C(O)C(=O)C(=O)[C@]4(C)[C@@]3(C)CC[C@@H]12
REMARK SMILES IDX 1 1 2 2 26 3 25 4 24 5 22 6 10 7 8 8 7 9 6 10 4 11 9 12
REMARK SMILES IDX 11 13 12 14 13 15 14 16 16 17 17 18 18 19 19 20 20 21 21 22
REMARK SMILES IDX 23 23 3 24 5 25 15 27
REMARK H PARENT 5 26 15 28
REMARK Flexibility Score: inf
ROOT
ATOM      1  C   UNL     1     -12.714   0.441 -11.897  1.00  0.00     0.014 C 
ATOM      2  C   UNL     1     -13.781  -0.589 -11.398  1.00  0.00    -0.006 C 
ATOM      3  C   UNL     1     -14.657  -0.017 -10.175  1.00  0.00     0.004 C 
ATOM      4  C   UNL     1     -13.907   1.097  -9.361  1.00  0.00     0.005 C 
ATOM      5  C   UNL     1     -14.149   1.120  -7.855  1.00  0.00     0.009 C 
ATOM      6  C   UNL     1     -15.617   0.885  -7.443  1.00  0.00    -0.009 C 
ATOM      7  C   UNL     1     -16.143  -0.496  -8.061  1.00  0.00     0.025 C 
ATOM      8  C   UNL     1     -15.282  -1.138  -9.239  1.00  0.00    -0.022 C 
ATOM      9  C   UNL     1     -14.152  -2.073  -8.683  1.00  0.00     0.010 C 
ATOM     10  C   UNL     1     -12.839  -2.054  -9.493  1.00  0.00     0.033 C 
ATOM     11  C   UNL     1     -13.081  -1.946 -11.009  1.00  0.00     0.120 C 
ATOM     12  C   UNL     1     -16.284  -2.010 -10.068  1.00  0.00     0.012 C 
ATOM     13  C   UNL     1     -16.597  -1.534  -7.023  1.00  0.00    -0.022 C 
ATOM     14  C   UNL     1     -17.193  -1.166  -5.891  1.00  0.00     0.005 C 
ATOM     15  C   UNL     1     -17.000   0.205  -5.443  1.00  0.00     0.012 C 
ATOM     16  C   UNL     1     -17.822   0.932  -4.688  1.00  0.00     0.171 C 
ATOM     17  C   UNL     1     -17.264   2.255  -4.520  1.00  0.00     0.264 C 
ATOM     18  O   UNL     1     -17.780   3.205  -3.876  1.00  0.00    -0.282 OA
ATOM     19  C   UNL     1     -16.006   2.286  -5.237  1.00  0.00     0.217 C 
ATOM     20  O   UNL     1     -15.231   3.277  -5.292  1.00  0.00    -0.289 OA
ATOM     21  C   UNL     1     -15.742   0.928  -5.846  1.00  0.00     0.069 C 
ATOM     22  C   UNL     1     -14.559   0.281  -5.082  1.00  0.00     0.026 C 
ATOM     23  C   UNL     1     -16.474   2.045  -8.049  1.00  0.00     0.013 C 
ATOM     24  C   UNL     1     -14.683  -0.823 -12.644  1.00  0.00     0.014 C 
ENDROOT
BRANCH  11  25
ATOM     25  O   UNL     1     -11.860  -2.101 -11.693  1.00  0.00    -0.393 OA
ATOM     26  H   UNL     1     -11.374  -1.236 -11.631  1.00  0.00     0.210 HD
ENDBRANCH  11  25
BRANCH  16  27
ATOM     27  O   UNL     1     -19.042   0.510  -4.163  1.00  0.00    -0.504 OA
ATOM     28  H   UNL     1     -19.689   1.159  -3.733  1.00  0.00     0.293 HD
ENDBRANCH  16  27
TORSDOF 2
ENDMDL
