MODEL 1
REMARK VINA RESULT:    -1.485      0.000      0.000
REMARK INTER + INTRA:          -1.625
REMARK INTER:                  -2.006
REMARK INTRA:                   0.381
REMARK UNBOUND:                 0.381
REMARK SMILES C=C1CCC=C(C)CC[C@H]2[C@@H]1CC2(C)C
REMARK SMILES IDX 11 1 12 2 13 3 10 4 14 5 15 6 9 7 8 8 6 9 7 10 5 11 2 13
REMARK SMILES IDX 1 14 3 15 4 16
REMARK H PARENT
REMARK Flexibility Score: 70.00
ROOT
ATOM      1  C   UNL     1       4.652   7.575  12.017  1.00  0.00     0.018 C 
ATOM      2  C   UNL     1       3.309   8.307  11.895  1.00  0.00     0.015 C 
ATOM      3  C   UNL     1       3.783   9.351  12.924  1.00  0.00    -0.031 C 
ATOM      4  C   UNL     1       5.122   8.579  13.088  1.00  0.00     0.002 C 
ATOM      5  C   UNL     1       3.989  10.741  12.292  1.00  0.00     0.011 C 
ATOM      6  C   UNL     1       2.857   9.441  14.154  1.00  0.00     0.011 C 
ENDROOT
BRANCH   4   7
ATOM      7  C   UNL     1       5.474   8.065  14.512  1.00  0.00     0.009 C 
BRANCH   7   8
ATOM      8  C   UNL     1       6.933   8.287  14.975  1.00  0.00     0.030 C 
BRANCH   8   9
ATOM      9  C   UNL     1       7.989   7.671  14.075  1.00  0.00    -0.077 C 
ATOM     10  C   UNL     1       9.242   8.462  13.802  1.00  0.00     0.039 C 
ATOM     11  C   UNL     1       7.866   6.446  13.508  1.00  0.00    -0.028 CG0
ATOM     12  G   UNL     1       6.696   5.501  13.685  1.00  0.00     0.000 G0
ENDBRANCH   8   9
ENDBRANCH   7   8
ENDBRANCH   4   7
BRANCH   1  13
ATOM     13  C   UNL     1       4.597   6.093  12.374  1.00  0.00    -0.074 C 
ATOM     14  C   UNL     1       3.451   5.457  12.679  1.00  0.00     0.008 C 
BRANCH  13  15
ATOM     15  C   UNL     1       5.894   5.315  12.371  1.00  0.00     0.035 C 
BRANCH  15  16
ATOM     16  C   UNL     1       6.692   5.489  13.671  1.00  0.00     0.032 CG0
ATOM     17  G   UNL     1       7.867   6.432  13.513  1.00  0.00     0.000 G0
ENDBRANCH  15  16
ENDBRANCH  13  15
ENDBRANCH   1  13
TORSDOF 0
ENDMDL
MODEL 2
REMARK VINA RESULT:    -0.829      1.081      3.400
REMARK INTER + INTRA:          -0.739
REMARK INTER:                  -2.765
REMARK INTRA:                   2.027
REMARK UNBOUND:                 0.381
REMARK SMILES C=C1CCC=C(C)CC[C@H]2[C@@H]1CC2(C)C
REMARK SMILES IDX 11 1 12 2 13 3 10 4 14 5 15 6 9 7 8 8 6 9 7 10 5 11 2 13
REMARK SMILES IDX 1 14 3 15 4 16
REMARK H PARENT
REMARK Flexibility Score: 70.00
ROOT
ATOM      1  C   UNL     1       4.875   8.312  14.381  1.00  0.00     0.018 C 
ATOM      2  C   UNL     1       4.398   9.748  14.630  1.00  0.00     0.015 C 
ATOM      3  C   UNL     1       3.488   9.663  13.390  1.00  0.00    -0.031 C 
ATOM      4  C   UNL     1       4.012   8.228  13.107  1.00  0.00     0.002 C 
ATOM      5  C   UNL     1       1.993   9.672  13.762  1.00  0.00     0.011 C 
ATOM      6  C   UNL     1       3.798  10.754  12.344  1.00  0.00     0.011 C 
ENDROOT
BRANCH   4   7
ATOM      7  C   UNL     1       4.701   7.982  11.735  1.00  0.00     0.009 C 
BRANCH   7   8
ATOM      8  C   UNL     1       4.997   6.508  11.376  1.00  0.00     0.030 C 
BRANCH   8   9
ATOM      9  C   UNL     1       4.510   5.492  12.393  1.00  0.00    -0.077 C 
ATOM     10  C   UNL     1       3.149   4.878  12.193  1.00  0.00     0.039 C 
ATOM     11  C   UNL     1       5.237   5.105  13.470  1.00  0.00    -0.028 CG0
ATOM     12  G   UNL     1       6.628   5.591  13.821  1.00  0.00     0.000 G0
ENDBRANCH   8   9
ENDBRANCH   7   8
ENDBRANCH   4   7
BRANCH   1  13
ATOM     13  C   UNL     1       6.381   8.099  14.264  1.00  0.00    -0.074 C 
ATOM     14  C   UNL     1       7.277   8.813  14.967  1.00  0.00     0.008 C 
BRANCH  13  15
ATOM     15  C   UNL     1       6.873   7.025  13.317  1.00  0.00     0.035 C 
BRANCH  15  16
ATOM     16  C   UNL     1       6.621   5.607  13.847  1.00  0.00     0.032 CG0
ATOM     17  G   UNL     1       5.238   5.093  13.503  1.00  0.00     0.000 G0
ENDBRANCH  15  16
ENDBRANCH  13  15
ENDBRANCH   1  13
TORSDOF 0
ENDMDL
MODEL 3
REMARK VINA RESULT:     0.898      2.359      4.874
REMARK INTER + INTRA:           1.594
REMARK INTER:                  -0.864
REMARK INTRA:                   2.459
REMARK UNBOUND:                 0.381
REMARK SMILES C=C1CCC=C(C)CC[C@H]2[C@@H]1CC2(C)C
REMARK SMILES IDX 11 1 12 2 13 3 10 4 14 5 15 6 9 7 8 8 6 9 7 10 5 11 2 13
REMARK SMILES IDX 1 14 3 15 4 16
REMARK H PARENT
REMARK Flexibility Score: 70.00
ROOT
ATOM      1  C   UNL     1       5.891   7.795  13.753  1.00  0.00     0.018 C 
ATOM      2  C   UNL     1       5.988   6.337  14.219  1.00  0.00     0.015 C 
ATOM      3  C   UNL     1       5.876   5.861  12.757  1.00  0.00    -0.031 C 
ATOM      4  C   UNL     1       5.724   7.336  12.291  1.00  0.00     0.002 C 
ATOM      5  C   UNL     1       7.185   5.225  12.250  1.00  0.00     0.011 C 
ATOM      6  C   UNL     1       4.681   4.913  12.526  1.00  0.00     0.011 C 
ENDROOT
BRANCH   4   7
ATOM      7  C   UNL     1       4.426   7.705  11.520  1.00  0.00     0.009 C 
BRANCH   7   8
ATOM      8  C   UNL     1       4.385   9.117  10.891  1.00  0.00     0.030 C 
BRANCH   8   9
ATOM      9  C   UNL     1       3.560  10.134  11.659  1.00  0.00    -0.077 C 
ATOM     10  C   UNL     1       3.625  11.577  11.228  1.00  0.00     0.039 C 
ATOM     11  C   UNL     1       2.766   9.813  12.710  1.00  0.00    -0.028 CG0
ATOM     12  G   UNL     1       2.556   8.421  13.269  1.00  0.00     0.000 G0
ENDBRANCH   8   9
ENDBRANCH   7   8
ENDBRANCH   4   7
BRANCH   1  13
ATOM     13  C   UNL     1       4.795   8.647  14.385  1.00  0.00    -0.074 C 
ATOM     14  C   UNL     1       5.014   9.888  14.854  1.00  0.00     0.008 C 
BRANCH  13  15
ATOM     15  C   UNL     1       3.403   8.059  14.473  1.00  0.00     0.035 C 
BRANCH  15  16
ATOM     16  C   UNL     1       2.535   8.409  13.257  1.00  0.00     0.032 CG0
ATOM     17  G   UNL     1       2.790   9.811  12.741  1.00  0.00     0.000 G0
ENDBRANCH  15  16
ENDBRANCH  13  15
ENDBRANCH   1  13
TORSDOF 0
ENDMDL
MODEL 4
REMARK VINA RESULT:     0.971      2.093      4.533
REMARK INTER + INTRA:           1.693
REMARK INTER:                  -0.121
REMARK INTRA:                   1.814
REMARK UNBOUND:                 0.381
REMARK SMILES C=C1CCC=C(C)CC[C@H]2[C@@H]1CC2(C)C
REMARK SMILES IDX 11 1 12 2 13 3 10 4 14 5 15 6 9 7 8 8 6 9 7 10 5 11 2 13
REMARK SMILES IDX 1 14 3 15 4 16
REMARK H PARENT
REMARK Flexibility Score: 70.00
ROOT
ATOM      1  C   UNL     1       5.414   6.982  13.765  1.00  0.00     0.018 C 
ATOM      2  C   UNL     1       6.566   5.970  13.777  1.00  0.00     0.015 C 
ATOM      3  C   UNL     1       7.368   6.870  12.817  1.00  0.00    -0.031 C 
ATOM      4  C   UNL     1       6.178   7.867  12.762  1.00  0.00     0.002 C 
ATOM      5  C   UNL     1       8.609   7.483  13.493  1.00  0.00     0.011 C 
ATOM      6  C   UNL     1       7.756   6.151  11.508  1.00  0.00     0.011 C 
ENDROOT
BRANCH   4   7
ATOM      7  C   UNL     1       5.555   8.152  11.366  1.00  0.00     0.009 C 
BRANCH   7   8
ATOM      8  C   UNL     1       4.044   8.477  11.348  1.00  0.00     0.030 C 
BRANCH   8   9
ATOM      9  C   UNL     1       3.660   9.772  12.042  1.00  0.00    -0.077 C 
ATOM     10  C   UNL     1       3.672  11.044  11.234  1.00  0.00     0.039 C 
ATOM     11  C   UNL     1       3.304   9.844  13.347  1.00  0.00    -0.028 CG0
ATOM     12  G   UNL     1       3.212   8.674  14.306  1.00  0.00     0.000 G0
ENDBRANCH   8   9
ENDBRANCH   7   8
ENDBRANCH   4   7
BRANCH   1  13
ATOM     13  C   UNL     1       4.038   6.451  13.376  1.00  0.00    -0.074 C 
ATOM     14  C   UNL     1       3.849   5.229  12.846  1.00  0.00     0.008 C 
BRANCH  13  15
ATOM     15  C   UNL     1       2.840   7.346  13.611  1.00  0.00     0.035 C 
BRANCH  15  16
ATOM     16  C   UNL     1       3.212   8.658  14.316  1.00  0.00     0.032 CG0
ATOM     17  G   UNL     1       3.289   9.832  13.362  1.00  0.00     0.000 G0
ENDBRANCH  15  16
ENDBRANCH  13  15
ENDBRANCH   1  13
TORSDOF 0
ENDMDL
MODEL 5
REMARK VINA RESULT:     1.453      1.747      3.129
REMARK INTER + INTRA:           2.344
REMARK INTER:                   2.053
REMARK INTRA:                   0.291
REMARK UNBOUND:                 0.381
REMARK SMILES C=C1CCC=C(C)CC[C@H]2[C@@H]1CC2(C)C
REMARK SMILES IDX 11 1 12 2 13 3 10 4 14 5 15 6 9 7 8 8 6 9 7 10 5 11 2 13
REMARK SMILES IDX 1 14 3 15 4 16
REMARK H PARENT
REMARK Flexibility Score: 70.00
ROOT
ATOM      1  C   UNL     1       2.804   9.016  13.096  1.00  0.00     0.018 C 
ATOM      2  C   UNL     1       2.464  10.499  13.287  1.00  0.00     0.015 C 
ATOM      3  C   UNL     1       2.881  10.783  11.831  1.00  0.00    -0.031 C 
ATOM      4  C   UNL     1       3.277   9.291  11.656  1.00  0.00     0.002 C 
ATOM      5  C   UNL     1       1.682  11.174  10.947  1.00  0.00     0.011 C 
ATOM      6  C   UNL     1       4.005  11.836  11.726  1.00  0.00     0.011 C 
ENDROOT
BRANCH   4   7
ATOM      7  C   UNL     1       4.751   8.989  11.266  1.00  0.00     0.009 C 
BRANCH   7   8
ATOM      8  C   UNL     1       5.067   7.527  10.875  1.00  0.00     0.030 C 
BRANCH   8   9
ATOM      9  C   UNL     1       5.930   6.772  11.870  1.00  0.00    -0.077 C 
ATOM     10  C   UNL     1       7.423   6.772  11.664  1.00  0.00     0.039 C 
ATOM     11  C   UNL     1       5.430   6.103  12.937  1.00  0.00    -0.028 CG0
ATOM     12  G   UNL     1       3.966   6.011  13.318  1.00  0.00     0.000 G0
ENDBRANCH   8   9
ENDBRANCH   7   8
ENDBRANCH   4   7
BRANCH   1  13
ATOM     13  C   UNL     1       3.789   8.403  14.088  1.00  0.00    -0.074 C 
ATOM     14  C   UNL     1       4.804   9.097  14.633  1.00  0.00     0.008 C 
BRANCH  13  15
ATOM     15  C   UNL     1       3.597   6.952  14.472  1.00  0.00     0.035 C 
BRANCH  15  16
ATOM     16  C   UNL     1       3.966   5.986  13.338  1.00  0.00     0.032 CG0
ATOM     17  G   UNL     1       5.426   6.079  12.945  1.00  0.00     0.000 G0
ENDBRANCH  15  16
ENDBRANCH  13  15
ENDBRANCH   1  13
TORSDOF 0
ENDMDL
