MODEL 1
REMARK VINA RESULT:    -3.850      0.000      0.000
REMARK INTER + INTRA:          -9.443
REMARK INTER:                  -7.226
REMARK INTRA:                  -2.217
REMARK UNBOUND:                -2.217
REMARK SMILES CCCCCCCCC=CCCCCCCCC(=O)[O-]
REMARK SMILES IDX 10 1 9 2 11 3 12 4 13 5 14 6 15 7 16 8 17 9 18 10 19 11
REMARK SMILES IDX 20 12 8 13 7 14 6 15 5 16 4 17 3 18 2 19 1 20
REMARK H PARENT
REMARK Flexibility Score: inf
ROOT
ATOM      1  C   UNL     1       5.171 -18.857  14.647  1.00  0.00    -0.031 C 
ATOM      2  C   UNL     1       5.757 -18.162  13.654  1.00  0.00    -0.031 C 
ENDROOT
BRANCH   1   3
ATOM      3  C   UNL     1       5.874 -19.331  15.896  1.00  0.00     0.027 C 
BRANCH   3   4
ATOM      4  C   UNL     1       5.494 -18.487  17.120  1.00  0.00     0.004 C 
BRANCH   4   5
ATOM      5  C   UNL     1       3.982 -18.525  17.409  1.00  0.00     0.000 C 
BRANCH   5   6
ATOM      6  C   UNL     1       3.682 -18.797  18.898  1.00  0.00     0.000 C 
BRANCH   6   7
ATOM      7  C   UNL     1       3.814 -20.281  19.293  1.00  0.00     0.000 C 
BRANCH   7   8
ATOM      8  C   UNL     1       2.631 -20.843  20.100  1.00  0.00     0.006 C 
BRANCH   8   9
ATOM      9  C   UNL     1       1.290 -20.214  19.703  1.00  0.00     0.053 C 
BRANCH   9  10
ATOM     10  C   UNL     1       0.380 -21.247  19.120  1.00  0.00     0.041 C 
ATOM     11  O   UNL     1       0.337 -21.424  17.874  1.00  0.00    -0.550 OA
ATOM     12  O   UNL     1      -0.460 -21.981  19.948  1.00  0.00    -0.550 OA
ENDBRANCH   9  10
ENDBRANCH   8   9
ENDBRANCH   7   8
ENDBRANCH   6   7
ENDBRANCH   5   6
ENDBRANCH   4   5
ENDBRANCH   3   4
ENDBRANCH   1   3
BRANCH   2  13
ATOM     13  C   UNL     1       7.228 -17.835  13.587  1.00  0.00     0.027 C 
BRANCH  13  14
ATOM     14  C   UNL     1       7.455 -16.330  13.765  1.00  0.00     0.004 C 
BRANCH  14  15
ATOM     15  C   UNL     1       7.436 -15.944  15.249  1.00  0.00     0.000 C 
BRANCH  15  16
ATOM     16  C   UNL     1       6.748 -14.587  15.456  1.00  0.00     0.000 C 
BRANCH  16  17
ATOM     17  C   UNL     1       5.330 -14.539  14.860  1.00  0.00    -0.000 C 
BRANCH  17  18
ATOM     18  C   UNL     1       4.242 -15.238  15.701  1.00  0.00    -0.000 C 
BRANCH  18  19
ATOM     19  C   UNL     1       3.086 -15.849  14.892  1.00  0.00    -0.003 C 
ATOM     20  C   UNL     1       1.895 -14.902  14.748  1.00  0.00     0.004 C 
ENDBRANCH  18  19
ENDBRANCH  17  18
ENDBRANCH  16  17
ENDBRANCH  15  16
ENDBRANCH  14  15
ENDBRANCH  13  14
ENDBRANCH   2  13
TORSDOF 15
ENDMDL
MODEL 2
REMARK VINA RESULT:    -3.782      1.722      3.360
REMARK INTER + INTRA:          -9.316
REMARK INTER:                  -6.742
REMARK INTRA:                  -2.574
REMARK UNBOUND:                -2.217
REMARK SMILES CCCCCCCCC=CCCCCCCCC(=O)[O-]
REMARK SMILES IDX 10 1 9 2 11 3 12 4 13 5 14 6 15 7 16 8 17 9 18 10 19 11
REMARK SMILES IDX 20 12 8 13 7 14 6 15 5 16 4 17 3 18 2 19 1 20
REMARK H PARENT
REMARK Flexibility Score: inf
ROOT
ATOM      1  C   UNL     1       3.633 -15.983  14.362  1.00  0.00    -0.031 C 
ATOM      2  C   UNL     1       2.769 -14.951  14.355  1.00  0.00    -0.031 C 
ENDROOT
BRANCH   1   3
ATOM      3  C   UNL     1       3.726 -17.019  15.456  1.00  0.00     0.027 C 
BRANCH   3   4
ATOM      4  C   UNL     1       5.174 -17.233  15.919  1.00  0.00     0.004 C 
BRANCH   4   5
ATOM      5  C   UNL     1       5.256 -17.709  17.380  1.00  0.00     0.000 C 
BRANCH   5   6
ATOM      6  C   UNL     1       3.999 -18.498  17.805  1.00  0.00     0.000 C 
BRANCH   6   7
ATOM      7  C   UNL     1       4.256 -19.499  18.949  1.00  0.00     0.000 C 
BRANCH   7   8
ATOM      8  C   UNL     1       3.032 -19.802  19.831  1.00  0.00     0.006 C 
BRANCH   8   9
ATOM      9  C   UNL     1       2.298 -21.080  19.406  1.00  0.00     0.053 C 
BRANCH   9  10
ATOM     10  C   UNL     1       0.829 -20.824  19.296  1.00  0.00     0.041 C 
ATOM     11  O   UNL     1       0.179 -21.272  18.315  1.00  0.00    -0.550 OA
ATOM     12  O   UNL     1       0.185 -20.046  20.250  1.00  0.00    -0.550 OA
ENDBRANCH   9  10
ENDBRANCH   8   9
ENDBRANCH   7   8
ENDBRANCH   6   7
ENDBRANCH   5   6
ENDBRANCH   4   5
ENDBRANCH   3   4
ENDBRANCH   1   3
BRANCH   2  13
ATOM     13  C   UNL     1       1.829 -14.610  15.484  1.00  0.00     0.027 C 
BRANCH  13  14
ATOM     14  C   UNL     1       2.454 -13.559  16.408  1.00  0.00     0.004 C 
BRANCH  14  15
ATOM     15  C   UNL     1       2.979 -14.203  17.696  1.00  0.00     0.000 C 
BRANCH  15  16
ATOM     16  C   UNL     1       4.507 -14.086  17.787  1.00  0.00     0.000 C 
BRANCH  16  17
ATOM     17  C   UNL     1       5.088 -13.049  16.810  1.00  0.00    -0.000 C 
BRANCH  17  18
ATOM     18  C   UNL     1       6.060 -13.617  15.756  1.00  0.00    -0.000 C 
BRANCH  18  19
ATOM     19  C   UNL     1       5.968 -12.964  14.367  1.00  0.00    -0.003 C 
ATOM     20  C   UNL     1       4.871 -11.903  14.279  1.00  0.00     0.004 C 
ENDBRANCH  18  19
ENDBRANCH  17  18
ENDBRANCH  16  17
ENDBRANCH  15  16
ENDBRANCH  14  15
ENDBRANCH  13  14
ENDBRANCH   2  13
TORSDOF 15
ENDMDL
MODEL 3
REMARK VINA RESULT:    -3.717      4.868      7.456
REMARK INTER + INTRA:          -9.193
REMARK INTER:                  -6.156
REMARK INTRA:                  -3.037
REMARK UNBOUND:                -2.217
REMARK SMILES CCCCCCCCC=CCCCCCCCC(=O)[O-]
REMARK SMILES IDX 10 1 9 2 11 3 12 4 13 5 14 6 15 7 16 8 17 9 18 10 19 11
REMARK SMILES IDX 20 12 8 13 7 14 6 15 5 16 4 17 3 18 2 19 1 20
REMARK H PARENT
REMARK Flexibility Score: inf
ROOT
ATOM      1  C   UNL     1       4.209 -17.138  14.877  1.00  0.00    -0.031 C 
ATOM      2  C   UNL     1       5.485 -16.891  14.525  1.00  0.00    -0.031 C 
ENDROOT
BRANCH   1   3
ATOM      3  C   UNL     1       3.304 -16.152  15.575  1.00  0.00     0.027 C 
BRANCH   3   4
ATOM      4  C   UNL     1       2.533 -15.278  14.576  1.00  0.00     0.004 C 
BRANCH   4   5
ATOM      5  C   UNL     1       2.233 -13.876  15.137  1.00  0.00     0.000 C 
BRANCH   5   6
ATOM      6  C   UNL     1       3.124 -13.533  16.349  1.00  0.00     0.000 C 
BRANCH   6   7
ATOM      7  C   UNL     1       4.320 -12.625  16.000  1.00  0.00     0.000 C 
BRANCH   7   8
ATOM      8  C   UNL     1       4.370 -12.154  14.537  1.00  0.00     0.006 C 
BRANCH   8   9
ATOM      9  C   UNL     1       5.796 -12.118  13.973  1.00  0.00     0.053 C 
BRANCH   9  10
ATOM     10  C   UNL     1       5.981 -10.919  13.101  1.00  0.00     0.041 C 
ATOM     11  O   UNL     1       5.146  -9.977  13.131  1.00  0.00    -0.550 OA
ATOM     12  O   UNL     1       7.049 -10.863  12.214  1.00  0.00    -0.550 OA
ENDBRANCH   9  10
ENDBRANCH   8   9
ENDBRANCH   7   8
ENDBRANCH   6   7
ENDBRANCH   5   6
ENDBRANCH   4   5
ENDBRANCH   3   4
ENDBRANCH   1   3
BRANCH   2  13
ATOM     13  C   UNL     1       6.240 -15.630  14.862  1.00  0.00     0.027 C 
BRANCH  13  14
ATOM     14  C   UNL     1       7.175 -15.863  16.054  1.00  0.00     0.004 C 
BRANCH  14  15
ATOM     15  C   UNL     1       6.904 -14.847  17.170  1.00  0.00     0.000 C 
BRANCH  15  16
ATOM     16  C   UNL     1       6.523 -15.555  18.478  1.00  0.00     0.000 C 
BRANCH  16  17
ATOM     17  C   UNL     1       5.040 -15.371  18.848  1.00  0.00    -0.000 C 
BRANCH  17  18
ATOM     18  C   UNL     1       4.249 -16.680  19.046  1.00  0.00    -0.000 C 
BRANCH  18  19
ATOM     19  C   UNL     1       4.905 -17.934  18.443  1.00  0.00    -0.003 C 
ATOM     20  C   UNL     1       3.891 -19.008  18.053  1.00  0.00     0.004 C 
ENDBRANCH  18  19
ENDBRANCH  17  18
ENDBRANCH  16  17
ENDBRANCH  15  16
ENDBRANCH  14  15
ENDBRANCH  13  14
ENDBRANCH   2  13
TORSDOF 15
ENDMDL
MODEL 4
REMARK VINA RESULT:    -3.705      4.696      7.633
REMARK INTER + INTRA:          -9.170
REMARK INTER:                  -6.355
REMARK INTRA:                  -2.815
REMARK UNBOUND:                -2.217
REMARK SMILES CCCCCCCCC=CCCCCCCCC(=O)[O-]
REMARK SMILES IDX 10 1 9 2 11 3 12 4 13 5 14 6 15 7 16 8 17 9 18 10 19 11
REMARK SMILES IDX 20 12 8 13 7 14 6 15 5 16 4 17 3 18 2 19 1 20
REMARK H PARENT
REMARK Flexibility Score: inf
ROOT
ATOM      1  C   UNL     1       3.773 -16.052  16.378  1.00  0.00    -0.031 C 
ATOM      2  C   UNL     1       4.208 -17.080  17.129  1.00  0.00    -0.031 C 
ENDROOT
BRANCH   1   3
ATOM      3  C   UNL     1       3.243 -16.179  14.970  1.00  0.00     0.027 C 
BRANCH   3   4
ATOM      4  C   UNL     1       2.635 -14.862  14.467  1.00  0.00     0.004 C 
BRANCH   4   5
ATOM      5  C   UNL     1       3.549 -13.654  14.744  1.00  0.00     0.000 C 
BRANCH   5   6
ATOM      6  C   UNL     1       2.864 -12.600  15.640  1.00  0.00     0.000 C 
BRANCH   6   7
ATOM      7  C   UNL     1       3.724 -11.345  15.885  1.00  0.00     0.000 C 
BRANCH   7   8
ATOM      8  C   UNL     1       5.225 -11.616  16.081  1.00  0.00     0.006 C 
BRANCH   8   9
ATOM      9  C   UNL     1       6.112 -10.614  15.332  1.00  0.00     0.053 C 
BRANCH   9  10
ATOM     10  C   UNL     1       5.944 -10.771  13.855  1.00  0.00     0.041 C 
ATOM     11  O   UNL     1       5.357  -9.881  13.185  1.00  0.00    -0.550 OA
ATOM     12  O   UNL     1       6.390 -11.925  13.224  1.00  0.00    -0.550 OA
ENDBRANCH   9  10
ENDBRANCH   8   9
ENDBRANCH   7   8
ENDBRANCH   6   7
ENDBRANCH   5   6
ENDBRANCH   4   5
ENDBRANCH   3   4
ENDBRANCH   1   3
BRANCH   2  13
ATOM     13  C   UNL     1       4.329 -18.504  16.647  1.00  0.00     0.027 C 
BRANCH  13  14
ATOM     14  C   UNL     1       5.688 -18.734  15.978  1.00  0.00     0.004 C 
BRANCH  14  15
ATOM     15  C   UNL     1       5.517 -19.095  14.497  1.00  0.00     0.000 C 
BRANCH  15  16
ATOM     16  C   UNL     1       6.088 -17.993  13.593  1.00  0.00     0.000 C 
BRANCH  16  17
ATOM     17  C   UNL     1       7.072 -17.065  14.328  1.00  0.00    -0.000 C 
BRANCH  17  18
ATOM     18  C   UNL     1       6.728 -15.563  14.259  1.00  0.00    -0.000 C 
BRANCH  18  19
ATOM     19  C   UNL     1       7.274 -14.717  15.421  1.00  0.00    -0.003 C 
ATOM     20  C   UNL     1       7.445 -15.518  16.712  1.00  0.00     0.004 C 
ENDBRANCH  18  19
ENDBRANCH  17  18
ENDBRANCH  16  17
ENDBRANCH  15  16
ENDBRANCH  14  15
ENDBRANCH  13  14
ENDBRANCH   2  13
TORSDOF 15
ENDMDL
MODEL 5
REMARK VINA RESULT:    -3.658      4.282      6.670
REMARK INTER + INTRA:          -9.083
REMARK INTER:                  -6.460
REMARK INTRA:                  -2.623
REMARK UNBOUND:                -2.217
REMARK SMILES CCCCCCCCC=CCCCCCCCC(=O)[O-]
REMARK SMILES IDX 10 1 9 2 11 3 12 4 13 5 14 6 15 7 16 8 17 9 18 10 19 11
REMARK SMILES IDX 20 12 8 13 7 14 6 15 5 16 4 17 3 18 2 19 1 20
REMARK H PARENT
REMARK Flexibility Score: inf
ROOT
ATOM      1  C   UNL     1       4.512 -12.462  16.548  1.00  0.00    -0.031 C 
ATOM      2  C   UNL     1       5.316 -12.395  15.470  1.00  0.00    -0.031 C 
ENDROOT
BRANCH   1   3
ATOM      3  C   UNL     1       3.012 -12.623  16.493  1.00  0.00     0.027 C 
BRANCH   3   4
ATOM      4  C   UNL     1       2.592 -14.096  16.587  1.00  0.00     0.004 C 
BRANCH   4   5
ATOM      5  C   UNL     1       1.965 -14.610  15.278  1.00  0.00     0.000 C 
BRANCH   5   6
ATOM      6  C   UNL     1       2.935 -15.510  14.483  1.00  0.00     0.000 C 
BRANCH   6   7
ATOM      7  C   UNL     1       4.045 -16.138  15.349  1.00  0.00     0.000 C 
BRANCH   7   8
ATOM      8  C   UNL     1       5.447 -16.119  14.716  1.00  0.00     0.006 C 
BRANCH   8   9
ATOM      9  C   UNL     1       6.230 -17.414  14.971  1.00  0.00     0.053 C 
BRANCH   9  10
ATOM     10  C   UNL     1       6.041 -18.368  13.835  1.00  0.00     0.041 C 
ATOM     11  O   UNL     1       5.163 -19.267  13.902  1.00  0.00    -0.550 OA
ATOM     12  O   UNL     1       6.872 -18.299  12.724  1.00  0.00    -0.550 OA
ENDBRANCH   9  10
ENDBRANCH   8   9
ENDBRANCH   7   8
ENDBRANCH   6   7
ENDBRANCH   5   6
ENDBRANCH   4   5
ENDBRANCH   3   4
ENDBRANCH   1   3
BRANCH   2  13
ATOM     13  C   UNL     1       4.836 -12.371  14.041  1.00  0.00     0.027 C 
BRANCH  13  14
ATOM     14  C   UNL     1       5.427 -11.171  13.293  1.00  0.00     0.004 C 
BRANCH  14  15
ATOM     15  C   UNL     1       6.170 -10.237  14.256  1.00  0.00     0.000 C 
BRANCH  15  16
ATOM     16  C   UNL     1       5.643  -8.799  14.143  1.00  0.00     0.000 C 
BRANCH  16  17
ATOM     17  C   UNL     1       5.029  -8.282  15.456  1.00  0.00    -0.000 C 
BRANCH  17  18
ATOM     18  C   UNL     1       3.695  -8.944  15.859  1.00  0.00    -0.000 C 
BRANCH  18  19
ATOM     19  C   UNL     1       2.614  -8.945  14.765  1.00  0.00    -0.003 C 
ATOM     20  C   UNL     1       1.341  -9.677  15.187  1.00  0.00     0.004 C 
ENDBRANCH  18  19
ENDBRANCH  17  18
ENDBRANCH  16  17
ENDBRANCH  15  16
ENDBRANCH  14  15
ENDBRANCH  13  14
ENDBRANCH   2  13
TORSDOF 15
ENDMDL
MODEL 6
REMARK VINA RESULT:    -3.646      5.108      7.270
REMARK INTER + INTRA:          -9.060
REMARK INTER:                  -5.952
REMARK INTRA:                  -3.108
REMARK UNBOUND:                -2.217
REMARK SMILES CCCCCCCCC=CCCCCCCCC(=O)[O-]
REMARK SMILES IDX 10 1 9 2 11 3 12 4 13 5 14 6 15 7 16 8 17 9 18 10 19 11
REMARK SMILES IDX 20 12 8 13 7 14 6 15 5 16 4 17 3 18 2 19 1 20
REMARK H PARENT
REMARK Flexibility Score: inf
ROOT
ATOM      1  C   UNL     1       4.751 -16.166  17.625  1.00  0.00    -0.031 C 
ATOM      2  C   UNL     1       6.090 -16.066  17.729  1.00  0.00    -0.031 C 
ENDROOT
BRANCH   1   3
ATOM      3  C   UNL     1       4.024 -16.823  16.478  1.00  0.00     0.027 C 
BRANCH   3   4
ATOM      4  C   UNL     1       2.977 -15.889  15.855  1.00  0.00     0.004 C 
BRANCH   4   5
ATOM      5  C   UNL     1       3.300 -15.544  14.390  1.00  0.00     0.000 C 
BRANCH   5   6
ATOM      6  C   UNL     1       3.667 -14.056  14.210  1.00  0.00     0.000 C 
BRANCH   6   7
ATOM      7  C   UNL     1       3.635 -13.249  15.524  1.00  0.00     0.000 C 
BRANCH   7   8
ATOM      8  C   UNL     1       4.957 -12.550  15.886  1.00  0.00     0.006 C 
BRANCH   8   9
ATOM      9  C   UNL     1       5.801 -12.203  14.654  1.00  0.00     0.053 C 
BRANCH   9  10
ATOM     10  C   UNL     1       5.418 -10.859  14.121  1.00  0.00     0.041 C 
ATOM     11  O   UNL     1       5.201 -10.704  12.891  1.00  0.00    -0.550 OA
ATOM     12  O   UNL     1       5.352  -9.766  14.975  1.00  0.00    -0.550 OA
ENDBRANCH   9  10
ENDBRANCH   8   9
ENDBRANCH   7   8
ENDBRANCH   6   7
ENDBRANCH   5   6
ENDBRANCH   4   5
ENDBRANCH   3   4
ENDBRANCH   1   3
BRANCH   2  13
ATOM     13  C   UNL     1       7.067 -16.506  16.668  1.00  0.00     0.027 C 
BRANCH  13  14
ATOM     14  C   UNL     1       7.374 -15.354  15.705  1.00  0.00     0.004 C 
BRANCH  14  15
ATOM     15  C   UNL     1       6.951 -15.708  14.275  1.00  0.00     0.000 C 
BRANCH  15  16
ATOM     16  C   UNL     1       7.553 -17.051  13.839  1.00  0.00     0.000 C 
BRANCH  16  17
ATOM     17  C   UNL     1       6.555 -17.932  13.065  1.00  0.00    -0.000 C 
BRANCH  17  18
ATOM     18  C   UNL     1       5.594 -18.757  13.945  1.00  0.00    -0.000 C 
BRANCH  18  19
ATOM     19  C   UNL     1       6.176 -20.075  14.484  1.00  0.00    -0.003 C 
ATOM     20  C   UNL     1       6.559 -19.997  15.961  1.00  0.00     0.004 C 
ENDBRANCH  18  19
ENDBRANCH  17  18
ENDBRANCH  16  17
ENDBRANCH  15  16
ENDBRANCH  14  15
ENDBRANCH  13  14
ENDBRANCH   2  13
TORSDOF 15
ENDMDL
MODEL 7
REMARK VINA RESULT:    -3.601      5.021      7.280
REMARK INTER + INTRA:          -8.976
REMARK INTER:                  -6.286
REMARK INTRA:                  -2.691
REMARK UNBOUND:                -2.217
REMARK SMILES CCCCCCCCC=CCCCCCCCC(=O)[O-]
REMARK SMILES IDX 10 1 9 2 11 3 12 4 13 5 14 6 15 7 16 8 17 9 18 10 19 11
REMARK SMILES IDX 20 12 8 13 7 14 6 15 5 16 4 17 3 18 2 19 1 20
REMARK H PARENT
REMARK Flexibility Score: inf
ROOT
ATOM      1  C   UNL     1       3.965 -17.399  15.299  1.00  0.00    -0.031 C 
ATOM      2  C   UNL     1       4.403 -17.731  16.528  1.00  0.00    -0.031 C 
ENDROOT
BRANCH   1   3
ATOM      3  C   UNL     1       3.824 -15.986  14.789  1.00  0.00     0.027 C 
BRANCH   3   4
ATOM      4  C   UNL     1       2.356 -15.540  14.742  1.00  0.00     0.004 C 
BRANCH   4   5
ATOM      5  C   UNL     1       2.157 -14.123  15.311  1.00  0.00     0.000 C 
BRANCH   5   6
ATOM      6  C   UNL     1       3.087 -13.843  16.510  1.00  0.00     0.000 C 
BRANCH   6   7
ATOM      7  C   UNL     1       3.936 -12.567  16.349  1.00  0.00     0.000 C 
BRANCH   7   8
ATOM      8  C   UNL     1       5.205 -12.737  15.495  1.00  0.00     0.006 C 
BRANCH   8   9
ATOM      9  C   UNL     1       4.937 -12.567  13.994  1.00  0.00     0.053 C 
BRANCH   9  10
ATOM     10  C   UNL     1       5.523 -11.283  13.502  1.00  0.00     0.041 C 
ATOM     11  O   UNL     1       4.830 -10.232  13.494  1.00  0.00    -0.550 OA
ATOM     12  O   UNL     1       6.819 -11.256  13.003  1.00  0.00    -0.550 OA
ENDBRANCH   9  10
ENDBRANCH   8   9
ENDBRANCH   7   8
ENDBRANCH   6   7
ENDBRANCH   5   6
ENDBRANCH   4   5
ENDBRANCH   3   4
ENDBRANCH   1   3
BRANCH   2  13
ATOM     13  C   UNL     1       4.724 -16.743  17.621  1.00  0.00     0.027 C 
BRANCH  13  14
ATOM     14  C   UNL     1       6.172 -16.256  17.500  1.00  0.00     0.004 C 
BRANCH  14  15
ATOM     15  C   UNL     1       7.102 -17.399  17.077  1.00  0.00     0.000 C 
BRANCH  15  16
ATOM     16  C   UNL     1       8.125 -16.920  16.037  1.00  0.00     0.000 C 
BRANCH  16  17
ATOM     17  C   UNL     1       7.536 -15.905  15.041  1.00  0.00    -0.000 C 
BRANCH  17  18
ATOM     18  C   UNL     1       7.238 -16.467  13.636  1.00  0.00    -0.000 C 
BRANCH  18  19
ATOM     19  C   UNL     1       7.751 -17.895  13.384  1.00  0.00    -0.003 C 
ATOM     20  C   UNL     1       6.625 -18.919  13.256  1.00  0.00     0.004 C 
ENDBRANCH  18  19
ENDBRANCH  17  18
ENDBRANCH  16  17
ENDBRANCH  15  16
ENDBRANCH  14  15
ENDBRANCH  13  14
ENDBRANCH   2  13
TORSDOF 15
ENDMDL
MODEL 8
REMARK VINA RESULT:    -3.583      4.895      7.935
REMARK INTER + INTRA:          -8.941
REMARK INTER:                  -5.887
REMARK INTRA:                  -3.055
REMARK UNBOUND:                -2.217
REMARK SMILES CCCCCCCCC=CCCCCCCCC(=O)[O-]
REMARK SMILES IDX 10 1 9 2 11 3 12 4 13 5 14 6 15 7 16 8 17 9 18 10 19 11
REMARK SMILES IDX 20 12 8 13 7 14 6 15 5 16 4 17 3 18 2 19 1 20
REMARK H PARENT
REMARK Flexibility Score: inf
ROOT
ATOM      1  C   UNL     1       4.019 -16.828  15.196  1.00  0.00    -0.031 C 
ATOM      2  C   UNL     1       2.883 -16.107  15.179  1.00  0.00    -0.031 C 
ENDROOT
BRANCH   1   3
ATOM      3  C   UNL     1       5.298 -16.434  14.498  1.00  0.00     0.027 C 
BRANCH   3   4
ATOM      4  C   UNL     1       6.436 -16.174  15.495  1.00  0.00     0.004 C 
BRANCH   4   5
ATOM      5  C   UNL     1       6.999 -14.746  15.379  1.00  0.00     0.000 C 
BRANCH   5   6
ATOM      6  C   UNL     1       6.175 -13.874  14.408  1.00  0.00     0.000 C 
BRANCH   6   7
ATOM      7  C   UNL     1       6.172 -12.376  14.773  1.00  0.00     0.000 C 
BRANCH   7   8
ATOM      8  C   UNL     1       5.164 -11.520  13.988  1.00  0.00     0.006 C 
BRANCH   8   9
ATOM      9  C   UNL     1       5.576 -10.045  13.904  1.00  0.00     0.053 C 
BRANCH   9  10
ATOM     10  C   UNL     1       4.497  -9.169  14.455  1.00  0.00     0.041 C 
ATOM     11  O   UNL     1       4.790  -8.093  15.038  1.00  0.00    -0.550 OA
ATOM     12  O   UNL     1       3.169  -9.568  14.373  1.00  0.00    -0.550 OA
ENDBRANCH   9  10
ENDBRANCH   8   9
ENDBRANCH   7   8
ENDBRANCH   6   7
ENDBRANCH   5   6
ENDBRANCH   4   5
ENDBRANCH   3   4
ENDBRANCH   1   3
BRANCH   2  13
ATOM     13  C   UNL     1       2.678 -14.846  14.379  1.00  0.00     0.027 C 
BRANCH  13  14
ATOM     14  C   UNL     1       2.540 -13.634  15.307  1.00  0.00     0.004 C 
BRANCH  14  15
ATOM     15  C   UNL     1       2.625 -14.057  16.778  1.00  0.00     0.000 C 
BRANCH  15  16
ATOM     16  C   UNL     1       3.808 -13.374  17.480  1.00  0.00     0.000 C 
BRANCH  16  17
ATOM     17  C   UNL     1       4.744 -14.373  18.183  1.00  0.00    -0.000 C 
BRANCH  17  18
ATOM     18  C   UNL     1       4.041 -15.585  18.828  1.00  0.00    -0.000 C 
BRANCH  18  19
ATOM     19  C   UNL     1       4.891 -16.864  18.906  1.00  0.00    -0.003 C 
ATOM     20  C   UNL     1       4.133 -18.112  18.456  1.00  0.00     0.004 C 
ENDBRANCH  18  19
ENDBRANCH  17  18
ENDBRANCH  16  17
ENDBRANCH  15  16
ENDBRANCH  14  15
ENDBRANCH  13  14
ENDBRANCH   2  13
TORSDOF 15
ENDMDL
MODEL 9
REMARK VINA RESULT:    -3.556      5.271      7.519
REMARK INTER + INTRA:          -8.892
REMARK INTER:                  -6.553
REMARK INTRA:                  -2.339
REMARK UNBOUND:                -2.217
REMARK SMILES CCCCCCCCC=CCCCCCCCC(=O)[O-]
REMARK SMILES IDX 10 1 9 2 11 3 12 4 13 5 14 6 15 7 16 8 17 9 18 10 19 11
REMARK SMILES IDX 20 12 8 13 7 14 6 15 5 16 4 17 3 18 2 19 1 20
REMARK H PARENT
REMARK Flexibility Score: inf
ROOT
ATOM      1  C   UNL     1       6.296 -18.358  13.386  1.00  0.00    -0.031 C 
ATOM      2  C   UNL     1       5.514 -18.947  14.310  1.00  0.00    -0.031 C 
ENDROOT
BRANCH   1   3
ATOM      3  C   UNL     1       7.562 -17.595  13.691  1.00  0.00     0.027 C 
BRANCH   3   4
ATOM      4  C   UNL     1       7.289 -16.101  13.913  1.00  0.00     0.004 C 
BRANCH   4   5
ATOM      5  C   UNL     1       7.645 -15.648  15.341  1.00  0.00     0.000 C 
BRANCH   5   6
ATOM      6  C   UNL     1       7.020 -14.281  15.690  1.00  0.00     0.000 C 
BRANCH   6   7
ATOM      7  C   UNL     1       6.273 -13.624  14.512  1.00  0.00     0.000 C 
BRANCH   7   8
ATOM      8  C   UNL     1       5.861 -12.160  14.743  1.00  0.00     0.006 C 
BRANCH   8   9
ATOM      9  C   UNL     1       5.208 -11.527  13.508  1.00  0.00     0.053 C 
BRANCH   9  10
ATOM     10  C   UNL     1       6.172 -10.615  12.818  1.00  0.00     0.041 C 
ATOM     11  O   UNL     1       7.013 -11.080  12.005  1.00  0.00    -0.550 OA
ATOM     12  O   UNL     1       6.177  -9.258  13.113  1.00  0.00    -0.550 OA
ENDBRANCH   9  10
ENDBRANCH   8   9
ENDBRANCH   7   8
ENDBRANCH   6   7
ENDBRANCH   5   6
ENDBRANCH   4   5
ENDBRANCH   3   4
ENDBRANCH   1   3
BRANCH   2  13
ATOM     13  C   UNL     1       5.726 -18.851  15.800  1.00  0.00     0.027 C 
BRANCH  13  14
ATOM     14  C   UNL     1       4.871 -17.727  16.396  1.00  0.00     0.004 C 
BRANCH  14  15
ATOM     15  C   UNL     1       3.684 -17.397  15.482  1.00  0.00     0.000 C 
BRANCH  15  16
ATOM     16  C   UNL     1       3.811 -15.980  14.905  1.00  0.00     0.000 C 
BRANCH  16  17
ATOM     17  C   UNL     1       2.453 -15.276  14.743  1.00  0.00    -0.000 C 
BRANCH  17  18
ATOM     18  C   UNL     1       2.149 -14.192  15.798  1.00  0.00    -0.000 C 
BRANCH  18  19
ATOM     19  C   UNL     1       3.039 -14.237  17.051  1.00  0.00    -0.003 C 
ATOM     20  C   UNL     1       3.475 -12.851  17.523  1.00  0.00     0.004 C 
ENDBRANCH  18  19
ENDBRANCH  17  18
ENDBRANCH  16  17
ENDBRANCH  15  16
ENDBRANCH  14  15
ENDBRANCH  13  14
ENDBRANCH   2  13
TORSDOF 15
ENDMDL
