MODEL 1
REMARK VINA RESULT:    -4.238      0.000      0.000
REMARK INTER + INTRA:          -9.786
REMARK INTER:                  -8.203
REMARK INTRA:                  -1.583
REMARK UNBOUND:                -1.583
REMARK SMILES CCCCCCCCCCCCCCCCCC(=O)[O-]
REMARK SMILES IDX 10 1 11 2 12 3 13 4 14 5 15 6 16 7 17 8 18 9 19 10 20 11
REMARK SMILES IDX 9 12 8 13 7 14 6 15 5 16 4 17 3 18 2 19 1 20
REMARK H PARENT
REMARK Flexibility Score: inf
ROOT
ATOM      1  C   UNL     1      18.935  11.745 -13.300  1.00  0.00     0.000 C 
ENDROOT
BRANCH   1   2
ATOM      2  C   UNL     1      18.837  10.291 -13.791  1.00  0.00     0.000 C 
BRANCH   2   3
ATOM      3  C   UNL     1      18.618  10.196 -15.310  1.00  0.00     0.000 C 
BRANCH   3   4
ATOM      4  C   UNL     1      18.028   8.842 -15.743  1.00  0.00     0.000 C 
BRANCH   4   5
ATOM      5  C   UNL     1      16.493   8.817 -15.885  1.00  0.00     0.000 C 
BRANCH   5   6
ATOM      6  C   UNL     1      15.710   8.737 -14.561  1.00  0.00     0.000 C 
BRANCH   6   7
ATOM      7  C   UNL     1      14.847   9.972 -14.232  1.00  0.00     0.006 C 
BRANCH   7   8
ATOM      8  C   UNL     1      14.887  11.068 -15.311  1.00  0.00     0.053 C 
BRANCH   8   9
ATOM      9  C   UNL     1      15.615  12.298 -14.860  1.00  0.00     0.041 C 
ATOM     10  O   UNL     1      15.521  12.690 -13.668  1.00  0.00    -0.550 OA
ATOM     11  O   UNL     1      16.429  12.991 -15.748  1.00  0.00    -0.550 OA
ENDBRANCH   8   9
ENDBRANCH   7   8
ENDBRANCH   6   7
ENDBRANCH   5   6
ENDBRANCH   4   5
ENDBRANCH   3   4
ENDBRANCH   2   3
ENDBRANCH   1   2
BRANCH   1  12
ATOM     12  C   UNL     1      19.650  12.660 -14.309  1.00  0.00     0.000 C 
BRANCH  12  13
ATOM     13  C   UNL     1      21.180  12.569 -14.204  1.00  0.00    -0.000 C 
BRANCH  13  14
ATOM     14  C   UNL     1      21.746  13.443 -13.072  1.00  0.00    -0.000 C 
BRANCH  14  15
ATOM     15  C   UNL     1      22.760  14.482 -13.577  1.00  0.00    -0.000 C 
BRANCH  15  16
ATOM     16  C   UNL     1      22.636  14.743 -15.085  1.00  0.00    -0.000 C 
BRANCH  16  17
ATOM     17  C   UNL     1      21.997  16.110 -15.357  1.00  0.00    -0.000 C 
BRANCH  17  18
ATOM     18  C   UNL     1      23.000  17.246 -15.102  1.00  0.00    -0.000 C 
BRANCH  18  19
ATOM     19  C   UNL     1      22.438  18.330 -14.170  1.00  0.00    -0.003 C 
ATOM     20  C   UNL     1      22.092  19.623 -14.909  1.00  0.00     0.004 C 
ENDBRANCH  18  19
ENDBRANCH  17  18
ENDBRANCH  16  17
ENDBRANCH  15  16
ENDBRANCH  14  15
ENDBRANCH  13  14
ENDBRANCH  12  13
ENDBRANCH   1  12
TORSDOF 16
ENDMDL
MODEL 2
REMARK VINA RESULT:    -4.149      1.411      3.208
REMARK INTER + INTRA:          -9.613
REMARK INTER:                  -7.611
REMARK INTRA:                  -2.002
REMARK UNBOUND:                -1.583
REMARK SMILES CCCCCCCCCCCCCCCCCC(=O)[O-]
REMARK SMILES IDX 10 1 11 2 12 3 13 4 14 5 15 6 16 7 17 8 18 9 19 10 20 11
REMARK SMILES IDX 9 12 8 13 7 14 6 15 5 16 4 17 3 18 2 19 1 20
REMARK H PARENT
REMARK Flexibility Score: inf
ROOT
ATOM      1  C   UNL     1      18.647  12.929 -15.127  1.00  0.00     0.000 C 
ENDROOT
BRANCH   1   2
ATOM      2  C   UNL     1      19.182  12.216 -13.874  1.00  0.00     0.000 C 
BRANCH   2   3
ATOM      3  C   UNL     1      19.009  10.689 -13.947  1.00  0.00     0.000 C 
BRANCH   3   4
ATOM      4  C   UNL     1      17.965  10.258 -14.992  1.00  0.00     0.000 C 
BRANCH   4   5
ATOM      5  C   UNL     1      17.291   8.898 -14.715  1.00  0.00     0.000 C 
BRANCH   5   6
ATOM      6  C   UNL     1      15.827   8.973 -14.241  1.00  0.00     0.000 C 
BRANCH   6   7
ATOM      7  C   UNL     1      14.859   9.687 -15.205  1.00  0.00     0.006 C 
BRANCH   7   8
ATOM      8  C   UNL     1      14.150  10.907 -14.590  1.00  0.00     0.053 C 
BRANCH   8   9
ATOM      9  C   UNL     1      15.034  12.117 -14.523  1.00  0.00     0.041 C 
ATOM     10  O   UNL     1      15.616  12.419 -13.449  1.00  0.00    -0.550 OA
ATOM     11  O   UNL     1      15.244  12.889 -15.658  1.00  0.00    -0.550 OA
ENDBRANCH   8   9
ENDBRANCH   7   8
ENDBRANCH   6   7
ENDBRANCH   5   6
ENDBRANCH   4   5
ENDBRANCH   3   4
ENDBRANCH   2   3
ENDBRANCH   1   2
BRANCH   1  12
ATOM     12  C   UNL     1      19.775  13.409 -16.057  1.00  0.00     0.000 C 
BRANCH  12  13
ATOM     13  C   UNL     1      20.213  14.850 -15.755  1.00  0.00    -0.000 C 
BRANCH  13  14
ATOM     14  C   UNL     1      21.741  15.026 -15.811  1.00  0.00    -0.000 C 
BRANCH  14  15
ATOM     15  C   UNL     1      22.283  15.865 -14.643  1.00  0.00    -0.000 C 
BRANCH  15  16
ATOM     16  C   UNL     1      23.099  15.031 -13.645  1.00  0.00    -0.000 C 
BRANCH  16  17
ATOM     17  C   UNL     1      22.317  13.792 -13.194  1.00  0.00    -0.000 C 
BRANCH  17  18
ATOM     18  C   UNL     1      23.125  12.510 -13.443  1.00  0.00    -0.000 C 
BRANCH  18  19
ATOM     19  C   UNL     1      23.013  12.015 -14.893  1.00  0.00    -0.003 C 
ATOM     20  C   UNL     1      22.514  10.573 -14.989  1.00  0.00     0.004 C 
ENDBRANCH  18  19
ENDBRANCH  17  18
ENDBRANCH  16  17
ENDBRANCH  15  16
ENDBRANCH  14  15
ENDBRANCH  13  14
ENDBRANCH  12  13
ENDBRANCH   1  12
TORSDOF 16
ENDMDL
MODEL 3
REMARK VINA RESULT:    -3.987      1.798      2.622
REMARK INTER + INTRA:          -9.298
REMARK INTER:                  -8.231
REMARK INTRA:                  -1.067
REMARK UNBOUND:                -1.583
REMARK SMILES CCCCCCCCCCCCCCCCCC(=O)[O-]
REMARK SMILES IDX 10 1 11 2 12 3 13 4 14 5 15 6 16 7 17 8 18 9 19 10 20 11
REMARK SMILES IDX 9 12 8 13 7 14 6 15 5 16 4 17 3 18 2 19 1 20
REMARK H PARENT
REMARK Flexibility Score: inf
ROOT
ATOM      1  C   UNL     1      20.044  12.856 -14.432  1.00  0.00     0.000 C 
ENDROOT
BRANCH   1   2
ATOM      2  C   UNL     1      18.649  12.272 -14.156  1.00  0.00     0.000 C 
BRANCH   2   3
ATOM      3  C   UNL     1      17.775  12.211 -15.420  1.00  0.00     0.000 C 
BRANCH   3   4
ATOM      4  C   UNL     1      16.343  12.720 -15.179  1.00  0.00     0.000 C 
BRANCH   4   5
ATOM      5  C   UNL     1      15.725  12.305 -13.829  1.00  0.00     0.000 C 
BRANCH   5   6
ATOM      6  C   UNL     1      14.607  11.248 -13.913  1.00  0.00     0.000 C 
BRANCH   6   7
ATOM      7  C   UNL     1      14.169  10.868 -15.342  1.00  0.00     0.006 C 
BRANCH   7   8
ATOM      8  C   UNL     1      14.282   9.364 -15.650  1.00  0.00     0.053 C 
BRANCH   8   9
ATOM      9  C   UNL     1      15.294   8.671 -14.789  1.00  0.00     0.041 C 
ATOM     10  O   UNL     1      14.922   7.875 -13.887  1.00  0.00    -0.550 OA
ATOM     11  O   UNL     1      16.651   8.876 -15.006  1.00  0.00    -0.550 OA
ENDBRANCH   8   9
ENDBRANCH   7   8
ENDBRANCH   6   7
ENDBRANCH   5   6
ENDBRANCH   4   5
ENDBRANCH   3   4
ENDBRANCH   2   3
ENDBRANCH   1   2
BRANCH   1  12
ATOM     12  C   UNL     1      21.127  12.246 -13.526  1.00  0.00     0.000 C 
BRANCH  12  13
ATOM     13  C   UNL     1      22.218  13.259 -13.149  1.00  0.00    -0.000 C 
BRANCH  13  14
ATOM     14  C   UNL     1      22.515  14.255 -14.283  1.00  0.00    -0.000 C 
BRANCH  14  15
ATOM     15  C   UNL     1      22.798  15.674 -13.766  1.00  0.00    -0.000 C 
BRANCH  15  16
ATOM     16  C   UNL     1      23.008  16.687 -14.901  1.00  0.00    -0.000 C 
BRANCH  16  17
ATOM     17  C   UNL     1      21.740  16.828 -15.753  1.00  0.00    -0.000 C 
BRANCH  17  18
ATOM     18  C   UNL     1      21.199  18.264 -15.699  1.00  0.00    -0.000 C 
BRANCH  18  19
ATOM     19  C   UNL     1      22.024  19.171 -14.773  1.00  0.00    -0.003 C 
ATOM     20  C   UNL     1      22.300  20.546 -15.384  1.00  0.00     0.004 C 
ENDBRANCH  18  19
ENDBRANCH  17  18
ENDBRANCH  16  17
ENDBRANCH  15  16
ENDBRANCH  14  15
ENDBRANCH  13  14
ENDBRANCH  12  13
ENDBRANCH   1  12
TORSDOF 16
ENDMDL
MODEL 4
REMARK VINA RESULT:    -3.752      3.003      7.845
REMARK INTER + INTRA:          -8.844
REMARK INTER:                  -7.143
REMARK INTRA:                  -1.701
REMARK UNBOUND:                -1.583
REMARK SMILES CCCCCCCCCCCCCCCCCC(=O)[O-]
REMARK SMILES IDX 10 1 11 2 12 3 13 4 14 5 15 6 16 7 17 8 18 9 19 10 20 11
REMARK SMILES IDX 9 12 8 13 7 14 6 15 5 16 4 17 3 18 2 19 1 20
REMARK H PARENT
REMARK Flexibility Score: inf
ROOT
ATOM      1  C   UNL     1      18.644  11.667 -13.527  1.00  0.00     0.000 C 
ENDROOT
BRANCH   1   2
ATOM      2  C   UNL     1      19.904  12.546 -13.592  1.00  0.00     0.000 C 
BRANCH   2   3
ATOM      3  C   UNL     1      20.144  13.127 -14.995  1.00  0.00     0.000 C 
BRANCH   3   4
ATOM      4  C   UNL     1      21.153  12.303 -15.816  1.00  0.00     0.000 C 
BRANCH   4   5
ATOM      5  C   UNL     1      22.614  12.789 -15.727  1.00  0.00     0.000 C 
BRANCH   5   6
ATOM      6  C   UNL     1      22.840  14.267 -16.097  1.00  0.00     0.000 C 
BRANCH   6   7
ATOM      7  C   UNL     1      23.070  15.217 -14.904  1.00  0.00     0.006 C 
BRANCH   7   8
ATOM      8  C   UNL     1      22.155  16.454 -14.905  1.00  0.00     0.053 C 
BRANCH   8   9
ATOM      9  C   UNL     1      22.815  17.662 -14.310  1.00  0.00     0.041 C 
ATOM     10  O   UNL     1      23.073  18.663 -15.029  1.00  0.00    -0.550 OA
ATOM     11  O   UNL     1      23.112  17.696 -12.954  1.00  0.00    -0.550 OA
ENDBRANCH   8   9
ENDBRANCH   7   8
ENDBRANCH   6   7
ENDBRANCH   5   6
ENDBRANCH   4   5
ENDBRANCH   3   4
ENDBRANCH   2   3
ENDBRANCH   1   2
BRANCH   1  12
ATOM     12  C   UNL     1      18.969  10.165 -13.612  1.00  0.00     0.000 C 
BRANCH  12  13
ATOM     13  C   UNL     1      17.767   9.328 -14.074  1.00  0.00    -0.000 C 
BRANCH  13  14
ATOM     14  C   UNL     1      17.600   9.327 -15.603  1.00  0.00    -0.000 C 
BRANCH  14  15
ATOM     15  C   UNL     1      16.175   8.957 -16.043  1.00  0.00    -0.000 C 
BRANCH  15  16
ATOM     16  C   UNL     1      15.165   9.020 -14.887  1.00  0.00    -0.000 C 
BRANCH  16  17
ATOM     17  C   UNL     1      14.179  10.179 -15.082  1.00  0.00    -0.000 C 
BRANCH  17  18
ATOM     18  C   UNL     1      14.312  11.209 -13.950  1.00  0.00    -0.000 C 
BRANCH  18  19
ATOM     19  C   UNL     1      15.414  12.245 -14.222  1.00  0.00    -0.003 C 
ATOM     20  C   UNL     1      15.402  12.757 -15.662  1.00  0.00     0.004 C 
ENDBRANCH  18  19
ENDBRANCH  17  18
ENDBRANCH  16  17
ENDBRANCH  15  16
ENDBRANCH  14  15
ENDBRANCH  13  14
ENDBRANCH  12  13
ENDBRANCH   1  12
TORSDOF 16
ENDMDL
MODEL 5
REMARK VINA RESULT:    -3.684      1.781      2.978
REMARK INTER + INTRA:          -8.713
REMARK INTER:                  -7.640
REMARK INTRA:                  -1.073
REMARK UNBOUND:                -1.583
REMARK SMILES CCCCCCCCCCCCCCCCCC(=O)[O-]
REMARK SMILES IDX 10 1 11 2 12 3 13 4 14 5 15 6 16 7 17 8 18 9 19 10 20 11
REMARK SMILES IDX 9 12 8 13 7 14 6 15 5 16 4 17 3 18 2 19 1 20
REMARK H PARENT
REMARK Flexibility Score: inf
ROOT
ATOM      1  C   UNL     1      17.431  12.006 -14.170  1.00  0.00     0.000 C 
ENDROOT
BRANCH   1   2
ATOM      2  C   UNL     1      16.651  12.678 -15.310  1.00  0.00     0.000 C 
BRANCH   2   3
ATOM      3  C   UNL     1      15.149  12.802 -15.003  1.00  0.00     0.000 C 
BRANCH   3   4
ATOM      4  C   UNL     1      14.604  11.604 -14.207  1.00  0.00     0.000 C 
BRANCH   4   5
ATOM      5  C   UNL     1      14.138  10.410 -15.065  1.00  0.00     0.000 C 
BRANCH   5   6
ATOM      6  C   UNL     1      14.544   9.021 -14.538  1.00  0.00     0.000 C 
BRANCH   6   7
ATOM      7  C   UNL     1      15.330   8.144 -15.533  1.00  0.00     0.006 C 
BRANCH   7   8
ATOM      8  C   UNL     1      16.574   8.831 -16.125  1.00  0.00     0.053 C 
BRANCH   8   9
ATOM      9  C   UNL     1      17.752   8.790 -15.200  1.00  0.00     0.041 C 
ATOM     10  O   UNL     1      18.923   8.793 -15.662  1.00  0.00    -0.550 OA
ATOM     11  O   UNL     1      17.558   8.786 -13.824  1.00  0.00    -0.550 OA
ENDBRANCH   8   9
ENDBRANCH   7   8
ENDBRANCH   6   7
ENDBRANCH   5   6
ENDBRANCH   4   5
ENDBRANCH   3   4
ENDBRANCH   2   3
ENDBRANCH   1   2
BRANCH   1  12
ATOM     12  C   UNL     1      18.955  12.154 -14.331  1.00  0.00     0.000 C 
BRANCH  12  13
ATOM     13  C   UNL     1      19.339  13.337 -15.232  1.00  0.00    -0.000 C 
BRANCH  13  14
ATOM     14  C   UNL     1      20.722  13.916 -14.888  1.00  0.00    -0.000 C 
BRANCH  14  15
ATOM     15  C   UNL     1      21.216  13.483 -13.499  1.00  0.00    -0.000 C 
BRANCH  15  16
ATOM     16  C   UNL     1      22.645  13.964 -13.204  1.00  0.00    -0.000 C 
BRANCH  16  17
ATOM     17  C   UNL     1      23.115  14.971 -14.261  1.00  0.00    -0.000 C 
BRANCH  17  18
ATOM     18  C   UNL     1      22.857  16.413 -13.799  1.00  0.00    -0.000 C 
BRANCH  18  19
ATOM     19  C   UNL     1      22.354  17.316 -14.936  1.00  0.00    -0.003 C 
ATOM     20  C   UNL     1      22.390  18.800 -14.573  1.00  0.00     0.004 C 
ENDBRANCH  18  19
ENDBRANCH  17  18
ENDBRANCH  16  17
ENDBRANCH  15  16
ENDBRANCH  14  15
ENDBRANCH  13  14
ENDBRANCH  12  13
ENDBRANCH   1  12
TORSDOF 16
ENDMDL
MODEL 6
REMARK VINA RESULT:    -3.670      2.984      7.879
REMARK INTER + INTRA:          -8.686
REMARK INTER:                  -7.206
REMARK INTRA:                  -1.480
REMARK UNBOUND:                -1.583
REMARK SMILES CCCCCCCCCCCCCCCCCC(=O)[O-]
REMARK SMILES IDX 10 1 11 2 12 3 13 4 14 5 15 6 16 7 17 8 18 9 19 10 20 11
REMARK SMILES IDX 9 12 8 13 7 14 6 15 5 16 4 17 3 18 2 19 1 20
REMARK H PARENT
REMARK Flexibility Score: inf
ROOT
ATOM      1  C   UNL     1      16.853  12.374 -14.270  1.00  0.00     0.000 C 
ENDROOT
BRANCH   1   2
ATOM      2  C   UNL     1      17.052  12.917 -15.694  1.00  0.00     0.000 C 
BRANCH   2   3
ATOM      3  C   UNL     1      18.532  12.958 -16.108  1.00  0.00     0.000 C 
BRANCH   3   4
ATOM      4  C   UNL     1      19.212  14.293 -15.757  1.00  0.00     0.000 C 
BRANCH   4   5
ATOM      5  C   UNL     1      20.754  14.258 -15.760  1.00  0.00     0.000 C 
BRANCH   5   6
ATOM      6  C   UNL     1      21.415  14.256 -14.369  1.00  0.00     0.000 C 
BRANCH   6   7
ATOM      7  C   UNL     1      22.809  14.910 -14.302  1.00  0.00     0.006 C 
BRANCH   7   8
ATOM      8  C   UNL     1      22.905  16.255 -15.045  1.00  0.00     0.053 C 
BRANCH   8   9
ATOM      9  C   UNL     1      22.748  17.433 -14.132  1.00  0.00     0.041 C 
ATOM     10  O   UNL     1      23.124  17.361 -12.933  1.00  0.00    -0.550 OA
ATOM     11  O   UNL     1      22.219  18.623 -14.615  1.00  0.00    -0.550 OA
ENDBRANCH   8   9
ENDBRANCH   7   8
ENDBRANCH   6   7
ENDBRANCH   5   6
ENDBRANCH   4   5
ENDBRANCH   3   4
ENDBRANCH   2   3
ENDBRANCH   1   2
BRANCH   1  12
ATOM     12  C   UNL     1      15.397  12.498 -13.790  1.00  0.00     0.000 C 
BRANCH  12  13
ATOM     13  C   UNL     1      14.632  11.169 -13.881  1.00  0.00    -0.000 C 
BRANCH  13  14
ATOM     14  C   UNL     1      14.685  10.552 -15.289  1.00  0.00    -0.000 C 
BRANCH  14  15
ATOM     15  C   UNL     1      14.472   9.031 -15.278  1.00  0.00    -0.000 C 
BRANCH  15  16
ATOM     16  C   UNL     1      15.765   8.251 -15.557  1.00  0.00    -0.000 C 
BRANCH  16  17
ATOM     17  C   UNL     1      16.851   9.173 -16.125  1.00  0.00    -0.000 C 
BRANCH  17  18
ATOM     18  C   UNL     1      18.225   8.837 -15.527  1.00  0.00    -0.000 C 
BRANCH  18  19
ATOM     19  C   UNL     1      18.591   9.746 -14.344  1.00  0.00    -0.003 C 
ATOM     20  C   UNL     1      20.061  10.169 -14.356  1.00  0.00     0.004 C 
ENDBRANCH  18  19
ENDBRANCH  17  18
ENDBRANCH  16  17
ENDBRANCH  15  16
ENDBRANCH  14  15
ENDBRANCH  13  14
ENDBRANCH  12  13
ENDBRANCH   1  12
TORSDOF 16
ENDMDL
MODEL 7
REMARK VINA RESULT:    -3.341      2.349      4.156
REMARK INTER + INTRA:          -8.048
REMARK INTER:                  -6.721
REMARK INTRA:                  -1.327
REMARK UNBOUND:                -1.583
REMARK SMILES CCCCCCCCCCCCCCCCCC(=O)[O-]
REMARK SMILES IDX 10 1 11 2 12 3 13 4 14 5 15 6 16 7 17 8 18 9 19 10 20 11
REMARK SMILES IDX 9 12 8 13 7 14 6 15 5 16 4 17 3 18 2 19 1 20
REMARK H PARENT
REMARK Flexibility Score: inf
ROOT
ATOM      1  C   UNL     1      15.692  12.583 -13.941  1.00  0.00     0.000 C 
ENDROOT
BRANCH   1   2
ATOM      2  C   UNL     1      15.183  11.142 -13.776  1.00  0.00     0.000 C 
BRANCH   2   3
ATOM      3  C   UNL     1      14.004  10.824 -14.711  1.00  0.00     0.000 C 
BRANCH   3   4
ATOM      4  C   UNL     1      14.350   9.757 -15.764  1.00  0.00     0.000 C 
BRANCH   4   5
ATOM      5  C   UNL     1      15.846   9.661 -16.125  1.00  0.00     0.000 C 
BRANCH   5   6
ATOM      6  C   UNL     1      16.528   8.328 -15.759  1.00  0.00     0.000 C 
BRANCH   6   7
ATOM      7  C   UNL     1      18.045   8.272 -16.023  1.00  0.00     0.006 C 
BRANCH   7   8
ATOM      8  C   UNL     1      18.714   9.655 -16.123  1.00  0.00     0.053 C 
BRANCH   8   9
ATOM      9  C   UNL     1      19.888   9.797 -15.202  1.00  0.00     0.041 C 
ATOM     10  O   UNL     1      19.713  10.099 -13.992  1.00  0.00    -0.550 OA
ATOM     11  O   UNL     1      21.174   9.560 -15.670  1.00  0.00    -0.550 OA
ENDBRANCH   8   9
ENDBRANCH   7   8
ENDBRANCH   6   7
ENDBRANCH   5   6
ENDBRANCH   4   5
ENDBRANCH   3   4
ENDBRANCH   2   3
ENDBRANCH   1   2
BRANCH   1  12
ATOM     12  C   UNL     1      15.403  13.153 -15.340  1.00  0.00     0.000 C 
BRANCH  12  13
ATOM     13  C   UNL     1      16.686  13.497 -16.112  1.00  0.00    -0.000 C 
BRANCH  13  14
ATOM     14  C   UNL     1      17.941  12.870 -15.480  1.00  0.00    -0.000 C 
BRANCH  14  15
ATOM     15  C   UNL     1      19.192  13.745 -15.657  1.00  0.00    -0.000 C 
BRANCH  15  16
ATOM     16  C   UNL     1      20.188  13.591 -14.498  1.00  0.00    -0.000 C 
BRANCH  16  17
ATOM     17  C   UNL     1      21.625  13.847 -14.971  1.00  0.00    -0.000 C 
BRANCH  17  18
ATOM     18  C   UNL     1      22.225  15.072 -14.267  1.00  0.00    -0.000 C 
BRANCH  18  19
ATOM     19  C   UNL     1      23.030  14.696 -13.013  1.00  0.00    -0.003 C 
ATOM     20  C   UNL     1      22.833  13.238 -12.599  1.00  0.00     0.004 C 
ENDBRANCH  18  19
ENDBRANCH  17  18
ENDBRANCH  16  17
ENDBRANCH  15  16
ENDBRANCH  14  15
ENDBRANCH  13  14
ENDBRANCH  12  13
ENDBRANCH   1  12
TORSDOF 16
ENDMDL
MODEL 8
REMARK VINA RESULT:    -3.196      3.077      6.719
REMARK INTER + INTRA:          -7.769
REMARK INTER:                  -6.222
REMARK INTRA:                  -1.548
REMARK UNBOUND:                -1.583
REMARK SMILES CCCCCCCCCCCCCCCCCC(=O)[O-]
REMARK SMILES IDX 10 1 11 2 12 3 13 4 14 5 15 6 16 7 17 8 18 9 19 10 20 11
REMARK SMILES IDX 9 12 8 13 7 14 6 15 5 16 4 17 3 18 2 19 1 20
REMARK H PARENT
REMARK Flexibility Score: inf
ROOT
ATOM      1  C   UNL     1      17.280   9.169 -15.335  1.00  0.00     0.000 C 
ENDROOT
BRANCH   1   2
ATOM      2  C   UNL     1      18.515   8.673 -16.104  1.00  0.00     0.000 C 
BRANCH   2   3
ATOM      3  C   UNL     1      19.805   9.392 -15.673  1.00  0.00     0.000 C 
BRANCH   3   4
ATOM      4  C   UNL     1      21.068   8.550 -15.925  1.00  0.00     0.000 C 
BRANCH   4   5
ATOM      5  C   UNL     1      22.376   9.358 -16.041  1.00  0.00     0.000 C 
BRANCH   5   6
ATOM      6  C   UNL     1      22.202  10.888 -16.093  1.00  0.00     0.000 C 
BRANCH   6   7
ATOM      7  C   UNL     1      22.241  11.601 -14.726  1.00  0.00     0.006 C 
BRANCH   7   8
ATOM      8  C   UNL     1      22.895  12.994 -14.766  1.00  0.00     0.053 C 
BRANCH   8   9
ATOM      9  C   UNL     1      22.553  13.828 -13.569  1.00  0.00     0.041 C 
ATOM     10  O   UNL     1      22.572  15.085 -13.644  1.00  0.00    -0.550 OA
ATOM     11  O   UNL     1      22.177  13.218 -12.379  1.00  0.00    -0.550 OA
ENDBRANCH   8   9
ENDBRANCH   7   8
ENDBRANCH   6   7
ENDBRANCH   5   6
ENDBRANCH   4   5
ENDBRANCH   3   4
ENDBRANCH   2   3
ENDBRANCH   1   2
BRANCH   1  12
ATOM     12  C   UNL     1      16.010   8.375 -15.686  1.00  0.00     0.000 C 
BRANCH  12  13
ATOM     13  C   UNL     1      14.781   8.853 -14.898  1.00  0.00    -0.000 C 
BRANCH  13  14
ATOM     14  C   UNL     1      15.101  10.034 -13.965  1.00  0.00    -0.000 C 
BRANCH  14  15
ATOM     15  C   UNL     1      14.543  11.368 -14.487  1.00  0.00    -0.000 C 
BRANCH  15  16
ATOM     16  C   UNL     1      15.148  11.771 -15.840  1.00  0.00    -0.000 C 
BRANCH  16  17
ATOM     17  C   UNL     1      16.045  13.006 -15.695  1.00  0.00    -0.000 C 
BRANCH  17  18
ATOM     18  C   UNL     1      17.486  12.692 -16.121  1.00  0.00    -0.000 C 
BRANCH  18  19
ATOM     19  C   UNL     1      18.488  12.842 -14.966  1.00  0.00    -0.003 C 
ATOM     20  C   UNL     1      18.125  11.985 -13.753  1.00  0.00     0.004 C 
ENDBRANCH  18  19
ENDBRANCH  17  18
ENDBRANCH  16  17
ENDBRANCH  15  16
ENDBRANCH  14  15
ENDBRANCH  13  14
ENDBRANCH  12  13
ENDBRANCH   1  12
TORSDOF 16
ENDMDL
