MODEL 1
REMARK VINA RESULT:    -4.959      0.000      0.000
REMARK INTER + INTRA:          -8.569
REMARK INTER:                  -7.859
REMARK INTRA:                  -0.711
REMARK UNBOUND:                -0.711
REMARK SMILES CCCCCCCCCCCC(=O)[O-]
REMARK SMILES IDX 7 1 8 2 9 3 10 4 11 5 12 6 13 7 14 8 6 9 5 10 4 11 3 12 2 13
REMARK SMILES IDX 1 14
REMARK H PARENT
REMARK Flexibility Score: inf
ROOT
ATOM      1  C   UNL     1      49.923  20.125  50.438  1.00  0.00     0.000 C 
ENDROOT
BRANCH   1   2
ATOM      2  C   UNL     1      48.551  20.411  49.803  1.00  0.00     0.000 C 
BRANCH   2   3
ATOM      3  C   UNL     1      47.634  21.247  50.713  1.00  0.00     0.000 C 
BRANCH   3   4
ATOM      4  C   UNL     1      48.241  21.621  52.077  1.00  0.00     0.006 C 
BRANCH   4   5
ATOM      5  C   UNL     1      48.613  23.106  52.179  1.00  0.00     0.053 C 
BRANCH   5   6
ATOM      6  C   UNL     1      47.557  23.858  52.925  1.00  0.00     0.041 C 
ATOM      7  O   UNL     1      47.065  24.911  52.439  1.00  0.00    -0.550 OA
ATOM      8  O   UNL     1      47.078  23.370  54.134  1.00  0.00    -0.550 OA
ENDBRANCH   5   6
ENDBRANCH   4   5
ENDBRANCH   3   4
ENDBRANCH   2   3
ENDBRANCH   1   2
BRANCH   1   9
ATOM      9  C   UNL     1      51.039  21.005  49.853  1.00  0.00     0.000 C 
BRANCH   9  10
ATOM     10  C   UNL     1      52.026  21.496  50.927  1.00  0.00    -0.000 C 
BRANCH  10  11
ATOM     11  C   UNL     1      53.480  21.107  50.619  1.00  0.00    -0.000 C 
BRANCH  11  12
ATOM     12  C   UNL     1      53.597  20.182  49.395  1.00  0.00    -0.000 C 
BRANCH  12  13
ATOM     13  C   UNL     1      55.012  20.171  48.797  1.00  0.00    -0.003 C 
ATOM     14  C   UNL     1      55.339  21.449  48.024  1.00  0.00     0.004 C 
ENDBRANCH  12  13
ENDBRANCH  11  12
ENDBRANCH  10  11
ENDBRANCH   9  10
ENDBRANCH   1   9
TORSDOF 10
ENDMDL
MODEL 2
REMARK VINA RESULT:    -4.875      1.925      2.991
REMARK INTER + INTRA:          -8.436
REMARK INTER:                  -7.795
REMARK INTRA:                  -0.641
REMARK UNBOUND:                -0.711
REMARK SMILES CCCCCCCCCCCC(=O)[O-]
REMARK SMILES IDX 7 1 8 2 9 3 10 4 11 5 12 6 13 7 14 8 6 9 5 10 4 11 3 12 2 13
REMARK SMILES IDX 1 14
REMARK H PARENT
REMARK Flexibility Score: inf
ROOT
ATOM      1  C   UNL     1      51.541  21.690  51.317  1.00  0.00     0.000 C 
ENDROOT
BRANCH   1   2
ATOM      2  C   UNL     1      50.887  21.138  50.038  1.00  0.00     0.000 C 
BRANCH   2   3
ATOM      3  C   UNL     1      50.657  19.617  50.092  1.00  0.00     0.000 C 
BRANCH   3   4
ATOM      4  C   UNL     1      49.192  19.177  49.919  1.00  0.00     0.006 C 
BRANCH   4   5
ATOM      5  C   UNL     1      48.215  20.358  49.862  1.00  0.00     0.053 C 
BRANCH   5   6
ATOM      6  C   UNL     1      47.429  20.445  51.131  1.00  0.00     0.041 C 
ATOM      7  O   UNL     1      46.572  19.564  51.407  1.00  0.00    -0.550 OA
ATOM      8  O   UNL     1      47.675  21.472  52.034  1.00  0.00    -0.550 OA
ENDBRANCH   5   6
ENDBRANCH   4   5
ENDBRANCH   3   4
ENDBRANCH   2   3
ENDBRANCH   1   2
BRANCH   1   9
ATOM      9  C   UNL     1      53.018  21.287  51.444  1.00  0.00     0.000 C 
BRANCH   9  10
ATOM     10  C   UNL     1      53.791  21.460  50.124  1.00  0.00    -0.000 C 
BRANCH  10  11
ATOM     11  C   UNL     1      54.305  20.126  49.560  1.00  0.00    -0.000 C 
BRANCH  11  12
ATOM     12  C   UNL     1      55.394  20.318  48.489  1.00  0.00    -0.000 C 
BRANCH  12  13
ATOM     13  C   UNL     1      55.441  21.756  47.950  1.00  0.00    -0.003 C 
ATOM     14  C   UNL     1      56.223  21.873  46.642  1.00  0.00     0.004 C 
ENDBRANCH  12  13
ENDBRANCH  11  12
ENDBRANCH  10  11
ENDBRANCH   9  10
ENDBRANCH   1   9
TORSDOF 10
ENDMDL
MODEL 3
REMARK VINA RESULT:    -4.864      3.016      3.674
REMARK INTER + INTRA:          -8.417
REMARK INTER:                  -7.958
REMARK INTRA:                  -0.460
REMARK UNBOUND:                -0.711
REMARK SMILES CCCCCCCCCCCC(=O)[O-]
REMARK SMILES IDX 7 1 8 2 9 3 10 4 11 5 12 6 13 7 14 8 6 9 5 10 4 11 3 12 2 13
REMARK SMILES IDX 1 14
REMARK H PARENT
REMARK Flexibility Score: inf
ROOT
ATOM      1  C   UNL     1      49.962  19.628  50.246  1.00  0.00     0.000 C 
ENDROOT
BRANCH   1   2
ATOM      2  C   UNL     1      48.883  20.633  49.807  1.00  0.00     0.000 C 
BRANCH   2   3
ATOM      3  C   UNL     1      47.742  20.771  50.830  1.00  0.00     0.000 C 
BRANCH   3   4
ATOM      4  C   UNL     1      46.552  19.820  50.605  1.00  0.00     0.006 C 
BRANCH   4   5
ATOM      5  C   UNL     1      46.094  19.121  51.892  1.00  0.00     0.053 C 
BRANCH   5   6
ATOM      6  C   UNL     1      45.070  18.077  51.581  1.00  0.00     0.041 C 
ATOM      7  O   UNL     1      45.183  16.916  52.057  1.00  0.00    -0.550 OA
ATOM      8  O   UNL     1      43.962  18.397  50.806  1.00  0.00    -0.550 OA
ENDBRANCH   5   6
ENDBRANCH   4   5
ENDBRANCH   3   4
ENDBRANCH   2   3
ENDBRANCH   1   2
BRANCH   1   9
ATOM      9  C   UNL     1      50.880  20.189  51.343  1.00  0.00     0.000 C 
BRANCH   9  10
ATOM     10  C   UNL     1      51.693  21.405  50.864  1.00  0.00    -0.000 C 
BRANCH  10  11
ATOM     11  C   UNL     1      53.180  21.079  50.655  1.00  0.00    -0.000 C 
BRANCH  11  12
ATOM     12  C   UNL     1      53.430  20.262  49.376  1.00  0.00    -0.000 C 
BRANCH  12  13
ATOM     13  C   UNL     1      54.914  20.234  48.977  1.00  0.00    -0.003 C 
ATOM     14  C   UNL     1      55.300  21.383  48.046  1.00  0.00     0.004 C 
ENDBRANCH  12  13
ENDBRANCH  11  12
ENDBRANCH  10  11
ENDBRANCH   9  10
ENDBRANCH   1   9
TORSDOF 10
ENDMDL
MODEL 4
REMARK VINA RESULT:    -4.811      1.503      2.089
REMARK INTER + INTRA:          -8.335
REMARK INTER:                  -7.403
REMARK INTRA:                  -0.932
REMARK UNBOUND:                -0.711
REMARK SMILES CCCCCCCCCCCC(=O)[O-]
REMARK SMILES IDX 7 1 8 2 9 3 10 4 11 5 12 6 13 7 14 8 6 9 5 10 4 11 3 12 2 13
REMARK SMILES IDX 1 14
REMARK H PARENT
REMARK Flexibility Score: inf
ROOT
ATOM      1  C   UNL     1      48.836  19.472  50.105  1.00  0.00     0.000 C 
ENDROOT
BRANCH   1   2
ATOM      2  C   UNL     1      48.345  20.924  50.250  1.00  0.00     0.000 C 
BRANCH   2   3
ATOM      3  C   UNL     1      47.774  21.225  51.646  1.00  0.00     0.000 C 
BRANCH   3   4
ATOM      4  C   UNL     1      48.033  22.655  52.157  1.00  0.00     0.006 C 
BRANCH   4   5
ATOM      5  C   UNL     1      49.442  22.837  52.734  1.00  0.00     0.053 C 
BRANCH   5   6
ATOM      6  C   UNL     1      49.592  22.059  54.002  1.00  0.00     0.041 C 
ATOM      7  O   UNL     1      50.622  21.363  54.201  1.00  0.00    -0.550 OA
ATOM      8  O   UNL     1      48.616  22.139  54.987  1.00  0.00    -0.550 OA
ENDBRANCH   5   6
ENDBRANCH   4   5
ENDBRANCH   3   4
ENDBRANCH   2   3
ENDBRANCH   1   2
BRANCH   1   9
ATOM      9  C   UNL     1      50.358  19.345  50.270  1.00  0.00     0.000 C 
BRANCH   9  10
ATOM     10  C   UNL     1      51.097  20.656  49.943  1.00  0.00    -0.000 C 
BRANCH  10  11
ATOM     11  C   UNL     1      52.127  21.040  51.017  1.00  0.00    -0.000 C 
BRANCH  11  12
ATOM     12  C   UNL     1      53.559  21.116  50.461  1.00  0.00    -0.000 C 
BRANCH  12  13
ATOM     13  C   UNL     1      53.777  20.177  49.265  1.00  0.00    -0.003 C 
ATOM     14  C   UNL     1      55.246  20.063  48.860  1.00  0.00     0.004 C 
ENDBRANCH  12  13
ENDBRANCH  11  12
ENDBRANCH  10  11
ENDBRANCH   9  10
ENDBRANCH   1   9
TORSDOF 10
ENDMDL
MODEL 5
REMARK VINA RESULT:    -4.721      4.872      5.966
REMARK INTER + INTRA:          -8.191
REMARK INTER:                  -7.574
REMARK INTRA:                  -0.617
REMARK UNBOUND:                -0.711
REMARK SMILES CCCCCCCCCCCC(=O)[O-]
REMARK SMILES IDX 7 1 8 2 9 3 10 4 11 5 12 6 13 7 14 8 6 9 5 10 4 11 3 12 2 13
REMARK SMILES IDX 1 14
REMARK H PARENT
REMARK Flexibility Score: inf
ROOT
ATOM      1  C   UNL     1      51.486  20.675  53.114  1.00  0.00     0.000 C 
ENDROOT
BRANCH   1   2
ATOM      2  C   UNL     1      52.293  20.846  54.413  1.00  0.00     0.000 C 
BRANCH   2   3
ATOM      3  C   UNL     1      53.721  21.364  54.166  1.00  0.00     0.000 C 
BRANCH   3   4
ATOM      4  C   UNL     1      54.046  22.711  54.837  1.00  0.00     0.006 C 
BRANCH   4   5
ATOM      5  C   UNL     1      54.887  22.558  56.111  1.00  0.00     0.053 C 
BRANCH   5   6
ATOM      6  C   UNL     1      56.309  22.935  55.846  1.00  0.00     0.041 C 
ATOM      7  O   UNL     1      56.622  23.510  54.770  1.00  0.00    -0.550 OA
ATOM      8  O   UNL     1      57.283  22.697  56.807  1.00  0.00    -0.550 OA
ENDBRANCH   5   6
ENDBRANCH   4   5
ENDBRANCH   3   4
ENDBRANCH   2   3
ENDBRANCH   1   2
BRANCH   1   9
ATOM      9  C   UNL     1      51.970  21.606  51.992  1.00  0.00     0.000 C 
BRANCH   9  10
ATOM     10  C   UNL     1      51.341  21.262  50.629  1.00  0.00    -0.000 C 
BRANCH  10  11
ATOM     11  C   UNL     1      52.282  20.442  49.732  1.00  0.00    -0.000 C 
BRANCH  11  12
ATOM     12  C   UNL     1      53.765  20.662  50.076  1.00  0.00    -0.000 C 
BRANCH  12  13
ATOM     13  C   UNL     1      54.706  20.155  48.972  1.00  0.00    -0.003 C 
ATOM     14  C   UNL     1      55.188  21.271  48.045  1.00  0.00     0.004 C 
ENDBRANCH  12  13
ENDBRANCH  11  12
ENDBRANCH  10  11
ENDBRANCH   9  10
ENDBRANCH   1   9
TORSDOF 10
ENDMDL
MODEL 6
REMARK VINA RESULT:    -4.676      2.295      3.182
REMARK INTER + INTRA:          -8.120
REMARK INTER:                  -7.347
REMARK INTRA:                  -0.773
REMARK UNBOUND:                -0.711
REMARK SMILES CCCCCCCCCCCC(=O)[O-]
REMARK SMILES IDX 7 1 8 2 9 3 10 4 11 5 12 6 13 7 14 8 6 9 5 10 4 11 3 12 2 13
REMARK SMILES IDX 1 14
REMARK H PARENT
REMARK Flexibility Score: inf
ROOT
ATOM      1  C   UNL     1      51.346  23.177  52.232  1.00  0.00     0.000 C 
ENDROOT
BRANCH   1   2
ATOM      2  C   UNL     1      50.225  23.025  53.276  1.00  0.00     0.000 C 
BRANCH   2   3
ATOM      3  C   UNL     1      48.820  23.213  52.677  1.00  0.00     0.000 C 
BRANCH   3   4
ATOM      4  C   UNL     1      48.056  21.906  52.395  1.00  0.00     0.006 C 
BRANCH   4   5
ATOM      5  C   UNL     1      47.968  21.576  50.899  1.00  0.00     0.053 C 
BRANCH   5   6
ATOM      6  C   UNL     1      47.763  20.109  50.700  1.00  0.00     0.041 C 
ATOM      7  O   UNL     1      48.588  19.439  50.023  1.00  0.00    -0.550 OA
ATOM      8  O   UNL     1      46.689  19.468  51.304  1.00  0.00    -0.550 OA
ENDBRANCH   5   6
ENDBRANCH   4   5
ENDBRANCH   3   4
ENDBRANCH   2   3
ENDBRANCH   1   2
BRANCH   1   9
ATOM      9  C   UNL     1      52.201  21.908  52.095  1.00  0.00     0.000 C 
BRANCH   9  10
ATOM     10  C   UNL     1      51.524  20.833  51.225  1.00  0.00    -0.000 C 
BRANCH  10  11
ATOM     11  C   UNL     1      52.251  20.606  49.891  1.00  0.00    -0.000 C 
BRANCH  11  12
ATOM     12  C   UNL     1      53.777  20.759  50.016  1.00  0.00    -0.000 C 
BRANCH  12  13
ATOM     13  C   UNL     1      54.525  20.231  48.782  1.00  0.00    -0.003 C 
ATOM     14  C   UNL     1      55.298  21.324  48.044  1.00  0.00     0.004 C 
ENDBRANCH  12  13
ENDBRANCH  11  12
ENDBRANCH  10  11
ENDBRANCH   9  10
ENDBRANCH   1   9
TORSDOF 10
ENDMDL
MODEL 7
REMARK VINA RESULT:    -4.560      1.191      1.859
REMARK INTER + INTRA:          -7.936
REMARK INTER:                  -7.362
REMARK INTRA:                  -0.574
REMARK UNBOUND:                -0.711
REMARK SMILES CCCCCCCCCCCC(=O)[O-]
REMARK SMILES IDX 7 1 8 2 9 3 10 4 11 5 12 6 13 7 14 8 6 9 5 10 4 11 3 12 2 13
REMARK SMILES IDX 1 14
REMARK H PARENT
REMARK Flexibility Score: inf
ROOT
ATOM      1  C   UNL     1      48.660  20.536  49.817  1.00  0.00     0.000 C 
ENDROOT
BRANCH   1   2
ATOM      2  C   UNL     1      47.739  20.993  50.961  1.00  0.00     0.000 C 
BRANCH   2   3
ATOM      3  C   UNL     1      48.281  22.225  51.709  1.00  0.00     0.000 C 
BRANCH   3   4
ATOM      4  C   UNL     1      48.149  22.162  53.241  1.00  0.00     0.006 C 
BRANCH   4   5
ATOM      5  C   UNL     1      47.583  23.454  53.846  1.00  0.00     0.053 C 
BRANCH   5   6
ATOM      6  C   UNL     1      46.550  23.137  54.879  1.00  0.00     0.041 C 
ATOM      7  O   UNL     1      45.540  23.878  55.014  1.00  0.00    -0.550 OA
ATOM      8  O   UNL     1      46.675  21.996  55.662  1.00  0.00    -0.550 OA
ENDBRANCH   5   6
ENDBRANCH   4   5
ENDBRANCH   3   4
ENDBRANCH   2   3
ENDBRANCH   1   2
BRANCH   1   9
ATOM      9  C   UNL     1      49.738  19.547  50.286  1.00  0.00     0.000 C 
BRANCH   9  10
ATOM     10  C   UNL     1      51.157  19.990  49.886  1.00  0.00    -0.000 C 
BRANCH  10  11
ATOM     11  C   UNL     1      51.838  20.845  50.966  1.00  0.00    -0.000 C 
BRANCH  11  12
ATOM     12  C   UNL     1      53.296  21.188  50.616  1.00  0.00    -0.000 C 
BRANCH  12  13
ATOM     13  C   UNL     1      53.845  20.324  49.470  1.00  0.00    -0.003 C 
ATOM     14  C   UNL     1      54.821  21.082  48.570  1.00  0.00     0.004 C 
ENDBRANCH  12  13
ENDBRANCH  11  12
ENDBRANCH  10  11
ENDBRANCH   9  10
ENDBRANCH   1   9
TORSDOF 10
ENDMDL
MODEL 8
REMARK VINA RESULT:    -4.548      2.604      3.400
REMARK INTER + INTRA:          -7.917
REMARK INTER:                  -7.038
REMARK INTRA:                  -0.879
REMARK UNBOUND:                -0.711
REMARK SMILES CCCCCCCCCCCC(=O)[O-]
REMARK SMILES IDX 7 1 8 2 9 3 10 4 11 5 12 6 13 7 14 8 6 9 5 10 4 11 3 12 2 13
REMARK SMILES IDX 1 14
REMARK H PARENT
REMARK Flexibility Score: inf
ROOT
ATOM      1  C   UNL     1      47.775  21.092  51.049  1.00  0.00     0.000 C 
ENDROOT
BRANCH   1   2
ATOM      2  C   UNL     1      48.415  22.200  51.902  1.00  0.00     0.000 C 
BRANCH   2   3
ATOM      3  C   UNL     1      48.160  22.019  53.409  1.00  0.00     0.000 C 
BRANCH   3   4
ATOM      4  C   UNL     1      49.429  21.913  54.273  1.00  0.00     0.006 C 
BRANCH   4   5
ATOM      5  C   UNL     1      50.710  22.245  53.497  1.00  0.00     0.053 C 
BRANCH   5   6
ATOM      6  C   UNL     1      51.750  21.197  53.733  1.00  0.00     0.041 C 
ATOM      7  O   UNL     1      52.868  21.272  53.159  1.00  0.00    -0.550 OA
ATOM      8  O   UNL     1      51.503  20.161  54.625  1.00  0.00    -0.550 OA
ENDBRANCH   5   6
ENDBRANCH   4   5
ENDBRANCH   3   4
ENDBRANCH   2   3
ENDBRANCH   1   2
BRANCH   1   9
ATOM      9  C   UNL     1      48.720  20.569  49.956  1.00  0.00     0.000 C 
BRANCH   9  10
ATOM     10  C   UNL     1      50.071  20.096  50.523  1.00  0.00    -0.000 C 
BRANCH  10  11
ATOM     11  C   UNL     1      51.247  20.969  50.059  1.00  0.00    -0.000 C 
BRANCH  11  12
ATOM     12  C   UNL     1      52.410  20.139  49.488  1.00  0.00    -0.000 C 
BRANCH  12  13
ATOM     13  C   UNL     1      53.784  20.730  49.839  1.00  0.00    -0.003 C 
ATOM     14  C   UNL     1      54.919  20.125  49.013  1.00  0.00     0.004 C 
ENDBRANCH  12  13
ENDBRANCH  11  12
ENDBRANCH  10  11
ENDBRANCH   9  10
ENDBRANCH   1   9
TORSDOF 10
ENDMDL
MODEL 9
REMARK VINA RESULT:    -4.501      3.356      4.462
REMARK INTER + INTRA:          -7.842
REMARK INTER:                  -6.774
REMARK INTRA:                  -1.069
REMARK UNBOUND:                -0.711
REMARK SMILES CCCCCCCCCCCC(=O)[O-]
REMARK SMILES IDX 7 1 8 2 9 3 10 4 11 5 12 6 13 7 14 8 6 9 5 10 4 11 3 12 2 13
REMARK SMILES IDX 1 14
REMARK H PARENT
REMARK Flexibility Score: inf
ROOT
ATOM      1  C   UNL     1      49.823  22.564  51.680  1.00  0.00     0.000 C 
ENDROOT
BRANCH   1   2
ATOM      2  C   UNL     1      50.831  22.712  52.833  1.00  0.00     0.000 C 
BRANCH   2   3
ATOM      3  C   UNL     1      51.982  23.679  52.501  1.00  0.00     0.000 C 
BRANCH   3   4
ATOM      4  C   UNL     1      53.391  23.137  52.803  1.00  0.00     0.006 C 
BRANCH   4   5
ATOM      5  C   UNL     1      53.372  21.881  53.684  1.00  0.00     0.053 C 
BRANCH   5   6
ATOM      6  C   UNL     1      53.715  22.230  55.097  1.00  0.00     0.041 C 
ATOM      7  O   UNL     1      54.919  22.260  55.467  1.00  0.00    -0.550 OA
ATOM      8  O   UNL     1      52.711  22.570  55.994  1.00  0.00    -0.550 OA
ENDBRANCH   5   6
ENDBRANCH   4   5
ENDBRANCH   3   4
ENDBRANCH   2   3
ENDBRANCH   1   2
BRANCH   1   9
ATOM      9  C   UNL     1      49.976  21.232  50.930  1.00  0.00     0.000 C 
BRANCH   9  10
ATOM     10  C   UNL     1      51.033  21.305  49.812  1.00  0.00    -0.000 C 
BRANCH  10  11
ATOM     11  C   UNL     1      52.128  20.237  49.961  1.00  0.00    -0.000 C 
BRANCH  11  12
ATOM     12  C   UNL     1      53.541  20.842  50.009  1.00  0.00    -0.000 C 
BRANCH  12  13
ATOM     13  C   UNL     1      54.482  20.224  48.963  1.00  0.00    -0.003 C 
ATOM     14  C   UNL     1      55.180  21.273  48.098  1.00  0.00     0.004 C 
ENDBRANCH  12  13
ENDBRANCH  11  12
ENDBRANCH  10  11
ENDBRANCH   9  10
ENDBRANCH   1   9
TORSDOF 10
ENDMDL
