MODEL 1
REMARK VINA RESULT:    -3.726      0.000      0.000
REMARK INTER + INTRA:          -4.400
REMARK INTER:                  -4.379
REMARK INTRA:                  -0.021
REMARK UNBOUND:                -0.021
REMARK SMILES CCCCC(=O)[O-]
REMARK SMILES IDX 4 1 5 2 6 3 7 4 3 5 2 6 1 7
REMARK H PARENT
REMARK Flexibility Score: inf
ROOT
ATOM      1  C   UNL     1      21.888 -11.087  22.571  1.00  0.00     0.053 C 
ENDROOT
BRANCH   1   2
ATOM      2  C   UNL     1      22.164 -12.211  21.620  1.00  0.00     0.041 C 
ATOM      3  O   UNL     1      23.345 -12.612  21.441  1.00  0.00    -0.550 OA
ATOM      4  O   UNL     1      21.116 -12.838  20.959  1.00  0.00    -0.550 OA
ENDBRANCH   1   2
BRANCH   1   5
ATOM      5  C   UNL     1      20.518 -11.237  23.247  1.00  0.00     0.006 C 
BRANCH   5   6
ATOM      6  C   UNL     1      20.524 -10.720  24.694  1.00  0.00    -0.003 C 
ATOM      7  C   UNL     1      20.880  -9.238  24.747  1.00  0.00     0.004 C 
ENDBRANCH   5   6
ENDBRANCH   1   5
TORSDOF 3
ENDMDL
MODEL 2
REMARK VINA RESULT:    -3.714      0.096      1.228
REMARK INTER + INTRA:          -4.387
REMARK INTER:                  -4.364
REMARK INTRA:                  -0.022
REMARK UNBOUND:                -0.021
REMARK SMILES CCCCC(=O)[O-]
REMARK SMILES IDX 4 1 5 2 6 3 7 4 3 5 2 6 1 7
REMARK H PARENT
REMARK Flexibility Score: inf
ROOT
ATOM      1  C   UNL     1      21.869 -11.089  22.559  1.00  0.00     0.053 C 
ENDROOT
BRANCH   1   2
ATOM      2  C   UNL     1      22.170 -12.219  21.621  1.00  0.00     0.041 C 
ATOM      3  O   UNL     1      21.233 -12.809  21.020  1.00  0.00    -0.550 OA
ATOM      4  O   UNL     1      23.485 -12.597  21.387  1.00  0.00    -0.550 OA
ENDBRANCH   1   2
BRANCH   1   5
ATOM      5  C   UNL     1      20.507 -11.265  23.244  1.00  0.00     0.006 C 
BRANCH   5   6
ATOM      6  C   UNL     1      20.492 -10.681  24.665  1.00  0.00    -0.003 C 
ATOM      7  C   UNL     1      20.799  -9.186  24.649  1.00  0.00     0.004 C 
ENDBRANCH   5   6
ENDBRANCH   1   5
TORSDOF 3
ENDMDL
MODEL 3
REMARK VINA RESULT:    -3.540      3.609      5.851
REMARK INTER + INTRA:          -4.182
REMARK INTER:                  -4.157
REMARK INTRA:                  -0.026
REMARK UNBOUND:                -0.021
REMARK SMILES CCCCC(=O)[O-]
REMARK SMILES IDX 4 1 5 2 6 3 7 4 3 5 2 6 1 7
REMARK H PARENT
REMARK Flexibility Score: inf
ROOT
ATOM      1  C   UNL     1      22.852 -14.512  20.834  1.00  0.00     0.053 C 
ENDROOT
BRANCH   1   2
ATOM      2  C   UNL     1      21.862 -13.388  20.820  1.00  0.00     0.041 C 
ATOM      3  O   UNL     1      22.059 -12.362  21.524  1.00  0.00    -0.550 OA
ATOM      4  O   UNL     1      20.741 -13.458  20.003  1.00  0.00    -0.550 OA
ENDBRANCH   1   2
BRANCH   1   5
ATOM      5  C   UNL     1      22.828 -15.310  19.524  1.00  0.00     0.006 C 
BRANCH   5   6
ATOM      6  C   UNL     1      23.151 -16.796  19.743  1.00  0.00    -0.003 C 
ATOM      7  C   UNL     1      23.212 -17.547  18.416  1.00  0.00     0.004 C 
ENDBRANCH   5   6
ENDBRANCH   1   5
TORSDOF 3
ENDMDL
MODEL 4
REMARK VINA RESULT:    -3.536      1.451      2.108
REMARK INTER + INTRA:          -4.177
REMARK INTER:                  -4.143
REMARK INTRA:                  -0.034
REMARK UNBOUND:                -0.021
REMARK SMILES CCCCC(=O)[O-]
REMARK SMILES IDX 4 1 5 2 6 3 7 4 3 5 2 6 1 7
REMARK H PARENT
REMARK Flexibility Score: inf
ROOT
ATOM      1  C   UNL     1      22.308 -12.189  21.705  1.00  0.00     0.053 C 
ENDROOT
BRANCH   1   2
ATOM      2  C   UNL     1      21.879 -13.361  20.876  1.00  0.00     0.041 C 
ATOM      3  O   UNL     1      20.798 -13.318  20.231  1.00  0.00    -0.550 OA
ATOM      4  O   UNL     1      22.689 -14.486  20.788  1.00  0.00    -0.550 OA
ENDBRANCH   1   2
BRANCH   1   5
ATOM      5  C   UNL     1      21.125 -11.551  22.446  1.00  0.00     0.006 C 
BRANCH   5   6
ATOM      6  C   UNL     1      21.518 -10.246  23.154  1.00  0.00    -0.003 C 
ATOM      7  C   UNL     1      22.608  -9.509  22.382  1.00  0.00     0.004 C 
ENDBRANCH   5   6
ENDBRANCH   1   5
TORSDOF 3
ENDMDL
MODEL 5
REMARK VINA RESULT:    -3.481      6.675      7.442
REMARK INTER + INTRA:          -4.113
REMARK INTER:                  -4.097
REMARK INTRA:                  -0.016
REMARK UNBOUND:                -0.021
REMARK SMILES CCCCC(=O)[O-]
REMARK SMILES IDX 4 1 5 2 6 3 7 4 3 5 2 6 1 7
REMARK H PARENT
REMARK Flexibility Score: inf
ROOT
ATOM      1  C   UNL     1      15.133 -13.790  18.415  1.00  0.00     0.053 C 
ENDROOT
BRANCH   1   2
ATOM      2  C   UNL     1      15.905 -13.204  17.273  1.00  0.00     0.041 C 
ATOM      3  O   UNL     1      15.546 -12.110  16.762  1.00  0.00    -0.550 OA
ATOM      4  O   UNL     1      17.039 -13.848  16.796  1.00  0.00    -0.550 OA
ENDBRANCH   1   2
BRANCH   1   5
ATOM      5  C   UNL     1      15.881 -13.638  19.746  1.00  0.00     0.006 C 
BRANCH   5   6
ATOM      6  C   UNL     1      14.922 -13.509  20.940  1.00  0.00    -0.003 C 
ATOM      7  C   UNL     1      15.506 -12.601  22.018  1.00  0.00     0.004 C 
ENDBRANCH   5   6
ENDBRANCH   1   5
TORSDOF 3
ENDMDL
MODEL 6
REMARK VINA RESULT:    -3.461      7.307      8.254
REMARK INTER + INTRA:          -4.089
REMARK INTER:                  -4.073
REMARK INTRA:                  -0.016
REMARK UNBOUND:                -0.021
REMARK SMILES CCCCC(=O)[O-]
REMARK SMILES IDX 4 1 5 2 6 3 7 4 3 5 2 6 1 7
REMARK H PARENT
REMARK Flexibility Score: inf
ROOT
ATOM      1  C   UNL     1      15.832 -13.639  19.696  1.00  0.00     0.053 C 
ENDROOT
BRANCH   1   2
ATOM      2  C   UNL     1      14.908 -13.802  20.864  1.00  0.00     0.041 C 
ATOM      3  O   UNL     1      14.925 -12.966  21.806  1.00  0.00    -0.550 OA
ATOM      4  O   UNL     1      14.005 -14.857  20.896  1.00  0.00    -0.550 OA
ENDBRANCH   1   2
BRANCH   1   5
ATOM      5  C   UNL     1      15.083 -13.732  18.360  1.00  0.00     0.006 C 
BRANCH   5   6
ATOM      6  C   UNL     1      15.792 -12.953  17.242  1.00  0.00    -0.003 C 
ATOM      7  C   UNL     1      16.951 -13.757  16.660  1.00  0.00     0.004 C 
ENDBRANCH   5   6
ENDBRANCH   1   5
TORSDOF 3
ENDMDL
MODEL 7
REMARK VINA RESULT:    -3.439      1.663      2.681
REMARK INTER + INTRA:          -4.062
REMARK INTER:                  -4.046
REMARK INTRA:                  -0.016
REMARK UNBOUND:                -0.021
REMARK SMILES CCCCC(=O)[O-]
REMARK SMILES IDX 4 1 5 2 6 3 7 4 3 5 2 6 1 7
REMARK H PARENT
REMARK Flexibility Score: inf
ROOT
ATOM      1  C   UNL     1      20.679 -10.444  24.409  1.00  0.00     0.053 C 
ENDROOT
BRANCH   1   2
ATOM      2  C   UNL     1      20.828 -11.181  23.113  1.00  0.00     0.041 C 
ATOM      3  O   UNL     1      19.905 -11.935  22.705  1.00  0.00    -0.550 OA
ATOM      4  O   UNL     1      21.970 -11.009  22.342  1.00  0.00    -0.550 OA
ENDBRANCH   1   2
BRANCH   1   5
ATOM      5  C   UNL     1      21.015  -8.954  24.259  1.00  0.00     0.006 C 
BRANCH   5   6
ATOM      6  C   UNL     1      20.789  -8.173  25.563  1.00  0.00    -0.003 C 
ATOM      7  C   UNL     1      19.716  -7.104  25.385  1.00  0.00     0.004 C 
ENDBRANCH   5   6
ENDBRANCH   1   5
TORSDOF 3
ENDMDL
MODEL 8
REMARK VINA RESULT:    -3.299      2.821      3.835
REMARK INTER + INTRA:          -3.898
REMARK INTER:                  -3.874
REMARK INTRA:                  -0.024
REMARK UNBOUND:                -0.021
REMARK SMILES CCCCC(=O)[O-]
REMARK SMILES IDX 4 1 5 2 6 3 7 4 3 5 2 6 1 7
REMARK H PARENT
REMARK Flexibility Score: inf
ROOT
ATOM      1  C   UNL     1      22.998 -14.501  21.003  1.00  0.00     0.053 C 
ENDROOT
BRANCH   1   2
ATOM      2  C   UNL     1      22.956 -15.478  19.868  1.00  0.00     0.041 C 
ATOM      3  O   UNL     1      22.623 -15.095  18.715  1.00  0.00    -0.550 OA
ATOM      4  O   UNL     1      23.316 -16.803  20.076  1.00  0.00    -0.550 OA
ENDBRANCH   1   2
BRANCH   1   5
ATOM      5  C   UNL     1      21.902 -13.435  20.879  1.00  0.00     0.006 C 
BRANCH   5   6
ATOM      6  C   UNL     1      22.246 -12.154  21.654  1.00  0.00    -0.003 C 
ATOM      7  C   UNL     1      21.036 -11.635  22.424  1.00  0.00     0.004 C 
ENDBRANCH   5   6
ENDBRANCH   1   5
TORSDOF 3
ENDMDL
MODEL 9
REMARK VINA RESULT:    -3.296      4.168      4.996
REMARK INTER + INTRA:          -3.895
REMARK INTER:                  -3.862
REMARK INTRA:                  -0.032
REMARK UNBOUND:                -0.021
REMARK SMILES CCCCC(=O)[O-]
REMARK SMILES IDX 4 1 5 2 6 3 7 4 3 5 2 6 1 7
REMARK H PARENT
REMARK Flexibility Score: inf
ROOT
ATOM      1  C   UNL     1      20.994  -8.547  24.403  1.00  0.00     0.053 C 
ENDROOT
BRANCH   1   2
ATOM      2  C   UNL     1      20.470  -7.733  25.547  1.00  0.00     0.041 C 
ATOM      3  O   UNL     1      21.119  -7.666  26.624  1.00  0.00    -0.550 OA
ATOM      4  O   UNL     1      19.285  -7.022  25.411  1.00  0.00    -0.550 OA
ENDBRANCH   1   2
BRANCH   1   5
ATOM      5  C   UNL     1      20.614 -10.028  24.537  1.00  0.00     0.006 C 
BRANCH   5   6
ATOM      6  C   UNL     1      21.204 -10.884  23.406  1.00  0.00    -0.003 C 
ATOM      7  C   UNL     1      22.110 -10.053  22.503  1.00  0.00     0.004 C 
ENDBRANCH   5   6
ENDBRANCH   1   5
TORSDOF 3
ENDMDL
