MODEL 1
REMARK VINA RESULT:    -5.258      0.000      0.000
REMARK INTER + INTRA:          -5.823
REMARK INTER:                  -5.566
REMARK INTRA:                  -0.257
REMARK UNBOUND:                -0.257
REMARK SMILES CC1=CC[C@@H]2[C@H]3[C@H](C(C)C)CC[C@]2(C)[C@@H]13
REMARK SMILES IDX 1 1 2 2 3 3 4 4 5 5 6 6 15 7 13 8 12 9 11 10 7 11 14 12 8 13
REMARK SMILES IDX 9 14 10 15
REMARK H PARENT
REMARK Flexibility Score: inf
ROOT
ATOM      1  C   UNL     1      12.260  17.781  34.186  1.00  0.00     0.039 C 
ATOM      2  C   UNL     1      13.133  17.222  35.271  1.00  0.00    -0.073 C 
ATOM      3  C   UNL     1      14.379  16.742  35.023  1.00  0.00    -0.027 C 
ATOM      4  C   UNL     1      15.201  16.180  36.188  1.00  0.00     0.031 C 
ATOM      5  C   UNL     1      14.373  16.233  37.514  1.00  0.00     0.003 C 
ATOM      6  C   UNL     1      12.961  15.686  37.201  1.00  0.00     0.004 C 
ATOM      7  C   UNL     1      12.620  17.116  36.708  1.00  0.00     0.024 C 
ATOM      8  C   UNL     1      13.695  17.612  37.706  1.00  0.00    -0.022 C 
ATOM      9  C   UNL     1      13.108  17.693  39.149  1.00  0.00     0.008 C 
ATOM     10  C   UNL     1      12.033  16.606  39.416  1.00  0.00     0.005 C 
ATOM     11  C   UNL     1      12.233  15.334  38.532  1.00  0.00    -0.005 C 
ATOM     12  C   UNL     1      14.499  18.888  37.363  1.00  0.00     0.012 C 
ENDROOT
BRANCH  11  13
ATOM     13  C   UNL     1      10.934  14.506  38.296  1.00  0.00    -0.014 C 
ATOM     14  C   UNL     1      10.262  14.005  39.584  1.00  0.00     0.007 C 
ATOM     15  C   UNL     1      11.177  13.336  37.330  1.00  0.00     0.007 C 
ENDBRANCH  11  13
TORSDOF 1
ENDMDL
MODEL 2
REMARK VINA RESULT:    -5.140     11.748     15.022
REMARK INTER + INTRA:          -5.698
REMARK INTER:                  -5.439
REMARK INTRA:                  -0.259
REMARK UNBOUND:                -0.257
REMARK SMILES CC1=CC[C@@H]2[C@H]3[C@H](C(C)C)CC[C@]2(C)[C@@H]13
REMARK SMILES IDX 1 1 2 2 3 3 4 4 5 5 6 6 15 7 13 8 12 9 11 10 7 11 14 12 8 13
REMARK SMILES IDX 9 14 10 15
REMARK H PARENT
REMARK Flexibility Score: inf
ROOT
ATOM      1  C   UNL     1       7.457  18.432  27.403  1.00  0.00     0.039 C 
ATOM      2  C   UNL     1       7.884  19.451  26.388  1.00  0.00    -0.073 C 
ATOM      3  C   UNL     1       8.224  20.720  26.735  1.00  0.00    -0.027 C 
ATOM      4  C   UNL     1       8.640  21.701  25.634  1.00  0.00     0.031 C 
ATOM      5  C   UNL     1       8.542  21.018  24.230  1.00  0.00     0.003 C 
ATOM      6  C   UNL     1       7.185  20.280  24.166  1.00  0.00     0.004 C 
ATOM      7  C   UNL     1       7.894  19.110  24.898  1.00  0.00     0.024 C 
ATOM      8  C   UNL     1       9.199  19.615  24.234  1.00  0.00    -0.022 C 
ATOM      9  C   UNL     1       9.303  19.098  22.766  1.00  0.00     0.008 C 
ATOM     10  C   UNL     1       7.915  18.960  22.084  1.00  0.00     0.005 C 
ATOM     11  C   UNL     1       6.852  19.932  22.685  1.00  0.00    -0.005 C 
ATOM     12  C   UNL     1      10.538  19.424  24.984  1.00  0.00     0.012 C 
ENDROOT
BRANCH  11  13
ATOM     13  C   UNL     1       5.377  19.460  22.505  1.00  0.00    -0.014 C 
ATOM     14  C   UNL     1       5.222  17.948  22.275  1.00  0.00     0.007 C 
ATOM     15  C   UNL     1       4.663  20.246  21.395  1.00  0.00     0.007 C 
ENDBRANCH  11  13
TORSDOF 1
ENDMDL
MODEL 3
REMARK VINA RESULT:    -5.128     11.377     13.993
REMARK INTER + INTRA:          -5.685
REMARK INTER:                  -5.382
REMARK INTRA:                  -0.303
REMARK UNBOUND:                -0.257
REMARK SMILES CC1=CC[C@@H]2[C@H]3[C@H](C(C)C)CC[C@]2(C)[C@@H]13
REMARK SMILES IDX 1 1 2 2 3 3 4 4 5 5 6 6 15 7 13 8 12 9 11 10 7 11 14 12 8 13
REMARK SMILES IDX 9 14 10 15
REMARK H PARENT
REMARK Flexibility Score: inf
ROOT
ATOM      1  C   UNL     1      11.463  19.854  25.036  1.00  0.00     0.039 C 
ATOM      2  C   UNL     1      10.117  19.639  25.663  1.00  0.00    -0.073 C 
ATOM      3  C   UNL     1       9.939  18.822  26.733  1.00  0.00    -0.027 C 
ATOM      4  C   UNL     1       8.528  18.651  27.306  1.00  0.00     0.031 C 
ATOM      5  C   UNL     1       7.495  19.471  26.464  1.00  0.00     0.003 C 
ATOM      6  C   UNL     1       7.786  19.190  24.971  1.00  0.00     0.004 C 
ATOM      7  C   UNL     1       8.869  20.296  25.072  1.00  0.00     0.024 C 
ATOM      8  C   UNL     1       7.997  20.911  26.195  1.00  0.00    -0.022 C 
ATOM      9  C   UNL     1       6.831  21.750  25.586  1.00  0.00     0.008 C 
ATOM     10  C   UNL     1       6.325  21.175  24.236  1.00  0.00     0.005 C 
ATOM     11  C   UNL     1       6.567  19.637  24.111  1.00  0.00    -0.005 C 
ATOM     12  C   UNL     1       8.692  21.681  27.341  1.00  0.00     0.012 C 
ENDROOT
BRANCH  11  13
ATOM     13  C   UNL     1       6.656  19.119  22.644  1.00  0.00    -0.014 C 
ATOM     14  C   UNL     1       5.329  18.583  22.082  1.00  0.00     0.007 C 
ATOM     15  C   UNL     1       7.767  18.071  22.480  1.00  0.00     0.007 C 
ENDBRANCH  11  13
TORSDOF 1
ENDMDL
MODEL 4
REMARK VINA RESULT:    -5.028     11.334     13.999
REMARK INTER + INTRA:          -5.579
REMARK INTER:                  -5.290
REMARK INTRA:                  -0.289
REMARK UNBOUND:                -0.257
REMARK SMILES CC1=CC[C@@H]2[C@H]3[C@H](C(C)C)CC[C@]2(C)[C@@H]13
REMARK SMILES IDX 1 1 2 2 3 3 4 4 5 5 6 6 15 7 13 8 12 9 11 10 7 11 14 12 8 13
REMARK SMILES IDX 9 14 10 15
REMARK H PARENT
REMARK Flexibility Score: inf
ROOT
ATOM      1  C   UNL     1      11.946  19.381  23.799  1.00  0.00     0.039 C 
ATOM      2  C   UNL     1      10.856  19.481  24.825  1.00  0.00    -0.073 C 
ATOM      3  C   UNL     1      10.972  18.929  26.061  1.00  0.00    -0.027 C 
ATOM      4  C   UNL     1       9.806  19.069  27.045  1.00  0.00     0.031 C 
ATOM      5  C   UNL     1       8.616  19.831  26.375  1.00  0.00     0.003 C 
ATOM      6  C   UNL     1       8.402  19.217  24.972  1.00  0.00     0.004 C 
ATOM      7  C   UNL     1       9.531  20.165  24.489  1.00  0.00     0.024 C 
ATOM      8  C   UNL     1       9.099  21.106  25.641  1.00  0.00    -0.022 C 
ATOM      9  C   UNL     1       7.858  21.953  25.221  1.00  0.00     0.008 C 
ATOM     10  C   UNL     1       6.916  21.189  24.253  1.00  0.00     0.005 C 
ATOM     11  C   UNL     1       7.006  19.639  24.427  1.00  0.00    -0.005 C 
ATOM     12  C   UNL     1      10.170  21.992  26.319  1.00  0.00     0.012 C 
ENDROOT
BRANCH  11  13
ATOM     13  C   UNL     1       6.593  18.827  23.163  1.00  0.00    -0.014 C 
ATOM     14  C   UNL     1       7.740  18.025  22.526  1.00  0.00     0.007 C 
ATOM     15  C   UNL     1       5.918  19.720  22.111  1.00  0.00     0.007 C 
ENDBRANCH  11  13
TORSDOF 1
ENDMDL
MODEL 5
REMARK VINA RESULT:    -4.973      1.531      3.259
REMARK INTER + INTRA:          -5.521
REMARK INTER:                  -5.306
REMARK INTRA:                  -0.215
REMARK UNBOUND:                -0.257
REMARK SMILES CC1=CC[C@@H]2[C@H]3[C@H](C(C)C)CC[C@]2(C)[C@@H]13
REMARK SMILES IDX 1 1 2 2 3 3 4 4 5 5 6 6 15 7 13 8 12 9 11 10 7 11 14 12 8 13
REMARK SMILES IDX 9 14 10 15
REMARK H PARENT
REMARK Flexibility Score: inf
ROOT
ATOM      1  C   UNL     1      12.173  18.085  33.765  1.00  0.00     0.039 C 
ATOM      2  C   UNL     1      12.655  18.038  35.185  1.00  0.00    -0.073 C 
ATOM      3  C   UNL     1      13.110  19.142  35.832  1.00  0.00    -0.027 C 
ATOM      4  C   UNL     1      13.594  19.004  37.280  1.00  0.00     0.031 C 
ATOM      5  C   UNL     1      13.504  17.513  37.744  1.00  0.00     0.003 C 
ATOM      6  C   UNL     1      14.106  16.640  36.618  1.00  0.00     0.004 C 
ATOM      7  C   UNL     1      12.710  16.713  35.946  1.00  0.00     0.024 C 
ATOM      8  C   UNL     1      12.138  16.884  37.375  1.00  0.00    -0.022 C 
ATOM      9  C   UNL     1      12.008  15.500  38.082  1.00  0.00     0.008 C 
ATOM     10  C   UNL     1      13.112  14.501  37.644  1.00  0.00     0.005 C 
ATOM     11  C   UNL     1      14.417  15.218  37.173  1.00  0.00    -0.005 C 
ATOM     12  C   UNL     1      10.856  17.727  37.568  1.00  0.00     0.012 C 
ENDROOT
BRANCH  11  13
ATOM     13  C   UNL     1      15.292  14.379  36.194  1.00  0.00    -0.014 C 
ATOM     14  C   UNL     1      14.971  12.876  36.190  1.00  0.00     0.007 C 
ATOM     15  C   UNL     1      16.792  14.604  36.441  1.00  0.00     0.007 C 
ENDBRANCH  11  13
TORSDOF 1
ENDMDL
MODEL 6
REMARK VINA RESULT:    -4.951     11.642     14.289
REMARK INTER + INTRA:          -5.498
REMARK INTER:                  -5.073
REMARK INTRA:                  -0.425
REMARK UNBOUND:                -0.257
REMARK SMILES CC1=CC[C@@H]2[C@H]3[C@H](C(C)C)CC[C@]2(C)[C@@H]13
REMARK SMILES IDX 1 1 2 2 3 3 4 4 5 5 6 6 15 7 13 8 12 9 11 10 7 11 14 12 8 13
REMARK SMILES IDX 9 14 10 15
REMARK H PARENT
REMARK Flexibility Score: inf
ROOT
ATOM      1  C   UNL     1       6.936  18.195  22.913  1.00  0.00     0.039 C 
ATOM      2  C   UNL     1       7.386  19.254  23.876  1.00  0.00    -0.073 C 
ATOM      3  C   UNL     1       6.603  20.315  24.203  1.00  0.00    -0.027 C 
ATOM      4  C   UNL     1       7.144  21.357  25.188  1.00  0.00     0.031 C 
ATOM      5  C   UNL     1       8.604  20.994  25.618  1.00  0.00     0.003 C 
ATOM      6  C   UNL     1       9.388  20.630  24.336  1.00  0.00     0.004 C 
ATOM      7  C   UNL     1       8.787  19.208  24.486  1.00  0.00     0.024 C 
ATOM      8  C   UNL     1       8.727  19.500  26.006  1.00  0.00    -0.022 C 
ATOM      9  C   UNL     1      10.120  19.259  26.666  1.00  0.00     0.008 C 
ATOM     10  C   UNL     1      11.297  19.589  25.710  1.00  0.00     0.005 C 
ATOM     11  C   UNL     1      10.916  20.657  24.636  1.00  0.00    -0.005 C 
ATOM     12  C   UNL     1       7.599  18.856  26.844  1.00  0.00     0.012 C 
ENDROOT
BRANCH  11  13
ATOM     13  C   UNL     1      11.776  20.596  23.337  1.00  0.00    -0.014 C 
ATOM     14  C   UNL     1      11.057  21.112  22.080  1.00  0.00     0.007 C 
ATOM     15  C   UNL     1      12.333  19.186  23.093  1.00  0.00     0.007 C 
ENDBRANCH  11  13
TORSDOF 1
ENDMDL
MODEL 7
REMARK VINA RESULT:    -4.893      1.287      2.877
REMARK INTER + INTRA:          -5.437
REMARK INTER:                  -5.218
REMARK INTRA:                  -0.218
REMARK UNBOUND:                -0.257
REMARK SMILES CC1=CC[C@@H]2[C@H]3[C@H](C(C)C)CC[C@]2(C)[C@@H]13
REMARK SMILES IDX 1 1 2 2 3 3 4 4 5 5 6 6 15 7 13 8 12 9 11 10 7 11 14 12 8 13
REMARK SMILES IDX 9 14 10 15
REMARK H PARENT
REMARK Flexibility Score: inf
ROOT
ATOM      1  C   UNL     1      15.395  18.377  38.850  1.00  0.00     0.039 C 
ATOM      2  C   UNL     1      14.618  17.735  37.739  1.00  0.00    -0.073 C 
ATOM      3  C   UNL     1      14.446  18.338  36.533  1.00  0.00    -0.027 C 
ATOM      4  C   UNL     1      13.630  17.616  35.456  1.00  0.00     0.031 C 
ATOM      5  C   UNL     1      13.082  16.258  36.006  1.00  0.00     0.003 C 
ATOM      6  C   UNL     1      12.484  16.531  37.406  1.00  0.00     0.004 C 
ATOM      7  C   UNL     1      13.930  16.386  37.947  1.00  0.00     0.024 C 
ATOM      8  C   UNL     1      14.185  15.454  36.737  1.00  0.00    -0.022 C 
ATOM      9  C   UNL     1      13.657  14.016  37.031  1.00  0.00     0.008 C 
ATOM     10  C   UNL     1      12.402  14.018  37.944  1.00  0.00     0.005 C 
ATOM     11  C   UNL     1      11.576  15.338  37.826  1.00  0.00    -0.005 C 
ATOM     12  C   UNL     1      15.602  15.407  36.118  1.00  0.00     0.012 C 
ENDROOT
BRANCH  11  13
ATOM     13  C   UNL     1      10.708  15.667  39.078  1.00  0.00    -0.014 C 
ATOM     14  C   UNL     1      10.567  14.501  40.071  1.00  0.00     0.007 C 
ATOM     15  C   UNL     1       9.324  16.202  38.683  1.00  0.00     0.007 C 
ENDBRANCH  11  13
TORSDOF 1
ENDMDL
MODEL 8
REMARK VINA RESULT:    -4.623     10.821     12.898
REMARK INTER + INTRA:          -5.151
REMARK INTER:                  -4.836
REMARK INTRA:                  -0.315
REMARK UNBOUND:                -0.257
REMARK SMILES CC1=CC[C@@H]2[C@H]3[C@H](C(C)C)CC[C@]2(C)[C@@H]13
REMARK SMILES IDX 1 1 2 2 3 3 4 4 5 5 6 6 15 7 13 8 12 9 11 10 7 11 14 12 8 13
REMARK SMILES IDX 9 14 10 15
REMARK H PARENT
REMARK Flexibility Score: inf
ROOT
ATOM      1  C   UNL     1      10.862  22.823  23.354  1.00  0.00     0.039 C 
ATOM      2  C   UNL     1      11.168  21.388  23.668  1.00  0.00    -0.073 C 
ATOM      3  C   UNL     1      11.569  20.507  22.715  1.00  0.00    -0.027 C 
ATOM      4  C   UNL     1      11.853  19.057  23.120  1.00  0.00     0.031 C 
ATOM      5  C   UNL     1      11.564  18.851  24.643  1.00  0.00     0.003 C 
ATOM      6  C   UNL     1      10.199  19.509  24.950  1.00  0.00     0.004 C 
ATOM      7  C   UNL     1      10.979  20.843  25.084  1.00  0.00     0.024 C 
ATOM      8  C   UNL     1      12.195  19.977  25.499  1.00  0.00    -0.022 C 
ATOM      9  C   UNL     1      12.099  19.584  27.006  1.00  0.00     0.008 C 
ATOM     10  C   UNL     1      10.633  19.405  27.483  1.00  0.00     0.005 C 
ATOM     11  C   UNL     1       9.671  18.996  26.323  1.00  0.00    -0.005 C 
ATOM     12  C   UNL     1      13.616  20.470  25.145  1.00  0.00     0.012 C 
ENDROOT
BRANCH  11  13
ATOM     13  C   UNL     1       8.179  19.377  26.563  1.00  0.00    -0.014 C 
ATOM     14  C   UNL     1       7.400  18.368  27.424  1.00  0.00     0.007 C 
ATOM     15  C   UNL     1       7.440  19.632  25.240  1.00  0.00     0.007 C 
ENDBRANCH  11  13
TORSDOF 1
ENDMDL
MODEL 9
REMARK VINA RESULT:    -4.545     10.728     14.057
REMARK INTER + INTRA:          -5.068
REMARK INTER:                  -4.797
REMARK INTRA:                  -0.271
REMARK UNBOUND:                -0.257
REMARK SMILES CC1=CC[C@@H]2[C@H]3[C@H](C(C)C)CC[C@]2(C)[C@@H]13
REMARK SMILES IDX 1 1 2 2 3 3 4 4 5 5 6 6 15 7 13 8 12 9 11 10 7 11 14 12 8 13
REMARK SMILES IDX 9 14 10 15
REMARK H PARENT
REMARK Flexibility Score: inf
ROOT
ATOM      1  C   UNL     1      11.100  18.610  27.284  1.00  0.00     0.039 C 
ATOM      2  C   UNL     1      10.935  19.494  26.082  1.00  0.00    -0.073 C 
ATOM      3  C   UNL     1      11.768  20.537  25.831  1.00  0.00    -0.027 C 
ATOM      4  C   UNL     1      11.522  21.395  24.586  1.00  0.00     0.031 C 
ATOM      5  C   UNL     1      10.252  20.896  23.822  1.00  0.00     0.003 C 
ATOM      6  C   UNL     1       9.136  20.678  24.869  1.00  0.00     0.004 C 
ATOM      7  C   UNL     1       9.770  19.284  25.115  1.00  0.00     0.024 C 
ATOM      8  C   UNL     1      10.261  19.357  23.648  1.00  0.00    -0.022 C 
ATOM      9  C   UNL     1       9.120  18.949  22.667  1.00  0.00     0.008 C 
ATOM     10  C   UNL     1       7.714  19.349  23.189  1.00  0.00     0.005 C 
ATOM     11  C   UNL     1       7.759  20.580  24.149  1.00  0.00    -0.005 C 
ATOM     12  C   UNL     1      11.590  18.661  23.273  1.00  0.00     0.012 C 
ENDROOT
BRANCH  11  13
ATOM     13  C   UNL     1       6.562  20.660  25.145  1.00  0.00    -0.014 C 
ATOM     14  C   UNL     1       5.491  21.695  24.762  1.00  0.00     0.007 C 
ATOM     15  C   UNL     1       7.041  20.893  26.586  1.00  0.00     0.007 C 
ENDBRANCH  11  13
TORSDOF 1
ENDMDL
