MODEL 1
REMARK VINA RESULT:    -4.039      0.000      0.000
REMARK INTER + INTRA:          -6.670
REMARK INTER:                  -6.165
REMARK INTRA:                  -0.505
REMARK UNBOUND:                -0.505
REMARK SMILES CCCCCCCCCCC(=O)[O-]
REMARK SMILES IDX 7 1 8 2 9 3 10 4 11 5 12 6 13 7 6 8 5 9 4 10 3 11 2 12 1 13
REMARK H PARENT
REMARK Flexibility Score: inf
ROOT
ATOM      1  C   UNL     1     -30.141  -8.670  33.329  1.00  0.00     0.000 C 
ENDROOT
BRANCH   1   2
ATOM      2  C   UNL     1     -31.153  -8.409  34.455  1.00  0.00     0.000 C 
BRANCH   2   3
ATOM      3  C   UNL     1     -32.028  -7.188  34.135  1.00  0.00     0.006 C 
BRANCH   3   4
ATOM      4  C   UNL     1     -32.409  -7.121  32.651  1.00  0.00     0.053 C 
BRANCH   4   5
ATOM      5  C   UNL     1     -33.651  -7.907  32.358  1.00  0.00     0.041 C 
ATOM      6  O   UNL     1     -33.610  -9.164  32.317  1.00  0.00    -0.550 OA
ATOM      7  O   UNL     1     -34.860  -7.251  32.165  1.00  0.00    -0.550 OA
ENDBRANCH   4   5
ENDBRANCH   3   4
ENDBRANCH   2   3
ENDBRANCH   1   2
BRANCH   1   8
ATOM      8  C   UNL     1     -28.700  -8.836  33.846  1.00  0.00     0.000 C 
BRANCH   8   9
ATOM      9  C   UNL     1     -28.555  -9.734  35.087  1.00  0.00    -0.000 C 
BRANCH   9  10
ATOM     10  C   UNL     1     -27.849 -11.067  34.784  1.00  0.00    -0.000 C 
BRANCH  10  11
ATOM     11  C   UNL     1     -27.465 -11.198  33.294  1.00  0.00    -0.000 C 
BRANCH  11  12
ATOM     12  C   UNL     1     -26.186 -12.022  33.060  1.00  0.00    -0.003 C 
ATOM     13  C   UNL     1     -24.908 -11.224  33.304  1.00  0.00     0.004 C 
ENDBRANCH  11  12
ENDBRANCH  10  11
ENDBRANCH   9  10
ENDBRANCH   8   9
ENDBRANCH   1   8
TORSDOF 9
ENDMDL
MODEL 2
REMARK VINA RESULT:    -3.877      2.856      4.780
REMARK INTER + INTRA:          -6.422
REMARK INTER:                  -6.092
REMARK INTRA:                  -0.329
REMARK UNBOUND:                -0.505
REMARK SMILES CCCCCCCCCCC(=O)[O-]
REMARK SMILES IDX 7 1 8 2 9 3 10 4 11 5 12 6 13 7 6 8 5 9 4 10 3 11 2 12 1 13
REMARK H PARENT
REMARK Flexibility Score: inf
ROOT
ATOM      1  C   UNL     1     -34.571  -7.369  33.456  1.00  0.00     0.000 C 
ENDROOT
BRANCH   1   2
ATOM      2  C   UNL     1     -35.115  -7.475  32.024  1.00  0.00     0.000 C 
BRANCH   2   3
ATOM      3  C   UNL     1     -36.609  -7.119  31.977  1.00  0.00     0.006 C 
BRANCH   3   4
ATOM      4  C   UNL     1     -37.168  -6.780  33.364  1.00  0.00     0.053 C 
BRANCH   4   5
ATOM      5  C   UNL     1     -38.409  -5.944  33.276  1.00  0.00     0.041 C 
ATOM      6  O   UNL     1     -38.876  -5.621  32.153  1.00  0.00    -0.550 OA
ATOM      7  O   UNL     1     -39.068  -5.554  34.435  1.00  0.00    -0.550 OA
ENDBRANCH   4   5
ENDBRANCH   3   4
ENDBRANCH   2   3
ENDBRANCH   1   2
BRANCH   1   8
ATOM      8  C   UNL     1     -33.293  -8.200  33.675  1.00  0.00     0.000 C 
BRANCH   8   9
ATOM      9  C   UNL     1     -32.272  -8.137  32.525  1.00  0.00    -0.000 C 
BRANCH   9  10
ATOM     10  C   UNL     1     -30.837  -7.870  33.011  1.00  0.00    -0.000 C 
BRANCH  10  11
ATOM     11  C   UNL     1     -30.301  -9.010  33.903  1.00  0.00    -0.000 C 
BRANCH  11  12
ATOM     12  C   UNL     1     -28.767  -9.023  34.026  1.00  0.00    -0.003 C 
ATOM     13  C   UNL     1     -28.241 -10.222  34.810  1.00  0.00     0.004 C 
ENDBRANCH  11  12
ENDBRANCH  10  11
ENDBRANCH   9  10
ENDBRANCH   8   9
ENDBRANCH   1   8
TORSDOF 9
ENDMDL
MODEL 3
REMARK VINA RESULT:    -3.760      9.791     12.482
REMARK INTER + INTRA:          -6.244
REMARK INTER:                  -5.149
REMARK INTRA:                  -1.095
REMARK UNBOUND:                -0.505
REMARK SMILES CCCCCCCCCCC(=O)[O-]
REMARK SMILES IDX 7 1 8 2 9 3 10 4 11 5 12 6 13 7 6 8 5 9 4 10 3 11 2 12 1 13
REMARK H PARENT
REMARK Flexibility Score: inf
ROOT
ATOM      1  C   UNL     1     -20.128 -12.486  41.553  1.00  0.00     0.000 C 
ENDROOT
BRANCH   1   2
ATOM      2  C   UNL     1     -20.245 -13.771  40.720  1.00  0.00     0.000 C 
BRANCH   2   3
ATOM      3  C   UNL     1     -21.369 -14.672  41.254  1.00  0.00     0.006 C 
BRANCH   3   4
ATOM      4  C   UNL     1     -22.492 -13.865  41.918  1.00  0.00     0.053 C 
BRANCH   4   5
ATOM      5  C   UNL     1     -23.222 -14.670  42.949  1.00  0.00     0.041 C 
ATOM      6  O   UNL     1     -24.321 -14.263  43.408  1.00  0.00    -0.550 OA
ATOM      7  O   UNL     1     -22.705 -15.886  43.377  1.00  0.00    -0.550 OA
ENDBRANCH   4   5
ENDBRANCH   3   4
ENDBRANCH   2   3
ENDBRANCH   1   2
BRANCH   1   8
ATOM      8  C   UNL     1     -20.104 -11.211  40.689  1.00  0.00     0.000 C 
BRANCH   8   9
ATOM      9  C   UNL     1     -20.956 -11.278  39.409  1.00  0.00    -0.000 C 
BRANCH   9  10
ATOM     10  C   UNL     1     -22.425 -10.886  39.645  1.00  0.00    -0.000 C 
BRANCH  10  11
ATOM     11  C   UNL     1     -23.406 -11.843  38.934  1.00  0.00    -0.000 C 
BRANCH  11  12
ATOM     12  C   UNL     1     -22.751 -12.675  37.817  1.00  0.00    -0.003 C 
ATOM     13  C   UNL     1     -22.998 -12.104  36.423  1.00  0.00     0.004 C 
ENDBRANCH  11  12
ENDBRANCH  10  11
ENDBRANCH   9  10
ENDBRANCH   8   9
ENDBRANCH   1   8
TORSDOF 9
ENDMDL
MODEL 4
REMARK VINA RESULT:    -3.693     10.072     11.307
REMARK INTER + INTRA:          -6.140
REMARK INTER:                  -4.991
REMARK INTRA:                  -1.150
REMARK UNBOUND:                -0.505
REMARK SMILES CCCCCCCCCCC(=O)[O-]
REMARK SMILES IDX 7 1 8 2 9 3 10 4 11 5 12 6 13 7 6 8 5 9 4 10 3 11 2 12 1 13
REMARK H PARENT
REMARK Flexibility Score: inf
ROOT
ATOM      1  C   UNL     1     -22.348 -14.901  38.232  1.00  0.00     0.000 C 
ENDROOT
BRANCH   1   2
ATOM      2  C   UNL     1     -20.955 -14.258  38.302  1.00  0.00     0.000 C 
BRANCH   2   3
ATOM      3  C   UNL     1     -20.790 -13.185  37.216  1.00  0.00     0.006 C 
BRANCH   3   4
ATOM      4  C   UNL     1     -21.850 -13.308  36.114  1.00  0.00     0.053 C 
BRANCH   4   5
ATOM      5  C   UNL     1     -21.235 -13.330  34.748  1.00  0.00     0.041 C 
ATOM      6  O   UNL     1     -21.958 -13.492  33.730  1.00  0.00    -0.550 OA
ATOM      7  O   UNL     1     -19.868 -13.135  34.597  1.00  0.00    -0.550 OA
ENDBRANCH   4   5
ENDBRANCH   3   4
ENDBRANCH   2   3
ENDBRANCH   1   2
BRANCH   1   8
ATOM      8  C   UNL     1     -23.353 -14.262  39.208  1.00  0.00     0.000 C 
BRANCH   8   9
ATOM      9  C   UNL     1     -22.895 -14.218  40.676  1.00  0.00    -0.000 C 
BRANCH   9  10
ATOM     10  C   UNL     1     -22.668 -12.786  41.191  1.00  0.00    -0.000 C 
BRANCH  10  11
ATOM     11  C   UNL     1     -23.078 -11.720  40.152  1.00  0.00    -0.000 C 
BRANCH  11  12
ATOM     12  C   UNL     1     -21.921 -10.800  39.727  1.00  0.00    -0.003 C 
ATOM     13  C   UNL     1     -20.600 -11.146  40.409  1.00  0.00     0.004 C 
ENDBRANCH  11  12
ENDBRANCH  10  11
ENDBRANCH   9  10
ENDBRANCH   8   9
ENDBRANCH   1   8
TORSDOF 9
ENDMDL
MODEL 5
REMARK VINA RESULT:    -3.666      9.175     11.009
REMARK INTER + INTRA:          -6.100
REMARK INTER:                  -4.864
REMARK INTRA:                  -1.235
REMARK UNBOUND:                -0.505
REMARK SMILES CCCCCCCCCCC(=O)[O-]
REMARK SMILES IDX 7 1 8 2 9 3 10 4 11 5 12 6 13 7 6 8 5 9 4 10 3 11 2 12 1 13
REMARK H PARENT
REMARK Flexibility Score: inf
ROOT
ATOM      1  C   UNL     1     -23.772 -13.608  38.870  1.00  0.00     0.000 C 
ENDROOT
BRANCH   1   2
ATOM      2  C   UNL     1     -23.631 -12.078  38.872  1.00  0.00     0.000 C 
BRANCH   2   3
ATOM      3  C   UNL     1     -22.643 -11.616  37.791  1.00  0.00     0.006 C 
BRANCH   3   4
ATOM      4  C   UNL     1     -23.007 -12.159  36.403  1.00  0.00     0.053 C 
BRANCH   4   5
ATOM      5  C   UNL     1     -21.895 -12.973  35.814  1.00  0.00     0.041 C 
ATOM      6  O   UNL     1     -21.873 -13.215  34.579  1.00  0.00    -0.550 OA
ATOM      7  O   UNL     1     -20.865 -13.433  36.624  1.00  0.00    -0.550 OA
ENDBRANCH   4   5
ENDBRANCH   3   4
ENDBRANCH   2   3
ENDBRANCH   1   2
BRANCH   1   8
ATOM      8  C   UNL     1     -22.697 -14.309  39.720  1.00  0.00     0.000 C 
BRANCH   8   9
ATOM      9  C   UNL     1     -22.592 -13.813  41.173  1.00  0.00    -0.000 C 
BRANCH   9  10
ATOM     10  C   UNL     1     -21.246 -13.133  41.479  1.00  0.00    -0.000 C 
BRANCH  10  11
ATOM     11  C   UNL     1     -20.212 -13.355  40.355  1.00  0.00    -0.000 C 
BRANCH  11  12
ATOM     12  C   UNL     1     -19.630 -12.048  39.788  1.00  0.00    -0.003 C 
ATOM     13  C   UNL     1     -20.152 -10.803  40.500  1.00  0.00     0.004 C 
ENDBRANCH  11  12
ENDBRANCH  10  11
ENDBRANCH   9  10
ENDBRANCH   8   9
ENDBRANCH   1   8
TORSDOF 9
ENDMDL
MODEL 6
REMARK VINA RESULT:    -3.665      9.070     11.195
REMARK INTER + INTRA:          -6.099
REMARK INTER:                  -4.812
REMARK INTRA:                  -1.287
REMARK UNBOUND:                -0.505
REMARK SMILES CCCCCCCCCCC(=O)[O-]
REMARK SMILES IDX 7 1 8 2 9 3 10 4 11 5 12 6 13 7 6 8 5 9 4 10 3 11 2 12 1 13
REMARK H PARENT
REMARK Flexibility Score: inf
ROOT
ATOM      1  C   UNL     1     -20.662 -11.102  40.139  1.00  0.00     0.000 C 
ENDROOT
BRANCH   1   2
ATOM      2  C   UNL     1     -22.175 -11.358  40.076  1.00  0.00     0.000 C 
BRANCH   2   3
ATOM      3  C   UNL     1     -22.724 -11.070  38.670  1.00  0.00     0.006 C 
BRANCH   3   4
ATOM      4  C   UNL     1     -23.274 -12.331  37.992  1.00  0.00     0.053 C 
BRANCH   4   5
ATOM      5  C   UNL     1     -22.816 -12.444  36.570  1.00  0.00     0.041 C 
ATOM      6  O   UNL     1     -23.311 -11.698  35.684  1.00  0.00    -0.550 OA
ATOM      7  O   UNL     1     -21.818 -13.349  36.230  1.00  0.00    -0.550 OA
ENDBRANCH   4   5
ENDBRANCH   3   4
ENDBRANCH   2   3
ENDBRANCH   1   2
BRANCH   1   8
ATOM      8  C   UNL     1     -19.851 -12.088  39.278  1.00  0.00     0.000 C 
BRANCH   8   9
ATOM      9  C   UNL     1     -19.638 -13.476  39.908  1.00  0.00    -0.000 C 
BRANCH   9  10
ATOM     10  C   UNL     1     -20.391 -14.593  39.165  1.00  0.00    -0.000 C 
BRANCH  10  11
ATOM     11  C   UNL     1     -21.650 -15.056  39.929  1.00  0.00    -0.000 C 
BRANCH  11  12
ATOM     12  C   UNL     1     -21.629 -14.693  41.424  1.00  0.00    -0.003 C 
ATOM     13  C   UNL     1     -23.011 -14.358  41.978  1.00  0.00     0.004 C 
ENDBRANCH  11  12
ENDBRANCH  10  11
ENDBRANCH   9  10
ENDBRANCH   8   9
ENDBRANCH   1   8
TORSDOF 9
ENDMDL
MODEL 7
REMARK VINA RESULT:    -3.648     18.245     20.051
REMARK INTER + INTRA:          -6.072
REMARK INTER:                  -5.245
REMARK INTRA:                  -0.826
REMARK UNBOUND:                -0.505
REMARK SMILES CCCCCCCCCCC(=O)[O-]
REMARK SMILES IDX 7 1 8 2 9 3 10 4 11 5 12 6 13 7 6 8 5 9 4 10 3 11 2 12 1 13
REMARK H PARENT
REMARK Flexibility Score: inf
ROOT
ATOM      1  C   UNL     1     -35.137  -2.980  50.493  1.00  0.00     0.000 C 
ENDROOT
BRANCH   1   2
ATOM      2  C   UNL     1     -34.614  -1.562  50.214  1.00  0.00     0.000 C 
BRANCH   2   3
ATOM      3  C   UNL     1     -35.480  -0.508  50.921  1.00  0.00     0.006 C 
BRANCH   3   4
ATOM      4  C   UNL     1     -36.081   0.503  49.936  1.00  0.00     0.053 C 
BRANCH   4   5
ATOM      5  C   UNL     1     -36.066   1.896  50.489  1.00  0.00     0.041 C 
ATOM      6  O   UNL     1     -37.147   2.487  50.744  1.00  0.00    -0.550 OA
ATOM      7  O   UNL     1     -34.857   2.525  50.757  1.00  0.00    -0.550 OA
ENDBRANCH   4   5
ENDBRANCH   3   4
ENDBRANCH   2   3
ENDBRANCH   1   2
BRANCH   1   8
ATOM      8  C   UNL     1     -35.918  -3.081  51.816  1.00  0.00     0.000 C 
BRANCH   8   9
ATOM      9  C   UNL     1     -37.349  -3.631  51.686  1.00  0.00    -0.000 C 
BRANCH   9  10
ATOM     10  C   UNL     1     -38.004  -3.284  50.337  1.00  0.00    -0.000 C 
BRANCH  10  11
ATOM     11  C   UNL     1     -38.434  -4.545  49.557  1.00  0.00    -0.000 C 
BRANCH  11  12
ATOM     12  C   UNL     1     -37.689  -5.819  49.989  1.00  0.00    -0.003 C 
ATOM     13  C   UNL     1     -36.959  -6.506  48.837  1.00  0.00     0.004 C 
ENDBRANCH  11  12
ENDBRANCH  10  11
ENDBRANCH   9  10
ENDBRANCH   8   9
ENDBRANCH   1   8
TORSDOF 9
ENDMDL
MODEL 8
REMARK VINA RESULT:    -3.644      8.802     10.691
REMARK INTER + INTRA:          -6.065
REMARK INTER:                  -4.799
REMARK INTRA:                  -1.266
REMARK UNBOUND:                -0.505
REMARK SMILES CCCCCCCCCCC(=O)[O-]
REMARK SMILES IDX 7 1 8 2 9 3 10 4 11 5 12 6 13 7 6 8 5 9 4 10 3 11 2 12 1 13
REMARK H PARENT
REMARK Flexibility Score: inf
ROOT
ATOM      1  C   UNL     1     -22.332 -10.987  39.291  1.00  0.00     0.000 C 
ENDROOT
BRANCH   1   2
ATOM      2  C   UNL     1     -23.429 -12.063  39.293  1.00  0.00     0.000 C 
BRANCH   2   3
ATOM      3  C   UNL     1     -23.581 -12.696  37.902  1.00  0.00     0.006 C 
BRANCH   3   4
ATOM      4  C   UNL     1     -22.324 -12.514  37.042  1.00  0.00     0.053 C 
BRANCH   4   5
ATOM      5  C   UNL     1     -22.657 -12.389  35.587  1.00  0.00     0.041 C 
ATOM      6  O   UNL     1     -21.939 -12.957  34.722  1.00  0.00    -0.550 OA
ATOM      7  O   UNL     1     -23.781 -11.676  35.189  1.00  0.00    -0.550 OA
ENDBRANCH   4   5
ENDBRANCH   3   4
ENDBRANCH   2   3
ENDBRANCH   1   2
BRANCH   1   8
ATOM      8  C   UNL     1     -21.221 -11.262  40.320  1.00  0.00     0.000 C 
BRANCH   8   9
ATOM      9  C   UNL     1     -19.790 -10.999  39.818  1.00  0.00    -0.000 C 
BRANCH   9  10
ATOM     10  C   UNL     1     -19.152 -12.231  39.153  1.00  0.00    -0.000 C 
BRANCH  10  11
ATOM     11  C   UNL     1     -19.459 -13.534  39.922  1.00  0.00    -0.000 C 
BRANCH  11  12
ATOM     12  C   UNL     1     -20.074 -14.636  39.042  1.00  0.00    -0.003 C 
ATOM     13  C   UNL     1     -21.362 -15.215  39.623  1.00  0.00     0.004 C 
ENDBRANCH  11  12
ENDBRANCH  10  11
ENDBRANCH   9  10
ENDBRANCH   8   9
ENDBRANCH   1   8
TORSDOF 9
ENDMDL
MODEL 9
REMARK VINA RESULT:    -3.631     19.592     20.749
REMARK INTER + INTRA:          -6.046
REMARK INTER:                  -4.951
REMARK INTRA:                  -1.095
REMARK UNBOUND:                -0.505
REMARK SMILES CCCCCCCCCCC(=O)[O-]
REMARK SMILES IDX 7 1 8 2 9 3 10 4 11 5 12 6 13 7 6 8 5 9 4 10 3 11 2 12 1 13
REMARK H PARENT
REMARK Flexibility Score: inf
ROOT
ATOM      1  C   UNL     1     -35.101  -1.312  50.265  1.00  0.00     0.000 C 
ENDROOT
BRANCH   1   2
ATOM      2  C   UNL     1     -35.197  -0.547  51.594  1.00  0.00     0.000 C 
BRANCH   2   3
ATOM      3  C   UNL     1     -36.445   0.347  51.624  1.00  0.00     0.006 C 
BRANCH   3   4
ATOM      4  C   UNL     1     -36.584   1.192  50.351  1.00  0.00     0.053 C 
BRANCH   4   5
ATOM      5  C   UNL     1     -36.331   2.645  50.615  1.00  0.00     0.041 C 
ATOM      6  O   UNL     1     -37.296   3.440  50.756  1.00  0.00    -0.550 OA
ATOM      7  O   UNL     1     -35.029   3.113  50.740  1.00  0.00    -0.550 OA
ENDBRANCH   4   5
ENDBRANCH   3   4
ENDBRANCH   2   3
ENDBRANCH   1   2
BRANCH   1   8
ATOM      8  C   UNL     1     -35.136  -2.840  50.450  1.00  0.00     0.000 C 
BRANCH   8   9
ATOM      9  C   UNL     1     -35.758  -3.320  51.773  1.00  0.00    -0.000 C 
BRANCH   9  10
ATOM     10  C   UNL     1     -37.244  -3.694  51.636  1.00  0.00    -0.000 C 
BRANCH  10  11
ATOM     11  C   UNL     1     -37.635  -4.006  50.176  1.00  0.00    -0.000 C 
BRANCH  11  12
ATOM     12  C   UNL     1     -38.932  -3.310  49.725  1.00  0.00    -0.003 C 
ATOM     13  C   UNL     1     -38.829  -1.787  49.740  1.00  0.00     0.004 C 
ENDBRANCH  11  12
ENDBRANCH  10  11
ENDBRANCH   9  10
ENDBRANCH   8   9
ENDBRANCH   1   8
TORSDOF 9
ENDMDL
