MODEL 1
REMARK VINA RESULT:    -5.229      0.000      0.000
REMARK INTER + INTRA:          -8.803
REMARK INTER:                  -7.980
REMARK INTRA:                  -0.824
REMARK UNBOUND:                -0.824
REMARK SMILES O=C([O-])CCCCCCCCC(=O)[O-]
REMARK SMILES IDX 7 1 6 2 5 3 4 4 2 5 1 6 3 7 8 8 9 9 10 10 11 11 12 12 13 13
REMARK SMILES IDX 14 14
REMARK H PARENT
REMARK Flexibility Score: inf
ROOT
ATOM      1  C   UNL     1      -7.374   8.022  -9.572  1.00  0.00     0.000 C 
ENDROOT
BRANCH   1   2
ATOM      2  C   UNL     1      -6.600   8.245 -10.877  1.00  0.00     0.000 C 
BRANCH   2   3
ATOM      3  C   UNL     1      -6.375   9.743 -11.135  1.00  0.00     0.006 C 
BRANCH   3   4
ATOM      4  C   UNL     1      -5.264  10.324 -10.252  1.00  0.00     0.053 C 
BRANCH   4   5
ATOM      5  C   UNL     1      -5.747  11.491  -9.446  1.00  0.00     0.041 C 
ATOM      6  O   UNL     1      -6.758  11.375  -8.705  1.00  0.00    -0.550 OA
ATOM      7  O   UNL     1      -5.059  12.697  -9.488  1.00  0.00    -0.550 OA
ENDBRANCH   4   5
ENDBRANCH   3   4
ENDBRANCH   2   3
ENDBRANCH   1   2
BRANCH   1   8
ATOM      8  C   UNL     1      -7.294   6.554  -9.130  1.00  0.00     0.000 C 
BRANCH   8   9
ATOM      9  C   UNL     1      -5.848   6.044  -9.020  1.00  0.00     0.000 C 
BRANCH   9  10
ATOM     10  C   UNL     1      -5.092   6.662  -7.832  1.00  0.00     0.006 C 
BRANCH  10  11
ATOM     11  C   UNL     1      -3.959   7.591  -8.287  1.00  0.00     0.053 C 
BRANCH  11  12
ATOM     12  C   UNL     1      -3.496   8.489  -7.180  1.00  0.00     0.041 C 
ATOM     13  O   UNL     1      -2.483   8.183  -6.498  1.00  0.00    -0.550 OA
ATOM     14  O   UNL     1      -4.166   9.678  -6.920  1.00  0.00    -0.550 OA
ENDBRANCH  11  12
ENDBRANCH  10  11
ENDBRANCH   9  10
ENDBRANCH   8   9
ENDBRANCH   1   8
TORSDOF 9
ENDMDL
MODEL 2
REMARK VINA RESULT:    -5.171      0.657      4.006
REMARK INTER + INTRA:          -8.715
REMARK INTER:                  -7.929
REMARK INTRA:                  -0.786
REMARK UNBOUND:                -0.824
REMARK SMILES O=C([O-])CCCCCCCCC(=O)[O-]
REMARK SMILES IDX 7 1 6 2 5 3 4 4 2 5 1 6 3 7 8 8 9 9 10 10 11 11 12 12 13 13
REMARK SMILES IDX 14 14
REMARK H PARENT
REMARK Flexibility Score: inf
ROOT
ATOM      1  C   UNL     1      -7.349   6.589  -9.077  1.00  0.00     0.000 C 
ENDROOT
BRANCH   1   2
ATOM      2  C   UNL     1      -5.853   6.261  -9.141  1.00  0.00     0.000 C 
BRANCH   2   3
ATOM      3  C   UNL     1      -5.107   6.849  -7.934  1.00  0.00     0.006 C 
BRANCH   3   4
ATOM      4  C   UNL     1      -3.959   7.776  -8.355  1.00  0.00     0.053 C 
BRANCH   4   5
ATOM      5  C   UNL     1      -3.611   8.755  -7.277  1.00  0.00     0.041 C 
ATOM      6  O   UNL     1      -4.374   9.725  -7.030  1.00  0.00    -0.550 OA
ATOM      7  O   UNL     1      -2.459   8.576  -6.521  1.00  0.00    -0.550 OA
ENDBRANCH   4   5
ENDBRANCH   3   4
ENDBRANCH   2   3
ENDBRANCH   1   2
BRANCH   1   8
ATOM      8  C   UNL     1      -7.645   7.938  -9.749  1.00  0.00     0.000 C 
BRANCH   8   9
ATOM      9  C   UNL     1      -6.608   8.307 -10.823  1.00  0.00     0.000 C 
BRANCH   9  10
ATOM     10  C   UNL     1      -6.038   9.722 -10.633  1.00  0.00     0.006 C 
BRANCH  10  11
ATOM     11  C   UNL     1      -6.994  10.631  -9.849  1.00  0.00     0.053 C 
BRANCH  11  12
ATOM     12  C   UNL     1      -6.277  11.792  -9.229  1.00  0.00     0.041 C 
ATOM     13  O   UNL     1      -5.072  12.017  -9.516  1.00  0.00    -0.550 OA
ATOM     14  O   UNL     1      -6.947  12.642  -8.359  1.00  0.00    -0.550 OA
ENDBRANCH  11  12
ENDBRANCH  10  11
ENDBRANCH   9  10
ENDBRANCH   8   9
ENDBRANCH   1   8
TORSDOF 9
ENDMDL
MODEL 3
REMARK VINA RESULT:    -5.123      2.172      4.332
REMARK INTER + INTRA:          -8.642
REMARK INTER:                  -7.611
REMARK INTRA:                  -1.031
REMARK UNBOUND:                -0.824
REMARK SMILES O=C([O-])CCCCCCCCC(=O)[O-]
REMARK SMILES IDX 7 1 6 2 5 3 4 4 2 5 1 6 3 7 8 8 9 9 10 10 11 11 12 12 13 13
REMARK SMILES IDX 14 14
REMARK H PARENT
REMARK Flexibility Score: inf
ROOT
ATOM      1  C   UNL     1      -6.585  11.255  -9.265  1.00  0.00     0.000 C 
ENDROOT
BRANCH   1   2
ATOM      2  C   UNL     1      -5.116  10.815  -9.275  1.00  0.00     0.000 C 
BRANCH   2   3
ATOM      3  C   UNL     1      -4.786   9.967  -8.037  1.00  0.00     0.006 C 
BRANCH   3   4
ATOM      4  C   UNL     1      -3.966   8.719  -8.390  1.00  0.00     0.053 C 
BRANCH   4   5
ATOM      5  C   UNL     1      -3.375   8.080  -7.171  1.00  0.00     0.041 C 
ATOM      6  O   UNL     1      -2.430   8.639  -6.556  1.00  0.00    -0.550 OA
ATOM      7  O   UNL     1      -3.893   6.882  -6.695  1.00  0.00    -0.550 OA
ENDBRANCH   4   5
ENDBRANCH   3   4
ENDBRANCH   2   3
ENDBRANCH   1   2
BRANCH   1   8
ATOM      8  C   UNL     1      -7.458  10.272 -10.058  1.00  0.00     0.000 C 
BRANCH   8   9
ATOM      9  C   UNL     1      -6.655   9.461 -11.088  1.00  0.00     0.000 C 
BRANCH   9  10
ATOM     10  C   UNL     1      -6.641   7.956 -10.775  1.00  0.00     0.006 C 
BRANCH  10  11
ATOM     11  C   UNL     1      -7.670   7.578  -9.700  1.00  0.00     0.053 C 
BRANCH  11  12
ATOM     12  C   UNL     1      -7.033   6.871  -8.542  1.00  0.00     0.041 C 
ATOM     13  O   UNL     1      -7.179   7.314  -7.373  1.00  0.00    -0.550 OA
ATOM     14  O   UNL     1      -6.302   5.708  -8.751  1.00  0.00    -0.550 OA
ENDBRANCH  11  12
ENDBRANCH  10  11
ENDBRANCH   9  10
ENDBRANCH   8   9
ENDBRANCH   1   8
TORSDOF 9
ENDMDL
MODEL 4
REMARK VINA RESULT:    -5.072      2.307      3.617
REMARK INTER + INTRA:          -8.565
REMARK INTER:                  -7.600
REMARK INTRA:                  -0.965
REMARK UNBOUND:                -0.824
REMARK SMILES O=C([O-])CCCCCCCCC(=O)[O-]
REMARK SMILES IDX 7 1 6 2 5 3 4 4 2 5 1 6 3 7 8 8 9 9 10 10 11 11 12 12 13 13
REMARK SMILES IDX 14 14
REMARK H PARENT
REMARK Flexibility Score: inf
ROOT
ATOM      1  C   UNL     1      -7.503  10.398  -9.887  1.00  0.00     0.000 C 
ENDROOT
BRANCH   1   2
ATOM      2  C   UNL     1      -6.715   9.700 -11.001  1.00  0.00     0.000 C 
BRANCH   2   3
ATOM      3  C   UNL     1      -6.644   8.184 -10.759  1.00  0.00     0.006 C 
BRANCH   3   4
ATOM      4  C   UNL     1      -7.602   7.727  -9.652  1.00  0.00     0.053 C 
BRANCH   4   5
ATOM      5  C   UNL     1      -6.942   6.774  -8.703  1.00  0.00     0.041 C 
ATOM      6  O   UNL     1      -7.294   6.736  -7.495  1.00  0.00    -0.550 OA
ATOM      7  O   UNL     1      -5.961   5.905  -9.163  1.00  0.00    -0.550 OA
ENDBRANCH   4   5
ENDBRANCH   3   4
ENDBRANCH   2   3
ENDBRANCH   1   2
BRANCH   1   8
ATOM      8  C   UNL     1      -6.574  11.241  -9.002  1.00  0.00     0.000 C 
BRANCH   8   9
ATOM      9  C   UNL     1      -5.118  10.747  -9.030  1.00  0.00     0.000 C 
BRANCH   9  10
ATOM     10  C   UNL     1      -4.783   9.826  -7.846  1.00  0.00     0.006 C 
BRANCH  10  11
ATOM     11  C   UNL     1      -3.888   8.650  -8.262  1.00  0.00     0.053 C 
BRANCH  11  12
ATOM     12  C   UNL     1      -3.332   7.925  -7.074  1.00  0.00     0.041 C 
ATOM     13  O   UNL     1      -2.336   8.390  -6.459  1.00  0.00    -0.550 OA
ATOM     14  O   UNL     1      -3.929   6.753  -6.629  1.00  0.00    -0.550 OA
ENDBRANCH  11  12
ENDBRANCH  10  11
ENDBRANCH   9  10
ENDBRANCH   8   9
ENDBRANCH   1   8
TORSDOF 9
ENDMDL
MODEL 5
REMARK VINA RESULT:    -5.009      1.877      3.651
REMARK INTER + INTRA:          -8.468
REMARK INTER:                  -7.519
REMARK INTRA:                  -0.949
REMARK UNBOUND:                -0.824
REMARK SMILES O=C([O-])CCCCCCCCC(=O)[O-]
REMARK SMILES IDX 7 1 6 2 5 3 4 4 2 5 1 6 3 7 8 8 9 9 10 10 11 11 12 12 13 13
REMARK SMILES IDX 14 14
REMARK H PARENT
REMARK Flexibility Score: inf
ROOT
ATOM      1  C   UNL     1      -5.462   6.390  -8.553  1.00  0.00     0.000 C 
ENDROOT
BRANCH   1   2
ATOM      2  C   UNL     1      -6.938   6.720  -8.296  1.00  0.00     0.000 C 
BRANCH   2   3
ATOM      3  C   UNL     1      -7.591   7.333  -9.545  1.00  0.00     0.006 C 
BRANCH   3   4
ATOM      4  C   UNL     1      -6.553   7.815 -10.565  1.00  0.00     0.053 C 
BRANCH   4   5
ATOM      5  C   UNL     1      -6.987   9.078 -11.244  1.00  0.00     0.041 C 
ATOM      6  O   UNL     1      -6.289   9.575 -12.166  1.00  0.00    -0.550 OA
ATOM      7  O   UNL     1      -8.180   9.688 -10.880  1.00  0.00    -0.550 OA
ENDBRANCH   4   5
ENDBRANCH   3   4
ENDBRANCH   2   3
ENDBRANCH   1   2
BRANCH   1   8
ATOM      8  C   UNL     1      -4.551   7.172  -7.596  1.00  0.00     0.000 C 
BRANCH   8   9
ATOM      9  C   UNL     1      -3.944   8.427  -8.246  1.00  0.00     0.000 C 
BRANCH   9  10
ATOM     10  C   UNL     1      -4.296   9.715  -7.483  1.00  0.00     0.006 C 
BRANCH  10  11
ATOM     11  C   UNL     1      -5.768  10.110  -7.662  1.00  0.00     0.053 C 
BRANCH  11  12
ATOM     12  C   UNL     1      -5.931  11.219  -8.657  1.00  0.00     0.041 C 
ATOM     13  O   UNL     1      -6.963  11.939  -8.638  1.00  0.00    -0.550 OA
ATOM     14  O   UNL     1      -4.931  11.474  -9.587  1.00  0.00    -0.550 OA
ENDBRANCH  11  12
ENDBRANCH  10  11
ENDBRANCH   9  10
ENDBRANCH   8   9
ENDBRANCH   1   8
TORSDOF 9
ENDMDL
MODEL 6
REMARK VINA RESULT:    -4.917      2.302      5.119
REMARK INTER + INTRA:          -8.327
REMARK INTER:                  -7.422
REMARK INTRA:                  -0.905
REMARK UNBOUND:                -0.824
REMARK SMILES O=C([O-])CCCCCCCCC(=O)[O-]
REMARK SMILES IDX 7 1 6 2 5 3 4 4 2 5 1 6 3 7 8 8 9 9 10 10 11 11 12 12 13 13
REMARK SMILES IDX 14 14
REMARK H PARENT
REMARK Flexibility Score: inf
ROOT
ATOM      1  C   UNL     1      -3.647   8.305  -7.939  1.00  0.00     0.000 C 
ENDROOT
BRANCH   1   2
ATOM      2  C   UNL     1      -3.723   7.113  -6.977  1.00  0.00     0.000 C 
BRANCH   2   3
ATOM      3  C   UNL     1      -5.020   6.317  -7.186  1.00  0.00     0.006 C 
BRANCH   3   4
ATOM      4  C   UNL     1      -5.626   6.550  -8.576  1.00  0.00     0.053 C 
BRANCH   4   5
ATOM      5  C   UNL     1      -7.118   6.675  -8.517  1.00  0.00     0.041 C 
ATOM      6  O   UNL     1      -7.846   5.909  -9.201  1.00  0.00    -0.550 OA
ATOM      7  O   UNL     1      -7.704   7.616  -7.680  1.00  0.00    -0.550 OA
ENDBRANCH   4   5
ENDBRANCH   3   4
ENDBRANCH   2   3
ENDBRANCH   1   2
BRANCH   1   8
ATOM      8  C   UNL     1      -4.053   9.607  -7.234  1.00  0.00     0.000 C 
BRANCH   8   9
ATOM      9  C   UNL     1      -5.399  10.159  -7.733  1.00  0.00     0.000 C 
BRANCH   9  10
ATOM     10  C   UNL     1      -5.268  10.923  -9.061  1.00  0.00     0.006 C 
BRANCH  10  11
ATOM     11  C   UNL     1      -5.976  10.202 -10.216  1.00  0.00     0.053 C 
BRANCH  11  12
ATOM     12  C   UNL     1      -7.465  10.349 -10.136  1.00  0.00     0.041 C 
ATOM     13  O   UNL     1      -7.973  11.418  -9.708  1.00  0.00    -0.550 OA
ATOM     14  O   UNL     1      -8.292   9.316 -10.561  1.00  0.00    -0.550 OA
ENDBRANCH  11  12
ENDBRANCH  10  11
ENDBRANCH   9  10
ENDBRANCH   8   9
ENDBRANCH   1   8
TORSDOF 9
ENDMDL
MODEL 7
REMARK VINA RESULT:    -4.884      1.969      3.456
REMARK INTER + INTRA:          -8.278
REMARK INTER:                  -7.419
REMARK INTRA:                  -0.859
REMARK UNBOUND:                -0.824
REMARK SMILES O=C([O-])CCCCCCCCC(=O)[O-]
REMARK SMILES IDX 7 1 6 2 5 3 4 4 2 5 1 6 3 7 8 8 9 9 10 10 11 11 12 12 13 13
REMARK SMILES IDX 14 14
REMARK H PARENT
REMARK Flexibility Score: inf
ROOT
ATOM      1  C   UNL     1      -3.763   8.737  -7.341  1.00  0.00     0.000 C 
ENDROOT
BRANCH   1   2
ATOM      2  C   UNL     1      -4.455   9.994  -7.882  1.00  0.00     0.000 C 
BRANCH   2   3
ATOM      3  C   UNL     1      -4.640   9.910  -9.405  1.00  0.00     0.006 C 
BRANCH   3   4
ATOM      4  C   UNL     1      -5.875  10.683  -9.883  1.00  0.00     0.053 C 
BRANCH   4   5
ATOM      5  C   UNL     1      -5.964  12.037  -9.248  1.00  0.00     0.041 C 
ATOM      6  O   UNL     1      -5.074  12.900  -9.466  1.00  0.00    -0.550 OA
ATOM      7  O   UNL     1      -7.049  12.356  -8.441  1.00  0.00    -0.550 OA
ENDBRANCH   4   5
ENDBRANCH   3   4
ENDBRANCH   2   3
ENDBRANCH   1   2
BRANCH   1   8
ATOM      8  C   UNL     1      -3.946   7.553  -8.302  1.00  0.00     0.000 C 
BRANCH   8   9
ATOM      9  C   UNL     1      -4.859   6.457  -7.727  1.00  0.00     0.000 C 
BRANCH   9  10
ATOM     10  C   UNL     1      -5.775   5.832  -8.793  1.00  0.00     0.006 C 
BRANCH  10  11
ATOM     11  C   UNL     1      -6.451   6.894  -9.671  1.00  0.00     0.053 C 
BRANCH  11  12
ATOM     12  C   UNL     1      -7.709   7.416  -9.045  1.00  0.00     0.041 C 
ATOM     13  O   UNL     1      -8.829   6.983  -9.421  1.00  0.00    -0.550 OA
ATOM     14  O   UNL     1      -7.642   8.359  -8.028  1.00  0.00    -0.550 OA
ENDBRANCH  11  12
ENDBRANCH  10  11
ENDBRANCH   9  10
ENDBRANCH   8   9
ENDBRANCH   1   8
TORSDOF 9
ENDMDL
MODEL 8
REMARK VINA RESULT:    -4.880      2.634      3.895
REMARK INTER + INTRA:          -8.272
REMARK INTER:                  -7.255
REMARK INTRA:                  -1.017
REMARK UNBOUND:                -0.824
REMARK SMILES O=C([O-])CCCCCCCCC(=O)[O-]
REMARK SMILES IDX 7 1 6 2 5 3 4 4 2 5 1 6 3 7 8 8 9 9 10 10 11 11 12 12 13 13
REMARK SMILES IDX 14 14
REMARK H PARENT
REMARK Flexibility Score: inf
ROOT
ATOM      1  C   UNL     1      -3.936   7.878  -8.366  1.00  0.00     0.000 C 
ENDROOT
BRANCH   1   2
ATOM      2  C   UNL     1      -4.055   9.162  -7.535  1.00  0.00     0.000 C 
BRANCH   2   3
ATOM      3  C   UNL     1      -4.966  10.185  -8.230  1.00  0.00     0.006 C 
BRANCH   3   4
ATOM      4  C   UNL     1      -4.892  10.084  -9.759  1.00  0.00     0.053 C 
BRANCH   4   5
ATOM      5  C   UNL     1      -6.255  10.084 -10.382  1.00  0.00     0.041 C 
ATOM      6  O   UNL     1      -6.415   9.659 -11.556  1.00  0.00    -0.550 OA
ATOM      7  O   UNL     1      -7.352  10.524  -9.653  1.00  0.00    -0.550 OA
ENDBRANCH   4   5
ENDBRANCH   3   4
ENDBRANCH   2   3
ENDBRANCH   1   2
BRANCH   1   8
ATOM      8  C   UNL     1      -5.079   6.905  -8.039  1.00  0.00     0.000 C 
BRANCH   8   9
ATOM      9  C   UNL     1      -5.911   6.530  -9.276  1.00  0.00     0.000 C 
BRANCH   9  10
ATOM     10  C   UNL     1      -7.420   6.729  -9.056  1.00  0.00     0.006 C 
BRANCH  10  11
ATOM     11  C   UNL     1      -7.722   7.465  -7.744  1.00  0.00     0.053 C 
BRANCH  11  12
ATOM     12  C   UNL     1      -8.695   6.709  -6.891  1.00  0.00     0.041 C 
ATOM     13  O   UNL     1      -9.690   6.144  -7.416  1.00  0.00    -0.550 OA
ATOM     14  O   UNL     1      -8.488   6.605  -5.522  1.00  0.00    -0.550 OA
ENDBRANCH  11  12
ENDBRANCH  10  11
ENDBRANCH   9  10
ENDBRANCH   8   9
ENDBRANCH   1   8
TORSDOF 9
ENDMDL
MODEL 9
REMARK VINA RESULT:    -4.858      2.616      4.948
REMARK INTER + INTRA:          -8.238
REMARK INTER:                  -7.235
REMARK INTRA:                  -1.003
REMARK UNBOUND:                -0.824
REMARK SMILES O=C([O-])CCCCCCCCC(=O)[O-]
REMARK SMILES IDX 7 1 6 2 5 3 4 4 2 5 1 6 3 7 8 8 9 9 10 10 11 11 12 12 13 13
REMARK SMILES IDX 14 14
REMARK H PARENT
REMARK Flexibility Score: inf
ROOT
ATOM      1  C   UNL     1      -4.780   7.172  -8.130  1.00  0.00     0.000 C 
ENDROOT
BRANCH   1   2
ATOM      2  C   UNL     1      -5.607   6.594  -9.285  1.00  0.00     0.000 C 
BRANCH   2   3
ATOM      3  C   UNL     1      -7.108   6.841  -9.066  1.00  0.00     0.006 C 
BRANCH   3   4
ATOM      4  C   UNL     1      -7.399   7.470  -7.698  1.00  0.00     0.053 C 
BRANCH   4   5
ATOM      5  C   UNL     1      -8.522   6.772  -6.993  1.00  0.00     0.041 C 
ATOM      6  O   UNL     1      -9.422   6.192  -7.654  1.00  0.00    -0.550 OA
ATOM      7  O   UNL     1      -8.554   6.734  -5.605  1.00  0.00    -0.550 OA
ENDBRANCH   4   5
ENDBRANCH   3   4
ENDBRANCH   2   3
ENDBRANCH   1   2
BRANCH   1   8
ATOM      8  C   UNL     1      -3.994   8.411  -8.582  1.00  0.00     0.000 C 
BRANCH   8   9
ATOM      9  C   UNL     1      -4.301   9.653  -7.730  1.00  0.00     0.000 C 
BRANCH   9  10
ATOM     10  C   UNL     1      -5.407  10.530  -8.340  1.00  0.00     0.006 C 
BRANCH  10  11
ATOM     11  C   UNL     1      -5.376  10.518  -9.874  1.00  0.00     0.053 C 
BRANCH  11  12
ATOM     12  C   UNL     1      -6.736  10.288 -10.458  1.00  0.00     0.041 C 
ATOM     13  O   UNL     1      -7.738  10.886  -9.985  1.00  0.00    -0.550 OA
ATOM     14  O   UNL     1      -6.895   9.434 -11.542  1.00  0.00    -0.550 OA
ENDBRANCH  11  12
ENDBRANCH  10  11
ENDBRANCH   9  10
ENDBRANCH   8   9
ENDBRANCH   1   8
TORSDOF 9
ENDMDL
