MODEL 1
REMARK VINA RESULT:    -4.072      0.000      0.000
REMARK INTER + INTRA:          -4.616
REMARK INTER:                  -4.548
REMARK INTRA:                  -0.068
REMARK UNBOUND:                -0.068
REMARK SMILES COc1ccc(C(=O)[O-])cc1
REMARK SMILES IDX 6 1 5 2 10 3 4 4 11 5 3 6 7 7 8 8 9 9 2 10 1 11
REMARK H PARENT
REMARK Flexibility Score: inf
ROOT
ATOM      1  C   UNL     1       4.054   5.746 -13.225  1.00  0.00    -0.003 A 
ATOM      2  C   UNL     1       4.107   5.830 -14.626  1.00  0.00     0.014 A 
ATOM      3  C   UNL     1       3.690   6.887 -12.489  1.00  0.00     0.014 A 
ATOM      4  C   UNL     1       3.801   7.030 -15.278  1.00  0.00     0.047 A 
ATOM      5  C   UNL     1       3.385   8.085 -13.142  1.00  0.00     0.047 A 
ATOM      6  C   UNL     1       3.437   8.168 -14.537  1.00  0.00     0.118 A 
ENDROOT
BRANCH   1   7
ATOM      7  C   UNL     1       4.377   4.476 -12.540  1.00  0.00     0.071 C 
ATOM      8  O   UNL     1       5.199   3.666 -13.047  1.00  0.00    -0.545 OA
ATOM      9  O   UNL     1       3.779   4.158 -11.326  1.00  0.00    -0.545 OA
ENDBRANCH   1   7
BRANCH   6  10
ATOM     10  O   UNL     1       3.123   9.393 -15.144  1.00  0.00    -0.497 OA
ATOM     11  C   UNL     1       2.778  10.578 -14.434  1.00  0.00     0.278 C 
ENDBRANCH   6  10
TORSDOF 2
ENDMDL
MODEL 2
REMARK VINA RESULT:    -4.057      0.099      1.462
REMARK INTER + INTRA:          -4.600
REMARK INTER:                  -4.536
REMARK INTRA:                  -0.063
REMARK UNBOUND:                -0.068
REMARK SMILES COc1ccc(C(=O)[O-])cc1
REMARK SMILES IDX 6 1 5 2 10 3 4 4 11 5 3 6 7 7 8 8 9 9 2 10 1 11
REMARK H PARENT
REMARK Flexibility Score: inf
ROOT
ATOM      1  C   UNL     1       4.080   5.670 -13.206  1.00  0.00    -0.003 A 
ATOM      2  C   UNL     1       3.735   6.804 -12.453  1.00  0.00     0.014 A 
ATOM      3  C   UNL     1       4.119   5.771 -14.608  1.00  0.00     0.014 A 
ATOM      4  C   UNL     1       3.435   8.014 -13.087  1.00  0.00     0.047 A 
ATOM      5  C   UNL     1       3.818   6.982 -15.240  1.00  0.00     0.047 A 
ATOM      6  C   UNL     1       3.475   8.110 -14.490  1.00  0.00     0.118 A 
ENDROOT
BRANCH   1   7
ATOM      7  C   UNL     1       4.398   4.392 -12.531  1.00  0.00     0.071 C 
ATOM      8  O   UNL     1       5.260   3.611 -13.014  1.00  0.00    -0.545 OA
ATOM      9  O   UNL     1       3.747   4.036 -11.356  1.00  0.00    -0.545 OA
ENDBRANCH   1   7
BRANCH   6  10
ATOM     10  O   UNL     1       3.183   9.301 -15.171  1.00  0.00    -0.497 OA
ATOM     11  C   UNL     1       2.738  10.498 -14.543  1.00  0.00     0.278 C 
ENDBRANCH   6  10
TORSDOF 2
ENDMDL
MODEL 3
REMARK VINA RESULT:    -4.019      1.061      4.884
REMARK INTER + INTRA:          -4.557
REMARK INTER:                  -4.496
REMARK INTRA:                  -0.061
REMARK UNBOUND:                -0.068
REMARK SMILES COc1ccc(C(=O)[O-])cc1
REMARK SMILES IDX 6 1 5 2 10 3 4 4 11 5 3 6 7 7 8 8 9 9 2 10 1 11
REMARK H PARENT
REMARK Flexibility Score: inf
ROOT
ATOM      1  C   UNL     1       3.535   7.574 -13.829  1.00  0.00    -0.003 A 
ATOM      2  C   UNL     1       3.732   7.117 -12.515  1.00  0.00     0.014 A 
ATOM      3  C   UNL     1       3.808   6.705 -14.900  1.00  0.00     0.014 A 
ATOM      4  C   UNL     1       4.191   5.818 -12.276  1.00  0.00     0.047 A 
ATOM      5  C   UNL     1       4.268   5.406 -14.659  1.00  0.00     0.047 A 
ATOM      6  C   UNL     1       4.462   4.951 -13.351  1.00  0.00     0.118 A 
ENDROOT
BRANCH   1   7
ATOM      7  C   UNL     1       3.049   8.949 -14.078  1.00  0.00     0.071 C 
ATOM      8  O   UNL     1       2.693   9.303 -15.233  1.00  0.00    -0.545 OA
ATOM      9  O   UNL     1       2.979   9.870 -13.039  1.00  0.00    -0.545 OA
ENDBRANCH   1   7
BRANCH   6  10
ATOM     10  O   UNL     1       4.924   3.641 -13.162  1.00  0.00    -0.497 OA
ATOM     11  C   UNL     1       4.211   2.630 -12.457  1.00  0.00     0.278 C 
ENDBRANCH   6  10
TORSDOF 2
ENDMDL
MODEL 4
REMARK VINA RESULT:    -3.999      9.442     12.714
REMARK INTER + INTRA:          -4.535
REMARK INTER:                  -4.470
REMARK INTRA:                  -0.065
REMARK UNBOUND:                -0.068
REMARK SMILES COc1ccc(C(=O)[O-])cc1
REMARK SMILES IDX 6 1 5 2 10 3 4 4 11 5 3 6 7 7 8 8 9 9 2 10 1 11
REMARK H PARENT
REMARK Flexibility Score: inf
ROOT
ATOM      1  C   UNL     1       6.320  -1.763  -7.586  1.00  0.00    -0.003 A 
ATOM      2  C   UNL     1       6.792  -2.879  -8.298  1.00  0.00     0.014 A 
ATOM      3  C   UNL     1       6.379  -1.778  -6.182  1.00  0.00     0.014 A 
ATOM      4  C   UNL     1       7.312  -3.986  -7.620  1.00  0.00     0.047 A 
ATOM      5  C   UNL     1       6.900  -2.885  -5.506  1.00  0.00     0.047 A 
ATOM      6  C   UNL     1       7.370  -3.995  -6.214  1.00  0.00     0.118 A 
ENDROOT
BRANCH   1   7
ATOM      7  C   UNL     1       5.770  -0.594  -8.308  1.00  0.00     0.071 C 
ATOM      8  O   UNL     1       5.795   0.551  -7.783  1.00  0.00    -0.545 OA
ATOM      9  O   UNL     1       5.218  -0.744  -9.574  1.00  0.00    -0.545 OA
ENDBRANCH   1   7
BRANCH   6  10
ATOM     10  O   UNL     1       7.882  -5.081  -5.490  1.00  0.00    -0.497 OA
ATOM     11  C   UNL     1       8.317  -6.304  -6.074  1.00  0.00     0.278 C 
ENDBRANCH   6  10
TORSDOF 2
ENDMDL
MODEL 5
REMARK VINA RESULT:    -3.988      9.747     13.087
REMARK INTER + INTRA:          -4.523
REMARK INTER:                  -4.454
REMARK INTRA:                  -0.069
REMARK UNBOUND:                -0.068
REMARK SMILES COc1ccc(C(=O)[O-])cc1
REMARK SMILES IDX 6 1 5 2 10 3 4 4 11 5 3 6 7 7 8 8 9 9 2 10 1 11
REMARK H PARENT
REMARK Flexibility Score: inf
ROOT
ATOM      1  C   UNL     1       6.510  -2.115  -7.598  1.00  0.00    -0.003 A 
ATOM      2  C   UNL     1       6.575  -2.109  -6.195  1.00  0.00     0.014 A 
ATOM      3  C   UNL     1       6.956  -3.252  -8.295  1.00  0.00     0.014 A 
ATOM      4  C   UNL     1       7.075  -3.216  -5.503  1.00  0.00     0.047 A 
ATOM      5  C   UNL     1       7.457  -4.358  -7.601  1.00  0.00     0.047 A 
ATOM      6  C   UNL     1       7.521  -4.352  -6.204  1.00  0.00     0.118 A 
ENDROOT
BRANCH   1   7
ATOM      7  C   UNL     1       5.980  -0.941  -8.327  1.00  0.00     0.071 C 
ATOM      8  O   UNL     1       6.036   0.209  -7.816  1.00  0.00    -0.545 OA
ATOM      9  O   UNL     1       5.413  -1.092  -9.587  1.00  0.00    -0.545 OA
ENDBRANCH   1   7
BRANCH   6  10
ATOM     10  O   UNL     1       8.030  -5.486  -5.555  1.00  0.00    -0.497 OA
ATOM     11  C   UNL     1       8.598  -6.607  -6.223  1.00  0.00     0.278 C 
ENDBRANCH   6  10
TORSDOF 2
ENDMDL
MODEL 6
REMARK VINA RESULT:    -3.955     10.526     13.093
REMARK INTER + INTRA:          -4.486
REMARK INTER:                  -4.423
REMARK INTRA:                  -0.062
REMARK UNBOUND:                -0.068
REMARK SMILES COc1ccc(C(=O)[O-])cc1
REMARK SMILES IDX 6 1 5 2 10 3 4 4 11 5 3 6 7 7 8 8 9 9 2 10 1 11
REMARK H PARENT
REMARK Flexibility Score: inf
ROOT
ATOM      1  C   UNL     1       7.581  -4.813  -6.552  1.00  0.00    -0.003 A 
ATOM      2  C   UNL     1       7.187  -3.707  -5.781  1.00  0.00     0.014 A 
ATOM      3  C   UNL     1       7.537  -4.716  -7.954  1.00  0.00     0.014 A 
ATOM      4  C   UNL     1       6.758  -2.527  -6.399  1.00  0.00     0.047 A 
ATOM      5  C   UNL     1       7.108  -3.536  -8.569  1.00  0.00     0.047 A 
ATOM      6  C   UNL     1       6.716  -2.435  -7.802  1.00  0.00     0.118 A 
ENDROOT
BRANCH   1   7
ATOM      7  C   UNL     1       8.034  -6.059  -5.895  1.00  0.00     0.071 C 
ATOM      8  O   UNL     1       7.455  -6.484  -4.860  1.00  0.00    -0.545 OA
ATOM      9  O   UNL     1       9.106  -6.777  -6.410  1.00  0.00    -0.545 OA
ENDBRANCH   1   7
BRANCH   6  10
ATOM     10  O   UNL     1       6.294  -1.274  -8.467  1.00  0.00    -0.497 OA
ATOM     11  C   UNL     1       5.926  -0.063  -7.816  1.00  0.00     0.278 C 
ENDBRANCH   6  10
TORSDOF 2
ENDMDL
MODEL 7
REMARK VINA RESULT:    -3.943     10.373     12.858
REMARK INTER + INTRA:          -4.472
REMARK INTER:                  -4.405
REMARK INTRA:                  -0.068
REMARK UNBOUND:                -0.068
REMARK SMILES COc1ccc(C(=O)[O-])cc1
REMARK SMILES IDX 6 1 5 2 10 3 4 4 11 5 3 6 7 7 8 8 9 9 2 10 1 11
REMARK H PARENT
REMARK Flexibility Score: inf
ROOT
ATOM      1  C   UNL     1       7.590  -4.717  -6.724  1.00  0.00    -0.003 A 
ATOM      2  C   UNL     1       7.548  -4.615  -8.125  1.00  0.00     0.014 A 
ATOM      3  C   UNL     1       7.181  -3.617  -5.950  1.00  0.00     0.014 A 
ATOM      4  C   UNL     1       7.106  -3.439  -8.739  1.00  0.00     0.047 A 
ATOM      5  C   UNL     1       6.739  -2.441  -6.566  1.00  0.00     0.047 A 
ATOM      6  C   UNL     1       6.697  -2.341  -7.960  1.00  0.00     0.118 A 
ENDROOT
BRANCH   1   7
ATOM      7  C   UNL     1       8.058  -5.963  -6.078  1.00  0.00     0.071 C 
ATOM      8  O   UNL     1       7.567  -6.338  -4.980  1.00  0.00    -0.545 OA
ATOM      9  O   UNL     1       9.046  -6.737  -6.675  1.00  0.00    -0.545 OA
ENDBRANCH   1   7
BRANCH   6  10
ATOM     10  O   UNL     1       6.247  -1.141  -8.529  1.00  0.00    -0.497 OA
ATOM     11  C   UNL     1       5.909   0.025  -7.785  1.00  0.00     0.278 C 
ENDBRANCH   6  10
TORSDOF 2
ENDMDL
MODEL 8
REMARK VINA RESULT:    -3.911      1.902      2.515
REMARK INTER + INTRA:          -4.437
REMARK INTER:                  -4.371
REMARK INTRA:                  -0.065
REMARK UNBOUND:                -0.068
REMARK SMILES COc1ccc(C(=O)[O-])cc1
REMARK SMILES IDX 6 1 5 2 10 3 4 4 11 5 3 6 7 7 8 8 9 9 2 10 1 11
REMARK H PARENT
REMARK Flexibility Score: inf
ROOT
ATOM      1  C   UNL     1       3.771   6.907 -14.121  1.00  0.00    -0.003 A 
ATOM      2  C   UNL     1       3.441   7.975 -14.971  1.00  0.00     0.014 A 
ATOM      3  C   UNL     1       3.676   7.089 -12.730  1.00  0.00     0.014 A 
ATOM      4  C   UNL     1       3.024   9.201 -14.441  1.00  0.00     0.047 A 
ATOM      5  C   UNL     1       3.260   8.316 -12.203  1.00  0.00     0.047 A 
ATOM      6  C   UNL     1       2.931   9.379 -13.049  1.00  0.00     0.118 A 
ENDROOT
BRANCH   1   7
ATOM      7  C   UNL     1       4.210   5.611 -14.685  1.00  0.00     0.071 C 
ATOM      8  O   UNL     1       4.510   4.651 -13.925  1.00  0.00    -0.545 OA
ATOM      9  O   UNL     1       4.298   5.436 -16.060  1.00  0.00    -0.545 OA
ENDBRANCH   1   7
BRANCH   6  10
ATOM     10  O   UNL     1       2.519  10.589 -12.471  1.00  0.00    -0.497 OA
ATOM     11  C   UNL     1       3.205  11.248 -11.412  1.00  0.00     0.278 C 
ENDBRANCH   6  10
TORSDOF 2
ENDMDL
MODEL 9
REMARK VINA RESULT:    -3.864     11.710     13.741
REMARK INTER + INTRA:          -4.385
REMARK INTER:                  -4.321
REMARK INTRA:                  -0.064
REMARK UNBOUND:                -0.068
REMARK SMILES COc1ccc(C(=O)[O-])cc1
REMARK SMILES IDX 6 1 5 2 10 3 4 4 11 5 3 6 7 7 8 8 9 9 2 10 1 11
REMARK H PARENT
REMARK Flexibility Score: inf
ROOT
ATOM      1  C   UNL     1       6.950  -3.172  -6.673  1.00  0.00    -0.003 A 
ATOM      2  C   UNL     1       6.959  -3.336  -8.068  1.00  0.00     0.014 A 
ATOM      3  C   UNL     1       7.438  -4.212  -5.862  1.00  0.00     0.014 A 
ATOM      4  C   UNL     1       7.445  -4.515  -8.641  1.00  0.00     0.047 A 
ATOM      5  C   UNL     1       7.924  -5.391  -6.438  1.00  0.00     0.047 A 
ATOM      6  C   UNL     1       7.932  -5.553  -7.827  1.00  0.00     0.118 A 
ENDROOT
BRANCH   1   7
ATOM      7  C   UNL     1       6.435  -1.923  -6.070  1.00  0.00     0.071 C 
ATOM      8  O   UNL     1       6.524  -1.728  -4.828  1.00  0.00    -0.545 OA
ATOM      9  O   UNL     1       5.847  -0.947  -6.865  1.00  0.00    -0.545 OA
ENDBRANCH   1   7
BRANCH   6  10
ATOM     10  O   UNL     1       8.429  -6.754  -8.354  1.00  0.00    -0.497 OA
ATOM     11  C   UNL     1       9.124  -6.861  -9.592  1.00  0.00     0.278 C 
ENDBRANCH   6  10
TORSDOF 2
ENDMDL
