MODEL 1
REMARK VINA RESULT:    -4.627      0.000      0.000
REMARK INTER + INTRA:          -8.073
REMARK INTER:                  -7.332
REMARK INTRA:                  -0.741
REMARK UNBOUND:                -0.741
REMARK SMILES CCCCCCCCCCCC(=O)[O-]
REMARK SMILES IDX 7 1 8 2 9 3 10 4 11 5 12 6 13 7 14 8 6 9 5 10 4 11 3 12 2 13
REMARK SMILES IDX 1 14
REMARK H PARENT
REMARK Flexibility Score: inf
ROOT
ATOM      1  C   UNL     1      17.373  20.842 -13.138  1.00  0.00     0.000 C 
ENDROOT
BRANCH   1   2
ATOM      2  C   UNL     1      18.092  19.738 -13.934  1.00  0.00     0.000 C 
BRANCH   2   3
ATOM      3  C   UNL     1      19.594  19.665 -13.615  1.00  0.00     0.000 C 
BRANCH   3   4
ATOM      4  C   UNL     1      20.065  18.230 -13.318  1.00  0.00     0.006 C 
BRANCH   4   5
ATOM      5  C   UNL     1      19.217  17.557 -12.231  1.00  0.00     0.053 C 
BRANCH   5   6
ATOM      6  C   UNL     1      19.514  18.112 -10.872  1.00  0.00     0.041 C 
ATOM      7  O   UNL     1      18.653  18.807 -10.269  1.00  0.00    -0.550 OA
ATOM      8  O   UNL     1      20.727  17.833 -10.256  1.00  0.00    -0.550 OA
ENDBRANCH   5   6
ENDBRANCH   4   5
ENDBRANCH   3   4
ENDBRANCH   2   3
ENDBRANCH   1   2
BRANCH   1   9
ATOM      9  C   UNL     1      16.286  20.286 -12.204  1.00  0.00     0.000 C 
BRANCH   9  10
ATOM     10  C   UNL     1      15.148  21.292 -11.959  1.00  0.00    -0.000 C 
BRANCH  10  11
ATOM     11  C   UNL     1      15.377  22.630 -12.680  1.00  0.00    -0.000 C 
BRANCH  11  12
ATOM     12  C   UNL     1      14.118  23.513 -12.702  1.00  0.00    -0.000 C 
BRANCH  12  13
ATOM     13  C   UNL     1      12.828  22.703 -12.495  1.00  0.00    -0.003 C 
ATOM     14  C   UNL     1      11.924  22.701 -13.728  1.00  0.00     0.004 C 
ENDBRANCH  12  13
ENDBRANCH  11  12
ENDBRANCH  10  11
ENDBRANCH   9  10
ENDBRANCH   1   9
TORSDOF 10
ENDMDL
MODEL 2
REMARK VINA RESULT:    -4.470      3.452      6.944
REMARK INTER + INTRA:          -7.824
REMARK INTER:                  -6.971
REMARK INTRA:                  -0.853
REMARK UNBOUND:                -0.741
REMARK SMILES CCCCCCCCCCCC(=O)[O-]
REMARK SMILES IDX 7 1 8 2 9 3 10 4 11 5 12 6 13 7 14 8 6 9 5 10 4 11 3 12 2 13
REMARK SMILES IDX 1 14
REMARK H PARENT
REMARK Flexibility Score: inf
ROOT
ATOM      1  C   UNL     1      17.738  20.869 -13.321  1.00  0.00     0.000 C 
ENDROOT
BRANCH   1   2
ATOM      2  C   UNL     1      16.785  20.200 -12.314  1.00  0.00     0.000 C 
BRANCH   2   3
ATOM      3  C   UNL     1      15.555  21.068 -12.001  1.00  0.00     0.000 C 
BRANCH   3   4
ATOM      4  C   UNL     1      15.539  22.380 -12.805  1.00  0.00     0.006 C 
BRANCH   4   5
ATOM      5  C   UNL     1      14.537  23.394 -12.236  1.00  0.00     0.053 C 
BRANCH   5   6
ATOM      6  C   UNL     1      13.132  23.074 -12.643  1.00  0.00     0.041 C 
ATOM      7  O   UNL     1      12.818  23.035 -13.862  1.00  0.00    -0.550 OA
ATOM      8  O   UNL     1      12.176  22.783 -11.678  1.00  0.00    -0.550 OA
ENDBRANCH   5   6
ENDBRANCH   4   5
ENDBRANCH   3   4
ENDBRANCH   2   3
ENDBRANCH   1   2
BRANCH   1   9
ATOM      9  C   UNL     1      18.893  19.947 -13.745  1.00  0.00     0.000 C 
BRANCH   9  10
ATOM     10  C   UNL     1      18.433  18.500 -13.992  1.00  0.00    -0.000 C 
BRANCH  10  11
ATOM     11  C   UNL     1      19.513  17.467 -13.631  1.00  0.00    -0.000 C 
BRANCH  11  12
ATOM     12  C   UNL     1      19.222  16.749 -12.302  1.00  0.00    -0.000 C 
BRANCH  12  13
ATOM     13  C   UNL     1      20.151  17.211 -11.169  1.00  0.00    -0.003 C 
ATOM     14  C   UNL     1      19.614  18.432 -10.421  1.00  0.00     0.004 C 
ENDBRANCH  12  13
ENDBRANCH  11  12
ENDBRANCH  10  11
ENDBRANCH   9  10
ENDBRANCH   1   9
TORSDOF 10
ENDMDL
MODEL 3
REMARK VINA RESULT:    -4.352     11.158     13.461
REMARK INTER + INTRA:          -7.637
REMARK INTER:                  -6.479
REMARK INTRA:                  -1.158
REMARK UNBOUND:                -0.741
REMARK SMILES CCCCCCCCCCCC(=O)[O-]
REMARK SMILES IDX 7 1 8 2 9 3 10 4 11 5 12 6 13 7 14 8 6 9 5 10 4 11 3 12 2 13
REMARK SMILES IDX 1 14
REMARK H PARENT
REMARK Flexibility Score: inf
ROOT
ATOM      1  C   UNL     1       5.565  13.907  -8.661  1.00  0.00     0.000 C 
ENDROOT
BRANCH   1   2
ATOM      2  C   UNL     1       4.624  15.099  -8.414  1.00  0.00     0.000 C 
BRANCH   2   3
ATOM      3  C   UNL     1       4.432  15.397  -6.918  1.00  0.00     0.000 C 
BRANCH   3   4
ATOM      4  C   UNL     1       4.017  16.856  -6.655  1.00  0.00     0.006 C 
BRANCH   4   5
ATOM      5  C   UNL     1       5.130  17.847  -7.022  1.00  0.00     0.053 C 
BRANCH   5   6
ATOM      6  C   UNL     1       6.318  17.707  -6.120  1.00  0.00     0.041 C 
ATOM      7  O   UNL     1       7.401  17.245  -6.567  1.00  0.00    -0.550 OA
ATOM      8  O   UNL     1       6.240  18.119  -4.796  1.00  0.00    -0.550 OA
ENDBRANCH   5   6
ENDBRANCH   4   5
ENDBRANCH   3   4
ENDBRANCH   2   3
ENDBRANCH   1   2
BRANCH   1   9
ATOM      9  C   UNL     1       6.904  14.045  -7.918  1.00  0.00     0.000 C 
BRANCH   9  10
ATOM     10  C   UNL     1       8.088  14.272  -8.873  1.00  0.00    -0.000 C 
BRANCH  10  11
ATOM     11  C   UNL     1       7.968  15.588  -9.659  1.00  0.00    -0.000 C 
BRANCH  11  12
ATOM     12  C   UNL     1       7.917  15.365 -11.180  1.00  0.00    -0.000 C 
BRANCH  12  13
ATOM     13  C   UNL     1       7.919  13.875 -11.556  1.00  0.00    -0.003 C 
ATOM     14  C   UNL     1       6.616  13.428 -12.220  1.00  0.00     0.004 C 
ENDBRANCH  12  13
ENDBRANCH  11  12
ENDBRANCH  10  11
ENDBRANCH   9  10
ENDBRANCH   1   9
TORSDOF 10
ENDMDL
MODEL 4
REMARK VINA RESULT:    -4.344      3.710      7.243
REMARK INTER + INTRA:          -7.625
REMARK INTER:                  -6.971
REMARK INTRA:                  -0.653
REMARK UNBOUND:                -0.741
REMARK SMILES CCCCCCCCCCCC(=O)[O-]
REMARK SMILES IDX 7 1 8 2 9 3 10 4 11 5 12 6 13 7 14 8 6 9 5 10 4 11 3 12 2 13
REMARK SMILES IDX 1 14
REMARK H PARENT
REMARK Flexibility Score: inf
ROOT
ATOM      1  C   UNL     1      16.342  20.140 -12.253  1.00  0.00     0.000 C 
ENDROOT
BRANCH   1   2
ATOM      2  C   UNL     1      15.344  21.255 -11.888  1.00  0.00     0.000 C 
BRANCH   2   3
ATOM      3  C   UNL     1      15.485  22.490 -12.792  1.00  0.00     0.000 C 
BRANCH   3   4
ATOM      4  C   UNL     1      14.303  23.465 -12.647  1.00  0.00     0.006 C 
BRANCH   4   5
ATOM      5  C   UNL     1      12.953  22.776 -12.882  1.00  0.00     0.053 C 
BRANCH   5   6
ATOM      6  C   UNL     1      11.863  23.393 -12.059  1.00  0.00     0.041 C 
ATOM      7  O   UNL     1      12.134  24.294 -11.222  1.00  0.00    -0.550 OA
ATOM      8  O   UNL     1      10.545  22.998 -12.242  1.00  0.00    -0.550 OA
ENDBRANCH   5   6
ENDBRANCH   4   5
ENDBRANCH   3   4
ENDBRANCH   2   3
ENDBRANCH   1   2
BRANCH   1   9
ATOM      9  C   UNL     1      17.414  20.609 -13.250  1.00  0.00     0.000 C 
BRANCH   9  10
ATOM     10  C   UNL     1      18.108  19.436 -13.965  1.00  0.00    -0.000 C 
BRANCH  10  11
ATOM     11  C   UNL     1      19.633  19.444 -13.767  1.00  0.00    -0.000 C 
BRANCH  11  12
ATOM     12  C   UNL     1      20.142  18.185 -13.045  1.00  0.00    -0.000 C 
BRANCH  12  13
ATOM     13  C   UNL     1      19.193  17.725 -11.926  1.00  0.00    -0.003 C 
ATOM     14  C   UNL     1      19.654  18.170 -10.537  1.00  0.00     0.004 C 
ENDBRANCH  12  13
ENDBRANCH  11  12
ENDBRANCH  10  11
ENDBRANCH   9  10
ENDBRANCH   1   9
TORSDOF 10
ENDMDL
MODEL 5
REMARK VINA RESULT:    -4.291      1.349      2.271
REMARK INTER + INTRA:          -7.540
REMARK INTER:                  -6.733
REMARK INTRA:                  -0.807
REMARK UNBOUND:                -0.741
REMARK SMILES CCCCCCCCCCCC(=O)[O-]
REMARK SMILES IDX 7 1 8 2 9 3 10 4 11 5 12 6 13 7 14 8 6 9 5 10 4 11 3 12 2 13
REMARK SMILES IDX 1 14
REMARK H PARENT
REMARK Flexibility Score: inf
ROOT
ATOM      1  C   UNL     1      18.140  18.963 -13.917  1.00  0.00     0.000 C 
ENDROOT
BRANCH   1   2
ATOM      2  C   UNL     1      19.636  18.616 -14.026  1.00  0.00     0.000 C 
BRANCH   2   3
ATOM      3  C   UNL     1      20.107  17.681 -12.900  1.00  0.00     0.000 C 
BRANCH   3   4
ATOM      4  C   UNL     1      19.186  17.731 -11.668  1.00  0.00     0.006 C 
BRANCH   4   5
ATOM      5  C   UNL     1      19.930  18.197 -10.409  1.00  0.00     0.053 C 
BRANCH   5   6
ATOM      6  C   UNL     1      21.053  17.273 -10.053  1.00  0.00     0.041 C 
ATOM      7  O   UNL     1      20.809  16.098  -9.670  1.00  0.00    -0.550 OA
ATOM      8  O   UNL     1      22.369  17.697 -10.177  1.00  0.00    -0.550 OA
ENDBRANCH   5   6
ENDBRANCH   4   5
ENDBRANCH   3   4
ENDBRANCH   2   3
ENDBRANCH   1   2
BRANCH   1   9
ATOM      9  C   UNL     1      17.891  20.473 -13.771  1.00  0.00     0.000 C 
BRANCH   9  10
ATOM     10  C   UNL     1      17.294  20.842 -12.402  1.00  0.00    -0.000 C 
BRANCH  10  11
ATOM     11  C   UNL     1      15.901  20.229 -12.181  1.00  0.00    -0.000 C 
BRANCH  11  12
ATOM     12  C   UNL     1      14.832  21.288 -11.865  1.00  0.00    -0.000 C 
BRANCH  12  13
ATOM     13  C   UNL     1      15.068  22.606 -12.620  1.00  0.00    -0.003 C 
ATOM     14  C   UNL     1      13.782  23.406 -12.834  1.00  0.00     0.004 C 
ENDBRANCH  12  13
ENDBRANCH  11  12
ENDBRANCH  10  11
ENDBRANCH   9  10
ENDBRANCH   1   9
TORSDOF 10
ENDMDL
MODEL 6
REMARK VINA RESULT:    -4.261      2.941      6.883
REMARK INTER + INTRA:          -7.493
REMARK INTER:                  -6.676
REMARK INTRA:                  -0.817
REMARK UNBOUND:                -0.741
REMARK SMILES CCCCCCCCCCCC(=O)[O-]
REMARK SMILES IDX 7 1 8 2 9 3 10 4 11 5 12 6 13 7 14 8 6 9 5 10 4 11 3 12 2 13
REMARK SMILES IDX 1 14
REMARK H PARENT
REMARK Flexibility Score: inf
ROOT
ATOM      1  C   UNL     1      19.653  18.787 -13.962  1.00  0.00     0.000 C 
ENDROOT
BRANCH   1   2
ATOM      2  C   UNL     1      18.841  20.092 -13.872  1.00  0.00     0.000 C 
BRANCH   2   3
ATOM      3  C   UNL     1      17.401  19.857 -13.387  1.00  0.00     0.000 C 
BRANCH   3   4
ATOM      4  C   UNL     1      17.031  20.744 -12.185  1.00  0.00     0.006 C 
BRANCH   4   5
ATOM      5  C   UNL     1      15.514  20.934 -12.053  1.00  0.00     0.053 C 
BRANCH   5   6
ATOM      6  C   UNL     1      15.096  22.329 -12.404  1.00  0.00     0.041 C 
ATOM      7  O   UNL     1      15.692  22.958 -13.317  1.00  0.00    -0.550 OA
ATOM      8  O   UNL     1      14.026  22.921 -11.746  1.00  0.00    -0.550 OA
ENDBRANCH   5   6
ENDBRANCH   4   5
ENDBRANCH   3   4
ENDBRANCH   2   3
ENDBRANCH   1   2
BRANCH   1   9
ATOM      9  C   UNL     1      18.916  17.587 -13.345  1.00  0.00     0.000 C 
BRANCH   9  10
ATOM     10  C   UNL     1      19.592  17.077 -12.060  1.00  0.00    -0.000 C 
BRANCH  10  11
ATOM     11  C   UNL     1      19.552  18.110 -10.922  1.00  0.00    -0.000 C 
BRANCH  11  12
ATOM     12  C   UNL     1      20.771  18.009  -9.989  1.00  0.00    -0.000 C 
BRANCH  12  13
ATOM     13  C   UNL     1      21.713  16.858 -10.376  1.00  0.00    -0.003 C 
ATOM     14  C   UNL     1      23.143  17.328 -10.648  1.00  0.00     0.004 C 
ENDBRANCH  12  13
ENDBRANCH  11  12
ENDBRANCH  10  11
ENDBRANCH   9  10
ENDBRANCH   1   9
TORSDOF 10
ENDMDL
MODEL 7
REMARK VINA RESULT:    -4.247     10.637     12.152
REMARK INTER + INTRA:          -7.470
REMARK INTER:                  -6.551
REMARK INTRA:                  -0.919
REMARK UNBOUND:                -0.741
REMARK SMILES CCCCCCCCCCCC(=O)[O-]
REMARK SMILES IDX 7 1 8 2 9 3 10 4 11 5 12 6 13 7 14 8 6 9 5 10 4 11 3 12 2 13
REMARK SMILES IDX 1 14
REMARK H PARENT
REMARK Flexibility Score: inf
ROOT
ATOM      1  C   UNL     1       6.636  14.957  -7.939  1.00  0.00     0.000 C 
ENDROOT
BRANCH   1   2
ATOM      2  C   UNL     1       7.660  15.930  -8.551  1.00  0.00     0.000 C 
BRANCH   2   3
ATOM      3  C   UNL     1       8.079  15.527  -9.974  1.00  0.00     0.000 C 
BRANCH   3   4
ATOM      4  C   UNL     1       8.015  14.006 -10.199  1.00  0.00     0.006 C 
BRANCH   4   5
ATOM      5  C   UNL     1       9.335  13.448 -10.749  1.00  0.00     0.053 C 
BRANCH   5   6
ATOM      6  C   UNL     1      10.226  12.946  -9.655  1.00  0.00     0.041 C 
ATOM      7  O   UNL     1       9.805  12.894  -8.469  1.00  0.00    -0.550 OA
ATOM      8  O   UNL     1      11.509  12.504  -9.949  1.00  0.00    -0.550 OA
ENDBRANCH   5   6
ENDBRANCH   4   5
ENDBRANCH   3   4
ENDBRANCH   2   3
ENDBRANCH   1   2
BRANCH   1   9
ATOM      9  C   UNL     1       5.183  15.386  -8.201  1.00  0.00     0.000 C 
BRANCH   9  10
ATOM     10  C   UNL     1       4.307  15.303  -6.938  1.00  0.00    -0.000 C 
BRANCH  10  11
ATOM     11  C   UNL     1       3.988  16.688  -6.350  1.00  0.00    -0.000 C 
BRANCH  11  12
ATOM     12  C   UNL     1       4.684  17.828  -7.111  1.00  0.00    -0.000 C 
BRANCH  12  13
ATOM     13  C   UNL     1       5.873  18.416  -6.334  1.00  0.00    -0.003 C 
ATOM     14  C   UNL     1       5.914  17.955  -4.876  1.00  0.00     0.004 C 
ENDBRANCH  12  13
ENDBRANCH  11  12
ENDBRANCH  10  11
ENDBRANCH   9  10
ENDBRANCH   1   9
TORSDOF 10
ENDMDL
MODEL 8
REMARK VINA RESULT:    -4.225     11.524     13.819
REMARK INTER + INTRA:          -7.435
REMARK INTER:                  -6.210
REMARK INTRA:                  -1.225
REMARK UNBOUND:                -0.741
REMARK SMILES CCCCCCCCCCCC(=O)[O-]
REMARK SMILES IDX 7 1 8 2 9 3 10 4 11 5 12 6 13 7 14 8 6 9 5 10 4 11 3 12 2 13
REMARK SMILES IDX 1 14
REMARK H PARENT
REMARK Flexibility Score: inf
ROOT
ATOM      1  C   UNL     1       4.859  14.804 -10.190  1.00  0.00     0.000 C 
ENDROOT
BRANCH   1   2
ATOM      2  C   UNL     1       4.970  15.734  -8.968  1.00  0.00     0.000 C 
BRANCH   2   3
ATOM      3  C   UNL     1       4.556  15.039  -7.661  1.00  0.00     0.000 C 
BRANCH   3   4
ATOM      4  C   UNL     1       4.195  16.041  -6.549  1.00  0.00     0.006 C 
BRANCH   4   5
ATOM      5  C   UNL     1       4.828  17.419  -6.785  1.00  0.00     0.053 C 
BRANCH   5   6
ATOM      6  C   UNL     1       6.087  17.595  -5.993  1.00  0.00     0.041 C 
ATOM      7  O   UNL     1       6.065  18.212  -4.896  1.00  0.00    -0.550 OA
ATOM      8  O   UNL     1       7.279  17.046  -6.450  1.00  0.00    -0.550 OA
ENDBRANCH   5   6
ENDBRANCH   4   5
ENDBRANCH   3   4
ENDBRANCH   2   3
ENDBRANCH   1   2
BRANCH   1   9
ATOM      9  C   UNL     1       4.948  13.317  -9.812  1.00  0.00     0.000 C 
BRANCH   9  10
ATOM     10  C   UNL     1       6.366  12.747  -9.988  1.00  0.00    -0.000 C 
BRANCH  10  11
ATOM     11  C   UNL     1       7.094  12.554  -8.647  1.00  0.00    -0.000 C 
BRANCH  11  12
ATOM     12  C   UNL     1       8.320  13.472  -8.503  1.00  0.00    -0.000 C 
BRANCH  12  13
ATOM     13  C   UNL     1       8.573  14.318  -9.761  1.00  0.00    -0.003 C 
ATOM     14  C   UNL     1       8.445  15.819  -9.502  1.00  0.00     0.004 C 
ENDBRANCH  12  13
ENDBRANCH  11  12
ENDBRANCH  10  11
ENDBRANCH   9  10
ENDBRANCH   1   9
TORSDOF 10
ENDMDL
MODEL 9
REMARK VINA RESULT:    -4.203     11.581     13.779
REMARK INTER + INTRA:          -7.401
REMARK INTER:                  -5.948
REMARK INTRA:                  -1.453
REMARK UNBOUND:                -0.741
REMARK SMILES CCCCCCCCCCCC(=O)[O-]
REMARK SMILES IDX 7 1 8 2 9 3 10 4 11 5 12 6 13 7 14 8 6 9 5 10 4 11 3 12 2 13
REMARK SMILES IDX 1 14
REMARK H PARENT
REMARK Flexibility Score: inf
ROOT
ATOM      1  C   UNL     1       5.120  14.879 -10.470  1.00  0.00     0.000 C 
ENDROOT
BRANCH   1   2
ATOM      2  C   UNL     1       4.469  13.959  -9.422  1.00  0.00     0.000 C 
BRANCH   2   3
ATOM      3  C   UNL     1       4.571  14.525  -7.997  1.00  0.00     0.000 C 
BRANCH   3   4
ATOM      4  C   UNL     1       4.882  16.032  -7.981  1.00  0.00     0.006 C 
BRANCH   4   5
ATOM      5  C   UNL     1       6.033  16.375  -7.026  1.00  0.00     0.053 C 
BRANCH   5   6
ATOM      6  C   UNL     1       5.687  17.524  -6.129  1.00  0.00     0.041 C 
ATOM      7  O   UNL     1       4.636  17.493  -5.436  1.00  0.00    -0.550 OA
ATOM      8  O   UNL     1       6.543  18.614  -6.032  1.00  0.00    -0.550 OA
ENDBRANCH   5   6
ENDBRANCH   4   5
ENDBRANCH   3   4
ENDBRANCH   2   3
ENDBRANCH   1   2
BRANCH   1   9
ATOM      9  C   UNL     1       6.440  14.311 -11.018  1.00  0.00     0.000 C 
BRANCH   9  10
ATOM     10  C   UNL     1       7.641  15.227 -10.729  1.00  0.00    -0.000 C 
BRANCH  10  11
ATOM     11  C   UNL     1       8.384  14.837  -9.440  1.00  0.00    -0.000 C 
BRANCH  11  12
ATOM     12  C   UNL     1       8.346  13.323  -9.172  1.00  0.00    -0.000 C 
BRANCH  12  13
ATOM     13  C   UNL     1       7.814  12.986  -7.770  1.00  0.00    -0.003 C 
ATOM     14  C   UNL     1       7.976  11.508  -7.413  1.00  0.00     0.004 C 
ENDBRANCH  12  13
ENDBRANCH  11  12
ENDBRANCH  10  11
ENDBRANCH   9  10
ENDBRANCH   1   9
TORSDOF 10
ENDMDL
