MODEL 1
REMARK VINA RESULT:    -3.886      0.000      0.000
REMARK INTER + INTRA:          -4.000
REMARK INTER:                  -4.000
REMARK INTRA:                   0.000
REMARK UNBOUND:                 0.000
REMARK SMILES Nc1ncnc2nc[nH]c12
REMARK SMILES IDX 8 1 7 2 6 3 5 4 4 5 3 6 2 7 10 8 9 9 1 11
REMARK H PARENT 9 10 1 12 1 13
REMARK Flexibility Score: inf
ROOT
ATOM      1  C   UNL     1     175.922 175.129 183.299  1.00  0.00     0.199 A 
ATOM      2  N   UNL     1     176.232 176.455 183.285  1.00  0.00    -0.217 NA
ATOM      3  C   UNL     1     176.580 176.653 182.003  1.00  0.00     0.182 A 
ATOM      4  N   UNL     1     176.980 177.821 181.445  1.00  0.00    -0.215 NA
ATOM      5  C   UNL     1     177.296 177.827 180.115  1.00  0.00     0.226 A 
ATOM      6  N   UNL     1     177.206 176.676 179.373  1.00  0.00    -0.217 NA
ATOM      7  C   UNL     1     176.801 175.497 179.934  1.00  0.00     0.152 A 
ATOM      8  C   UNL     1     176.484 175.508 181.289  1.00  0.00     0.127 A 
ATOM      9  N   UNL     1     176.068 174.523 182.094  1.00  0.00    -0.340 N 
ATOM     10  H   UNL     1     175.892 173.520 181.861  1.00  0.00     0.168 HD
ENDROOT
BRANCH   7  11
ATOM     11  N   UNL     1     176.716 174.311 179.142  1.00  0.00    -0.382 N 
ATOM     12  H   UNL     1     175.940 174.167 178.460  1.00  0.00     0.158 HD
ATOM     13  H   UNL     1     177.442 173.566 179.238  1.00  0.00     0.158 HD
ENDBRANCH   7  11
TORSDOF 1
ENDMDL
MODEL 2
REMARK VINA RESULT:    -3.855      1.307      3.046
REMARK INTER + INTRA:          -3.967
REMARK INTER:                  -3.967
REMARK INTRA:                   0.000
REMARK UNBOUND:                 0.000
REMARK SMILES Nc1ncnc2nc[nH]c12
REMARK SMILES IDX 8 1 7 2 6 3 5 4 4 5 3 6 2 7 10 8 9 9 1 11
REMARK H PARENT 9 10 1 12 1 13
REMARK Flexibility Score: inf
ROOT
ATOM      1  C   UNL     1     176.518 175.905 178.398  1.00  0.00     0.199 A 
ATOM      2  N   UNL     1     176.148 176.891 179.260  1.00  0.00    -0.217 NA
ATOM      3  C   UNL     1     176.413 176.340 180.456  1.00  0.00     0.182 A 
ATOM      4  N   UNL     1     176.224 176.912 181.669  1.00  0.00    -0.215 NA
ATOM      5  C   UNL     1     176.556 176.190 182.782  1.00  0.00     0.226 A 
ATOM      6  N   UNL     1     177.066 174.922 182.663  1.00  0.00    -0.217 NA
ATOM      7  C   UNL     1     177.258 174.344 181.439  1.00  0.00     0.152 A 
ATOM      8  C   UNL     1     176.915 175.092 180.316  1.00  0.00     0.127 A 
ATOM      9  N   UNL     1     176.991 174.792 179.014  1.00  0.00    -0.340 N 
ATOM     10  H   UNL     1     177.331 173.913 178.565  1.00  0.00     0.168 HD
ENDROOT
BRANCH   7  11
ATOM     11  N   UNL     1     177.790 173.022 181.339  1.00  0.00    -0.382 N 
ATOM     12  H   UNL     1     177.175 172.182 181.406  1.00  0.00     0.158 HD
ATOM     13  H   UNL     1     178.815 172.881 181.193  1.00  0.00     0.158 HD
ENDBRANCH   7  11
TORSDOF 1
ENDMDL
MODEL 3
REMARK VINA RESULT:    -3.821      2.213      3.142
REMARK INTER + INTRA:          -3.933
REMARK INTER:                  -3.933
REMARK INTRA:                   0.000
REMARK UNBOUND:                 0.000
REMARK SMILES Nc1ncnc2nc[nH]c12
REMARK SMILES IDX 8 1 7 2 6 3 5 4 4 5 3 6 2 7 10 8 9 9 1 11
REMARK H PARENT 9 10 1 12 1 13
REMARK Flexibility Score: inf
ROOT
ATOM      1  C   UNL     1     172.843 177.041 181.546  1.00  0.00     0.199 A 
ATOM      2  N   UNL     1     173.375 177.290 180.318  1.00  0.00    -0.217 NA
ATOM      3  C   UNL     1     174.695 177.226 180.561  1.00  0.00     0.182 A 
ATOM      4  N   UNL     1     175.692 177.402 179.661  1.00  0.00    -0.215 NA
ATOM      5  C   UNL     1     176.983 177.298 180.099  1.00  0.00     0.226 A 
ATOM      6  N   UNL     1     177.251 177.022 181.416  1.00  0.00    -0.217 NA
ATOM      7  C   UNL     1     176.246 176.844 182.326  1.00  0.00     0.152 A 
ATOM      8  C   UNL     1     174.938 176.954 181.864  1.00  0.00     0.127 A 
ATOM      9  N   UNL     1     173.772 176.832 182.511  1.00  0.00    -0.340 N 
ATOM     10  H   UNL     1     173.606 176.625 183.521  1.00  0.00     0.168 HD
ENDROOT
BRANCH   7  11
ATOM     11  N   UNL     1     176.549 176.559 183.692  1.00  0.00    -0.382 N 
ATOM     12  H   UNL     1     177.140 175.742 183.959  1.00  0.00     0.158 HD
ATOM     13  H   UNL     1     176.178 177.176 184.449  1.00  0.00     0.158 HD
ENDBRANCH   7  11
TORSDOF 1
ENDMDL
MODEL 4
REMARK VINA RESULT:    -3.800     15.776     16.578
REMARK INTER + INTRA:          -3.912
REMARK INTER:                  -3.912
REMARK INTRA:                   0.000
REMARK UNBOUND:                 0.000
REMARK SMILES Nc1ncnc2nc[nH]c12
REMARK SMILES IDX 8 1 7 2 6 3 5 4 4 5 3 6 2 7 10 8 9 9 1 11
REMARK H PARENT 9 10 1 12 1 13
REMARK Flexibility Score: inf
ROOT
ATOM      1  C   UNL     1     161.432 176.318 181.515  1.00  0.00     0.199 A 
ATOM      2  N   UNL     1     161.776 175.452 182.507  1.00  0.00    -0.217 NA
ATOM      3  C   UNL     1     161.057 174.361 182.195  1.00  0.00     0.182 A 
ATOM      4  N   UNL     1     161.032 173.187 182.872  1.00  0.00    -0.215 NA
ATOM      5  C   UNL     1     160.234 172.184 182.398  1.00  0.00     0.226 A 
ATOM      6  N   UNL     1     159.482 172.370 181.265  1.00  0.00    -0.217 NA
ATOM      7  C   UNL     1     159.506 173.553 180.580  1.00  0.00     0.152 A 
ATOM      8  C   UNL     1     160.324 174.564 181.076  1.00  0.00     0.127 A 
ATOM      9  N   UNL     1     160.546 175.805 180.626  1.00  0.00    -0.340 N 
ATOM     10  H   UNL     1     160.139 176.277 179.789  1.00  0.00     0.168 HD
ENDROOT
BRANCH   7  11
ATOM     11  N   UNL     1     158.714 173.724 179.404  1.00  0.00    -0.382 N 
ATOM     12  H   UNL     1     158.336 172.906 178.879  1.00  0.00     0.158 HD
ATOM     13  H   UNL     1     158.499 174.685 179.054  1.00  0.00     0.158 HD
ENDBRANCH   7  11
TORSDOF 1
ENDMDL
MODEL 5
REMARK VINA RESULT:    -3.789     20.617     21.561
REMARK INTER + INTRA:          -3.900
REMARK INTER:                  -3.900
REMARK INTRA:                   0.000
REMARK UNBOUND:                 0.000
REMARK SMILES Nc1ncnc2nc[nH]c12
REMARK SMILES IDX 8 1 7 2 6 3 5 4 4 5 3 6 2 7 10 8 9 9 1 11
REMARK H PARENT 9 10 1 12 1 13
REMARK Flexibility Score: inf
ROOT
ATOM      1  C   UNL     1     158.092 164.358 181.489  1.00  0.00     0.199 A 
ATOM      2  N   UNL     1     159.034 164.426 182.469  1.00  0.00    -0.217 NA
ATOM      3  C   UNL     1     159.841 163.398 182.161  1.00  0.00     0.182 A 
ATOM      4  N   UNL     1     160.955 163.015 182.830  1.00  0.00    -0.215 NA
ATOM      5  C   UNL     1     161.652 161.936 182.362  1.00  0.00     0.226 A 
ATOM      6  N   UNL     1     161.226 161.265 181.243  1.00  0.00    -0.217 NA
ATOM      7  C   UNL     1     160.103 161.650 180.566  1.00  0.00     0.152 A 
ATOM      8  C   UNL     1     159.405 162.750 181.056  1.00  0.00     0.127 A 
ATOM      9  N   UNL     1     158.291 163.344 180.611  1.00  0.00    -0.340 N 
ATOM     10  H   UNL     1     157.705 163.094 179.783  1.00  0.00     0.168 HD
ENDROOT
BRANCH   7  11
ATOM     11  N   UNL     1     159.678 160.935 179.405  1.00  0.00    -0.382 N 
ATOM     12  H   UNL     1     160.133 160.041 179.120  1.00  0.00     0.158 HD
ATOM     13  H   UNL     1     158.894 161.305 178.821  1.00  0.00     0.158 HD
ENDBRANCH   7  11
TORSDOF 1
ENDMDL
MODEL 6
REMARK VINA RESULT:    -3.703      1.365      2.161
REMARK INTER + INTRA:          -3.811
REMARK INTER:                  -3.811
REMARK INTRA:                   0.000
REMARK UNBOUND:                 0.000
REMARK SMILES Nc1ncnc2nc[nH]c12
REMARK SMILES IDX 8 1 7 2 6 3 5 4 4 5 3 6 2 7 10 8 9 9 1 11
REMARK H PARENT 9 10 1 12 1 13
REMARK Flexibility Score: inf
ROOT
ATOM      1  C   UNL     1     176.653 173.094 180.602  1.00  0.00     0.199 A 
ATOM      2  N   UNL     1     176.894 173.970 181.616  1.00  0.00    -0.217 NA
ATOM      3  C   UNL     1     176.893 175.151 180.978  1.00  0.00     0.182 A 
ATOM      4  N   UNL     1     177.089 176.371 181.535  1.00  0.00    -0.215 NA
ATOM      5  C   UNL     1     177.052 177.468 180.719  1.00  0.00     0.226 A 
ATOM      6  N   UNL     1     176.823 177.326 179.373  1.00  0.00    -0.217 NA
ATOM      7  C   UNL     1     176.625 176.097 178.810  1.00  0.00     0.152 A 
ATOM      8  C   UNL     1     176.665 174.991 179.654  1.00  0.00     0.127 A 
ATOM      9  N   UNL     1     176.510 173.688 179.390  1.00  0.00    -0.340 N 
ATOM     10  H   UNL     1     176.322 173.226 178.473  1.00  0.00     0.168 HD
ENDROOT
BRANCH   7  11
ATOM     11  N   UNL     1     176.389 175.974 177.406  1.00  0.00    -0.382 N 
ATOM     12  H   UNL     1     177.037 175.436 176.791  1.00  0.00     0.158 HD
ATOM     13  H   UNL     1     175.552 176.426 176.976  1.00  0.00     0.158 HD
ENDBRANCH   7  11
TORSDOF 1
ENDMDL
MODEL 7
REMARK VINA RESULT:    -3.702      2.108      3.825
REMARK INTER + INTRA:          -3.810
REMARK INTER:                  -3.810
REMARK INTRA:                   0.000
REMARK UNBOUND:                 0.000
REMARK SMILES Nc1ncnc2nc[nH]c12
REMARK SMILES IDX 8 1 7 2 6 3 5 4 4 5 3 6 2 7 10 8 9 9 1 11
REMARK H PARENT 9 10 1 12 1 13
REMARK Flexibility Score: inf
ROOT
ATOM      1  C   UNL     1     176.815 177.312 179.470  1.00  0.00     0.199 A 
ATOM      2  N   UNL     1     175.505 177.527 179.171  1.00  0.00    -0.217 NA
ATOM      3  C   UNL     1     174.902 177.293 180.349  1.00  0.00     0.182 A 
ATOM      4  N   UNL     1     173.574 177.370 180.606  1.00  0.00    -0.215 NA
ATOM      5  C   UNL     1     173.145 177.095 181.875  1.00  0.00     0.226 A 
ATOM      6  N   UNL     1     174.043 176.752 182.854  1.00  0.00    -0.217 NA
ATOM      7  C   UNL     1     175.383 176.675 182.596  1.00  0.00     0.152 A 
ATOM      8  C   UNL     1     175.803 176.957 181.300  1.00  0.00     0.127 A 
ATOM      9  N   UNL     1     177.030 176.962 180.763  1.00  0.00    -0.340 N 
ATOM     10  H   UNL     1     177.943 176.749 181.221  1.00  0.00     0.168 HD
ENDROOT
BRANCH   7  11
ATOM     11  N   UNL     1     176.299 176.314 183.631  1.00  0.00    -0.382 N 
ATOM     12  H   UNL     1     177.052 175.611 183.470  1.00  0.00     0.158 HD
ATOM     13  H   UNL     1     176.225 176.760 184.573  1.00  0.00     0.158 HD
ENDBRANCH   7  11
TORSDOF 1
ENDMDL
MODEL 8
REMARK VINA RESULT:    -3.697     16.532     17.220
REMARK INTER + INTRA:          -3.805
REMARK INTER:                  -3.805
REMARK INTRA:                   0.000
REMARK UNBOUND:                 0.000
REMARK SMILES Nc1ncnc2nc[nH]c12
REMARK SMILES IDX 8 1 7 2 6 3 5 4 4 5 3 6 2 7 10 8 9 9 1 11
REMARK H PARENT 9 10 1 12 1 13
REMARK Flexibility Score: inf
ROOT
ATOM      1  C   UNL     1     159.317 170.716 181.360  1.00  0.00     0.199 A 
ATOM      2  N   UNL     1     160.017 171.378 182.322  1.00  0.00    -0.217 NA
ATOM      3  C   UNL     1     160.109 172.615 181.807  1.00  0.00     0.182 A 
ATOM      4  N   UNL     1     160.719 173.683 182.374  1.00  0.00    -0.215 NA
ATOM      5  C   UNL     1     160.709 174.869 181.695  1.00  0.00     0.226 A 
ATOM      6  N   UNL     1     160.095 174.965 180.471  1.00  0.00    -0.217 NA
ATOM      7  C   UNL     1     159.479 173.888 179.897  1.00  0.00     0.152 A 
ATOM      8  C   UNL     1     159.498 172.688 180.602  1.00  0.00     0.127 A 
ATOM      9  N   UNL     1     158.987 171.490 180.296  1.00  0.00    -0.340 N 
ATOM     10  H   UNL     1     158.456 171.206 179.443  1.00  0.00     0.168 HD
ENDROOT
BRANCH   7  11
ATOM     11  N   UNL     1     158.847 174.011 178.622  1.00  0.00    -0.382 N 
ATOM     12  H   UNL     1     157.817 173.890 178.512  1.00  0.00     0.158 HD
ATOM     13  H   UNL     1     159.417 174.230 177.775  1.00  0.00     0.158 HD
ENDBRANCH   7  11
TORSDOF 1
ENDMDL
MODEL 9
REMARK VINA RESULT:    -3.685     20.730     21.523
REMARK INTER + INTRA:          -3.793
REMARK INTER:                  -3.793
REMARK INTRA:                   0.000
REMARK UNBOUND:                 0.000
REMARK SMILES Nc1ncnc2nc[nH]c12
REMARK SMILES IDX 8 1 7 2 6 3 5 4 4 5 3 6 2 7 10 8 9 9 1 11
REMARK H PARENT 9 10 1 12 1 13
REMARK Flexibility Score: inf
ROOT
ATOM      1  C   UNL     1     162.765 160.529 181.303  1.00  0.00     0.199 A 
ATOM      2  N   UNL     1     162.377 161.388 182.286  1.00  0.00    -0.217 NA
ATOM      3  C   UNL     1     161.226 161.878 181.799  1.00  0.00     0.182 A 
ATOM      4  N   UNL     1     160.418 162.788 182.395  1.00  0.00    -0.215 NA
ATOM      5  C   UNL     1     159.280 163.169 181.740  1.00  0.00     0.226 A 
ATOM      6  N   UNL     1     158.972 162.638 180.513  1.00  0.00    -0.217 NA
ATOM      7  C   UNL     1     159.786 161.719 179.910  1.00  0.00     0.152 A 
ATOM      8  C   UNL     1     160.941 161.343 180.590  1.00  0.00     0.127 A 
ATOM      9  N   UNL     1     161.908 160.481 180.253  1.00  0.00    -0.340 N 
ATOM     10  H   UNL     1     161.993 159.901 179.388  1.00  0.00     0.168 HD
ENDROOT
BRANCH   7  11
ATOM     11  N   UNL     1     159.446 161.181 178.631  1.00  0.00    -0.382 N 
ATOM     12  H   UNL     1     160.139 160.645 178.065  1.00  0.00     0.158 HD
ATOM     13  H   UNL     1     158.485 161.318 178.245  1.00  0.00     0.158 HD
ENDBRANCH   7  11
TORSDOF 1
ENDMDL
