MODEL 1
REMARK VINA RESULT:    -2.978      0.000      0.000
REMARK INTER + INTRA:          -4.659
REMARK INTER:                  -4.544
REMARK INTRA:                  -0.115
REMARK UNBOUND:                -0.115
REMARK SMILES CC1=CCC[C@@H](C)C(=O)C[C@@H](C(C)C)C(=O)C1
REMARK SMILES IDX 8 1 9 2 6 3 7 4 5 5 4 6 3 7 2 8 1 9 10 11 11 12 15 13 16 14
REMARK SMILES IDX 17 15 12 17 13 18 14 19
REMARK H PARENT
REMARK Flexibility Score: 70.00
ROOT
ATOM      1  C   UNL     1     -12.717 -18.287  30.813  1.00  0.00     0.136 C 
ATOM      2  O   UNL     1     -13.150 -18.982  31.720  1.00  0.00    -0.299 OA
ENDROOT
BRANCH   1   3
ATOM      3  C   UNL     1     -12.474 -18.913  29.452  1.00  0.00     0.053 C 
ATOM      4  C   UNL     1     -12.801 -20.411  29.479  1.00  0.00     0.016 C 
BRANCH   3   5
ATOM      5  C   UNL     1     -11.002 -18.660  29.022  1.00  0.00     0.015 C 
BRANCH   5   6
ATOM      6  C   UNL     1     -10.830 -17.698  27.831  1.00  0.00     0.028 C 
BRANCH   6   7
ATOM      7  C   UNL     1     -12.106 -17.216  27.172  1.00  0.00    -0.028 C 
ATOM      8  C   UNL     1     -12.787 -16.081  27.464  1.00  0.00    -0.070 CG0
ATOM      9  C   UNL     1     -13.998 -15.746  26.628  1.00  0.00     0.039 C 
ATOM     10  G   UNL     1     -12.437 -15.169  28.624  1.00  0.00     0.000 G0
ENDBRANCH   6   7
ENDBRANCH   5   6
ENDBRANCH   3   5
ENDBRANCH   1   3
BRANCH   1  11
ATOM     11  C   UNL     1     -12.435 -16.825  31.087  1.00  0.00     0.087 C 
BRANCH  11  12
ATOM     12  C   UNL     1     -13.669 -15.897  30.896  1.00  0.00     0.066 C 
BRANCH  12  13
ATOM     13  C   UNL     1     -13.533 -14.996  29.669  1.00  0.00     0.140 C 
ATOM     14  O   UNL     1     -14.354 -14.106  29.498  1.00  0.00    -0.299 OA
BRANCH  13  15
ATOM     15  C   UNL     1     -12.439 -15.155  28.625  1.00  0.00     0.106 CG0
ATOM     16  G   UNL     1     -12.797 -16.082  27.479  1.00  0.00     0.000 G0
ENDBRANCH  13  15
ENDBRANCH  12  13
BRANCH  12  17
ATOM     17  C   UNL     1     -14.032 -15.059  32.161  1.00  0.00    -0.006 C 
ATOM     18  C   UNL     1     -15.549 -15.019  32.404  1.00  0.00     0.008 C 
ATOM     19  C   UNL     1     -13.309 -15.500  33.446  1.00  0.00     0.008 C 
ENDBRANCH  12  17
ENDBRANCH  11  12
ENDBRANCH   1  11
TORSDOF 1
ENDMDL
MODEL 2
REMARK VINA RESULT:    -2.122      2.177      4.379
REMARK INTER + INTRA:          -3.353
REMARK INTER:                  -3.600
REMARK INTRA:                   0.247
REMARK UNBOUND:                -0.115
REMARK SMILES CC1=CCC[C@@H](C)C(=O)C[C@@H](C(C)C)C(=O)C1
REMARK SMILES IDX 8 1 9 2 6 3 7 4 5 5 4 6 3 7 2 8 1 9 10 11 11 12 15 13 16 14
REMARK SMILES IDX 17 15 12 17 13 18 14 19
REMARK H PARENT
REMARK Flexibility Score: 70.00
ROOT
ATOM      1  C   UNL     1     -12.036 -15.981  31.170  1.00  0.00     0.136 C 
ATOM      2  O   UNL     1     -11.275 -15.846  32.117  1.00  0.00    -0.299 OA
ENDROOT
BRANCH   1   3
ATOM      3  C   UNL     1     -13.500 -16.281  31.433  1.00  0.00     0.053 C 
ATOM      4  C   UNL     1     -14.143 -15.158  32.255  1.00  0.00     0.016 C 
BRANCH   3   5
ATOM      5  C   UNL     1     -13.625 -17.654  32.149  1.00  0.00     0.015 C 
BRANCH   5   6
ATOM      6  C   UNL     1     -12.725 -18.769  31.582  1.00  0.00     0.028 C 
BRANCH   6   7
ATOM      7  C   UNL     1     -13.295 -19.562  30.423  1.00  0.00    -0.028 C 
ATOM      8  C   UNL     1     -12.706 -19.772  29.221  1.00  0.00    -0.070 CG0
ATOM      9  C   UNL     1     -13.414 -20.665  28.231  1.00  0.00     0.039 C 
ATOM     10  G   UNL     1     -11.412 -19.108  28.794  1.00  0.00     0.000 G0
ENDBRANCH   6   7
ENDBRANCH   5   6
ENDBRANCH   3   5
ENDBRANCH   1   3
BRANCH   1  11
ATOM     11  C   UNL     1     -11.483 -15.847  29.767  1.00  0.00     0.087 C 
BRANCH  11  12
ATOM     12  C   UNL     1     -12.331 -16.570  28.681  1.00  0.00     0.066 C 
BRANCH  12  13
ATOM     13  C   UNL     1     -11.598 -17.765  28.073  1.00  0.00     0.140 C 
ATOM     14  O   UNL     1     -11.148 -17.666  26.940  1.00  0.00    -0.299 OA
BRANCH  13  15
ATOM     15  C   UNL     1     -11.413 -19.093  28.790  1.00  0.00     0.106 CG0
ATOM     16  G   UNL     1     -12.706 -19.769  29.201  1.00  0.00     0.000 G0
ENDBRANCH  13  15
ENDBRANCH  12  13
BRANCH  12  17
ATOM     17  C   UNL     1     -12.866 -15.622  27.562  1.00  0.00    -0.006 C 
ATOM     18  C   UNL     1     -13.594 -16.400  26.455  1.00  0.00     0.008 C 
ATOM     19  C   UNL     1     -13.760 -14.478  28.071  1.00  0.00     0.008 C 
ENDBRANCH  12  17
ENDBRANCH  11  12
ENDBRANCH   1  11
TORSDOF 1
ENDMDL
MODEL 3
REMARK VINA RESULT:    -1.892      1.549      3.866
REMARK INTER + INTRA:          -3.003
REMARK INTER:                  -4.627
REMARK INTRA:                   1.624
REMARK UNBOUND:                -0.115
REMARK SMILES CC1=CCC[C@@H](C)C(=O)C[C@@H](C(C)C)C(=O)C1
REMARK SMILES IDX 8 1 9 2 6 3 7 4 5 5 4 6 3 7 2 8 1 9 10 11 11 12 15 13 16 14
REMARK SMILES IDX 17 15 12 17 13 18 14 19
REMARK H PARENT
REMARK Flexibility Score: 70.00
ROOT
ATOM      1  C   UNL     1     -13.115 -16.391  31.311  1.00  0.00     0.136 C 
ATOM      2  O   UNL     1     -13.761 -17.417  31.472  1.00  0.00    -0.299 OA
ENDROOT
BRANCH   1   3
ATOM      3  C   UNL     1     -13.783 -15.050  31.550  1.00  0.00     0.053 C 
ATOM      4  C   UNL     1     -14.737 -15.127  32.748  1.00  0.00     0.016 C 
BRANCH   3   5
ATOM      5  C   UNL     1     -14.526 -14.606  30.260  1.00  0.00     0.015 C 
BRANCH   5   6
ATOM      6  C   UNL     1     -13.610 -14.258  29.070  1.00  0.00     0.028 C 
BRANCH   6   7
ATOM      7  C   UNL     1     -13.737 -15.147  27.849  1.00  0.00    -0.028 C 
ATOM      8  C   UNL     1     -12.805 -16.010  27.378  1.00  0.00    -0.070 CG0
ATOM      9  C   UNL     1     -13.166 -16.864  26.187  1.00  0.00     0.039 C 
ATOM     10  G   UNL     1     -11.401 -16.116  27.940  1.00  0.00     0.000 G0
ENDBRANCH   6   7
ENDBRANCH   5   6
ENDBRANCH   3   5
ENDBRANCH   1   3
BRANCH   1  11
ATOM     11  C   UNL     1     -11.669 -16.502  30.875  1.00  0.00     0.087 C 
BRANCH  11  12
ATOM     12  C   UNL     1     -11.356 -17.779  30.044  1.00  0.00     0.066 C 
BRANCH  12  13
ATOM     13  C   UNL     1     -11.059 -17.459  28.579  1.00  0.00     0.140 C 
ATOM     14  O   UNL     1     -10.507 -18.306  27.891  1.00  0.00    -0.299 OA
BRANCH  13  15
ATOM     15  C   UNL     1     -11.389 -16.127  27.924  1.00  0.00     0.106 CG0
ATOM     16  G   UNL     1     -12.800 -16.030  27.377  1.00  0.00     0.000 G0
ENDBRANCH  13  15
ENDBRANCH  12  13
BRANCH  12  17
ATOM     17  C   UNL     1     -12.445 -18.891  30.157  1.00  0.00    -0.006 C 
ATOM     18  C   UNL     1     -12.885 -19.403  28.776  1.00  0.00     0.008 C 
ATOM     19  C   UNL     1     -12.052 -20.078  31.054  1.00  0.00     0.008 C 
ENDBRANCH  12  17
ENDBRANCH  11  12
ENDBRANCH   1  11
TORSDOF 1
ENDMDL
MODEL 4
REMARK VINA RESULT:    -1.684      1.482      2.127
REMARK INTER + INTRA:          -2.684
REMARK INTER:                  -4.297
REMARK INTRA:                   1.612
REMARK UNBOUND:                -0.115
REMARK SMILES CC1=CCC[C@@H](C)C(=O)C[C@@H](C(C)C)C(=O)C1
REMARK SMILES IDX 8 1 9 2 6 3 7 4 5 5 4 6 3 7 2 8 1 9 10 11 11 12 15 13 16 14
REMARK SMILES IDX 17 15 12 17 13 18 14 19
REMARK H PARENT
REMARK Flexibility Score: 70.00
ROOT
ATOM      1  C   UNL     1     -11.089 -17.817  30.721  1.00  0.00     0.136 C 
ATOM      2  O   UNL     1      -9.963 -18.141  30.374  1.00  0.00    -0.299 OA
ENDROOT
BRANCH   1   3
ATOM      3  C   UNL     1     -12.081 -18.895  31.117  1.00  0.00     0.053 C 
ATOM      4  C   UNL     1     -11.431 -20.282  31.043  1.00  0.00     0.016 C 
BRANCH   3   5
ATOM      5  C   UNL     1     -13.334 -18.805  30.203  1.00  0.00     0.015 C 
BRANCH   5   6
ATOM      6  C   UNL     1     -13.189 -19.489  28.830  1.00  0.00     0.028 C 
BRANCH   6   7
ATOM      7  C   UNL     1     -12.114 -18.933  27.918  1.00  0.00    -0.028 C 
ATOM      8  C   UNL     1     -12.047 -17.673  27.424  1.00  0.00    -0.070 CG0
ATOM      9  C   UNL     1     -10.843 -17.299  26.595  1.00  0.00     0.039 C 
ATOM     10  G   UNL     1     -13.145 -16.643  27.605  1.00  0.00     0.000 G0
ENDBRANCH   6   7
ENDBRANCH   5   6
ENDBRANCH   3   5
ENDBRANCH   1   3
BRANCH   1  11
ATOM     11  C   UNL     1     -11.451 -16.346  30.738  1.00  0.00     0.087 C 
BRANCH  11  12
ATOM     12  C   UNL     1     -12.886 -16.042  30.219  1.00  0.00     0.066 C 
BRANCH  12  13
ATOM     13  C   UNL     1     -12.896 -15.642  28.744  1.00  0.00     0.140 C 
ATOM     14  O   UNL     1     -12.721 -14.467  28.452  1.00  0.00    -0.299 OA
BRANCH  13  15
ATOM     15  C   UNL     1     -13.138 -16.621  27.607  1.00  0.00     0.106 CG0
ATOM     16  G   UNL     1     -12.054 -17.668  27.440  1.00  0.00     0.000 G0
ENDBRANCH  13  15
ENDBRANCH  12  13
BRANCH  12  17
ATOM     17  C   UNL     1     -13.662 -14.999  31.082  1.00  0.00    -0.006 C 
ATOM     18  C   UNL     1     -14.752 -14.284  30.268  1.00  0.00     0.008 C 
ATOM     19  C   UNL     1     -14.265 -15.567  32.379  1.00  0.00     0.008 C 
ENDBRANCH  12  17
ENDBRANCH  11  12
ENDBRANCH   1  11
TORSDOF 1
ENDMDL
MODEL 5
REMARK VINA RESULT:    -1.542      2.591      5.036
REMARK INTER + INTRA:          -2.468
REMARK INTER:                  -5.056
REMARK INTRA:                   2.589
REMARK UNBOUND:                -0.115
REMARK SMILES CC1=CCC[C@@H](C)C(=O)C[C@@H](C(C)C)C(=O)C1
REMARK SMILES IDX 8 1 9 2 6 3 7 4 5 5 4 6 3 7 2 8 1 9 10 11 11 12 15 13 16 14
REMARK SMILES IDX 17 15 12 17 13 18 14 19
REMARK H PARENT
REMARK Flexibility Score: 70.00
ROOT
ATOM      1  C   UNL     1     -10.332 -16.254  29.246  1.00  0.00     0.136 C 
ATOM      2  O   UNL     1      -9.894 -15.224  28.754  1.00  0.00    -0.299 OA
ENDROOT
BRANCH   1   3
ATOM      3  C   UNL     1     -10.467 -16.355  30.754  1.00  0.00     0.053 C 
ATOM      4  C   UNL     1      -9.946 -17.708  31.255  1.00  0.00     0.016 C 
BRANCH   3   5
ATOM      5  C   UNL     1     -11.952 -16.133  31.155  1.00  0.00     0.015 C 
BRANCH   5   6
ATOM      6  C   UNL     1     -12.920 -17.246  30.708  1.00  0.00     0.028 C 
BRANCH   6   7
ATOM      7  C   UNL     1     -12.738 -18.595  31.373  1.00  0.00    -0.028 C 
ATOM      8  C   UNL     1     -12.314 -19.738  30.779  1.00  0.00    -0.070 CG0
ATOM      9  C   UNL     1     -12.125 -20.958  31.645  1.00  0.00     0.039 C 
ATOM     10  G   UNL     1     -12.084 -19.870  29.286  1.00  0.00     0.000 G0
ENDBRANCH   6   7
ENDBRANCH   5   6
ENDBRANCH   3   5
ENDBRANCH   1   3
BRANCH   1  11
ATOM     11  C   UNL     1     -10.719 -17.393  28.326  1.00  0.00     0.087 C 
BRANCH  11  12
ATOM     12  C   UNL     1     -12.246 -17.491  28.050  1.00  0.00     0.066 C 
BRANCH  12  13
ATOM     13  C   UNL     1     -12.815 -18.862  28.416  1.00  0.00     0.140 C 
ATOM     14  O   UNL     1     -13.928 -19.165  28.011  1.00  0.00    -0.299 OA
BRANCH  13  15
ATOM     15  C   UNL     1     -12.082 -19.873  29.284  1.00  0.00     0.106 CG0
ATOM     16  G   UNL     1     -12.327 -19.716  30.772  1.00  0.00     0.000 G0
ENDBRANCH  13  15
ENDBRANCH  12  13
BRANCH  12  17
ATOM     17  C   UNL     1     -12.653 -17.094  26.596  1.00  0.00    -0.006 C 
ATOM     18  C   UNL     1     -13.574 -15.864  26.577  1.00  0.00     0.008 C 
ATOM     19  C   UNL     1     -11.466 -16.874  25.641  1.00  0.00     0.008 C 
ENDBRANCH  12  17
ENDBRANCH  11  12
ENDBRANCH   1  11
TORSDOF 1
ENDMDL
MODEL 6
REMARK VINA RESULT:    -1.500      1.671      4.202
REMARK INTER + INTRA:          -2.405
REMARK INTER:                  -3.984
REMARK INTRA:                   1.579
REMARK UNBOUND:                -0.115
REMARK SMILES CC1=CCC[C@@H](C)C(=O)C[C@@H](C(C)C)C(=O)C1
REMARK SMILES IDX 8 1 9 2 6 3 7 4 5 5 4 6 3 7 2 8 1 9 10 11 11 12 15 13 16 14
REMARK SMILES IDX 17 15 12 17 13 18 14 19
REMARK H PARENT
REMARK Flexibility Score: 70.00
ROOT
ATOM      1  C   UNL     1     -12.833 -19.529  29.013  1.00  0.00     0.136 C 
ATOM      2  O   UNL     1     -13.216 -20.564  28.486  1.00  0.00    -0.299 OA
ENDROOT
BRANCH   1   3
ATOM      3  C   UNL     1     -11.858 -19.605  30.173  1.00  0.00     0.053 C 
ATOM      4  C   UNL     1     -12.047 -20.912  30.953  1.00  0.00     0.016 C 
BRANCH   3   5
ATOM      5  C   UNL     1     -12.045 -18.364  31.088  1.00  0.00     0.015 C 
BRANCH   5   6
ATOM      6  C   UNL     1     -13.350 -18.350  31.907  1.00  0.00     0.028 C 
BRANCH   6   7
ATOM      7  C   UNL     1     -13.974 -16.990  32.146  1.00  0.00    -0.028 C 
ATOM      8  C   UNL     1     -13.606 -15.820  31.569  1.00  0.00    -0.070 CG0
ATOM      9  C   UNL     1     -14.416 -14.588  31.886  1.00  0.00     0.039 C 
ATOM     10  G   UNL     1     -12.388 -15.672  30.678  1.00  0.00     0.000 G0
ENDBRANCH   6   7
ENDBRANCH   5   6
ENDBRANCH   3   5
ENDBRANCH   1   3
BRANCH   1  11
ATOM     11  C   UNL     1     -13.353 -18.208  28.486  1.00  0.00     0.087 C 
BRANCH  11  12
ATOM     12  C   UNL     1     -12.270 -17.096  28.386  1.00  0.00     0.066 C 
BRANCH  12  13
ATOM     13  C   UNL     1     -12.650 -15.844  29.176  1.00  0.00     0.140 C 
ATOM     14  O   UNL     1     -13.181 -14.914  28.585  1.00  0.00    -0.299 OA
BRANCH  13  15
ATOM     15  C   UNL     1     -12.383 -15.673  30.663  1.00  0.00     0.106 CG0
ATOM     16  G   UNL     1     -13.607 -15.836  31.542  1.00  0.00     0.000 G0
ENDBRANCH  13  15
ENDBRANCH  12  13
BRANCH  12  17
ATOM     17  C   UNL     1     -11.874 -16.728  26.922  1.00  0.00    -0.006 C 
ATOM     18  C   UNL     1     -10.662 -17.540  26.437  1.00  0.00     0.008 C 
ATOM     19  C   UNL     1     -13.022 -16.845  25.903  1.00  0.00     0.008 C 
ENDBRANCH  12  17
ENDBRANCH  11  12
ENDBRANCH   1  11
TORSDOF 1
ENDMDL
MODEL 7
REMARK VINA RESULT:    -1.402      2.136      3.919
REMARK INTER + INTRA:          -2.255
REMARK INTER:                  -3.803
REMARK INTRA:                   1.548
REMARK UNBOUND:                -0.115
REMARK SMILES CC1=CCC[C@@H](C)C(=O)C[C@@H](C(C)C)C(=O)C1
REMARK SMILES IDX 8 1 9 2 6 3 7 4 5 5 4 6 3 7 2 8 1 9 10 11 11 12 15 13 16 14
REMARK SMILES IDX 17 15 12 17 13 18 14 19
REMARK H PARENT
REMARK Flexibility Score: 70.00
ROOT
ATOM      1  C   UNL     1     -13.247 -19.825  28.921  1.00  0.00     0.136 C 
ATOM      2  O   UNL     1     -13.480 -20.897  28.380  1.00  0.00    -0.299 OA
ENDROOT
BRANCH   1   3
ATOM      3  C   UNL     1     -12.497 -19.810  30.240  1.00  0.00     0.053 C 
ATOM      4  C   UNL     1     -13.150 -18.829  31.222  1.00  0.00     0.016 C 
BRANCH   3   5
ATOM      5  C   UNL     1     -11.008 -19.451  29.984  1.00  0.00     0.015 C 
BRANCH   5   6
ATOM      6  C   UNL     1     -10.370 -18.527  31.040  1.00  0.00     0.028 C 
BRANCH   6   7
ATOM      7  C   UNL     1      -9.875 -17.184  30.540  1.00  0.00    -0.028 C 
ATOM      8  C   UNL     1     -10.635 -16.098  30.257  1.00  0.00    -0.070 CG0
ATOM      9  C   UNL     1      -9.931 -14.828  29.848  1.00  0.00     0.039 C 
ATOM     10  G   UNL     1     -12.151 -16.110  30.267  1.00  0.00     0.000 G0
ENDBRANCH   6   7
ENDBRANCH   5   6
ENDBRANCH   3   5
ENDBRANCH   1   3
BRANCH   1  11
ATOM     11  C   UNL     1     -13.722 -18.553  28.251  1.00  0.00     0.087 C 
BRANCH  11  12
ATOM     12  C   UNL     1     -12.598 -17.502  28.022  1.00  0.00     0.066 C 
BRANCH  12  13
ATOM     13  C   UNL     1     -12.782 -16.259  28.892  1.00  0.00     0.140 C 
ATOM     14  O   UNL     1     -13.458 -15.335  28.463  1.00  0.00    -0.299 OA
BRANCH  13  15
ATOM     15  C   UNL     1     -12.148 -16.089  30.264  1.00  0.00     0.106 CG0
ATOM     16  G   UNL     1     -10.632 -16.099  30.260  1.00  0.00     0.000 G0
ENDBRANCH  13  15
ENDBRANCH  12  13
BRANCH  12  17
ATOM     17  C   UNL     1     -12.398 -17.106  26.526  1.00  0.00    -0.006 C 
ATOM     18  C   UNL     1     -13.445 -16.081  26.062  1.00  0.00     0.008 C 
ATOM     19  C   UNL     1     -10.985 -16.602  26.184  1.00  0.00     0.008 C 
ENDBRANCH  12  17
ENDBRANCH  11  12
ENDBRANCH   1  11
TORSDOF 1
ENDMDL
MODEL 8
REMARK VINA RESULT:    -1.392      1.762      4.121
REMARK INTER + INTRA:          -2.239
REMARK INTER:                  -3.363
REMARK INTRA:                   1.123
REMARK UNBOUND:                -0.115
REMARK SMILES CC1=CCC[C@@H](C)C(=O)C[C@@H](C(C)C)C(=O)C1
REMARK SMILES IDX 8 1 9 2 6 3 7 4 5 5 4 6 3 7 2 8 1 9 10 11 11 12 15 13 16 14
REMARK SMILES IDX 17 15 12 17 13 18 14 19
REMARK H PARENT
REMARK Flexibility Score: 70.00
ROOT
ATOM      1  C   UNL     1     -12.251 -16.230  30.990  1.00  0.00     0.136 C 
ATOM      2  O   UNL     1     -11.050 -16.038  31.117  1.00  0.00    -0.299 OA
ENDROOT
BRANCH   1   3
ATOM      3  C   UNL     1     -13.191 -15.039  30.952  1.00  0.00     0.053 C 
ATOM      4  C   UNL     1     -14.429 -15.299  31.818  1.00  0.00     0.016 C 
BRANCH   3   5
ATOM      5  C   UNL     1     -13.580 -14.736  29.479  1.00  0.00     0.015 C 
BRANCH   5   6
ATOM      6  C   UNL     1     -13.614 -15.965  28.549  1.00  0.00     0.028 C 
BRANCH   6   7
ATOM      7  C   UNL     1     -12.596 -15.980  27.426  1.00  0.00    -0.028 C 
ATOM      8  C   UNL     1     -11.844 -17.037  27.033  1.00  0.00    -0.070 CG0
ATOM      9  C   UNL     1     -10.945 -16.860  25.835  1.00  0.00     0.039 C 
ATOM     10  G   UNL     1     -11.808 -18.361  27.771  1.00  0.00     0.000 G0
ENDBRANCH   6   7
ENDBRANCH   5   6
ENDBRANCH   3   5
ENDBRANCH   1   3
BRANCH   1  11
ATOM     11  C   UNL     1     -12.753 -17.654  30.881  1.00  0.00     0.087 C 
BRANCH  11  12
ATOM     12  C   UNL     1     -11.666 -18.676  30.438  1.00  0.00     0.066 C 
BRANCH  12  13
ATOM     13  C   UNL     1     -11.047 -18.315  29.088  1.00  0.00     0.140 C 
ATOM     14  O   UNL     1      -9.878 -17.959  29.053  1.00  0.00    -0.299 OA
BRANCH  13  15
ATOM     15  C   UNL     1     -11.813 -18.348  27.775  1.00  0.00     0.106 CG0
ATOM     16  G   UNL     1     -11.841 -17.027  27.032  1.00  0.00     0.000 G0
ENDBRANCH  13  15
ENDBRANCH  12  13
BRANCH  12  17
ATOM     17  C   UNL     1     -12.152 -20.159  30.446  1.00  0.00    -0.006 C 
ATOM     18  C   UNL     1     -12.299 -20.703  31.876  1.00  0.00     0.008 C 
ATOM     19  C   UNL     1     -13.448 -20.409  29.655  1.00  0.00     0.008 C 
ENDBRANCH  12  17
ENDBRANCH  11  12
ENDBRANCH   1  11
TORSDOF 1
ENDMDL
MODEL 9
REMARK VINA RESULT:    -0.826      1.740      3.893
REMARK INTER + INTRA:          -1.376
REMARK INTER:                  -3.450
REMARK INTRA:                   2.075
REMARK UNBOUND:                -0.115
REMARK SMILES CC1=CCC[C@@H](C)C(=O)C[C@@H](C(C)C)C(=O)C1
REMARK SMILES IDX 8 1 9 2 6 3 7 4 5 5 4 6 3 7 2 8 1 9 10 11 11 12 15 13 16 14
REMARK SMILES IDX 17 15 12 17 13 18 14 19
REMARK H PARENT
REMARK Flexibility Score: 70.00
ROOT
ATOM      1  C   UNL     1     -10.912 -17.687  30.202  1.00  0.00     0.136 C 
ATOM      2  O   UNL     1      -9.985 -18.425  29.899  1.00  0.00    -0.299 OA
ENDROOT
BRANCH   1   3
ATOM      3  C   UNL     1     -12.031 -18.225  31.073  1.00  0.00     0.053 C 
ATOM      4  C   UNL     1     -12.287 -19.707  30.772  1.00  0.00     0.016 C 
BRANCH   3   5
ATOM      5  C   UNL     1     -13.311 -17.371  30.856  1.00  0.00     0.015 C 
BRANCH   5   6
ATOM      6  C   UNL     1     -13.238 -15.937  31.415  1.00  0.00     0.028 C 
BRANCH   6   7
ATOM      7  C   UNL     1     -14.299 -14.974  30.921  1.00  0.00    -0.028 C 
ATOM      8  C   UNL     1     -14.233 -14.199  29.811  1.00  0.00    -0.070 CG0
ATOM      9  C   UNL     1     -15.440 -13.366  29.455  1.00  0.00     0.039 C 
ATOM     10  G   UNL     1     -12.993 -14.075  28.949  1.00  0.00     0.000 G0
ENDBRANCH   6   7
ENDBRANCH   5   6
ENDBRANCH   3   5
ENDBRANCH   1   3
BRANCH   1  11
ATOM     11  C   UNL     1     -10.906 -16.262  29.689  1.00  0.00     0.087 C 
BRANCH  11  12
ATOM     12  C   UNL     1     -11.387 -16.118  28.216  1.00  0.00     0.066 C 
BRANCH  12  13
ATOM     13  C   UNL     1     -12.690 -15.327  28.107  1.00  0.00     0.140 C 
ATOM     14  O   UNL     1     -13.532 -15.690  27.298  1.00  0.00    -0.299 OA
BRANCH  13  15
ATOM     15  C   UNL     1     -12.994 -14.088  28.933  1.00  0.00     0.106 CG0
ATOM     16  G   UNL     1     -14.212 -14.214  29.828  1.00  0.00     0.000 G0
ENDBRANCH  13  15
ENDBRANCH  12  13
BRANCH  12  17
ATOM     17  C   UNL     1     -11.496 -17.474  27.452  1.00  0.00    -0.006 C 
ATOM     18  C   UNL     1     -12.932 -18.024  27.468  1.00  0.00     0.008 C 
ATOM     19  C   UNL     1     -10.968 -17.436  26.007  1.00  0.00     0.008 C 
ENDBRANCH  12  17
ENDBRANCH  11  12
ENDBRANCH   1  11
TORSDOF 1
ENDMDL
