MODEL 1
REMARK VINA RESULT:    -4.715      0.000      0.000
REMARK INTER + INTRA:         -11.501
REMARK INTER:                  -9.126
REMARK INTRA:                  -2.375
REMARK UNBOUND:                -2.375
REMARK SMILES CCCCCCCCCCCCCCCCCC(=O)[O-]
REMARK SMILES IDX 10 1 11 2 12 3 13 4 14 5 15 6 16 7 17 8 18 9 19 10 20 11
REMARK SMILES IDX 9 12 8 13 7 14 6 15 5 16 4 17 3 18 2 19 1 20
REMARK H PARENT
REMARK Flexibility Score: inf
ROOT
ATOM      1  C   UNL     1      43.131  21.583  10.932  1.00  0.00     0.000 C 
ENDROOT
BRANCH   1   2
ATOM      2  C   UNL     1      42.177  22.329   9.983  1.00  0.00     0.000 C 
BRANCH   2   3
ATOM      3  C   UNL     1      40.890  21.567   9.619  1.00  0.00     0.000 C 
BRANCH   3   4
ATOM      4  C   UNL     1      40.882  21.060   8.170  1.00  0.00     0.000 C 
BRANCH   4   5
ATOM      5  C   UNL     1      41.947  19.977   7.960  1.00  0.00     0.000 C 
BRANCH   5   6
ATOM      6  C   UNL     1      42.769  20.249   6.696  1.00  0.00     0.000 C 
BRANCH   6   7
ATOM      7  C   UNL     1      43.687  21.466   6.886  1.00  0.00     0.006 C 
BRANCH   7   8
ATOM      8  C   UNL     1      44.343  21.911   5.572  1.00  0.00     0.053 C 
BRANCH   8   9
ATOM      9  C   UNL     1      45.307  20.887   5.056  1.00  0.00     0.041 C 
ATOM     10  O   UNL     1      46.388  20.673   5.664  1.00  0.00    -0.550 OA
ATOM     11  O   UNL     1      45.028  20.197   3.883  1.00  0.00    -0.550 OA
ENDBRANCH   8   9
ENDBRANCH   7   8
ENDBRANCH   6   7
ENDBRANCH   5   6
ENDBRANCH   4   5
ENDBRANCH   3   4
ENDBRANCH   2   3
ENDBRANCH   1   2
BRANCH   1  12
ATOM     12  C   UNL     1      42.859  21.883  12.414  1.00  0.00     0.000 C 
BRANCH  12  13
ATOM     13  C   UNL     1      43.486  20.808  13.316  1.00  0.00    -0.000 C 
BRANCH  13  14
ATOM     14  C   UNL     1      43.946  19.574  12.523  1.00  0.00    -0.000 C 
BRANCH  14  15
ATOM     15  C   UNL     1      43.129  18.315  12.861  1.00  0.00    -0.000 C 
BRANCH  15  16
ATOM     16  C   UNL     1      42.623  17.594  11.593  1.00  0.00    -0.000 C 
BRANCH  16  17
ATOM     17  C   UNL     1      41.304  18.169  11.040  1.00  0.00    -0.000 C 
BRANCH  17  18
ATOM     18  C   UNL     1      40.432  18.898  12.077  1.00  0.00    -0.000 C 
BRANCH  18  19
ATOM     19  C   UNL     1      38.955  18.973  11.664  1.00  0.00    -0.003 C 
ATOM     20  C   UNL     1      38.782  18.628  10.188  1.00  0.00     0.004 C 
ENDBRANCH  18  19
ENDBRANCH  17  18
ENDBRANCH  16  17
ENDBRANCH  15  16
ENDBRANCH  14  15
ENDBRANCH  13  14
ENDBRANCH  12  13
ENDBRANCH   1  12
TORSDOF 16
ENDMDL
MODEL 2
REMARK VINA RESULT:    -4.694      1.142      3.248
REMARK INTER + INTRA:         -11.460
REMARK INTER:                  -9.406
REMARK INTRA:                  -2.054
REMARK UNBOUND:                -2.375
REMARK SMILES CCCCCCCCCCCCCCCCCC(=O)[O-]
REMARK SMILES IDX 10 1 11 2 12 3 13 4 14 5 15 6 16 7 17 8 18 9 19 10 20 11
REMARK SMILES IDX 9 12 8 13 7 14 6 15 5 16 4 17 3 18 2 19 1 20
REMARK H PARENT
REMARK Flexibility Score: inf
ROOT
ATOM      1  C   UNL     1      41.078  18.696   9.232  1.00  0.00     0.000 C 
ENDROOT
BRANCH   1   2
ATOM      2  C   UNL     1      41.225  19.907   8.295  1.00  0.00     0.000 C 
BRANCH   2   3
ATOM      3  C   UNL     1      40.719  21.242   8.871  1.00  0.00     0.000 C 
BRANCH   3   4
ATOM      4  C   UNL     1      41.822  22.053   9.565  1.00  0.00     0.000 C 
BRANCH   4   5
ATOM      5  C   UNL     1      43.192  21.765   8.939  1.00  0.00     0.000 C 
BRANCH   5   6
ATOM      6  C   UNL     1      43.789  23.030   8.312  1.00  0.00     0.000 C 
BRANCH   6   7
ATOM      7  C   UNL     1      44.200  22.781   6.853  1.00  0.00     0.006 C 
BRANCH   7   8
ATOM      8  C   UNL     1      43.926  21.338   6.409  1.00  0.00     0.053 C 
BRANCH   8   9
ATOM      9  C   UNL     1      45.018  20.808   5.532  1.00  0.00     0.041 C 
ATOM     10  O   UNL     1      46.224  21.025   5.822  1.00  0.00    -0.550 OA
ATOM     11  O   UNL     1      44.704  20.107   4.375  1.00  0.00    -0.550 OA
ENDBRANCH   8   9
ENDBRANCH   7   8
ENDBRANCH   6   7
ENDBRANCH   5   6
ENDBRANCH   4   5
ENDBRANCH   3   4
ENDBRANCH   2   3
ENDBRANCH   1   2
BRANCH   1  12
ATOM     12  C   UNL     1      39.865  18.804  10.168  1.00  0.00     0.000 C 
BRANCH  12  13
ATOM     13  C   UNL     1      40.066  17.951  11.430  1.00  0.00    -0.000 C 
BRANCH  13  14
ATOM     14  C   UNL     1      41.107  18.556  12.386  1.00  0.00    -0.000 C 
BRANCH  14  15
ATOM     15  C   UNL     1      42.324  17.638  12.594  1.00  0.00    -0.000 C 
BRANCH  15  16
ATOM     16  C   UNL     1      43.657  18.380  12.358  1.00  0.00    -0.000 C 
BRANCH  16  17
ATOM     17  C   UNL     1      43.487  19.888  12.084  1.00  0.00    -0.000 C 
BRANCH  17  18
ATOM     18  C   UNL     1      43.635  20.789  13.322  1.00  0.00    -0.000 C 
BRANCH  18  19
ATOM     19  C   UNL     1      43.056  22.195  13.107  1.00  0.00    -0.003 C 
ATOM     20  C   UNL     1      42.399  22.717  14.381  1.00  0.00     0.004 C 
ENDBRANCH  18  19
ENDBRANCH  17  18
ENDBRANCH  16  17
ENDBRANCH  15  16
ENDBRANCH  14  15
ENDBRANCH  13  14
ENDBRANCH  12  13
ENDBRANCH   1  12
TORSDOF 16
ENDMDL
MODEL 3
REMARK VINA RESULT:    -4.680      3.800      5.996
REMARK INTER + INTRA:         -11.433
REMARK INTER:                  -9.601
REMARK INTRA:                  -1.831
REMARK UNBOUND:                -2.375
REMARK SMILES CCCCCCCCCCCCCCCCCC(=O)[O-]
REMARK SMILES IDX 10 1 11 2 12 3 13 4 14 5 15 6 16 7 17 8 18 9 19 10 20 11
REMARK SMILES IDX 9 12 8 13 7 14 6 15 5 16 4 17 3 18 2 19 1 20
REMARK H PARENT
REMARK Flexibility Score: inf
ROOT
ATOM      1  C   UNL     1      41.697  19.585   8.049  1.00  0.00     0.000 C 
ENDROOT
BRANCH   1   2
ATOM      2  C   UNL     1      40.746  20.780   8.234  1.00  0.00     0.000 C 
BRANCH   2   3
ATOM      3  C   UNL     1      41.340  21.974   9.004  1.00  0.00     0.000 C 
BRANCH   3   4
ATOM      4  C   UNL     1      42.875  22.003   8.974  1.00  0.00     0.000 C 
BRANCH   4   5
ATOM      5  C   UNL     1      43.426  22.999  10.000  1.00  0.00     0.000 C 
BRANCH   5   6
ATOM      6  C   UNL     1      42.780  22.789  11.374  1.00  0.00     0.000 C 
BRANCH   6   7
ATOM      7  C   UNL     1      43.168  21.425  11.964  1.00  0.00     0.006 C 
BRANCH   7   8
ATOM      8  C   UNL     1      43.474  21.505  13.465  1.00  0.00     0.053 C 
BRANCH   8   9
ATOM      9  C   UNL     1      42.226  21.649  14.281  1.00  0.00     0.041 C 
ATOM     10  O   UNL     1      41.979  22.731  14.875  1.00  0.00    -0.550 OA
ATOM     11  O   UNL     1      41.354  20.575  14.415  1.00  0.00    -0.550 OA
ENDBRANCH   8   9
ENDBRANCH   7   8
ENDBRANCH   6   7
ENDBRANCH   5   6
ENDBRANCH   4   5
ENDBRANCH   3   4
ENDBRANCH   2   3
ENDBRANCH   1   2
BRANCH   1  12
ATOM     12  C   UNL     1      41.498  18.490   9.108  1.00  0.00     0.000 C 
BRANCH  12  13
ATOM     13  C   UNL     1      40.253  18.773   9.964  1.00  0.00    -0.000 C 
BRANCH  13  14
ATOM     14  C   UNL     1      40.584  18.873  11.462  1.00  0.00    -0.000 C 
BRANCH  14  15
ATOM     15  C   UNL     1      41.240  17.594  12.010  1.00  0.00    -0.000 C 
BRANCH  15  16
ATOM     16  C   UNL     1      42.633  17.871  12.615  1.00  0.00    -0.000 C 
BRANCH  16  17
ATOM     17  C   UNL     1      43.776  17.109  11.914  1.00  0.00    -0.000 C 
BRANCH  17  18
ATOM     18  C   UNL     1      44.549  16.131  12.816  1.00  0.00    -0.000 C 
BRANCH  18  19
ATOM     19  C   UNL     1      44.635  14.718  12.224  1.00  0.00    -0.003 C 
ATOM     20  C   UNL     1      46.076  14.216  12.214  1.00  0.00     0.004 C 
ENDBRANCH  18  19
ENDBRANCH  17  18
ENDBRANCH  16  17
ENDBRANCH  15  16
ENDBRANCH  14  15
ENDBRANCH  13  14
ENDBRANCH  12  13
ENDBRANCH   1  12
TORSDOF 16
ENDMDL
MODEL 4
REMARK VINA RESULT:    -4.562      1.432      3.482
REMARK INTER + INTRA:         -11.205
REMARK INTER:                  -8.989
REMARK INTRA:                  -2.216
REMARK UNBOUND:                -2.375
REMARK SMILES CCCCCCCCCCCCCCCCCC(=O)[O-]
REMARK SMILES IDX 10 1 11 2 12 3 13 4 14 5 15 6 16 7 17 8 18 9 19 10 20 11
REMARK SMILES IDX 9 12 8 13 7 14 6 15 5 16 4 17 3 18 2 19 1 20
REMARK H PARENT
REMARK Flexibility Score: inf
ROOT
ATOM      1  C   UNL     1      41.319  18.423   9.439  1.00  0.00     0.000 C 
ENDROOT
BRANCH   1   2
ATOM      2  C   UNL     1      41.458  19.397   8.255  1.00  0.00     0.000 C 
BRANCH   2   3
ATOM      3  C   UNL     1      40.888  20.806   8.500  1.00  0.00     0.000 C 
BRANCH   3   4
ATOM      4  C   UNL     1      41.649  21.581   9.585  1.00  0.00     0.000 C 
BRANCH   4   5
ATOM      5  C   UNL     1      43.147  21.642   9.269  1.00  0.00     0.000 C 
BRANCH   5   6
ATOM      6  C   UNL     1      43.494  22.914   8.486  1.00  0.00     0.000 C 
BRANCH   6   7
ATOM      7  C   UNL     1      44.401  22.594   7.288  1.00  0.00     0.006 C 
BRANCH   7   8
ATOM      8  C   UNL     1      43.966  21.319   6.554  1.00  0.00     0.053 C 
BRANCH   8   9
ATOM      9  C   UNL     1      44.588  21.219   5.194  1.00  0.00     0.041 C 
ATOM     10  O   UNL     1      44.668  20.104   4.614  1.00  0.00    -0.550 OA
ATOM     11  O   UNL     1      45.113  22.352   4.585  1.00  0.00    -0.550 OA
ENDBRANCH   8   9
ENDBRANCH   7   8
ENDBRANCH   6   7
ENDBRANCH   5   6
ENDBRANCH   4   5
ENDBRANCH   3   4
ENDBRANCH   2   3
ENDBRANCH   1   2
BRANCH   1  12
ATOM     12  C   UNL     1      39.888  18.355   9.995  1.00  0.00     0.000 C 
BRANCH  12  13
ATOM     13  C   UNL     1      39.900  18.102  11.511  1.00  0.00    -0.000 C 
BRANCH  13  14
ATOM     14  C   UNL     1      40.121  19.391  12.318  1.00  0.00    -0.000 C 
BRANCH  14  15
ATOM     15  C   UNL     1      41.290  19.274  13.311  1.00  0.00    -0.000 C 
BRANCH  15  16
ATOM     16  C   UNL     1      42.540  20.039  12.828  1.00  0.00    -0.000 C 
BRANCH  16  17
ATOM     17  C   UNL     1      43.609  19.134  12.182  1.00  0.00    -0.000 C 
BRANCH  17  18
ATOM     18  C   UNL     1      43.397  17.626  12.405  1.00  0.00    -0.000 C 
BRANCH  18  19
ATOM     19  C   UNL     1      44.687  16.813  12.225  1.00  0.00    -0.003 C 
ATOM     20  C   UNL     1      44.394  15.316  12.232  1.00  0.00     0.004 C 
ENDBRANCH  18  19
ENDBRANCH  17  18
ENDBRANCH  16  17
ENDBRANCH  15  16
ENDBRANCH  14  15
ENDBRANCH  13  14
ENDBRANCH  12  13
ENDBRANCH   1  12
TORSDOF 16
ENDMDL
MODEL 5
REMARK VINA RESULT:    -4.540      3.277      6.810
REMARK INTER + INTRA:         -11.162
REMARK INTER:                  -9.094
REMARK INTRA:                  -2.068
REMARK UNBOUND:                -2.375
REMARK SMILES CCCCCCCCCCCCCCCCCC(=O)[O-]
REMARK SMILES IDX 10 1 11 2 12 3 13 4 14 5 15 6 16 7 17 8 18 9 19 10 20 11
REMARK SMILES IDX 9 12 8 13 7 14 6 15 5 16 4 17 3 18 2 19 1 20
REMARK H PARENT
REMARK Flexibility Score: inf
ROOT
ATOM      1  C   UNL     1      40.647  18.939   8.981  1.00  0.00     0.000 C 
ENDROOT
BRANCH   1   2
ATOM      2  C   UNL     1      39.727  19.106  10.203  1.00  0.00     0.000 C 
BRANCH   2   3
ATOM      3  C   UNL     1      39.881  18.024  11.288  1.00  0.00     0.000 C 
BRANCH   3   4
ATOM      4  C   UNL     1      40.916  18.394  12.360  1.00  0.00     0.000 C 
BRANCH   4   5
ATOM      5  C   UNL     1      42.185  17.546  12.214  1.00  0.00     0.000 C 
BRANCH   5   6
ATOM      6  C   UNL     1      43.433  18.432  12.123  1.00  0.00     0.000 C 
BRANCH   6   7
ATOM      7  C   UNL     1      43.049  19.917  12.036  1.00  0.00     0.006 C 
BRANCH   7   8
ATOM      8  C   UNL     1      43.643  20.739  13.188  1.00  0.00     0.053 C 
BRANCH   8   9
ATOM      9  C   UNL     1      42.613  21.613  13.836  1.00  0.00     0.041 C 
ATOM     10  O   UNL     1      42.703  22.866  13.752  1.00  0.00    -0.550 OA
ATOM     11  O   UNL     1      41.576  21.045  14.564  1.00  0.00    -0.550 OA
ENDBRANCH   8   9
ENDBRANCH   7   8
ENDBRANCH   6   7
ENDBRANCH   5   6
ENDBRANCH   4   5
ENDBRANCH   3   4
ENDBRANCH   2   3
ENDBRANCH   1   2
BRANCH   1  12
ATOM     12  C   UNL     1      41.102  20.280   8.385  1.00  0.00     0.000 C 
BRANCH  12  13
ATOM     13  C   UNL     1      40.921  21.421   9.397  1.00  0.00    -0.000 C 
BRANCH  13  14
ATOM     14  C   UNL     1      42.111  22.394   9.401  1.00  0.00    -0.000 C 
BRANCH  14  15
ATOM     15  C   UNL     1      43.340  21.829   8.668  1.00  0.00    -0.000 C 
BRANCH  15  16
ATOM     16  C   UNL     1      44.039  22.897   7.799  1.00  0.00    -0.000 C 
BRANCH  16  17
ATOM     17  C   UNL     1      44.310  22.437   6.352  1.00  0.00    -0.000 C 
BRANCH  17  18
ATOM     18  C   UNL     1      43.862  20.999   6.037  1.00  0.00    -0.000 C 
BRANCH  18  19
ATOM     19  C   UNL     1      44.633  20.380   4.863  1.00  0.00    -0.003 C 
ATOM     20  C   UNL     1      45.480  21.431   4.151  1.00  0.00     0.004 C 
ENDBRANCH  18  19
ENDBRANCH  17  18
ENDBRANCH  16  17
ENDBRANCH  15  16
ENDBRANCH  14  15
ENDBRANCH  13  14
ENDBRANCH  12  13
ENDBRANCH   1  12
TORSDOF 16
ENDMDL
MODEL 6
REMARK VINA RESULT:    -4.540      2.985      5.432
REMARK INTER + INTRA:         -11.160
REMARK INTER:                  -9.102
REMARK INTRA:                  -2.058
REMARK UNBOUND:                -2.375
REMARK SMILES CCCCCCCCCCCCCCCCCC(=O)[O-]
REMARK SMILES IDX 10 1 11 2 12 3 13 4 14 5 15 6 16 7 17 8 18 9 19 10 20 11
REMARK SMILES IDX 9 12 8 13 7 14 6 15 5 16 4 17 3 18 2 19 1 20
REMARK H PARENT
REMARK Flexibility Score: inf
ROOT
ATOM      1  C   UNL     1      42.441  21.991   8.991  1.00  0.00     0.000 C 
ENDROOT
BRANCH   1   2
ATOM      2  C   UNL     1      43.204  22.425  10.254  1.00  0.00     0.000 C 
BRANCH   2   3
ATOM      3  C   UNL     1      42.331  23.032  11.367  1.00  0.00     0.000 C 
BRANCH   3   4
ATOM      4  C   UNL     1      43.054  23.113  12.720  1.00  0.00     0.000 C 
BRANCH   4   5
ATOM      5  C   UNL     1      43.407  21.714  13.239  1.00  0.00     0.000 C 
BRANCH   5   6
ATOM      6  C   UNL     1      42.163  20.991  13.767  1.00  0.00     0.000 C 
BRANCH   6   7
ATOM      7  C   UNL     1      42.096  19.550  13.239  1.00  0.00     0.006 C 
BRANCH   7   8
ATOM      8  C   UNL     1      43.423  19.097  12.617  1.00  0.00     0.053 C 
BRANCH   8   9
ATOM      9  C   UNL     1      43.510  17.605  12.516  1.00  0.00     0.041 C 
ATOM     10  O   UNL     1      44.625  17.047  12.336  1.00  0.00    -0.550 OA
ATOM     11  O   UNL     1      42.357  16.834  12.583  1.00  0.00    -0.550 OA
ENDBRANCH   8   9
ENDBRANCH   7   8
ENDBRANCH   6   7
ENDBRANCH   5   6
ENDBRANCH   4   5
ENDBRANCH   3   4
ENDBRANCH   2   3
ENDBRANCH   1   2
BRANCH   1  12
ATOM     12  C   UNL     1      43.367  21.698   7.801  1.00  0.00     0.000 C 
BRANCH  12  13
ATOM     13  C   UNL     1      42.844  20.511   6.976  1.00  0.00    -0.000 C 
BRANCH  13  14
ATOM     14  C   UNL     1      41.652  19.812   7.649  1.00  0.00    -0.000 C 
BRANCH  14  15
ATOM     15  C   UNL     1      41.919  18.322   7.923  1.00  0.00    -0.000 C 
BRANCH  15  16
ATOM     16  C   UNL     1      41.573  17.928   9.376  1.00  0.00    -0.000 C 
BRANCH  16  17
ATOM     17  C   UNL     1      40.707  18.972  10.110  1.00  0.00    -0.000 C 
BRANCH  17  18
ATOM     18  C   UNL     1      39.519  18.387  10.894  1.00  0.00    -0.000 C 
BRANCH  18  19
ATOM     19  C   UNL     1      38.181  19.042  10.521  1.00  0.00    -0.003 C 
ATOM     20  C   UNL     1      37.111  18.730  11.562  1.00  0.00     0.004 C 
ENDBRANCH  18  19
ENDBRANCH  17  18
ENDBRANCH  16  17
ENDBRANCH  15  16
ENDBRANCH  14  15
ENDBRANCH  13  14
ENDBRANCH  12  13
ENDBRANCH   1  12
TORSDOF 16
ENDMDL
MODEL 7
REMARK VINA RESULT:    -4.534      3.763      5.409
REMARK INTER + INTRA:         -11.149
REMARK INTER:                  -9.490
REMARK INTRA:                  -1.660
REMARK UNBOUND:                -2.375
REMARK SMILES CCCCCCCCCCCCCCCCCC(=O)[O-]
REMARK SMILES IDX 10 1 11 2 12 3 13 4 14 5 15 6 16 7 17 8 18 9 19 10 20 11
REMARK SMILES IDX 9 12 8 13 7 14 6 15 5 16 4 17 3 18 2 19 1 20
REMARK H PARENT
REMARK Flexibility Score: inf
ROOT
ATOM      1  C   UNL     1      42.962  23.010  12.419  1.00  0.00     0.000 C 
ENDROOT
BRANCH   1   2
ATOM      2  C   UNL     1      43.170  23.122  10.899  1.00  0.00     0.000 C 
BRANCH   2   3
ATOM      3  C   UNL     1      42.141  22.363  10.042  1.00  0.00     0.000 C 
BRANCH   3   4
ATOM      4  C   UNL     1      42.746  21.772   8.760  1.00  0.00     0.000 C 
BRANCH   4   5
ATOM      5  C   UNL     1      42.124  20.408   8.437  1.00  0.00     0.000 C 
BRANCH   5   6
ATOM      6  C   UNL     1      40.600  20.445   8.600  1.00  0.00     0.000 C 
BRANCH   6   7
ATOM      7  C   UNL     1      40.120  19.340   9.553  1.00  0.00     0.006 C 
BRANCH   7   8
ATOM      8  C   UNL     1      38.871  19.754  10.342  1.00  0.00     0.053 C 
BRANCH   8   9
ATOM      9  C   UNL     1      38.313  18.615  11.140  1.00  0.00     0.041 C 
ATOM     10  O   UNL     1      37.147  18.683  11.610  1.00  0.00    -0.550 OA
ATOM     11  O   UNL     1      39.095  17.496  11.396  1.00  0.00    -0.550 OA
ENDBRANCH   8   9
ENDBRANCH   7   8
ENDBRANCH   6   7
ENDBRANCH   5   6
ENDBRANCH   4   5
ENDBRANCH   3   4
ENDBRANCH   2   3
ENDBRANCH   1   2
BRANCH   1  12
ATOM     12  C   UNL     1      43.124  21.574  12.943  1.00  0.00     0.000 C 
BRANCH  12  13
ATOM     13  C   UNL     1      41.967  21.197  13.880  1.00  0.00    -0.000 C 
BRANCH  13  14
ATOM     14  C   UNL     1      41.372  19.818  13.551  1.00  0.00    -0.000 C 
BRANCH  14  15
ATOM     15  C   UNL     1      42.012  19.180  12.306  1.00  0.00    -0.000 C 
BRANCH  15  16
ATOM     16  C   UNL     1      42.324  17.683  12.517  1.00  0.00    -0.000 C 
BRANCH  16  17
ATOM     17  C   UNL     1      43.562  17.193  11.739  1.00  0.00    -0.000 C 
BRANCH  17  18
ATOM     18  C   UNL     1      44.537  16.329  12.556  1.00  0.00    -0.000 C 
BRANCH  18  19
ATOM     19  C   UNL     1      44.489  14.846  12.163  1.00  0.00    -0.003 C 
ATOM     20  C   UNL     1      45.871  14.207  12.267  1.00  0.00     0.004 C 
ENDBRANCH  18  19
ENDBRANCH  17  18
ENDBRANCH  16  17
ENDBRANCH  15  16
ENDBRANCH  14  15
ENDBRANCH  13  14
ENDBRANCH  12  13
ENDBRANCH   1  12
TORSDOF 16
ENDMDL
MODEL 8
REMARK VINA RESULT:    -4.364      1.238      2.445
REMARK INTER + INTRA:         -10.821
REMARK INTER:                  -9.032
REMARK INTRA:                  -1.790
REMARK UNBOUND:                -2.375
REMARK SMILES CCCCCCCCCCCCCCCCCC(=O)[O-]
REMARK SMILES IDX 10 1 11 2 12 3 13 4 14 5 15 6 16 7 17 8 18 9 19 10 20 11
REMARK SMILES IDX 9 12 8 13 7 14 6 15 5 16 4 17 3 18 2 19 1 20
REMARK H PARENT
REMARK Flexibility Score: inf
ROOT
ATOM      1  C   UNL     1      43.763  20.509  13.364  1.00  0.00     0.000 C 
ENDROOT
BRANCH   1   2
ATOM      2  C   UNL     1      42.810  21.675  13.045  1.00  0.00     0.000 C 
BRANCH   2   3
ATOM      3  C   UNL     1      42.294  21.717  11.595  1.00  0.00     0.000 C 
BRANCH   3   4
ATOM      4  C   UNL     1      42.802  22.936  10.812  1.00  0.00     0.000 C 
BRANCH   4   5
ATOM      5  C   UNL     1      43.188  22.548   9.380  1.00  0.00     0.000 C 
BRANCH   5   6
ATOM      6  C   UNL     1      42.502  21.244   8.958  1.00  0.00     0.000 C 
BRANCH   6   7
ATOM      7  C   UNL     1      42.867  20.870   7.514  1.00  0.00     0.006 C 
BRANCH   7   8
ATOM      8  C   UNL     1      44.000  21.742   6.957  1.00  0.00     0.053 C 
BRANCH   8   9
ATOM      9  C   UNL     1      44.353  21.365   5.550  1.00  0.00     0.041 C 
ATOM     10  O   UNL     1      44.815  22.230   4.760  1.00  0.00    -0.550 OA
ATOM     11  O   UNL     1      44.135  20.069   5.102  1.00  0.00    -0.550 OA
ENDBRANCH   8   9
ENDBRANCH   7   8
ENDBRANCH   6   7
ENDBRANCH   5   6
ENDBRANCH   4   5
ENDBRANCH   3   4
ENDBRANCH   2   3
ENDBRANCH   1   2
BRANCH   1  12
ATOM     12  C   UNL     1      43.892  19.506  12.207  1.00  0.00     0.000 C 
BRANCH  12  13
ATOM     13  C   UNL     1      43.996  18.068  12.737  1.00  0.00    -0.000 C 
BRANCH  13  14
ATOM     14  C   UNL     1      42.906  17.151  12.159  1.00  0.00    -0.000 C 
BRANCH  14  15
ATOM     15  C   UNL     1      42.051  17.850  11.089  1.00  0.00    -0.000 C 
BRANCH  15  16
ATOM     16  C   UNL     1      40.553  17.872  11.466  1.00  0.00    -0.000 C 
BRANCH  16  17
ATOM     17  C   UNL     1      39.799  19.107  10.933  1.00  0.00    -0.000 C 
BRANCH  17  18
ATOM     18  C   UNL     1      38.369  18.827  10.440  1.00  0.00    -0.000 C 
BRANCH  18  19
ATOM     19  C   UNL     1      37.296  19.313  11.424  1.00  0.00    -0.003 C 
ATOM     20  C   UNL     1      36.328  18.188  11.778  1.00  0.00     0.004 C 
ENDBRANCH  18  19
ENDBRANCH  17  18
ENDBRANCH  16  17
ENDBRANCH  15  16
ENDBRANCH  14  15
ENDBRANCH  13  14
ENDBRANCH  12  13
ENDBRANCH   1  12
TORSDOF 16
ENDMDL
MODEL 9
REMARK VINA RESULT:    -4.347      1.277      3.337
REMARK INTER + INTRA:         -10.789
REMARK INTER:                  -8.712
REMARK INTRA:                  -2.077
REMARK UNBOUND:                -2.375
REMARK SMILES CCCCCCCCCCCCCCCCCC(=O)[O-]
REMARK SMILES IDX 10 1 11 2 12 3 13 4 14 5 15 6 16 7 17 8 18 9 19 10 20 11
REMARK SMILES IDX 9 12 8 13 7 14 6 15 5 16 4 17 3 18 2 19 1 20
REMARK H PARENT
REMARK Flexibility Score: inf
ROOT
ATOM      1  C   UNL     1      40.608  21.124   9.202  1.00  0.00     0.000 C 
ENDROOT
BRANCH   1   2
ATOM      2  C   UNL     1      41.673  22.036   9.835  1.00  0.00     0.000 C 
BRANCH   2   3
ATOM      3  C   UNL     1      43.119  21.763   9.382  1.00  0.00     0.000 C 
BRANCH   3   4
ATOM      4  C   UNL     1      43.775  22.974   8.705  1.00  0.00     0.000 C 
BRANCH   4   5
ATOM      5  C   UNL     1      44.245  22.624   7.288  1.00  0.00     0.000 C 
BRANCH   5   6
ATOM      6  C   UNL     1      43.665  21.281   6.830  1.00  0.00     0.000 C 
BRANCH   6   7
ATOM      7  C   UNL     1      44.264  20.852   5.483  1.00  0.00     0.006 C 
BRANCH   7   8
ATOM      8  C   UNL     1      44.933  22.019   4.745  1.00  0.00     0.053 C 
BRANCH   8   9
ATOM      9  C   UNL     1      46.233  21.613   4.122  1.00  0.00     0.041 C 
ATOM     10  O   UNL     1      47.320  21.855   4.709  1.00  0.00    -0.550 OA
ATOM     11  O   UNL     1      46.246  21.000   2.875  1.00  0.00    -0.550 OA
ENDBRANCH   8   9
ENDBRANCH   7   8
ENDBRANCH   6   7
ENDBRANCH   5   6
ENDBRANCH   4   5
ENDBRANCH   3   4
ENDBRANCH   2   3
ENDBRANCH   1   2
BRANCH   1  12
ATOM     12  C   UNL     1      41.157  19.745   8.805  1.00  0.00     0.000 C 
BRANCH  12  13
ATOM     13  C   UNL     1      40.448  18.627   9.584  1.00  0.00    -0.000 C 
BRANCH  13  14
ATOM     14  C   UNL     1      39.233  19.142  10.373  1.00  0.00    -0.000 C 
BRANCH  14  15
ATOM     15  C   UNL     1      39.409  18.992  11.894  1.00  0.00    -0.000 C 
BRANCH  15  16
ATOM     16  C   UNL     1      40.770  18.362  12.261  1.00  0.00    -0.000 C 
BRANCH  16  17
ATOM     17  C   UNL     1      41.760  19.356  12.900  1.00  0.00    -0.000 C 
BRANCH  17  18
ATOM     18  C   UNL     1      43.211  19.231  12.404  1.00  0.00    -0.000 C 
BRANCH  18  19
ATOM     19  C   UNL     1      43.486  17.893  11.703  1.00  0.00    -0.003 C 
ATOM     20  C   UNL     1      44.244  16.940  12.622  1.00  0.00     0.004 C 
ENDBRANCH  18  19
ENDBRANCH  17  18
ENDBRANCH  16  17
ENDBRANCH  15  16
ENDBRANCH  14  15
ENDBRANCH  13  14
ENDBRANCH  12  13
ENDBRANCH   1  12
TORSDOF 16
ENDMDL
