MODEL 1
REMARK VINA RESULT:    -5.489      0.000      0.000
REMARK INTER + INTRA:         -12.206
REMARK INTER:                  -9.501
REMARK INTRA:                  -2.705
REMARK UNBOUND:                -2.705
REMARK SMILES OC[C@@H]1O[C@@H](O[C@@H]2[C@H](O)[C@@H](O)[C@@H](O[C@H]3[C@@H](O)[C@@H](O)[C@@H](O)O[C@@H]3CO)O[C@@H]2CO)[C@@H](O)[C@H](O)[C@@H]1O
REMARK SMILES IDX 7 1 26 2 25 3 12 4 10 5 8 6 6 7 5 8 3 9 33 10 4 11 31 12
REMARK SMILES IDX 29 13 2 14 1 15 34 17 32 19 30 21 27 23 28 24 9 26 11 28
REMARK SMILES IDX 13 30 14 31 22 32 15 33 21 34 17 35 19 36 23 37 24 38 16 40
REMARK SMILES IDX 18 42 20 44
REMARK H PARENT 1 16 34 18 32 20 30 22 28 25 9 27 11 29 24 39 16 41 18 43
REMARK H PARENT 20 45
REMARK Flexibility Score: inf
ROOT
ATOM      1  C   UNL     1      23.951  19.585  83.141  1.00  0.00     0.184 C 
ATOM      2  C   UNL     1      25.016  19.525  82.025  1.00  0.00     0.178 C 
ATOM      3  O   UNL     1      25.301  18.179  81.670  1.00  0.00    -0.341 OA
ATOM      4  C   UNL     1      24.167  17.535  81.105  1.00  0.00     0.282 C 
ATOM      5  C   UNL     1      23.014  17.470  82.138  1.00  0.00     0.202 C 
ATOM      6  C   UNL     1      22.674  18.881  82.647  1.00  0.00     0.180 C 
ENDROOT
BRANCH   1   7
ATOM      7  O   UNL     1      24.443  18.922  84.300  1.00  0.00    -0.341 OA
BRANCH   7   8
ATOM      8  C   UNL     1      24.021  19.564  85.488  1.00  0.00     0.282 C 
ATOM      9  C   UNL     1      23.115  21.589  86.313  1.00  0.00     0.178 C 
ATOM     10  C   UNL     1      24.101  21.602  87.520  1.00  0.00     0.177 C 
ATOM     11  O   UNL     1      23.622  20.891  85.184  1.00  0.00    -0.341 OA
ATOM     12  C   UNL     1      24.758  20.235  87.794  1.00  0.00     0.179 C 
ATOM     13  C   UNL     1      25.195  19.572  86.478  1.00  0.00     0.202 C 
BRANCH   9  14
ATOM     14  C   UNL     1      21.648  21.220  86.625  1.00  0.00     0.191 C 
BRANCH  14  15
ATOM     15  O   UNL     1      20.838  22.352  86.782  1.00  0.00    -0.394 OA
ATOM     16  H   UNL     1      20.842  22.566  87.752  1.00  0.00     0.210 HD
ENDBRANCH  14  15
ENDBRANCH   9  14
BRANCH  10  17
ATOM     17  O   UNL     1      23.473  22.073  88.686  1.00  0.00    -0.387 OA
ATOM     18  H   UNL     1      22.498  21.936  88.560  1.00  0.00     0.211 HD
ENDBRANCH  10  17
BRANCH  12  19
ATOM     19  O   UNL     1      23.880  19.399  88.500  1.00  0.00    -0.387 OA
ATOM     20  H   UNL     1      23.876  18.521  88.035  1.00  0.00     0.211 HD
ENDBRANCH  12  19
BRANCH  13  21
ATOM     21  O   UNL     1      26.279  20.281  85.937  1.00  0.00    -0.385 OA
ATOM     22  H   UNL     1      26.990  19.617  85.736  1.00  0.00     0.211 HD
ENDBRANCH  13  21
ENDBRANCH   7   8
ENDBRANCH   1   7
BRANCH   2  23
ATOM     23  C   UNL     1      26.317  20.207  82.465  1.00  0.00     0.191 C 
BRANCH  23  24
ATOM     24  O   UNL     1      26.017  21.328  83.248  1.00  0.00    -0.394 OA
ATOM     25  H   UNL     1      25.141  21.665  82.926  1.00  0.00     0.210 HD
ENDBRANCH  23  24
ENDBRANCH   2  23
BRANCH   6  26
ATOM     26  O   UNL     1      21.742  18.809  83.695  1.00  0.00    -0.387 OA
ATOM     27  H   UNL     1      22.092  18.154  84.353  1.00  0.00     0.211 HD
ENDBRANCH   6  26
BRANCH   5  28
ATOM     28  O   UNL     1      21.871  16.882  81.574  1.00  0.00    -0.385 OA
ATOM     29  H   UNL     1      21.248  17.624  81.354  1.00  0.00     0.211 HD
ENDBRANCH   5  28
BRANCH   4  30
ATOM     30  O   UNL     1      23.769  18.216  79.919  1.00  0.00    -0.341 OA
BRANCH  30  31
ATOM     31  C   UNL     1      24.132  17.535  78.726  1.00  0.00     0.184 C 
ATOM     32  C   UNL     1      24.409  18.554  77.592  1.00  0.00     0.178 C 
ATOM     33  C   UNL     1      22.964  16.618  78.314  1.00  0.00     0.180 C 
ATOM     34  O   UNL     1      24.703  17.887  76.374  1.00  0.00    -0.342 OA
ATOM     35  C   UNL     1      23.228  16.019  76.922  1.00  0.00     0.201 C 
ATOM     36  C   UNL     1      23.603  17.123  75.911  1.00  0.00     0.279 C 
BRANCH  32  37
ATOM     37  C   UNL     1      25.587  19.477  77.928  1.00  0.00     0.191 C 
BRANCH  37  38
ATOM     38  O   UNL     1      26.438  18.864  78.857  1.00  0.00    -0.394 OA
ATOM     39  H   UNL     1      26.000  18.966  79.742  1.00  0.00     0.210 HD
ENDBRANCH  37  38
ENDBRANCH  32  37
BRANCH  33  40
ATOM     40  O   UNL     1      21.752  17.335  78.302  1.00  0.00    -0.387 OA
ATOM     41  H   UNL     1      21.213  16.983  77.544  1.00  0.00     0.211 HD
ENDBRANCH  33  40
BRANCH  35  42
ATOM     42  O   UNL     1      22.104  15.314  76.465  1.00  0.00    -0.385 OA
ATOM     43  H   UNL     1      21.553  15.100  77.264  1.00  0.00     0.211 HD
ENDBRANCH  35  42
BRANCH  36  44
ATOM     44  O   UNL     1      22.509  17.960  75.619  1.00  0.00    -0.366 OA
ATOM     45  H   UNL     1      21.686  17.451  75.838  1.00  0.00     0.213 HD
ENDBRANCH  36  44
ENDBRANCH  30  31
ENDBRANCH   4  30
TORSDOF 18
ENDMDL
MODEL 2
REMARK VINA RESULT:    -5.316      3.090      5.665
REMARK INTER + INTRA:         -11.906
REMARK INTER:                  -9.312
REMARK INTRA:                  -2.595
REMARK UNBOUND:                -2.705
REMARK SMILES OC[C@@H]1O[C@@H](O[C@@H]2[C@H](O)[C@@H](O)[C@@H](O[C@H]3[C@@H](O)[C@@H](O)[C@@H](O)O[C@@H]3CO)O[C@@H]2CO)[C@@H](O)[C@H](O)[C@@H]1O
REMARK SMILES IDX 7 1 26 2 25 3 12 4 10 5 8 6 6 7 5 8 3 9 33 10 4 11 31 12
REMARK SMILES IDX 29 13 2 14 1 15 34 17 32 19 30 21 27 23 28 24 9 26 11 28
REMARK SMILES IDX 13 30 14 31 22 32 15 33 21 34 17 35 19 36 23 37 24 38 16 40
REMARK SMILES IDX 18 42 20 44
REMARK H PARENT 1 16 34 18 32 20 30 22 28 25 9 27 11 29 24 39 16 41 18 43
REMARK H PARENT 20 45
REMARK Flexibility Score: inf
ROOT
ATOM      1  C   UNL     1      24.013  18.225  82.207  1.00  0.00     0.184 C 
ATOM      2  C   UNL     1      24.467  18.082  80.738  1.00  0.00     0.178 C 
ATOM      3  O   UNL     1      25.150  19.250  80.304  1.00  0.00    -0.341 OA
ATOM      4  C   UNL     1      26.359  19.447  81.025  1.00  0.00     0.282 C 
ATOM      5  C   UNL     1      26.060  19.661  82.531  1.00  0.00     0.202 C 
ATOM      6  C   UNL     1      25.251  18.477  83.087  1.00  0.00     0.180 C 
ENDROOT
BRANCH   1   7
ATOM      7  O   UNL     1      23.116  19.324  82.320  1.00  0.00    -0.341 OA
BRANCH   7   8
ATOM      8  C   UNL     1      22.142  19.102  83.321  1.00  0.00     0.282 C 
ATOM      9  C   UNL     1      21.045  17.391  84.535  1.00  0.00     0.178 C 
ATOM     10  C   UNL     1      19.659  18.081  84.363  1.00  0.00     0.177 C 
ATOM     11  O   UNL     1      21.960  17.706  83.494  1.00  0.00    -0.341 OA
ATOM     12  C   UNL     1      19.756  19.565  83.957  1.00  0.00     0.179 C 
ATOM     13  C   UNL     1      20.828  19.760  82.874  1.00  0.00     0.202 C 
BRANCH   9  14
ATOM     14  C   UNL     1      21.692  17.479  85.935  1.00  0.00     0.191 C 
BRANCH  14  15
ATOM     15  O   UNL     1      20.943  16.807  86.909  1.00  0.00    -0.394 OA
ATOM     16  H   UNL     1      20.010  17.140  86.824  1.00  0.00     0.210 HD
ENDBRANCH  14  15
ENDBRANCH   9  14
BRANCH  10  17
ATOM     17  O   UNL     1      18.879  17.953  85.525  1.00  0.00    -0.387 OA
ATOM     18  H   UNL     1      18.136  18.607  85.445  1.00  0.00     0.211 HD
ENDBRANCH  10  17
BRANCH  12  19
ATOM     19  O   UNL     1      20.033  20.365  85.076  1.00  0.00    -0.387 OA
ATOM     20  H   UNL     1      19.655  19.900  85.868  1.00  0.00     0.211 HD
ENDBRANCH  12  19
BRANCH  13  21
ATOM     21  O   UNL     1      20.385  19.187  81.671  1.00  0.00    -0.385 OA
ATOM     22  H   UNL     1      19.395  19.264  81.660  1.00  0.00     0.211 HD
ENDBRANCH  13  21
ENDBRANCH   7   8
ENDBRANCH   1   7
BRANCH   2  23
ATOM     23  C   UNL     1      23.270  17.836  79.811  1.00  0.00     0.191 C 
BRANCH  23  24
ATOM     24  O   UNL     1      22.243  17.209  80.527  1.00  0.00    -0.394 OA
ATOM     25  H   UNL     1      21.729  16.678  79.865  1.00  0.00     0.210 HD
ENDBRANCH  23  24
ENDBRANCH   2  23
BRANCH   6  26
ATOM     26  O   UNL     1      24.845  18.741  84.405  1.00  0.00    -0.387 OA
ATOM     27  H   UNL     1      24.688  17.865  84.842  1.00  0.00     0.211 HD
ENDBRANCH   6  26
BRANCH   5  28
ATOM     28  O   UNL     1      27.250  19.805  83.260  1.00  0.00    -0.385 OA
ATOM     29  H   UNL     1      27.972  19.974  82.598  1.00  0.00     0.211 HD
ENDBRANCH   5  28
BRANCH   4  30
ATOM     30  O   UNL     1      27.229  18.339  80.817  1.00  0.00    -0.341 OA
BRANCH  30  31
ATOM     31  C   UNL     1      28.358  18.648  80.011  1.00  0.00     0.184 C 
ATOM     32  C   UNL     1      28.666  17.473  79.049  1.00  0.00     0.178 C 
ATOM     33  C   UNL     1      29.568  18.882  80.936  1.00  0.00     0.180 C 
ATOM     34  O   UNL     1      29.835  17.738  78.287  1.00  0.00    -0.342 OA
ATOM     35  C   UNL     1      30.853  19.017  80.102  1.00  0.00     0.201 C 
ATOM     36  C   UNL     1      30.987  17.845  79.106  1.00  0.00     0.279 C 
BRANCH  32  37
ATOM     37  C   UNL     1      27.510  17.212  78.076  1.00  0.00     0.191 C 
BRANCH  37  38
ATOM     38  O   UNL     1      26.774  18.386  77.865  1.00  0.00    -0.394 OA
ATOM     39  H   UNL     1      26.808  18.890  78.719  1.00  0.00     0.210 HD
ENDBRANCH  37  38
ENDBRANCH  32  37
BRANCH  33  40
ATOM     40  O   UNL     1      29.703  17.821  81.852  1.00  0.00    -0.387 OA
ATOM     41  H   UNL     1      29.518  16.981  81.354  1.00  0.00     0.211 HD
ENDBRANCH  33  40
BRANCH  35  42
ATOM     42  O   UNL     1      31.981  19.067  80.935  1.00  0.00    -0.385 OA
ATOM     43  H   UNL     1      32.456  19.914  80.726  1.00  0.00     0.211 HD
ENDBRANCH  35  42
BRANCH  36  44
ATOM     44  O   UNL     1      31.241  16.626  79.762  1.00  0.00    -0.366 OA
ATOM     45  H   UNL     1      30.376  16.303  80.124  1.00  0.00     0.213 HD
ENDBRANCH  36  44
ENDBRANCH  30  31
ENDBRANCH   4  30
TORSDOF 18
ENDMDL
MODEL 3
REMARK VINA RESULT:    -5.265      2.903      4.884
REMARK INTER + INTRA:         -11.817
REMARK INTER:                  -9.963
REMARK INTRA:                  -1.854
REMARK UNBOUND:                -2.705
REMARK SMILES OC[C@@H]1O[C@@H](O[C@@H]2[C@H](O)[C@@H](O)[C@@H](O[C@H]3[C@@H](O)[C@@H](O)[C@@H](O)O[C@@H]3CO)O[C@@H]2CO)[C@@H](O)[C@H](O)[C@@H]1O
REMARK SMILES IDX 7 1 26 2 25 3 12 4 10 5 8 6 6 7 5 8 3 9 33 10 4 11 31 12
REMARK SMILES IDX 29 13 2 14 1 15 34 17 32 19 30 21 27 23 28 24 9 26 11 28
REMARK SMILES IDX 13 30 14 31 22 32 15 33 21 34 17 35 19 36 23 37 24 38 16 40
REMARK SMILES IDX 18 42 20 44
REMARK H PARENT 1 16 34 18 32 20 30 22 28 25 9 27 11 29 24 39 16 41 18 43
REMARK H PARENT 20 45
REMARK Flexibility Score: inf
ROOT
ATOM      1  C   UNL     1      22.694  17.488  85.092  1.00  0.00     0.184 C 
ATOM      2  C   UNL     1      21.625  16.453  84.679  1.00  0.00     0.178 C 
ATOM      3  O   UNL     1      21.224  16.651  83.331  1.00  0.00    -0.341 OA
ATOM      4  C   UNL     1      22.297  16.425  82.427  1.00  0.00     0.282 C 
ATOM      5  C   UNL     1      23.442  17.436  82.684  1.00  0.00     0.202 C 
ATOM      6  C   UNL     1      23.904  17.355  84.149  1.00  0.00     0.180 C 
ENDROOT
BRANCH   1   7
ATOM      7  O   UNL     1      22.149  18.798  84.986  1.00  0.00    -0.341 OA
BRANCH   7   8
ATOM      8  C   UNL     1      22.775  19.699  85.880  1.00  0.00     0.282 C 
ATOM      9  C   UNL     1      23.258  20.046  88.171  1.00  0.00     0.178 C 
ATOM     10  C   UNL     1      22.858  21.550  88.084  1.00  0.00     0.177 C 
ATOM     11  O   UNL     1      22.598  19.235  87.209  1.00  0.00    -0.341 OA
ATOM     12  C   UNL     1      22.811  22.092  86.642  1.00  0.00     0.179 C 
ATOM     13  C   UNL     1      22.130  21.081  85.706  1.00  0.00     0.202 C 
BRANCH   9  14
ATOM     14  C   UNL     1      24.769  19.738  88.265  1.00  0.00     0.191 C 
BRANCH  14  15
ATOM     15  O   UNL     1      25.407  19.825  87.022  1.00  0.00    -0.394 OA
ATOM     16  H   UNL     1      25.351  20.778  86.745  1.00  0.00     0.210 HD
ENDBRANCH  14  15
ENDBRANCH   9  14
BRANCH  10  17
ATOM     17  O   UNL     1      23.708  22.349  88.868  1.00  0.00    -0.387 OA
ATOM     18  H   UNL     1      24.521  22.520  88.325  1.00  0.00     0.211 HD
ENDBRANCH  10  17
BRANCH  12  19
ATOM     19  O   UNL     1      24.104  22.393  86.186  1.00  0.00    -0.387 OA
ATOM     20  H   UNL     1      24.739  22.063  86.874  1.00  0.00     0.211 HD
ENDBRANCH  12  19
BRANCH  13  21
ATOM     21  O   UNL     1      20.760  21.017  86.008  1.00  0.00    -0.385 OA
ATOM     22  H   UNL     1      20.341  21.837  85.634  1.00  0.00     0.211 HD
ENDBRANCH  13  21
ENDBRANCH   7   8
ENDBRANCH   1   7
BRANCH   2  23
ATOM     23  C   UNL     1      20.390  16.544  85.583  1.00  0.00     0.191 C 
BRANCH  23  24
ATOM     24  O   UNL     1      20.791  16.749  86.908  1.00  0.00    -0.394 OA
ATOM     25  H   UNL     1      21.546  16.126  87.067  1.00  0.00     0.210 HD
ENDBRANCH  23  24
ENDBRANCH   2  23
BRANCH   6  26
ATOM     26  O   UNL     1      24.829  18.376  84.425  1.00  0.00    -0.387 OA
ATOM     27  H   UNL     1      24.503  19.195  83.971  1.00  0.00     0.211 HD
ENDBRANCH   6  26
BRANCH   5  28
ATOM     28  O   UNL     1      24.528  17.188  81.831  1.00  0.00    -0.385 OA
ATOM     29  H   UNL     1      24.431  16.252  81.511  1.00  0.00     0.211 HD
ENDBRANCH   5  28
BRANCH   4  30
ATOM     30  O   UNL     1      22.750  15.080  82.545  1.00  0.00    -0.341 OA
BRANCH  30  31
ATOM     31  C   UNL     1      22.249  14.221  81.530  1.00  0.00     0.184 C 
ATOM     32  C   UNL     1      22.576  12.744  81.869  1.00  0.00     0.178 C 
ATOM     33  C   UNL     1      22.922  14.600  80.197  1.00  0.00     0.180 C 
ATOM     34  O   UNL     1      22.145  11.880  80.828  1.00  0.00    -0.342 OA
ATOM     35  C   UNL     1      22.566  13.568  79.113  1.00  0.00     0.201 C 
ATOM     36  C   UNL     1      22.832  12.132  79.614  1.00  0.00     0.279 C 
BRANCH  32  37
ATOM     37  C   UNL     1      21.905  12.295  83.173  1.00  0.00     0.191 C 
BRANCH  37  38
ATOM     38  O   UNL     1      22.506  12.922  84.272  1.00  0.00    -0.394 OA
ATOM     39  H   UNL     1      23.480  12.748  84.192  1.00  0.00     0.210 HD
ENDBRANCH  37  38
ENDBRANCH  32  37
BRANCH  33  40
ATOM     40  O   UNL     1      24.319  14.668  80.349  1.00  0.00    -0.387 OA
ATOM     41  H   UNL     1      24.507  15.398  80.997  1.00  0.00     0.211 HD
ENDBRANCH  33  40
BRANCH  35  42
ATOM     42  O   UNL     1      23.299  13.808  77.941  1.00  0.00    -0.385 OA
ATOM     43  H   UNL     1      22.800  14.496  77.425  1.00  0.00     0.211 HD
ENDBRANCH  35  42
BRANCH  36  44
ATOM     44  O   UNL     1      24.208  11.875  79.762  1.00  0.00    -0.366 OA
ATOM     45  H   UNL     1      24.319  10.890  79.794  1.00  0.00     0.213 HD
ENDBRANCH  36  44
ENDBRANCH  30  31
ENDBRANCH   4  30
TORSDOF 18
ENDMDL
MODEL 4
REMARK VINA RESULT:    -5.206      2.448      3.271
REMARK INTER + INTRA:         -11.716
REMARK INTER:                  -9.688
REMARK INTRA:                  -2.027
REMARK UNBOUND:                -2.705
REMARK SMILES OC[C@@H]1O[C@@H](O[C@@H]2[C@H](O)[C@@H](O)[C@@H](O[C@H]3[C@@H](O)[C@@H](O)[C@@H](O)O[C@@H]3CO)O[C@@H]2CO)[C@@H](O)[C@H](O)[C@@H]1O
REMARK SMILES IDX 7 1 26 2 25 3 12 4 10 5 8 6 6 7 5 8 3 9 33 10 4 11 31 12
REMARK SMILES IDX 29 13 2 14 1 15 34 17 32 19 30 21 27 23 28 24 9 26 11 28
REMARK SMILES IDX 13 30 14 31 22 32 15 33 21 34 17 35 19 36 23 37 24 38 16 40
REMARK SMILES IDX 18 42 20 44
REMARK H PARENT 1 16 34 18 32 20 30 22 28 25 9 27 11 29 24 39 16 41 18 43
REMARK H PARENT 20 45
REMARK Flexibility Score: inf
ROOT
ATOM      1  C   UNL     1      21.947  18.858  84.492  1.00  0.00     0.184 C 
ATOM      2  C   UNL     1      22.793  18.097  83.447  1.00  0.00     0.178 C 
ATOM      3  O   UNL     1      22.658  16.693  83.614  1.00  0.00    -0.341 OA
ATOM      4  C   UNL     1      21.326  16.261  83.367  1.00  0.00     0.282 C 
ATOM      5  C   UNL     1      20.353  16.907  84.384  1.00  0.00     0.202 C 
ATOM      6  C   UNL     1      20.473  18.440  84.338  1.00  0.00     0.180 C 
ENDROOT
BRANCH   1   7
ATOM      7  O   UNL     1      22.402  18.527  85.799  1.00  0.00    -0.341 OA
BRANCH   7   8
ATOM      8  C   UNL     1      22.486  19.670  86.628  1.00  0.00     0.282 C 
ATOM      9  C   UNL     1      22.831  22.012  86.576  1.00  0.00     0.178 C 
ATOM     10  C   UNL     1      23.796  21.952  87.798  1.00  0.00     0.177 C 
ATOM     11  O   UNL     1      22.796  20.802  85.831  1.00  0.00    -0.341 OA
ATOM     12  C   UNL     1      23.683  20.646  88.609  1.00  0.00     0.179 C 
ATOM     13  C   UNL     1      23.588  19.433  87.670  1.00  0.00     0.202 C 
BRANCH   9  14
ATOM     14  C   UNL     1      21.420  22.584  86.838  1.00  0.00     0.191 C 
BRANCH  14  15
ATOM     15  O   UNL     1      20.408  21.683  86.484  1.00  0.00    -0.394 OA
ATOM     16  H   UNL     1      20.741  21.186  85.691  1.00  0.00     0.210 HD
ENDBRANCH  14  15
ENDBRANCH   9  14
BRANCH  10  17
ATOM     17  O   UNL     1      23.614  23.059  88.645  1.00  0.00    -0.387 OA
ATOM     18  H   UNL     1      22.764  22.907  89.135  1.00  0.00     0.211 HD
ENDBRANCH  10  17
BRANCH  12  19
ATOM     19  O   UNL     1      22.573  20.694  89.467  1.00  0.00    -0.387 OA
ATOM     20  H   UNL     1      22.914  20.929  90.370  1.00  0.00     0.211 HD
ENDBRANCH  12  19
BRANCH  13  21
ATOM     21  O   UNL     1      24.824  19.240  87.033  1.00  0.00    -0.385 OA
ATOM     22  H   UNL     1      24.801  18.337  86.620  1.00  0.00     0.211 HD
ENDBRANCH  13  21
ENDBRANCH   7   8
ENDBRANCH   1   7
BRANCH   2  23
ATOM     23  C   UNL     1      24.276  18.470  83.559  1.00  0.00     0.191 C 
BRANCH  23  24
ATOM     24  O   UNL     1      24.861  17.756  84.611  1.00  0.00    -0.394 OA
ATOM     25  H   UNL     1      24.130  17.229  85.027  1.00  0.00     0.210 HD
ENDBRANCH  23  24
ENDBRANCH   2  23
BRANCH   6  26
ATOM     26  O   UNL     1      19.710  19.020  85.364  1.00  0.00    -0.387 OA
ATOM     27  H   UNL     1      19.658  19.992  85.175  1.00  0.00     0.211 HD
ENDBRANCH   6  26
BRANCH   5  28
ATOM     28  O   UNL     1      19.028  16.529  84.116  1.00  0.00    -0.385 OA
ATOM     29  H   UNL     1      18.557  17.344  83.799  1.00  0.00     0.211 HD
ENDBRANCH   5  28
BRANCH   4  30
ATOM     30  O   UNL     1      20.962  16.570  82.025  1.00  0.00    -0.341 OA
BRANCH  30  31
ATOM     31  C   UNL     1      21.513  15.677  81.068  1.00  0.00     0.184 C 
ATOM     32  C   UNL     1      21.601  16.365  79.682  1.00  0.00     0.178 C 
ATOM     33  C   UNL     1      20.595  14.443  80.968  1.00  0.00     0.180 C 
ATOM     34  O   UNL     1      22.083  15.461  78.698  1.00  0.00    -0.342 OA
ATOM     35  C   UNL     1      21.040  13.546  79.800  1.00  0.00     0.201 C 
ATOM     36  C   UNL     1      21.198  14.370  78.505  1.00  0.00     0.279 C 
BRANCH  32  37
ATOM     37  C   UNL     1      22.530  17.585  79.707  1.00  0.00     0.191 C 
BRANCH  37  38
ATOM     38  O   UNL     1      21.834  18.720  80.142  1.00  0.00    -0.394 OA
ATOM     39  H   UNL     1      21.541  19.196  79.322  1.00  0.00     0.210 HD
ENDBRANCH  37  38
ENDBRANCH  32  37
BRANCH  33  40
ATOM     40  O   UNL     1      19.256  14.836  80.784  1.00  0.00    -0.387 OA
ATOM     41  H   UNL     1      18.969  14.487  79.899  1.00  0.00     0.211 HD
ENDBRANCH  33  40
BRANCH  35  42
ATOM     42  O   UNL     1      20.119  12.507  79.595  1.00  0.00    -0.385 OA
ATOM     43  H   UNL     1      20.415  12.016  78.784  1.00  0.00     0.211 HD
ENDBRANCH  35  42
BRANCH  36  44
ATOM     44  O   UNL     1      19.958  14.822  78.015  1.00  0.00    -0.366 OA
ATOM     45  H   UNL     1      19.926  14.596  77.050  1.00  0.00     0.213 HD
ENDBRANCH  36  44
ENDBRANCH  30  31
ENDBRANCH   4  30
TORSDOF 18
ENDMDL
MODEL 5
REMARK VINA RESULT:    -5.193      3.407      6.009
REMARK INTER + INTRA:         -11.692
REMARK INTER:                  -9.179
REMARK INTRA:                  -2.513
REMARK UNBOUND:                -2.705
REMARK SMILES OC[C@@H]1O[C@@H](O[C@@H]2[C@H](O)[C@@H](O)[C@@H](O[C@H]3[C@@H](O)[C@@H](O)[C@@H](O)O[C@@H]3CO)O[C@@H]2CO)[C@@H](O)[C@H](O)[C@@H]1O
REMARK SMILES IDX 7 1 26 2 25 3 12 4 10 5 8 6 6 7 5 8 3 9 33 10 4 11 31 12
REMARK SMILES IDX 29 13 2 14 1 15 34 17 32 19 30 21 27 23 28 24 9 26 11 28
REMARK SMILES IDX 13 30 14 31 22 32 15 33 21 34 17 35 19 36 23 37 24 38 16 40
REMARK SMILES IDX 18 42 20 44
REMARK H PARENT 1 16 34 18 32 20 30 22 28 25 9 27 11 29 24 39 16 41 18 43
REMARK H PARENT 20 45
REMARK Flexibility Score: inf
ROOT
ATOM      1  C   UNL     1      24.433  18.491  82.804  1.00  0.00     0.184 C 
ATOM      2  C   UNL     1      25.101  17.232  82.210  1.00  0.00     0.178 C 
ATOM      3  O   UNL     1      25.542  17.473  80.881  1.00  0.00    -0.341 OA
ATOM      4  C   UNL     1      26.561  18.463  80.839  1.00  0.00     0.282 C 
ATOM      5  C   UNL     1      26.020  19.817  81.361  1.00  0.00     0.202 C 
ATOM      6  C   UNL     1      25.445  19.650  82.779  1.00  0.00     0.180 C 
ENDROOT
BRANCH   1   7
ATOM      7  O   UNL     1      23.295  18.835  82.022  1.00  0.00    -0.341 OA
BRANCH   7   8
ATOM      8  C   UNL     1      22.233  19.313  82.826  1.00  0.00     0.282 C 
ATOM      9  C   UNL     1      21.490  19.462  85.069  1.00  0.00     0.178 C 
ATOM     10  C   UNL     1      20.040  19.051  84.673  1.00  0.00     0.177 C 
ATOM     11  O   UNL     1      22.477  18.959  84.177  1.00  0.00    -0.341 OA
ATOM     12  C   UNL     1      19.747  19.198  83.167  1.00  0.00     0.179 C 
ATOM     13  C   UNL     1      20.927  18.673  82.333  1.00  0.00     0.202 C 
BRANCH   9  14
ATOM     14  C   UNL     1      21.715  20.950  85.418  1.00  0.00     0.191 C 
BRANCH  14  15
ATOM     15  O   UNL     1      20.965  21.353  86.530  1.00  0.00    -0.394 OA
ATOM     16  H   UNL     1      21.161  22.318  86.664  1.00  0.00     0.210 HD
ENDBRANCH  14  15
ENDBRANCH   9  14
BRANCH  10  17
ATOM     17  O   UNL     1      19.087  19.768  85.418  1.00  0.00    -0.387 OA
ATOM     18  H   UNL     1      18.204  19.584  85.005  1.00  0.00     0.211 HD
ENDBRANCH  10  17
BRANCH  12  19
ATOM     19  O   UNL     1      19.472  20.536  82.847  1.00  0.00    -0.387 OA
ATOM     20  H   UNL     1      18.640  20.541  82.306  1.00  0.00     0.211 HD
ENDBRANCH  12  19
BRANCH  13  21
ATOM     21  O   UNL     1      20.996  17.276  82.453  1.00  0.00    -0.385 OA
ATOM     22  H   UNL     1      21.848  16.990  82.030  1.00  0.00     0.211 HD
ENDBRANCH  13  21
ENDBRANCH   7   8
ENDBRANCH   1   7
BRANCH   2  23
ATOM     23  C   UNL     1      24.133  16.043  82.204  1.00  0.00     0.191 C 
BRANCH  23  24
ATOM     24  O   UNL     1      23.343  16.074  83.359  1.00  0.00    -0.394 OA
ATOM     25  H   UNL     1      23.280  17.028  83.625  1.00  0.00     0.210 HD
ENDBRANCH  23  24
ENDBRANCH   2  23
BRANCH   6  26
ATOM     26  O   UNL     1      24.814  20.835  83.191  1.00  0.00    -0.387 OA
ATOM     27  H   UNL     1      23.981  20.921  82.660  1.00  0.00     0.211 HD
ENDBRANCH   6  26
BRANCH   5  28
ATOM     28  O   UNL     1      27.032  20.788  81.372  1.00  0.00    -0.385 OA
ATOM     29  H   UNL     1      26.608  21.645  81.102  1.00  0.00     0.211 HD
ENDBRANCH   5  28
BRANCH   4  30
ATOM     30  O   UNL     1      27.688  18.025  81.591  1.00  0.00    -0.341 OA
BRANCH  30  31
ATOM     31  C   UNL     1      28.847  17.804  80.799  1.00  0.00     0.184 C 
ATOM     32  C   UNL     1      29.376  16.363  81.014  1.00  0.00     0.178 C 
ATOM     33  C   UNL     1      29.929  18.814  81.226  1.00  0.00     0.180 C 
ATOM     34  O   UNL     1      30.575  16.151  80.284  1.00  0.00    -0.342 OA
ATOM     35  C   UNL     1      31.265  18.480  80.541  1.00  0.00     0.201 C 
ATOM     36  C   UNL     1      31.624  16.992  80.734  1.00  0.00     0.279 C 
BRANCH  32  37
ATOM     37  C   UNL     1      28.355  15.307  80.574  1.00  0.00     0.191 C 
BRANCH  37  38
ATOM     38  O   UNL     1      27.470  15.018  81.621  1.00  0.00    -0.394 OA
ATOM     39  H   UNL     1      27.087  15.887  81.908  1.00  0.00     0.210 HD
ENDBRANCH  37  38
ENDBRANCH  32  37
BRANCH  33  40
ATOM     40  O   UNL     1      30.094  18.801  82.624  1.00  0.00    -0.387 OA
ATOM     41  H   UNL     1      29.208  19.008  83.024  1.00  0.00     0.211 HD
ENDBRANCH  33  40
BRANCH  35  42
ATOM     42  O   UNL     1      32.295  19.290  81.044  1.00  0.00    -0.385 OA
ATOM     43  H   UNL     1      32.589  18.882  81.901  1.00  0.00     0.211 HD
ENDBRANCH  35  42
BRANCH  36  44
ATOM     44  O   UNL     1      31.950  16.701  82.073  1.00  0.00    -0.366 OA
ATOM     45  H   UNL     1      32.418  15.826  82.076  1.00  0.00     0.213 HD
ENDBRANCH  36  44
ENDBRANCH  30  31
ENDBRANCH   4  30
TORSDOF 18
ENDMDL
MODEL 6
REMARK VINA RESULT:    -5.162      3.073      4.809
REMARK INTER + INTRA:         -11.640
REMARK INTER:                  -9.537
REMARK INTRA:                  -2.103
REMARK UNBOUND:                -2.705
REMARK SMILES OC[C@@H]1O[C@@H](O[C@@H]2[C@H](O)[C@@H](O)[C@@H](O[C@H]3[C@@H](O)[C@@H](O)[C@@H](O)O[C@@H]3CO)O[C@@H]2CO)[C@@H](O)[C@H](O)[C@@H]1O
REMARK SMILES IDX 7 1 26 2 25 3 12 4 10 5 8 6 6 7 5 8 3 9 33 10 4 11 31 12
REMARK SMILES IDX 29 13 2 14 1 15 34 17 32 19 30 21 27 23 28 24 9 26 11 28
REMARK SMILES IDX 13 30 14 31 22 32 15 33 21 34 17 35 19 36 23 37 24 38 16 40
REMARK SMILES IDX 18 42 20 44
REMARK H PARENT 1 16 34 18 32 20 30 22 28 25 9 27 11 29 24 39 16 41 18 43
REMARK H PARENT 20 45
REMARK Flexibility Score: inf
ROOT
ATOM      1  C   UNL     1      21.726  18.248  84.213  1.00  0.00     0.184 C 
ATOM      2  C   UNL     1      20.810  17.015  84.055  1.00  0.00     0.178 C 
ATOM      3  O   UNL     1      19.622  17.355  83.354  1.00  0.00    -0.341 OA
ATOM      4  C   UNL     1      19.899  17.757  82.019  1.00  0.00     0.282 C 
ATOM      5  C   UNL     1      20.778  19.033  82.012  1.00  0.00     0.202 C 
ATOM      6  C   UNL     1      22.068  18.795  82.815  1.00  0.00     0.180 C 
ENDROOT
BRANCH   1   7
ATOM      7  O   UNL     1      21.046  19.248  84.963  1.00  0.00    -0.341 OA
BRANCH   7   8
ATOM      8  C   UNL     1      21.951  20.135  85.592  1.00  0.00     0.282 C 
ATOM      9  C   UNL     1      23.344  20.369  87.492  1.00  0.00     0.178 C 
ATOM     10  C   UNL     1      22.878  21.839  87.721  1.00  0.00     0.177 C 
ATOM     11  O   UNL     1      22.375  19.573  86.823  1.00  0.00    -0.341 OA
ATOM     12  C   UNL     1      22.200  22.469  86.488  1.00  0.00     0.179 C 
ATOM     13  C   UNL     1      21.232  21.471  85.834  1.00  0.00     0.202 C 
BRANCH   9  14
ATOM     14  C   UNL     1      24.765  20.177  86.916  1.00  0.00     0.191 C 
BRANCH  14  15
ATOM     15  O   UNL     1      25.191  21.286  86.175  1.00  0.00    -0.394 OA
ATOM     16  H   UNL     1      26.014  21.002  85.696  1.00  0.00     0.210 HD
ENDBRANCH  14  15
ENDBRANCH   9  14
BRANCH  10  17
ATOM     17  O   UNL     1      23.944  22.650  88.147  1.00  0.00    -0.387 OA
ATOM     18  H   UNL     1      24.667  22.549  87.475  1.00  0.00     0.211 HD
ENDBRANCH  10  17
BRANCH  12  19
ATOM     19  O   UNL     1      23.163  22.901  85.563  1.00  0.00    -0.387 OA
ATOM     20  H   UNL     1      23.415  22.112  85.015  1.00  0.00     0.211 HD
ENDBRANCH  12  19
BRANCH  13  21
ATOM     21  O   UNL     1      20.124  21.279  86.674  1.00  0.00    -0.385 OA
ATOM     22  H   UNL     1      20.410  21.524  87.593  1.00  0.00     0.211 HD
ENDBRANCH  13  21
ENDBRANCH   7   8
ENDBRANCH   1   7
BRANCH   2  23
ATOM     23  C   UNL     1      20.430  16.431  85.421  1.00  0.00     0.191 C 
BRANCH  23  24
ATOM     24  O   UNL     1      21.413  16.758  86.362  1.00  0.00    -0.394 OA
ATOM     25  H   UNL     1      21.922  17.517  85.976  1.00  0.00     0.210 HD
ENDBRANCH  23  24
ENDBRANCH   2  23
BRANCH   6  26
ATOM     26  O   UNL     1      22.790  19.993  82.943  1.00  0.00    -0.387 OA
ATOM     27  H   UNL     1      23.358  19.906  83.751  1.00  0.00     0.211 HD
ENDBRANCH   6  26
BRANCH   5  28
ATOM     28  O   UNL     1      21.100  19.409  80.699  1.00  0.00    -0.385 OA
ATOM     29  H   UNL     1      20.286  19.258  80.151  1.00  0.00     0.211 HD
ENDBRANCH   5  28
BRANCH   4  30
ATOM     30  O   UNL     1      20.522  16.688  81.314  1.00  0.00    -0.341 OA
BRANCH  30  31
ATOM     31  C   UNL     1      19.623  15.944  80.504  1.00  0.00     0.184 C 
ATOM     32  C   UNL     1      20.027  14.448  80.492  1.00  0.00     0.178 C 
ATOM     33  C   UNL     1      19.686  16.501  79.068  1.00  0.00     0.180 C 
ATOM     34  O   UNL     1      19.181  13.703  79.629  1.00  0.00    -0.342 OA
ATOM     35  C   UNL     1      18.887  15.597  78.115  1.00  0.00     0.201 C 
ATOM     36  C   UNL     1      19.303  14.120  78.280  1.00  0.00     0.279 C 
BRANCH  32  37
ATOM     37  C   UNL     1      19.952  13.824  81.891  1.00  0.00     0.191 C 
BRANCH  37  38
ATOM     38  O   UNL     1      18.955  14.450  82.652  1.00  0.00    -0.394 OA
ATOM     39  H   UNL     1      18.301  14.816  82.002  1.00  0.00     0.210 HD
ENDBRANCH  37  38
ENDBRANCH  32  37
BRANCH  33  40
ATOM     40  O   UNL     1      21.021  16.592  78.630  1.00  0.00    -0.387 OA
ATOM     41  H   UNL     1      21.541  15.914  79.138  1.00  0.00     0.211 HD
ENDBRANCH  33  40
BRANCH  35  42
ATOM     42  O   UNL     1      19.068  15.999  76.782  1.00  0.00    -0.385 OA
ATOM     43  H   UNL     1      19.112  15.171  76.235  1.00  0.00     0.211 HD
ENDBRANCH  35  42
BRANCH  36  44
ATOM     44  O   UNL     1      20.609  13.888  77.808  1.00  0.00    -0.366 OA
ATOM     45  H   UNL     1      21.106  14.743  77.892  1.00  0.00     0.213 HD
ENDBRANCH  36  44
ENDBRANCH  30  31
ENDBRANCH   4  30
TORSDOF 18
ENDMDL
MODEL 7
REMARK VINA RESULT:    -5.081      3.473      5.727
REMARK INTER + INTRA:         -11.499
REMARK INTER:                  -8.989
REMARK INTRA:                  -2.509
REMARK UNBOUND:                -2.705
REMARK SMILES OC[C@@H]1O[C@@H](O[C@@H]2[C@H](O)[C@@H](O)[C@@H](O[C@H]3[C@@H](O)[C@@H](O)[C@@H](O)O[C@@H]3CO)O[C@@H]2CO)[C@@H](O)[C@H](O)[C@@H]1O
REMARK SMILES IDX 7 1 26 2 25 3 12 4 10 5 8 6 6 7 5 8 3 9 33 10 4 11 31 12
REMARK SMILES IDX 29 13 2 14 1 15 34 17 32 19 30 21 27 23 28 24 9 26 11 28
REMARK SMILES IDX 13 30 14 31 22 32 15 33 21 34 17 35 19 36 23 37 24 38 16 40
REMARK SMILES IDX 18 42 20 44
REMARK H PARENT 1 16 34 18 32 20 30 22 28 25 9 27 11 29 24 39 16 41 18 43
REMARK H PARENT 20 45
REMARK Flexibility Score: inf
ROOT
ATOM      1  C   UNL     1      25.957  18.598  82.240  1.00  0.00     0.184 C 
ATOM      2  C   UNL     1      26.399  17.411  81.357  1.00  0.00     0.178 C 
ATOM      3  O   UNL     1      26.402  17.778  79.984  1.00  0.00    -0.341 OA
ATOM      4  C   UNL     1      27.361  18.791  79.714  1.00  0.00     0.282 C 
ATOM      5  C   UNL     1      27.018  20.081  80.499  1.00  0.00     0.202 C 
ATOM      6  C   UNL     1      26.916  19.778  82.004  1.00  0.00     0.180 C 
ENDROOT
BRANCH   1   7
ATOM      7  O   UNL     1      24.632  18.982  81.887  1.00  0.00    -0.341 OA
BRANCH   7   8
ATOM      8  C   UNL     1      23.893  19.407  83.016  1.00  0.00     0.282 C 
ATOM      9  C   UNL     1      23.909  19.413  85.383  1.00  0.00     0.178 C 
ATOM     10  C   UNL     1      22.401  19.026  85.449  1.00  0.00     0.177 C 
ATOM     11  O   UNL     1      24.549  18.968  84.195  1.00  0.00    -0.341 OA
ATOM     12  C   UNL     1      21.645  19.268  84.128  1.00  0.00     0.179 C 
ATOM     13  C   UNL     1      22.486  18.798  82.930  1.00  0.00     0.202 C 
BRANCH   9  14
ATOM     14  C   UNL     1      24.263  20.876  85.732  1.00  0.00     0.191 C 
BRANCH  14  15
ATOM     15  O   UNL     1      25.628  21.143  85.576  1.00  0.00    -0.394 OA
ATOM     16  H   UNL     1      25.928  21.570  86.422  1.00  0.00     0.210 HD
ENDBRANCH  14  15
ENDBRANCH   9  14
BRANCH  10  17
ATOM     17  O   UNL     1      21.750  19.693  86.502  1.00  0.00    -0.387 OA
ATOM     18  H   UNL     1      22.299  19.547  87.315  1.00  0.00     0.211 HD
ENDBRANCH  10  17
BRANCH  12  19
ATOM     19  O   UNL     1      21.308  20.623  83.994  1.00  0.00    -0.387 OA
ATOM     20  H   UNL     1      21.539  20.890  83.066  1.00  0.00     0.211 HD
ENDBRANCH  12  19
BRANCH  13  21
ATOM     21  O   UNL     1      22.563  17.397  82.937  1.00  0.00    -0.385 OA
ATOM     22  H   UNL     1      21.637  17.054  82.831  1.00  0.00     0.211 HD
ENDBRANCH  13  21
ENDBRANCH   7   8
ENDBRANCH   1   7
BRANCH   2  23
ATOM     23  C   UNL     1      25.471  16.206  81.546  1.00  0.00     0.191 C 
BRANCH  23  24
ATOM     24  O   UNL     1      25.091  16.112  82.890  1.00  0.00    -0.394 OA
ATOM     25  H   UNL     1      24.183  16.507  82.948  1.00  0.00     0.210 HD
ENDBRANCH  23  24
ENDBRANCH   2  23
BRANCH   6  26
ATOM     26  O   UNL     1      26.452  20.908  82.697  1.00  0.00    -0.387 OA
ATOM     27  H   UNL     1      27.247  21.451  82.936  1.00  0.00     0.211 HD
ENDBRANCH   6  26
BRANCH   5  28
ATOM     28  O   UNL     1      27.988  21.071  80.280  1.00  0.00    -0.385 OA
ATOM     29  H   UNL     1      28.175  21.487  81.163  1.00  0.00     0.211 HD
ENDBRANCH   5  28
BRANCH   4  30
ATOM     30  O   UNL     1      28.665  18.315  80.033  1.00  0.00    -0.341 OA
BRANCH  30  31
ATOM     31  C   UNL     1      29.341  17.730  78.930  1.00  0.00     0.184 C 
ATOM     32  C   UNL     1      30.155  16.495  79.394  1.00  0.00     0.178 C 
ATOM     33  C   UNL     1      30.300  18.778  78.333  1.00  0.00     0.180 C 
ATOM     34  O   UNL     1      30.894  15.942  78.315  1.00  0.00    -0.342 OA
ATOM     35  C   UNL     1      31.200  18.128  77.269  1.00  0.00     0.201 C 
ATOM     36  C   UNL     1      31.864  16.848  77.819  1.00  0.00     0.279 C 
BRANCH  32  37
ATOM     37  C   UNL     1      29.251  15.397  79.968  1.00  0.00     0.191 C 
BRANCH  37  38
ATOM     38  O   UNL     1      29.217  15.474  81.367  1.00  0.00    -0.394 OA
ATOM     39  H   UNL     1      28.914  16.394  81.585  1.00  0.00     0.210 HD
ENDBRANCH  37  38
ENDBRANCH  32  37
BRANCH  33  40
ATOM     40  O   UNL     1      31.096  19.352  79.343  1.00  0.00    -0.387 OA
ATOM     41  H   UNL     1      30.757  19.009  80.212  1.00  0.00     0.211 HD
ENDBRANCH  33  40
BRANCH  35  42
ATOM     42  O   UNL     1      32.185  19.029  76.835  1.00  0.00    -0.385 OA
ATOM     43  H   UNL     1      31.726  19.708  76.273  1.00  0.00     0.211 HD
ENDBRANCH  35  42
BRANCH  36  44
ATOM     44  O   UNL     1      32.821  17.139  78.811  1.00  0.00    -0.366 OA
ATOM     45  H   UNL     1      32.432  16.862  79.681  1.00  0.00     0.213 HD
ENDBRANCH  36  44
ENDBRANCH  30  31
ENDBRANCH   4  30
TORSDOF 18
ENDMDL
MODEL 8
REMARK VINA RESULT:    -5.039      1.896      3.240
REMARK INTER + INTRA:         -11.427
REMARK INTER:                  -9.579
REMARK INTRA:                  -1.848
REMARK UNBOUND:                -2.705
REMARK SMILES OC[C@@H]1O[C@@H](O[C@@H]2[C@H](O)[C@@H](O)[C@@H](O[C@H]3[C@@H](O)[C@@H](O)[C@@H](O)O[C@@H]3CO)O[C@@H]2CO)[C@@H](O)[C@H](O)[C@@H]1O
REMARK SMILES IDX 7 1 26 2 25 3 12 4 10 5 8 6 6 7 5 8 3 9 33 10 4 11 31 12
REMARK SMILES IDX 29 13 2 14 1 15 34 17 32 19 30 21 27 23 28 24 9 26 11 28
REMARK SMILES IDX 13 30 14 31 22 32 15 33 21 34 17 35 19 36 23 37 24 38 16 40
REMARK SMILES IDX 18 42 20 44
REMARK H PARENT 1 16 34 18 32 20 30 22 28 25 9 27 11 29 24 39 16 41 18 43
REMARK H PARENT 20 45
REMARK Flexibility Score: inf
ROOT
ATOM      1  C   UNL     1      22.903  18.227  83.839  1.00  0.00     0.184 C 
ATOM      2  C   UNL     1      21.743  18.670  82.921  1.00  0.00     0.178 C 
ATOM      3  O   UNL     1      22.236  19.120  81.666  1.00  0.00    -0.341 OA
ATOM      4  C   UNL     1      22.871  18.072  80.947  1.00  0.00     0.282 C 
ATOM      5  C   UNL     1      24.104  17.551  81.728  1.00  0.00     0.202 C 
ATOM      6  C   UNL     1      23.689  17.104  83.140  1.00  0.00     0.180 C 
ENDROOT
BRANCH   1   7
ATOM      7  O   UNL     1      23.764  19.334  84.080  1.00  0.00    -0.341 OA
BRANCH   7   8
ATOM      8  C   UNL     1      23.600  19.849  85.387  1.00  0.00     0.282 C 
ATOM      9  C   UNL     1      22.900  21.772  86.578  1.00  0.00     0.178 C 
ATOM     10  C   UNL     1      24.113  21.676  87.553  1.00  0.00     0.177 C 
ATOM     11  O   UNL     1      23.159  21.195  85.305  1.00  0.00    -0.341 OA
ATOM     12  C   UNL     1      24.800  20.296  87.548  1.00  0.00     0.179 C 
ATOM     13  C   UNL     1      24.952  19.773  86.111  1.00  0.00     0.202 C 
BRANCH   9  14
ATOM     14  C   UNL     1      21.524  21.356  87.145  1.00  0.00     0.191 C 
BRANCH  14  15
ATOM     15  O   UNL     1      20.475  22.096  86.587  1.00  0.00    -0.394 OA
ATOM     16  H   UNL     1      20.747  22.306  85.655  1.00  0.00     0.210 HD
ENDBRANCH  14  15
ENDBRANCH   9  14
BRANCH  10  17
ATOM     17  O   UNL     1      23.740  22.021  88.864  1.00  0.00    -0.387 OA
ATOM     18  H   UNL     1      22.761  21.875  88.930  1.00  0.00     0.211 HD
ENDBRANCH  10  17
BRANCH  12  19
ATOM     19  O   UNL     1      24.077  19.384  88.332  1.00  0.00    -0.387 OA
ATOM     20  H   UNL     1      23.274  19.861  88.669  1.00  0.00     0.211 HD
ENDBRANCH  12  19
BRANCH  13  21
ATOM     21  O   UNL     1      25.909  20.546  85.434  1.00  0.00    -0.385 OA
ATOM     22  H   UNL     1      25.450  20.959  84.655  1.00  0.00     0.211 HD
ENDBRANCH  13  21
ENDBRANCH   7   8
ENDBRANCH   1   7
BRANCH   2  23
ATOM     23  C   UNL     1      20.927  19.796  83.565  1.00  0.00     0.191 C 
BRANCH  23  24
ATOM     24  O   UNL     1      19.917  20.206  82.687  1.00  0.00    -0.394 OA
ATOM     25  H   UNL     1      19.134  20.434  83.253  1.00  0.00     0.210 HD
ENDBRANCH  23  24
ENDBRANCH   2  23
BRANCH   6  26
ATOM     26  O   UNL     1      24.825  16.780  83.901  1.00  0.00    -0.387 OA
ATOM     27  H   UNL     1      24.769  17.301  84.743  1.00  0.00     0.211 HD
ENDBRANCH   6  26
BRANCH   5  28
ATOM     28  O   UNL     1      24.708  16.481  81.050  1.00  0.00    -0.385 OA
ATOM     29  H   UNL     1      24.706  15.710  81.677  1.00  0.00     0.211 HD
ENDBRANCH   5  28
BRANCH   4  30
ATOM     30  O   UNL     1      21.936  17.029  80.690  1.00  0.00    -0.341 OA
BRANCH  30  31
ATOM     31  C   UNL     1      21.362  17.090  79.392  1.00  0.00     0.184 C 
ATOM     32  C   UNL     1      20.024  16.308  79.361  1.00  0.00     0.178 C 
ATOM     33  C   UNL     1      22.348  16.453  78.393  1.00  0.00     0.180 C 
ATOM     34  O   UNL     1      19.474  16.299  78.052  1.00  0.00    -0.342 OA
ATOM     35  C   UNL     1      21.685  16.311  77.013  1.00  0.00     0.201 C 
ATOM     36  C   UNL     1      20.311  15.618  77.132  1.00  0.00     0.279 C 
BRANCH  32  37
ATOM     37  C   UNL     1      18.985  16.915  80.312  1.00  0.00     0.191 C 
BRANCH  37  38
ATOM     38  O   UNL     1      19.315  18.244  80.611  1.00  0.00    -0.394 OA
ATOM     39  H   UNL     1      20.306  18.287  80.622  1.00  0.00     0.210 HD
ENDBRANCH  37  38
ENDBRANCH  32  37
BRANCH  33  40
ATOM     40  O   UNL     1      22.770  15.191  78.851  1.00  0.00    -0.387 OA
ATOM     41  H   UNL     1      22.354  14.511  78.258  1.00  0.00     0.211 HD
ENDBRANCH  33  40
BRANCH  35  42
ATOM     42  O   UNL     1      22.511  15.587  76.139  1.00  0.00    -0.385 OA
ATOM     43  H   UNL     1      22.223  15.815  75.216  1.00  0.00     0.211 HD
ENDBRANCH  35  42
BRANCH  36  44
ATOM     44  O   UNL     1      20.437  14.262  77.490  1.00  0.00    -0.366 OA
ATOM     45  H   UNL     1      20.534  14.228  78.477  1.00  0.00     0.213 HD
ENDBRANCH  36  44
ENDBRANCH  30  31
ENDBRANCH   4  30
TORSDOF 18
ENDMDL
MODEL 9
REMARK VINA RESULT:    -5.013      1.890      3.108
REMARK INTER + INTRA:         -11.382
REMARK INTER:                  -9.220
REMARK INTRA:                  -2.162
REMARK UNBOUND:                -2.705
REMARK SMILES OC[C@@H]1O[C@@H](O[C@@H]2[C@H](O)[C@@H](O)[C@@H](O[C@H]3[C@@H](O)[C@@H](O)[C@@H](O)O[C@@H]3CO)O[C@@H]2CO)[C@@H](O)[C@H](O)[C@@H]1O
REMARK SMILES IDX 7 1 26 2 25 3 12 4 10 5 8 6 6 7 5 8 3 9 33 10 4 11 31 12
REMARK SMILES IDX 29 13 2 14 1 15 34 17 32 19 30 21 27 23 28 24 9 26 11 28
REMARK SMILES IDX 13 30 14 31 22 32 15 33 21 34 17 35 19 36 23 37 24 38 16 40
REMARK SMILES IDX 18 42 20 44
REMARK H PARENT 1 16 34 18 32 20 30 22 28 25 9 27 11 29 24 39 16 41 18 43
REMARK H PARENT 20 45
REMARK Flexibility Score: inf
ROOT
ATOM      1  C   UNL     1      21.944  19.513  83.564  1.00  0.00     0.184 C 
ATOM      2  C   UNL     1      22.908  18.639  82.732  1.00  0.00     0.178 C 
ATOM      3  O   UNL     1      22.453  17.295  82.678  1.00  0.00    -0.341 OA
ATOM      4  C   UNL     1      21.210  17.190  81.997  1.00  0.00     0.282 C 
ATOM      5  C   UNL     1      20.113  17.982  82.751  1.00  0.00     0.202 C 
ATOM      6  C   UNL     1      20.543  19.448  82.931  1.00  0.00     0.180 C 
ENDROOT
BRANCH   1   7
ATOM      7  O   UNL     1      21.889  19.015  84.897  1.00  0.00    -0.341 OA
BRANCH   7   8
ATOM      8  C   UNL     1      22.575  19.863  85.799  1.00  0.00     0.282 C 
ATOM      9  C   UNL     1      23.284  20.034  88.051  1.00  0.00     0.178 C 
ATOM     10  C   UNL     1      22.826  21.521  88.140  1.00  0.00     0.177 C 
ATOM     11  O   UNL     1      22.555  19.280  87.092  1.00  0.00    -0.341 OA
ATOM     12  C   UNL     1      22.608  22.182  86.765  1.00  0.00     0.179 C 
ATOM     13  C   UNL     1      21.867  21.226  85.817  1.00  0.00     0.202 C 
BRANCH   9  14
ATOM     14  C   UNL     1      24.807  19.785  87.963  1.00  0.00     0.191 C 
BRANCH  14  15
ATOM     15  O   UNL     1      25.401  20.502  86.917  1.00  0.00    -0.394 OA
ATOM     16  H   UNL     1      25.914  19.840  86.381  1.00  0.00     0.210 HD
ENDBRANCH  14  15
ENDBRANCH   9  14
BRANCH  10  17
ATOM     17  O   UNL     1      23.725  22.286  88.901  1.00  0.00    -0.387 OA
ATOM     18  H   UNL     1      24.576  22.318  88.392  1.00  0.00     0.211 HD
ENDBRANCH  10  17
BRANCH  12  19
ATOM     19  O   UNL     1      23.834  22.577  86.208  1.00  0.00    -0.387 OA
ATOM     20  H   UNL     1      24.545  22.298  86.843  1.00  0.00     0.211 HD
ENDBRANCH  12  19
BRANCH  13  21
ATOM     21  O   UNL     1      20.540  21.077  86.250  1.00  0.00    -0.385 OA
ATOM     22  H   UNL     1      20.573  20.659  87.151  1.00  0.00     0.211 HD
ENDBRANCH  13  21
ENDBRANCH   7   8
ENDBRANCH   1   7
BRANCH   2  23
ATOM     23  C   UNL     1      24.323  18.660  83.322  1.00  0.00     0.191 C 
BRANCH  23  24
ATOM     24  O   UNL     1      24.507  17.540  84.141  1.00  0.00    -0.394 OA
ATOM     25  H   UNL     1      24.964  16.861  83.581  1.00  0.00     0.210 HD
ENDBRANCH  23  24
ENDBRANCH   2  23
BRANCH   6  26
ATOM     26  O   UNL     1      19.625  20.127  83.749  1.00  0.00    -0.387 OA
ATOM     27  H   UNL     1      18.963  19.459  84.062  1.00  0.00     0.211 HD
ENDBRANCH   6  26
BRANCH   5  28
ATOM     28  O   UNL     1      18.893  17.928  82.060  1.00  0.00    -0.385 OA
ATOM     29  H   UNL     1      19.101  17.615  81.140  1.00  0.00     0.211 HD
ENDBRANCH   5  28
BRANCH   4  30
ATOM     30  O   UNL     1      21.356  17.647  80.656  1.00  0.00    -0.341 OA
BRANCH  30  31
ATOM     31  C   UNL     1      21.486  16.595  79.710  1.00  0.00     0.184 C 
ATOM     32  C   UNL     1      22.205  17.107  78.435  1.00  0.00     0.178 C 
ATOM     33  C   UNL     1      20.077  16.098  79.336  1.00  0.00     0.180 C 
ATOM     34  O   UNL     1      22.279  16.086  77.452  1.00  0.00    -0.342 OA
ATOM     35  C   UNL     1      20.159  15.104  78.165  1.00  0.00     0.201 C 
ATOM     36  C   UNL     1      20.993  15.688  77.006  1.00  0.00     0.279 C 
BRANCH  32  37
ATOM     37  C   UNL     1      23.631  17.586  78.736  1.00  0.00     0.191 C 
BRANCH  37  38
ATOM     38  O   UNL     1      24.102  17.002  79.920  1.00  0.00    -0.394 OA
ATOM     39  H   UNL     1      23.345  17.027  80.561  1.00  0.00     0.210 HD
ENDBRANCH  37  38
ENDBRANCH  32  37
BRANCH  33  40
ATOM     40  O   UNL     1      19.248  17.180  78.983  1.00  0.00    -0.387 OA
ATOM     41  H   UNL     1      19.284  17.265  77.994  1.00  0.00     0.211 HD
ENDBRANCH  33  40
BRANCH  35  42
ATOM     42  O   UNL     1      18.875  14.769  77.709  1.00  0.00    -0.385 OA
ATOM     43  H   UNL     1      18.737  13.807  77.918  1.00  0.00     0.211 HD
ENDBRANCH  35  42
BRANCH  36  44
ATOM     44  O   UNL     1      20.335  16.762  76.376  1.00  0.00    -0.366 OA
ATOM     45  H   UNL     1      20.513  17.572  76.919  1.00  0.00     0.213 HD
ENDBRANCH  36  44
ENDBRANCH  30  31
ENDBRANCH   4  30
TORSDOF 18
ENDMDL
