MODEL 1
REMARK VINA RESULT:    -2.768      0.000      0.000
REMARK INTER + INTRA:          -3.732
REMARK INTER:                  -3.577
REMARK INTRA:                  -0.155
REMARK UNBOUND:                -0.155
REMARK SMILES CCCCCCC(=O)[O-]
REMARK SMILES IDX 5 1 6 2 7 3 8 4 9 5 4 6 3 7 2 8 1 9
REMARK H PARENT
REMARK Flexibility Score: inf
ROOT
ATOM      1  C   UNL     1      -8.462  22.449  17.875  1.00  0.00     0.006 C 
ENDROOT
BRANCH   1   2
ATOM      2  C   UNL     1      -9.122  22.344  19.255  1.00  0.00     0.053 C 
BRANCH   2   3
ATOM      3  C   UNL     1      -8.156  21.790  20.255  1.00  0.00     0.041 C 
ATOM      4  O   UNL     1      -8.510  21.620  21.450  1.00  0.00    -0.550 OA
ATOM      5  O   UNL     1      -6.880  21.415  19.855  1.00  0.00    -0.550 OA
ENDBRANCH   2   3
ENDBRANCH   1   2
BRANCH   1   6
ATOM      6  C   UNL     1      -8.758  21.231  16.985  1.00  0.00     0.000 C 
BRANCH   6   7
ATOM      7  C   UNL     1      -7.482  20.608  16.392  1.00  0.00    -0.000 C 
BRANCH   7   8
ATOM      8  C   UNL     1      -7.261  21.004  14.924  1.00  0.00    -0.003 C 
ATOM      9  C   UNL     1      -5.788  20.975  14.519  1.00  0.00     0.004 C 
ENDBRANCH   7   8
ENDBRANCH   6   7
ENDBRANCH   1   6
TORSDOF 5
ENDMDL
MODEL 2
REMARK VINA RESULT:    -2.613      3.948      5.710
REMARK INTER + INTRA:          -3.532
REMARK INTER:                  -3.422
REMARK INTRA:                  -0.110
REMARK UNBOUND:                -0.155
REMARK SMILES CCCCCCC(=O)[O-]
REMARK SMILES IDX 5 1 6 2 7 3 8 4 9 5 4 6 3 7 2 8 1 9
REMARK H PARENT
REMARK Flexibility Score: inf
ROOT
ATOM      1  C   UNL     1      -3.459  20.339  15.531  1.00  0.00     0.006 C 
ENDROOT
BRANCH   1   2
ATOM      2  C   UNL     1      -2.687  20.015  16.817  1.00  0.00     0.053 C 
BRANCH   2   3
ATOM      3  C   UNL     1      -1.493  20.907  16.947  1.00  0.00     0.041 C 
ATOM      4  O   UNL     1      -1.173  21.376  18.070  1.00  0.00    -0.550 OA
ATOM      5  O   UNL     1      -0.704  21.181  15.837  1.00  0.00    -0.550 OA
ENDBRANCH   2   3
ENDBRANCH   1   2
BRANCH   1   6
ATOM      6  C   UNL     1      -4.982  20.239  15.717  1.00  0.00     0.000 C 
BRANCH   6   7
ATOM      7  C   UNL     1      -5.762  20.958  14.603  1.00  0.00    -0.000 C 
BRANCH   7   8
ATOM      8  C   UNL     1      -7.277  20.964  14.855  1.00  0.00    -0.003 C 
ATOM      9  C   UNL     1      -7.634  21.303  16.302  1.00  0.00     0.004 C 
ENDBRANCH   7   8
ENDBRANCH   6   7
ENDBRANCH   1   6
TORSDOF 5
ENDMDL
MODEL 3
REMARK VINA RESULT:    -2.545      2.225      4.599
REMARK INTER + INTRA:          -3.443
REMARK INTER:                  -3.162
REMARK INTRA:                  -0.281
REMARK UNBOUND:                -0.155
REMARK SMILES CCCCCCC(=O)[O-]
REMARK SMILES IDX 5 1 6 2 7 3 8 4 9 5 4 6 3 7 2 8 1 9
REMARK H PARENT
REMARK Flexibility Score: inf
ROOT
ATOM      1  C   UNL     1      -9.125  21.204  17.411  1.00  0.00     0.006 C 
ENDROOT
BRANCH   1   2
ATOM      2  C   UNL     1      -8.708  20.787  15.995  1.00  0.00     0.053 C 
BRANCH   2   3
ATOM      3  C   UNL     1      -7.217  20.792  15.866  1.00  0.00     0.041 C 
ATOM      4  O   UNL     1      -6.669  21.352  14.882  1.00  0.00    -0.550 OA
ATOM      5  O   UNL     1      -6.431  20.221  16.859  1.00  0.00    -0.550 OA
ENDBRANCH   2   3
ENDBRANCH   1   2
BRANCH   1   6
ATOM      6  C   UNL     1      -8.857  22.691  17.691  1.00  0.00     0.000 C 
BRANCH   6   7
ATOM      7  C   UNL     1      -8.721  22.995  19.193  1.00  0.00    -0.000 C 
BRANCH   7   8
ATOM      8  C   UNL     1      -7.851  21.962  19.926  1.00  0.00    -0.003 C 
ATOM      9  C   UNL     1      -8.481  21.480  21.232  1.00  0.00     0.004 C 
ENDBRANCH   7   8
ENDBRANCH   6   7
ENDBRANCH   1   6
TORSDOF 5
ENDMDL
MODEL 4
REMARK VINA RESULT:    -2.243     14.540     16.603
REMARK INTER + INTRA:          -3.054
REMARK INTER:                  -2.872
REMARK INTRA:                  -0.182
REMARK UNBOUND:                -0.155
REMARK SMILES CCCCCCC(=O)[O-]
REMARK SMILES IDX 5 1 6 2 7 3 8 4 9 5 4 6 3 7 2 8 1 9
REMARK H PARENT
REMARK Flexibility Score: inf
ROOT
ATOM      1  C   UNL     1       7.991  20.408  14.173  1.00  0.00     0.006 C 
ENDROOT
BRANCH   1   2
ATOM      2  C   UNL     1       7.314  20.395  15.549  1.00  0.00     0.053 C 
BRANCH   2   3
ATOM      3  C   UNL     1       5.874  20.784  15.426  1.00  0.00     0.041 C 
ATOM      4  O   UNL     1       5.288  21.350  16.385  1.00  0.00    -0.550 OA
ATOM      5  O   UNL     1       5.194  20.566  14.235  1.00  0.00    -0.550 OA
ENDBRANCH   2   3
ENDBRANCH   1   2
BRANCH   1   6
ATOM      6  C   UNL     1       9.512  20.612  14.265  1.00  0.00     0.000 C 
BRANCH   6   7
ATOM      7  C   UNL     1      10.023  21.694  13.298  1.00  0.00    -0.000 C 
BRANCH   7   8
ATOM      8  C   UNL     1      11.120  22.571  13.922  1.00  0.00    -0.003 C 
ATOM      9  C   UNL     1      11.125  22.513  15.449  1.00  0.00     0.004 C 
ENDBRANCH   7   8
ENDBRANCH   6   7
ENDBRANCH   1   6
TORSDOF 5
ENDMDL
MODEL 5
REMARK VINA RESULT:    -2.222     15.639     17.778
REMARK INTER + INTRA:          -3.026
REMARK INTER:                  -2.908
REMARK INTRA:                  -0.118
REMARK UNBOUND:                -0.155
REMARK SMILES CCCCCCC(=O)[O-]
REMARK SMILES IDX 5 1 6 2 7 3 8 4 9 5 4 6 3 7 2 8 1 9
REMARK H PARENT
REMARK Flexibility Score: inf
ROOT
ATOM      1  C   UNL     1       9.214  21.181  13.401  1.00  0.00     0.006 C 
ENDROOT
BRANCH   1   2
ATOM      2  C   UNL     1       8.759  20.061  14.346  1.00  0.00     0.053 C 
BRANCH   2   3
ATOM      3  C   UNL     1       7.411  20.373  14.916  1.00  0.00     0.041 C 
ATOM      4  O   UNL     1       6.408  20.454  14.161  1.00  0.00    -0.550 OA
ATOM      5  O   UNL     1       7.255  20.527  16.287  1.00  0.00    -0.550 OA
ENDBRANCH   2   3
ENDBRANCH   1   2
BRANCH   1   6
ATOM      6  C   UNL     1      10.728  21.438  13.476  1.00  0.00     0.000 C 
BRANCH   6   7
ATOM      7  C   UNL     1      11.089  22.916  13.245  1.00  0.00    -0.000 C 
BRANCH   7   8
ATOM      8  C   UNL     1      11.039  23.309  11.761  1.00  0.00    -0.003 C 
ATOM      9  C   UNL     1      10.722  24.789  11.553  1.00  0.00     0.004 C 
ENDBRANCH   7   8
ENDBRANCH   6   7
ENDBRANCH   1   6
TORSDOF 5
ENDMDL
MODEL 6
REMARK VINA RESULT:    -2.190     15.122     17.241
REMARK INTER + INTRA:          -2.985
REMARK INTER:                  -2.785
REMARK INTRA:                  -0.200
REMARK UNBOUND:                -0.155
REMARK SMILES CCCCCCC(=O)[O-]
REMARK SMILES IDX 5 1 6 2 7 3 8 4 9 5 4 6 3 7 2 8 1 9
REMARK H PARENT
REMARK Flexibility Score: inf
ROOT
ATOM      1  C   UNL     1       8.739  20.857  13.695  1.00  0.00     0.006 C 
ENDROOT
BRANCH   1   2
ATOM      2  C   UNL     1      10.141  20.734  14.305  1.00  0.00     0.053 C 
BRANCH   2   3
ATOM      3  C   UNL     1      10.720  22.090  14.562  1.00  0.00     0.041 C 
ATOM      4  O   UNL     1      10.886  22.493  15.742  1.00  0.00    -0.550 OA
ATOM      5  O   UNL     1      11.121  22.888  13.499  1.00  0.00    -0.550 OA
ENDBRANCH   2   3
ENDBRANCH   1   2
BRANCH   1   6
ATOM      6  C   UNL     1       7.705  19.972  14.411  1.00  0.00     0.000 C 
BRANCH   6   7
ATOM      7  C   UNL     1       7.423  20.437  15.850  1.00  0.00    -0.000 C 
BRANCH   7   8
ATOM      8  C   UNL     1       6.015  21.027  16.012  1.00  0.00    -0.003 C 
ATOM      9  C   UNL     1       5.012  20.445  15.016  1.00  0.00     0.004 C 
ENDBRANCH   7   8
ENDBRANCH   6   7
ENDBRANCH   1   6
TORSDOF 5
ENDMDL
MODEL 7
REMARK VINA RESULT:    -2.123      2.590      5.165
REMARK INTER + INTRA:          -2.899
REMARK INTER:                  -2.740
REMARK INTRA:                  -0.159
REMARK UNBOUND:                -0.155
REMARK SMILES CCCCCCC(=O)[O-]
REMARK SMILES IDX 5 1 6 2 7 3 8 4 9 5 4 6 3 7 2 8 1 9
REMARK H PARENT
REMARK Flexibility Score: inf
ROOT
ATOM      1  C   UNL     1      -7.729  21.779  19.804  1.00  0.00     0.006 C 
ENDROOT
BRANCH   1   2
ATOM      2  C   UNL     1      -8.047  20.937  18.562  1.00  0.00     0.053 C 
BRANCH   2   3
ATOM      3  C   UNL     1      -8.306  21.823  17.384  1.00  0.00     0.041 C 
ATOM      4  O   UNL     1      -7.921  21.478  16.237  1.00  0.00    -0.550 OA
ATOM      5  O   UNL     1      -9.015  23.006  17.545  1.00  0.00    -0.550 OA
ENDBRANCH   2   3
ENDBRANCH   1   2
BRANCH   1   6
ATOM      6  C   UNL     1      -8.908  21.850  20.788  1.00  0.00     0.000 C 
BRANCH   6   7
ATOM      7  C   UNL     1      -8.575  21.232  22.157  1.00  0.00    -0.000 C 
BRANCH   7   8
ATOM      8  C   UNL     1      -7.431  20.210  22.078  1.00  0.00    -0.003 C 
ATOM      9  C   UNL     1      -6.842  19.875  23.448  1.00  0.00     0.004 C 
ENDBRANCH   7   8
ENDBRANCH   6   7
ENDBRANCH   1   6
TORSDOF 5
ENDMDL
MODEL 8
REMARK VINA RESULT:    -2.091     15.906     18.167
REMARK INTER + INTRA:          -2.857
REMARK INTER:                  -2.710
REMARK INTRA:                  -0.146
REMARK UNBOUND:                -0.155
REMARK SMILES CCCCCCC(=O)[O-]
REMARK SMILES IDX 5 1 6 2 7 3 8 4 9 5 4 6 3 7 2 8 1 9
REMARK H PARENT
REMARK Flexibility Score: inf
ROOT
ATOM      1  C   UNL     1       9.285  21.402  13.250  1.00  0.00     0.006 C 
ENDROOT
BRANCH   1   2
ATOM      2  C   UNL     1      10.600  22.190  13.296  1.00  0.00     0.053 C 
BRANCH   2   3
ATOM      3  C   UNL     1      10.840  22.882  11.991  1.00  0.00     0.041 C 
ATOM      4  O   UNL     1      11.122  22.215  10.962  1.00  0.00    -0.550 OA
ATOM      5  O   UNL     1      10.705  24.262  11.900  1.00  0.00    -0.550 OA
ENDBRANCH   2   3
ENDBRANCH   1   2
BRANCH   1   6
ATOM      6  C   UNL     1       9.277  20.210  14.220  1.00  0.00     0.000 C 
BRANCH   6   7
ATOM      7  C   UNL     1       8.019  20.177  15.106  1.00  0.00    -0.000 C 
BRANCH   7   8
ATOM      8  C   UNL     1       6.721  20.261  14.288  1.00  0.00    -0.003 C 
ATOM      9  C   UNL     1       5.565  20.874  15.076  1.00  0.00     0.004 C 
ENDBRANCH   7   8
ENDBRANCH   6   7
ENDBRANCH   1   6
TORSDOF 5
ENDMDL
MODEL 9
REMARK VINA RESULT:    -2.039     16.892     19.110
REMARK INTER + INTRA:          -2.790
REMARK INTER:                  -2.671
REMARK INTRA:                  -0.119
REMARK UNBOUND:                -0.155
REMARK SMILES CCCCCCC(=O)[O-]
REMARK SMILES IDX 5 1 6 2 7 3 8 4 9 5 4 6 3 7 2 8 1 9
REMARK H PARENT
REMARK Flexibility Score: inf
ROOT
ATOM      1  C   UNL     1      10.497  21.602  11.584  1.00  0.00     0.006 C 
ENDROOT
BRANCH   1   2
ATOM      2  C   UNL     1      10.956  22.868  12.317  1.00  0.00     0.053 C 
BRANCH   2   3
ATOM      3  C   UNL     1      10.969  24.037  11.383  1.00  0.00     0.041 C 
ATOM      4  O   UNL     1      11.125  23.859  10.148  1.00  0.00    -0.550 OA
ATOM      5  O   UNL     1      10.759  25.320  11.872  1.00  0.00    -0.550 OA
ENDBRANCH   2   3
ENDBRANCH   1   2
BRANCH   1   6
ATOM      6  C   UNL     1      10.008  20.507  12.546  1.00  0.00     0.000 C 
BRANCH   6   7
ATOM      7  C   UNL     1       8.867  20.988  13.459  1.00  0.00    -0.000 C 
BRANCH   7   8
ATOM      8  C   UNL     1       8.614  20.035  14.637  1.00  0.00    -0.003 C 
ATOM      9  C   UNL     1       7.429  20.466  15.501  1.00  0.00     0.004 C 
ENDBRANCH   7   8
ENDBRANCH   6   7
ENDBRANCH   1   6
TORSDOF 5
ENDMDL
