MODEL 1
REMARK VINA RESULT:    -6.277      0.000      0.000
REMARK INTER + INTRA:          -9.116
REMARK INTER:                  -8.479
REMARK INTRA:                  -0.638
REMARK UNBOUND:                -0.638
REMARK SMILES COc1ccc(-c2cc(=O)c3c(OC)c(OC)c(OC)c(OC)c3o2)cc1
REMARK SMILES IDX 7 1 8 2 9 3 10 4 11 5 24 6 25 7 21 8 18 9 15 10 12 11 6 12
REMARK SMILES IDX 3 13 4 14 27 15 5 16 26 17 2 18 1 19 22 20 23 21 13 22 14 23
REMARK SMILES IDX 19 24 20 25 16 26 17 27
REMARK H PARENT
REMARK Flexibility Score: inf
ROOT
ATOM      1  C   UNL     1     -23.495  90.135 -28.094  1.00  0.00     0.138 A 
ATOM      2  C   UNL     1     -22.956  89.847 -29.352  1.00  0.00     0.100 A 
ATOM      3  C   UNL     1     -23.036  90.800 -30.363  1.00  0.00     0.197 A 
ATOM      4  O   UNL     1     -22.539  90.530 -31.489  1.00  0.00    -0.289 OA
ATOM      5  C   UNL     1     -23.659  92.042 -30.107  1.00  0.00     0.115 A 
ATOM      6  C   UNL     1     -24.177  92.269 -28.807  1.00  0.00     0.188 A 
ATOM      7  O   UNL     1     -24.064  91.319 -27.881  1.00  0.00    -0.452 OA
ATOM      8  C   UNL     1     -24.827  93.493 -28.499  1.00  0.00     0.209 A 
ATOM      9  C   UNL     1     -24.921  94.496 -29.497  1.00  0.00     0.211 A 
ATOM     10  C   UNL     1     -24.377  94.274 -30.769  1.00  0.00     0.208 A 
ATOM     11  C   UNL     1     -23.797  93.036 -31.098  1.00  0.00     0.179 A 
ENDROOT
BRANCH   1  12
ATOM     12  C   UNL     1     -23.442  89.151 -26.987  1.00  0.00     0.018 A 
ATOM     13  C   UNL     1     -23.362  87.309 -24.847  1.00  0.00     0.118 A 
ATOM     14  C   UNL     1     -23.017  88.658 -24.640  1.00  0.00     0.047 A 
ATOM     15  C   UNL     1     -23.751  86.894 -26.125  1.00  0.00     0.047 A 
ATOM     16  C   UNL     1     -23.061  89.567 -25.701  1.00  0.00     0.016 A 
ATOM     17  C   UNL     1     -23.794  87.803 -27.186  1.00  0.00     0.016 A 
BRANCH  13  18
ATOM     18  O   UNL     1     -23.336  86.358 -23.817  1.00  0.00    -0.497 OA
ATOM     19  C   UNL     1     -22.147  85.873 -23.202  1.00  0.00     0.278 C 
ENDBRANCH  13  18
ENDBRANCH   1  12
BRANCH   8  20
ATOM     20  O   UNL     1     -25.390  93.754 -27.235  1.00  0.00    -0.490 OA
ATOM     21  C   UNL     1     -26.744  93.573 -26.840  1.00  0.00     0.278 C 
ENDBRANCH   8  20
BRANCH  11  22
ATOM     22  O   UNL     1     -23.374  92.783 -32.408  1.00  0.00    -0.492 OA
ATOM     23  C   UNL     1     -24.295  92.564 -33.472  1.00  0.00     0.278 C 
ENDBRANCH  11  22
BRANCH   9  24
ATOM     24  O   UNL     1     -25.527  95.752 -29.293  1.00  0.00    -0.490 OA
ATOM     25  C   UNL     1     -25.064  96.803 -28.452  1.00  0.00     0.279 C 
ENDBRANCH   9  24
BRANCH  10  26
ATOM     26  O   UNL     1     -24.428  95.322 -31.696  1.00  0.00    -0.490 OA
ATOM     27  C   UNL     1     -23.353  96.237 -31.881  1.00  0.00     0.278 C 
ENDBRANCH  10  26
TORSDOF 6
ENDMDL
MODEL 2
REMARK VINA RESULT:    -5.974      3.037     10.514
REMARK INTER + INTRA:          -8.707
REMARK INTER:                  -8.044
REMARK INTRA:                  -0.662
REMARK UNBOUND:                -0.638
REMARK SMILES COc1ccc(-c2cc(=O)c3c(OC)c(OC)c(OC)c(OC)c3o2)cc1
REMARK SMILES IDX 7 1 8 2 9 3 10 4 11 5 24 6 25 7 21 8 18 9 15 10 12 11 6 12
REMARK SMILES IDX 3 13 4 14 27 15 5 16 26 17 2 18 1 19 22 20 23 21 13 22 14 23
REMARK SMILES IDX 19 24 20 25 16 26 17 27
REMARK H PARENT
REMARK Flexibility Score: inf
ROOT
ATOM      1  C   UNL     1     -23.194  87.007 -25.344  1.00  0.00     0.138 A 
ATOM      2  C   UNL     1     -22.159  87.112 -24.409  1.00  0.00     0.100 A 
ATOM      3  C   UNL     1     -22.022  86.132 -23.431  1.00  0.00     0.197 A 
ATOM      4  O   UNL     1     -21.080  86.234 -22.599  1.00  0.00    -0.289 OA
ATOM      5  C   UNL     1     -22.926  85.047 -23.394  1.00  0.00     0.115 A 
ATOM      6  C   UNL     1     -23.947  85.001 -24.377  1.00  0.00     0.188 A 
ATOM      7  O   UNL     1     -24.022  85.967 -25.290  1.00  0.00    -0.452 OA
ATOM      8  C   UNL     1     -24.893  83.942 -24.378  1.00  0.00     0.209 A 
ATOM      9  C   UNL     1     -24.783  82.916 -23.406  1.00  0.00     0.211 A 
ATOM     10  C   UNL     1     -23.752  82.954 -22.459  1.00  0.00     0.208 A 
ATOM     11  C   UNL     1     -22.858  84.038 -22.411  1.00  0.00     0.179 A 
ENDROOT
BRANCH   1  12
ATOM     12  C   UNL     1     -23.387  88.029 -26.400  1.00  0.00     0.018 A 
ATOM     13  C   UNL     1     -23.715  90.001 -28.395  1.00  0.00     0.118 A 
ATOM     14  C   UNL     1     -23.404  90.370 -27.073  1.00  0.00     0.047 A 
ATOM     15  C   UNL     1     -23.854  88.645 -28.709  1.00  0.00     0.047 A 
ATOM     16  C   UNL     1     -23.239  89.391 -26.089  1.00  0.00     0.016 A 
ATOM     17  C   UNL     1     -23.690  87.666 -27.725  1.00  0.00     0.016 A 
BRANCH  13  18
ATOM     18  O   UNL     1     -23.890  90.944 -29.419  1.00  0.00    -0.497 OA
ATOM     19  C   UNL     1     -24.020  92.346 -29.205  1.00  0.00     0.278 C 
ENDBRANCH  13  18
ENDBRANCH   1  12
BRANCH   8  20
ATOM     20  O   UNL     1     -25.946  83.869 -25.310  1.00  0.00    -0.490 OA
ATOM     21  C   UNL     1     -27.196  84.545 -25.253  1.00  0.00     0.278 C 
ENDBRANCH   8  20
BRANCH  11  22
ATOM     22  O   UNL     1     -21.913  84.127 -21.381  1.00  0.00    -0.492 OA
ATOM     23  C   UNL     1     -22.287  84.385 -20.031  1.00  0.00     0.278 C 
ENDBRANCH  11  22
BRANCH   9  24
ATOM     24  O   UNL     1     -25.655  81.811 -23.328  1.00  0.00    -0.490 OA
ATOM     25  C   UNL     1     -26.960  81.785 -22.760  1.00  0.00     0.279 C 
ENDBRANCH   9  24
BRANCH  10  26
ATOM     26  O   UNL     1     -23.640  81.880 -21.567  1.00  0.00    -0.490 OA
ATOM     27  C   UNL     1     -22.728  80.806 -21.770  1.00  0.00     0.278 C 
ENDBRANCH  10  26
TORSDOF 6
ENDMDL
MODEL 3
REMARK VINA RESULT:    -5.552      2.914      7.878
REMARK INTER + INTRA:          -8.138
REMARK INTER:                  -7.653
REMARK INTRA:                  -0.485
REMARK UNBOUND:                -0.638
REMARK SMILES COc1ccc(-c2cc(=O)c3c(OC)c(OC)c(OC)c(OC)c3o2)cc1
REMARK SMILES IDX 7 1 8 2 9 3 10 4 11 5 24 6 25 7 21 8 18 9 15 10 12 11 6 12
REMARK SMILES IDX 3 13 4 14 27 15 5 16 26 17 2 18 1 19 22 20 23 21 13 22 14 23
REMARK SMILES IDX 19 24 20 25 16 26 17 27
REMARK H PARENT
REMARK Flexibility Score: inf
ROOT
ATOM      1  C   UNL     1     -24.768  92.229 -28.366  1.00  0.00     0.138 A 
ATOM      2  C   UNL     1     -23.735  91.321 -28.114  1.00  0.00     0.100 A 
ATOM      3  C   UNL     1     -24.006  90.164 -27.390  1.00  0.00     0.197 A 
ATOM      4  O   UNL     1     -23.067  89.350 -27.178  1.00  0.00    -0.289 OA
ATOM      5  C   UNL     1     -25.316  89.922 -26.919  1.00  0.00     0.115 A 
ATOM      6  C   UNL     1     -26.315  90.883 -27.216  1.00  0.00     0.188 A 
ATOM      7  O   UNL     1     -25.994  91.967 -27.919  1.00  0.00    -0.452 OA
ATOM      8  C   UNL     1     -27.645  90.699 -26.755  1.00  0.00     0.209 A 
ATOM      9  C   UNL     1     -27.967  89.528 -26.022  1.00  0.00     0.211 A 
ATOM     10  C   UNL     1     -26.979  88.570 -25.761  1.00  0.00     0.208 A 
ATOM     11  C   UNL     1     -25.646  88.783 -26.155  1.00  0.00     0.179 A 
ENDROOT
BRANCH   1  12
ATOM     12  C   UNL     1     -24.529  93.480 -29.125  1.00  0.00     0.018 A 
ATOM     13  C   UNL     1     -24.097  95.841 -30.612  1.00  0.00     0.118 A 
ATOM     14  C   UNL     1     -23.864  94.581 -31.193  1.00  0.00     0.047 A 
ATOM     15  C   UNL     1     -24.550  95.909 -29.291  1.00  0.00     0.047 A 
ATOM     16  C   UNL     1     -24.083  93.414 -30.455  1.00  0.00     0.016 A 
ATOM     17  C   UNL     1     -24.768  94.743 -28.552  1.00  0.00     0.016 A 
BRANCH  13  18
ATOM     18  O   UNL     1     -23.893  97.041 -31.310  1.00  0.00    -0.497 OA
ATOM     19  C   UNL     1     -23.660  97.125 -32.712  1.00  0.00     0.278 C 
ENDBRANCH  13  18
ENDBRANCH   1  12
BRANCH   8  20
ATOM     20  O   UNL     1     -28.666  91.639 -26.993  1.00  0.00    -0.490 OA
ATOM     21  C   UNL     1     -29.489  91.745 -28.147  1.00  0.00     0.278 C 
ENDBRANCH   8  20
BRANCH  11  22
ATOM     22  O   UNL     1     -24.646  87.880 -25.776  1.00  0.00    -0.492 OA
ATOM     23  C   UNL     1     -24.026  87.930 -24.495  1.00  0.00     0.278 C 
ENDBRANCH  11  22
BRANCH   9  24
ATOM     24  O   UNL     1     -29.257  89.237 -25.534  1.00  0.00    -0.490 OA
ATOM     25  C   UNL     1     -30.335  88.650 -26.254  1.00  0.00     0.279 C 
ENDBRANCH   9  24
BRANCH  10  26
ATOM     26  O   UNL     1     -27.362  87.396 -25.101  1.00  0.00    -0.490 OA
ATOM     27  C   UNL     1     -27.444  87.305 -23.681  1.00  0.00     0.278 C 
ENDBRANCH  10  26
TORSDOF 6
ENDMDL
MODEL 4
REMARK VINA RESULT:    -5.442      2.969      8.012
REMARK INTER + INTRA:          -7.988
REMARK INTER:                  -7.608
REMARK INTRA:                  -0.380
REMARK UNBOUND:                -0.638
REMARK SMILES COc1ccc(-c2cc(=O)c3c(OC)c(OC)c(OC)c(OC)c3o2)cc1
REMARK SMILES IDX 7 1 8 2 9 3 10 4 11 5 24 6 25 7 21 8 18 9 15 10 12 11 6 12
REMARK SMILES IDX 3 13 4 14 27 15 5 16 26 17 2 18 1 19 22 20 23 21 13 22 14 23
REMARK SMILES IDX 19 24 20 25 16 26 17 27
REMARK H PARENT
REMARK Flexibility Score: inf
ROOT
ATOM      1  C   UNL     1     -24.515  90.839 -27.648  1.00  0.00     0.138 A 
ATOM      2  C   UNL     1     -23.448  90.058 -27.191  1.00  0.00     0.100 A 
ATOM      3  C   UNL     1     -23.679  89.093 -26.216  1.00  0.00     0.197 A 
ATOM      4  O   UNL     1     -22.710  88.391 -25.819  1.00  0.00    -0.289 OA
ATOM      5  C   UNL     1     -24.983  88.914 -25.701  1.00  0.00     0.115 A 
ATOM      6  C   UNL     1     -26.017  89.737 -26.214  1.00  0.00     0.188 A 
ATOM      7  O   UNL     1     -25.734  90.638 -27.152  1.00  0.00    -0.452 OA
ATOM      8  C   UNL     1     -27.343  89.611 -25.722  1.00  0.00     0.209 A 
ATOM      9  C   UNL     1     -27.623  88.632 -24.735  1.00  0.00     0.211 A 
ATOM     10  C   UNL     1     -26.600  87.803 -24.257  1.00  0.00     0.208 A 
ATOM     11  C   UNL     1     -25.274  87.974 -24.691  1.00  0.00     0.179 A 
ENDROOT
BRANCH   1  12
ATOM     12  C   UNL     1     -24.320  91.886 -28.680  1.00  0.00     0.018 A 
ATOM     13  C   UNL     1     -23.927  93.909 -30.611  1.00  0.00     0.118 A 
ATOM     14  C   UNL     1     -24.363  94.237 -29.314  1.00  0.00     0.047 A 
ATOM     15  C   UNL     1     -23.686  92.569 -30.930  1.00  0.00     0.047 A 
ATOM     16  C   UNL     1     -24.554  93.233 -28.360  1.00  0.00     0.016 A 
ATOM     17  C   UNL     1     -23.877  91.565 -29.976  1.00  0.00     0.016 A 
BRANCH  13  18
ATOM     18  O   UNL     1     -23.720  94.878 -31.604  1.00  0.00    -0.497 OA
ATOM     19  C   UNL     1     -23.715  96.282 -31.366  1.00  0.00     0.278 C 
ENDBRANCH  13  18
ENDBRANCH   1  12
BRANCH   8  20
ATOM     20  O   UNL     1     -28.398  90.426 -26.173  1.00  0.00    -0.490 OA
ATOM     21  C   UNL     1     -29.285  90.169 -27.254  1.00  0.00     0.278 C 
ENDBRANCH   8  20
BRANCH  11  22
ATOM     22  O   UNL     1     -24.242  87.226 -24.112  1.00  0.00    -0.492 OA
ATOM     23  C   UNL     1     -24.003  85.866 -24.461  1.00  0.00     0.278 C 
ENDBRANCH  11  22
BRANCH   9  24
ATOM     24  O   UNL     1     -28.905  88.410 -24.192  1.00  0.00    -0.490 OA
ATOM     25  C   UNL     1     -29.480  89.049 -23.058  1.00  0.00     0.279 C 
ENDBRANCH   9  24
BRANCH  10  26
ATOM     26  O   UNL     1     -26.941  86.802 -23.340  1.00  0.00    -0.490 OA
ATOM     27  C   UNL     1     -27.458  85.537 -23.740  1.00  0.00     0.278 C 
ENDBRANCH  10  26
TORSDOF 6
ENDMDL
MODEL 5
REMARK VINA RESULT:    -5.441      5.060      8.250
REMARK INTER + INTRA:          -7.987
REMARK INTER:                  -7.531
REMARK INTRA:                  -0.456
REMARK UNBOUND:                -0.638
REMARK SMILES COc1ccc(-c2cc(=O)c3c(OC)c(OC)c(OC)c(OC)c3o2)cc1
REMARK SMILES IDX 7 1 8 2 9 3 10 4 11 5 24 6 25 7 21 8 18 9 15 10 12 11 6 12
REMARK SMILES IDX 3 13 4 14 27 15 5 16 26 17 2 18 1 19 22 20 23 21 13 22 14 23
REMARK SMILES IDX 19 24 20 25 16 26 17 27
REMARK H PARENT
REMARK Flexibility Score: inf
ROOT
ATOM      1  C   UNL     1     -23.042  84.641 -23.836  1.00  0.00     0.138 A 
ATOM      2  C   UNL     1     -22.255  85.748 -24.168  1.00  0.00     0.100 A 
ATOM      3  C   UNL     1     -22.870  86.969 -24.426  1.00  0.00     0.197 A 
ATOM      4  O   UNL     1     -22.148  87.960 -24.716  1.00  0.00    -0.289 OA
ATOM      5  C   UNL     1     -24.278  87.075 -24.352  1.00  0.00     0.115 A 
ATOM      6  C   UNL     1     -25.012  85.913 -24.005  1.00  0.00     0.188 A 
ATOM      7  O   UNL     1     -24.365  84.775 -23.763  1.00  0.00    -0.452 OA
ATOM      8  C   UNL     1     -26.430  85.957 -23.931  1.00  0.00     0.209 A 
ATOM      9  C   UNL     1     -27.096  87.184 -24.177  1.00  0.00     0.211 A 
ATOM     10  C   UNL     1     -26.359  88.334 -24.488  1.00  0.00     0.208 A 
ATOM     11  C   UNL     1     -24.961  88.276 -24.632  1.00  0.00     0.179 A 
ENDROOT
BRANCH   1  12
ATOM     12  C   UNL     1     -22.436  83.316 -23.559  1.00  0.00     0.018 A 
ATOM     13  C   UNL     1     -21.317  80.784 -22.999  1.00  0.00     0.118 A 
ATOM     14  C   UNL     1     -21.805  81.594 -21.957  1.00  0.00     0.047 A 
ATOM     15  C   UNL     1     -21.398  81.248 -24.316  1.00  0.00     0.047 A 
ATOM     16  C   UNL     1     -22.362  82.845 -22.238  1.00  0.00     0.016 A 
ATOM     17  C   UNL     1     -21.953  82.499 -24.598  1.00  0.00     0.016 A 
BRANCH  13  18
ATOM     18  O   UNL     1     -20.751  79.522 -22.770  1.00  0.00    -0.497 OA
ATOM     19  C   UNL     1     -20.903  78.403 -23.638  1.00  0.00     0.278 C 
ENDBRANCH  13  18
ENDBRANCH   1  12
BRANCH   8  20
ATOM     20  O   UNL     1     -27.207  84.824 -23.625  1.00  0.00    -0.490 OA
ATOM     21  C   UNL     1     -27.763  83.887 -24.538  1.00  0.00     0.278 C 
ENDBRANCH   8  20
BRANCH  11  22
ATOM     22  O   UNL     1     -24.251  89.400 -25.069  1.00  0.00    -0.492 OA
ATOM     23  C   UNL     1     -24.104  89.713 -26.451  1.00  0.00     0.278 C 
ENDBRANCH  11  22
BRANCH   9  24
ATOM     24  O   UNL     1     -28.495  87.345 -24.111  1.00  0.00    -0.490 OA
ATOM     25  C   UNL     1     -29.290  87.483 -22.939  1.00  0.00     0.279 C 
ENDBRANCH   9  24
BRANCH  10  26
ATOM     26  O   UNL     1     -27.056  89.537 -24.648  1.00  0.00    -0.490 OA
ATOM     27  C   UNL     1     -27.624  89.937 -25.892  1.00  0.00     0.278 C 
ENDBRANCH  10  26
TORSDOF 6
ENDMDL
MODEL 6
REMARK VINA RESULT:    -5.386      3.636      8.796
REMARK INTER + INTRA:          -7.913
REMARK INTER:                  -7.254
REMARK INTRA:                  -0.658
REMARK UNBOUND:                -0.638
REMARK SMILES COc1ccc(-c2cc(=O)c3c(OC)c(OC)c(OC)c(OC)c3o2)cc1
REMARK SMILES IDX 7 1 8 2 9 3 10 4 11 5 24 6 25 7 21 8 18 9 15 10 12 11 6 12
REMARK SMILES IDX 3 13 4 14 27 15 5 16 26 17 2 18 1 19 22 20 23 21 13 22 14 23
REMARK SMILES IDX 19 24 20 25 16 26 17 27
REMARK H PARENT
REMARK Flexibility Score: inf
ROOT
ATOM      1  C   UNL     1     -26.948  91.466 -26.739  1.00  0.00     0.138 A 
ATOM      2  C   UNL     1     -28.304  91.206 -26.959  1.00  0.00     0.100 A 
ATOM      3  C   UNL     1     -28.867  90.042 -26.445  1.00  0.00     0.197 A 
ATOM      4  O   UNL     1     -30.093  89.824 -26.644  1.00  0.00    -0.289 OA
ATOM      5  C   UNL     1     -28.065  89.140 -25.709  1.00  0.00     0.115 A 
ATOM      6  C   UNL     1     -26.700  89.471 -25.519  1.00  0.00     0.188 A 
ATOM      7  O   UNL     1     -26.222  90.603 -26.032  1.00  0.00    -0.452 OA
ATOM      8  C   UNL     1     -25.844  88.595 -24.802  1.00  0.00     0.209 A 
ATOM      9  C   UNL     1     -26.380  87.403 -24.251  1.00  0.00     0.211 A 
ATOM     10  C   UNL     1     -27.737  87.101 -24.417  1.00  0.00     0.208 A 
ATOM     11  C   UNL     1     -28.570  87.931 -25.188  1.00  0.00     0.179 A 
ENDROOT
BRANCH   1  12
ATOM     12  C   UNL     1     -26.299  92.687 -27.273  1.00  0.00     0.018 A 
ATOM     13  C   UNL     1     -25.058  95.031 -28.243  1.00  0.00     0.118 A 
ATOM     14  C   UNL     1     -26.028  95.107 -27.226  1.00  0.00     0.047 A 
ATOM     15  C   UNL     1     -24.712  93.780 -28.762  1.00  0.00     0.047 A 
ATOM     16  C   UNL     1     -26.638  93.944 -26.746  1.00  0.00     0.016 A 
ATOM     17  C   UNL     1     -25.322  92.617 -28.283  1.00  0.00     0.016 A 
BRANCH  13  18
ATOM     18  O   UNL     1     -24.416  96.167 -28.758  1.00  0.00    -0.497 OA
ATOM     19  C   UNL     1     -24.252  96.437 -30.146  1.00  0.00     0.278 C 
ENDBRANCH  13  18
ENDBRANCH   1  12
BRANCH   8  20
ATOM     20  O   UNL     1     -24.474  88.860 -24.615  1.00  0.00    -0.490 OA
ATOM     21  C   UNL     1     -23.414  88.604 -25.528  1.00  0.00     0.278 C 
ENDBRANCH   8  20
BRANCH  11  22
ATOM     22  O   UNL     1     -29.892  87.552 -25.453  1.00  0.00    -0.492 OA
ATOM     23  C   UNL     1     -30.210  86.497 -26.355  1.00  0.00     0.278 C 
ENDBRANCH  11  22
BRANCH   9  24
ATOM     24  O   UNL     1     -25.625  86.474 -23.506  1.00  0.00    -0.490 OA
ATOM     25  C   UNL     1     -24.820  85.417 -24.015  1.00  0.00     0.279 C 
ENDBRANCH   9  24
BRANCH  10  26
ATOM     26  O   UNL     1     -28.236  85.952 -23.792  1.00  0.00    -0.490 OA
ATOM     27  C   UNL     1     -28.866  85.985 -22.515  1.00  0.00     0.278 C 
ENDBRANCH  10  26
TORSDOF 6
ENDMDL
MODEL 7
REMARK VINA RESULT:    -5.323      2.996      5.147
REMARK INTER + INTRA:          -7.827
REMARK INTER:                  -7.168
REMARK INTRA:                  -0.660
REMARK UNBOUND:                -0.638
REMARK SMILES COc1ccc(-c2cc(=O)c3c(OC)c(OC)c(OC)c(OC)c3o2)cc1
REMARK SMILES IDX 7 1 8 2 9 3 10 4 11 5 24 6 25 7 21 8 18 9 15 10 12 11 6 12
REMARK SMILES IDX 3 13 4 14 27 15 5 16 26 17 2 18 1 19 22 20 23 21 13 22 14 23
REMARK SMILES IDX 19 24 20 25 16 26 17 27
REMARK H PARENT
REMARK Flexibility Score: inf
ROOT
ATOM      1  C   UNL     1     -24.038  87.781 -25.148  1.00  0.00     0.138 A 
ATOM      2  C   UNL     1     -23.239  88.661 -25.885  1.00  0.00     0.100 A 
ATOM      3  C   UNL     1     -23.840  89.691 -26.601  1.00  0.00     0.197 A 
ATOM      4  O   UNL     1     -23.108  90.481 -27.255  1.00  0.00    -0.289 OA
ATOM      5  C   UNL     1     -25.246  89.835 -26.576  1.00  0.00     0.115 A 
ATOM      6  C   UNL     1     -25.993  88.910 -25.802  1.00  0.00     0.188 A 
ATOM      7  O   UNL     1     -25.358  87.950 -25.134  1.00  0.00    -0.452 OA
ATOM      8  C   UNL     1     -27.409  88.998 -25.752  1.00  0.00     0.209 A 
ATOM      9  C   UNL     1     -28.062  90.039 -26.459  1.00  0.00     0.211 A 
ATOM     10  C   UNL     1     -27.313  90.966 -27.195  1.00  0.00     0.208 A 
ATOM     11  C   UNL     1     -25.917  90.839 -27.304  1.00  0.00     0.179 A 
ENDROOT
BRANCH   1  12
ATOM     12  C   UNL     1     -23.445  86.663 -24.374  1.00  0.00     0.018 A 
ATOM     13  C   UNL     1     -22.297  84.567 -22.871  1.00  0.00     0.118 A 
ATOM     14  C   UNL     1     -21.548  85.719 -23.175  1.00  0.00     0.047 A 
ATOM     15  C   UNL     1     -23.619  84.476 -23.318  1.00  0.00     0.047 A 
ATOM     16  C   UNL     1     -22.121  86.756 -23.917  1.00  0.00     0.016 A 
ATOM     17  C   UNL     1     -24.192  85.512 -24.061  1.00  0.00     0.016 A 
BRANCH  13  18
ATOM     18  O   UNL     1     -21.769  83.500 -22.129  1.00  0.00    -0.497 OA
ATOM     19  C   UNL     1     -21.770  83.432 -20.707  1.00  0.00     0.278 C 
ENDBRANCH  13  18
ENDBRANCH   1  12
BRANCH   8  20
ATOM     20  O   UNL     1     -28.199  88.085 -25.028  1.00  0.00    -0.490 OA
ATOM     21  C   UNL     1     -28.703  88.239 -23.708  1.00  0.00     0.278 C 
ENDBRANCH   8  20
BRANCH  11  22
ATOM     22  O   UNL     1     -25.195  91.694 -28.145  1.00  0.00    -0.492 OA
ATOM     23  C   UNL     1     -25.249  91.584 -29.564  1.00  0.00     0.278 C 
ENDBRANCH  11  22
BRANCH   9  24
ATOM     24  O   UNL     1     -29.459  90.230 -26.463  1.00  0.00    -0.490 OA
ATOM     25  C   UNL     1     -30.418  89.542 -27.258  1.00  0.00     0.279 C 
ENDBRANCH   9  24
BRANCH  10  26
ATOM     26  O   UNL     1     -27.996  92.020 -27.813  1.00  0.00    -0.490 OA
ATOM     27  C   UNL     1     -28.058  93.329 -27.255  1.00  0.00     0.278 C 
ENDBRANCH  10  26
TORSDOF 6
ENDMDL
MODEL 8
REMARK VINA RESULT:    -5.095      3.116     10.676
REMARK INTER + INTRA:          -7.520
REMARK INTER:                  -7.075
REMARK INTRA:                  -0.446
REMARK UNBOUND:                -0.638
REMARK SMILES COc1ccc(-c2cc(=O)c3c(OC)c(OC)c(OC)c(OC)c3o2)cc1
REMARK SMILES IDX 7 1 8 2 9 3 10 4 11 5 24 6 25 7 21 8 18 9 15 10 12 11 6 12
REMARK SMILES IDX 3 13 4 14 27 15 5 16 26 17 2 18 1 19 22 20 23 21 13 22 14 23
REMARK SMILES IDX 19 24 20 25 16 26 17 27
REMARK H PARENT
REMARK Flexibility Score: inf
ROOT
ATOM      1  C   UNL     1     -24.165  86.423 -25.624  1.00  0.00     0.138 A 
ATOM      2  C   UNL     1     -25.325  85.662 -25.805  1.00  0.00     0.100 A 
ATOM      3  C   UNL     1     -25.512  84.513 -25.043  1.00  0.00     0.197 A 
ATOM      4  O   UNL     1     -26.566  83.841 -25.210  1.00  0.00    -0.289 OA
ATOM      5  C   UNL     1     -24.531  84.129 -24.100  1.00  0.00     0.115 A 
ATOM      6  C   UNL     1     -23.384  84.951 -23.966  1.00  0.00     0.188 A 
ATOM      7  O   UNL     1     -23.266  86.042 -24.720  1.00  0.00    -0.452 OA
ATOM      8  C   UNL     1     -22.359  84.605 -23.046  1.00  0.00     0.209 A 
ATOM      9  C   UNL     1     -22.515  83.448 -22.242  1.00  0.00     0.211 A 
ATOM     10  C   UNL     1     -23.667  82.660 -22.360  1.00  0.00     0.208 A 
ATOM     11  C   UNL     1     -24.649  82.961 -23.320  1.00  0.00     0.179 A 
ENDROOT
BRANCH   1  12
ATOM     12  C   UNL     1     -23.916  87.651 -26.417  1.00  0.00     0.018 A 
ATOM     13  C   UNL     1     -23.482  89.981 -27.952  1.00  0.00     0.118 A 
ATOM     14  C   UNL     1     -23.904  88.789 -28.570  1.00  0.00     0.047 A 
ATOM     15  C   UNL     1     -23.286  89.998 -26.568  1.00  0.00     0.047 A 
ATOM     16  C   UNL     1     -24.121  87.638 -27.806  1.00  0.00     0.016 A 
ATOM     17  C   UNL     1     -23.502  88.848 -25.804  1.00  0.00     0.016 A 
BRANCH  13  18
ATOM     18  O   UNL     1     -23.252  91.162 -28.673  1.00  0.00    -0.497 OA
ATOM     19  C   UNL     1     -23.997  92.363 -28.507  1.00  0.00     0.278 C 
ENDBRANCH  13  18
ENDBRANCH   1  12
BRANCH   8  20
ATOM     20  O   UNL     1     -21.185  85.368 -22.899  1.00  0.00    -0.490 OA
ATOM     21  C   UNL     1     -21.028  86.578 -22.170  1.00  0.00     0.278 C 
ENDBRANCH   8  20
BRANCH  11  22
ATOM     22  O   UNL     1     -25.732  82.094 -23.515  1.00  0.00    -0.492 OA
ATOM     23  C   UNL     1     -25.619  80.903 -24.287  1.00  0.00     0.278 C 
ENDBRANCH  11  22
BRANCH   9  24
ATOM     24  O   UNL     1     -21.570  83.024 -21.285  1.00  0.00    -0.490 OA
ATOM     25  C   UNL     1     -21.523  83.381 -19.908  1.00  0.00     0.279 C 
ENDBRANCH   9  24
BRANCH  10  26
ATOM     26  O   UNL     1     -23.809  81.571 -21.492  1.00  0.00    -0.490 OA
ATOM     27  C   UNL     1     -23.217  80.301 -21.749  1.00  0.00     0.278 C 
ENDBRANCH  10  26
TORSDOF 6
ENDMDL
MODEL 9
REMARK VINA RESULT:    -5.070      2.813      5.462
REMARK INTER + INTRA:          -7.486
REMARK INTER:                  -7.002
REMARK INTRA:                  -0.485
REMARK UNBOUND:                -0.638
REMARK SMILES COc1ccc(-c2cc(=O)c3c(OC)c(OC)c(OC)c(OC)c3o2)cc1
REMARK SMILES IDX 7 1 8 2 9 3 10 4 11 5 24 6 25 7 21 8 18 9 15 10 12 11 6 12
REMARK SMILES IDX 3 13 4 14 27 15 5 16 26 17 2 18 1 19 22 20 23 21 13 22 14 23
REMARK SMILES IDX 19 24 20 25 16 26 17 27
REMARK H PARENT
REMARK Flexibility Score: inf
ROOT
ATOM      1  C   UNL     1     -24.929  87.340 -24.813  1.00  0.00     0.138 A 
ATOM      2  C   UNL     1     -26.266  87.339 -24.402  1.00  0.00     0.100 A 
ATOM      3  C   UNL     1     -27.140  88.288 -24.923  1.00  0.00     0.197 A 
ATOM      4  O   UNL     1     -28.343  88.271 -24.549  1.00  0.00    -0.289 OA
ATOM      5  C   UNL     1     -26.668  89.238 -25.857  1.00  0.00     0.115 A 
ATOM      6  C   UNL     1     -25.302  89.176 -26.233  1.00  0.00     0.188 A 
ATOM      7  O   UNL     1     -24.518  88.240 -25.704  1.00  0.00    -0.452 OA
ATOM      8  C   UNL     1     -24.771  90.115 -27.156  1.00  0.00     0.209 A 
ATOM      9  C   UNL     1     -25.630  91.093 -27.719  1.00  0.00     0.211 A 
ATOM     10  C   UNL     1     -26.984  91.125 -27.364  1.00  0.00     0.208 A 
ATOM     11  C   UNL     1     -27.497  90.243 -26.397  1.00  0.00     0.179 A 
ENDROOT
BRANCH   1  12
ATOM     12  C   UNL     1     -23.956  86.355 -24.282  1.00  0.00     0.018 A 
ATOM     13  C   UNL     1     -22.088  84.512 -23.238  1.00  0.00     0.118 A 
ATOM     14  C   UNL     1     -21.714  85.848 -23.479  1.00  0.00     0.047 A 
ATOM     15  C   UNL     1     -23.398  84.111 -23.518  1.00  0.00     0.047 A 
ATOM     16  C   UNL     1     -22.643  86.758 -23.992  1.00  0.00     0.016 A 
ATOM     17  C   UNL     1     -24.327  85.020 -24.033  1.00  0.00     0.016 A 
BRANCH  13  18
ATOM     18  O   UNL     1     -21.194  83.562 -22.723  1.00  0.00    -0.497 OA
ATOM     19  C   UNL     1     -21.376  82.153 -22.821  1.00  0.00     0.278 C 
ENDBRANCH  13  18
ENDBRANCH   1  12
BRANCH   8  20
ATOM     20  O   UNL     1     -23.415  90.119 -27.536  1.00  0.00    -0.490 OA
ATOM     21  C   UNL     1     -22.859  89.635 -28.752  1.00  0.00     0.278 C 
ENDBRANCH   8  20
BRANCH  11  22
ATOM     22  O   UNL     1     -28.820  90.370 -25.958  1.00  0.00    -0.492 OA
ATOM     23  C   UNL     1     -29.928  90.004 -26.775  1.00  0.00     0.278 C 
ENDBRANCH  11  22
BRANCH   9  24
ATOM     24  O   UNL     1     -25.211  92.059 -28.657  1.00  0.00    -0.490 OA
ATOM     25  C   UNL     1     -24.381  93.189 -28.414  1.00  0.00     0.279 C 
ENDBRANCH   9  24
BRANCH  10  26
ATOM     26  O   UNL     1     -27.808  92.060 -28.003  1.00  0.00    -0.490 OA
ATOM     27  C   UNL     1     -28.119  93.327 -27.432  1.00  0.00     0.278 C 
ENDBRANCH  10  26
TORSDOF 6
ENDMDL
