MODEL 1
REMARK VINA RESULT:    11.720      0.000      0.000
REMARK INTER + INTRA:          11.921
REMARK INTER:                  12.747
REMARK INTRA:                  -0.826
REMARK UNBOUND:                -0.826
REMARK SMILES C=C(C)[C@H]1CC[C@@]2(C)CC[C@]3(C)[C@@H](CC[C@H]4[C@@]5(C)CC[C@@H](O)C(C)(C)[C@H]5CC[C@@]43C)[C@H]12
REMARK SMILES IDX 4 1 5 2 6 3 7 4 31 5 13 6 14 7 15 8 16 9 17 10 19 11 20 12
REMARK SMILES IDX 21 13 23 14 26 15 27 16 28 17 29 18 11 19 10 20 9 21 12 22
REMARK SMILES IDX 30 23 24 24 25 25 18 26 8 27 2 28 3 29 1 30 22 31
REMARK H PARENT 22 32
REMARK Flexibility Score: inf
ROOT
ATOM      1  C   UNL     1     -10.009   5.961 -21.117  1.00  0.00     0.018 C 
ATOM      2  C   UNL     1     -10.943   7.116 -21.558  1.00  0.00     0.009 C 
ATOM      3  C   UNL     1     -10.940   7.122 -23.092  1.00  0.00     0.008 C 
ATOM      4  C   UNL     1     -10.534   5.696 -23.480  1.00  0.00    -0.029 C 
ATOM      5  C   UNL     1      -9.445   5.387 -22.436  1.00  0.00     0.006 C 
ATOM      6  C   UNL     1      -8.994   3.895 -22.527  1.00  0.00    -0.000 C 
ATOM      7  C   UNL     1      -8.108   3.362 -21.353  1.00  0.00     0.005 C 
ATOM      8  C   UNL     1      -6.605   3.231 -21.665  1.00  0.00     0.005 C 
ATOM      9  C   UNL     1      -6.174   4.332 -22.648  1.00  0.00     0.002 C 
ATOM     10  C   UNL     1      -4.668   4.826 -22.519  1.00  0.00    -0.026 C 
ATOM     11  C   UNL     1      -3.684   3.613 -22.574  1.00  0.00     0.010 C 
ATOM     12  C   UNL     1      -2.207   3.998 -22.722  1.00  0.00     0.033 C 
ATOM     13  C   UNL     1      -1.966   4.931 -23.913  1.00  0.00     0.120 C 
ATOM     14  C   UNL     1      -2.792   6.251 -23.815  1.00  0.00    -0.006 C 
ATOM     15  C   UNL     1      -4.345   5.947 -23.616  1.00  0.00     0.003 C 
ATOM     16  C   UNL     1      -5.093   5.780 -24.973  1.00  0.00     0.005 C 
ATOM     17  C   UNL     1      -6.568   5.364 -24.862  1.00  0.00     0.008 C 
ATOM     18  C   UNL     1      -6.787   4.035 -24.081  1.00  0.00    -0.024 C 
ATOM     19  C   UNL     1      -8.375   3.580 -23.958  1.00  0.00    -0.024 C 
ATOM     20  C   UNL     1      -9.286   4.180 -25.114  1.00  0.00     0.008 C 
ATOM     21  C   UNL     1      -9.906   5.582 -24.882  1.00  0.00     0.007 C 
ATOM     22  C   UNL     1      -8.560   2.024 -24.117  1.00  0.00     0.012 C 
ATOM     23  C   UNL     1      -6.010   2.924 -24.868  1.00  0.00     0.012 C 
ATOM     24  C   UNL     1      -2.245   7.125 -22.649  1.00  0.00     0.014 C 
ATOM     25  C   UNL     1      -2.519   7.102 -25.091  1.00  0.00     0.014 C 
ATOM     26  C   UNL     1      -4.517   5.489 -21.090  1.00  0.00     0.012 C 
ATOM     27  C   UNL     1     -11.811   4.799 -23.389  1.00  0.00     0.011 C 
ENDROOT
BRANCH   1  28
ATOM     28  C   UNL     1      -8.943   6.475 -20.151  1.00  0.00    -0.077 C 
ATOM     29  C   UNL     1      -7.667   7.111 -20.650  1.00  0.00     0.039 C 
ATOM     30  C   UNL     1      -9.166   6.445 -18.827  1.00  0.00     0.008 C 
ENDBRANCH   1  28
BRANCH  13  31
ATOM     31  O   UNL     1      -2.270   4.231 -25.096  1.00  0.00    -0.393 OA
ATOM     32  H   UNL     1      -2.469   4.903 -25.799  1.00  0.00     0.210 HD
ENDBRANCH  13  31
TORSDOF 2
ENDMDL
MODEL 2
REMARK VINA RESULT:    12.846      2.220      4.609
REMARK INTER + INTRA:          13.147
REMARK INTER:                  13.597
REMARK INTRA:                  -0.450
REMARK UNBOUND:                -0.826
REMARK SMILES C=C(C)[C@H]1CC[C@@]2(C)CC[C@]3(C)[C@@H](CC[C@H]4[C@@]5(C)CC[C@@H](O)C(C)(C)[C@H]5CC[C@@]43C)[C@H]12
REMARK SMILES IDX 4 1 5 2 6 3 7 4 31 5 13 6 14 7 15 8 16 9 17 10 19 11 20 12
REMARK SMILES IDX 21 13 23 14 26 15 27 16 28 17 29 18 11 19 10 20 9 21 12 22
REMARK SMILES IDX 30 23 24 24 25 25 18 26 8 27 2 28 3 29 1 30 22 31
REMARK H PARENT 22 32
REMARK Flexibility Score: inf
ROOT
ATOM      1  C   UNL     1      -9.637   3.261 -24.731  1.00  0.00     0.018 C 
ATOM      2  C   UNL     1     -11.136   3.366 -24.353  1.00  0.00     0.009 C 
ATOM      3  C   UNL     1     -11.279   4.603 -23.459  1.00  0.00     0.008 C 
ATOM      4  C   UNL     1     -10.071   5.476 -23.818  1.00  0.00    -0.029 C 
ATOM      5  C   UNL     1      -8.959   4.422 -23.969  1.00  0.00     0.006 C 
ATOM      6  C   UNL     1      -7.647   5.072 -24.512  1.00  0.00    -0.000 C 
ATOM      7  C   UNL     1      -6.526   4.088 -24.985  1.00  0.00     0.005 C 
ATOM      8  C   UNL     1      -5.348   3.910 -24.010  1.00  0.00     0.005 C 
ATOM      9  C   UNL     1      -5.843   4.030 -22.559  1.00  0.00     0.002 C 
ATOM     10  C   UNL     1      -5.034   3.189 -21.478  1.00  0.00    -0.026 C 
ATOM     11  C   UNL     1      -3.504   3.498 -21.573  1.00  0.00     0.010 C 
ATOM     12  C   UNL     1      -2.670   2.945 -20.412  1.00  0.00     0.033 C 
ATOM     13  C   UNL     1      -3.215   3.378 -19.047  1.00  0.00     0.120 C 
ATOM     14  C   UNL     1      -4.692   2.928 -18.824  1.00  0.00    -0.006 C 
ATOM     15  C   UNL     1      -5.633   3.426 -20.013  1.00  0.00     0.003 C 
ATOM     16  C   UNL     1      -6.205   4.853 -19.755  1.00  0.00     0.005 C 
ATOM     17  C   UNL     1      -7.021   5.451 -20.912  1.00  0.00     0.008 C 
ATOM     18  C   UNL     1      -6.236   5.535 -22.254  1.00  0.00    -0.024 C 
ATOM     19  C   UNL     1      -7.109   6.180 -23.505  1.00  0.00    -0.024 C 
ATOM     20  C   UNL     1      -8.291   7.124 -23.019  1.00  0.00     0.008 C 
ATOM     21  C   UNL     1      -9.657   6.461 -22.707  1.00  0.00     0.007 C 
ATOM     22  C   UNL     1      -6.235   7.125 -24.413  1.00  0.00     0.012 C 
ATOM     23  C   UNL     1      -4.996   6.456 -21.986  1.00  0.00     0.012 C 
ATOM     24  C   UNL     1      -4.753   1.380 -18.682  1.00  0.00     0.014 C 
ATOM     25  C   UNL     1      -5.167   3.459 -17.439  1.00  0.00     0.014 C 
ATOM     26  C   UNL     1      -5.226   1.660 -21.839  1.00  0.00     0.012 C 
ATOM     27  C   UNL     1     -10.424   6.259 -25.125  1.00  0.00     0.011 C 
ENDROOT
BRANCH   1  28
ATOM     28  C   UNL     1      -9.092   1.878 -24.378  1.00  0.00    -0.077 C 
ATOM     29  C   UNL     1      -8.247   1.654 -23.147  1.00  0.00     0.039 C 
ATOM     30  C   UNL     1      -9.432   0.814 -25.123  1.00  0.00     0.008 C 
ENDBRANCH   1  28
BRANCH  13  31
ATOM     31  O   UNL     1      -3.089   4.775 -18.939  1.00  0.00    -0.393 OA
ATOM     32  H   UNL     1      -3.074   5.146 -19.860  1.00  0.00     0.210 HD
ENDBRANCH  13  31
TORSDOF 2
ENDMDL
