MODEL 1
REMARK VINA RESULT:    -3.521      0.000      0.000
REMARK INTER + INTRA:          -3.746
REMARK INTER:                  -3.727
REMARK INTRA:                  -0.020
REMARK UNBOUND:                -0.020
REMARK SMILES O=C([O-])[C@@H]1CCC[NH2+]1
REMARK SMILES IDX 4 1 8 2 7 3 5 4 6 5 2 8 1 9 3 10
REMARK H PARENT 8 6 8 7
REMARK Flexibility Score: inf
ROOT
ATOM      1  C   UNL     1      24.602  31.078   5.786  1.00  0.00     0.229 C 
ATOM      2  N   UNL     1      23.587  30.507   4.896  1.00  0.00    -0.339 N 
ATOM      3  C   UNL     1      24.294  30.141   3.664  1.00  0.00     0.261 C 
ATOM      4  C   UNL     1      25.632  31.751   4.891  1.00  0.00     0.077 C 
ATOM      5  C   UNL     1      25.590  30.946   3.607  1.00  0.00     0.068 C 
ATOM      6  H   UNL     1      23.147  29.664   5.333  1.00  0.00     0.346 HD
ATOM      7  H   UNL     1      22.847  31.212   4.666  1.00  0.00     0.346 HD
ENDROOT
BRANCH   1   8
ATOM      8  C   UNL     1      24.004  32.027   6.792  1.00  0.00     0.099 C 
ATOM      9  O   UNL     1      24.666  33.007   7.225  1.00  0.00    -0.544 OA
ATOM     10  O   UNL     1      22.710  31.820   7.252  1.00  0.00    -0.544 OA
ENDBRANCH   1   8
TORSDOF 1
ENDMDL
MODEL 2
REMARK VINA RESULT:    -3.292      2.634      3.385
REMARK INTER + INTRA:          -3.504
REMARK INTER:                  -3.479
REMARK INTRA:                  -0.025
REMARK UNBOUND:                -0.020
REMARK SMILES O=C([O-])[C@@H]1CCC[NH2+]1
REMARK SMILES IDX 4 1 8 2 7 3 5 4 6 5 2 8 1 9 3 10
REMARK H PARENT 8 6 8 7
REMARK Flexibility Score: inf
ROOT
ATOM      1  C   UNL     1      25.999  31.830   5.664  1.00  0.00     0.229 C 
ATOM      2  N   UNL     1      25.791  33.269   5.847  1.00  0.00    -0.339 N 
ATOM      3  C   UNL     1      26.891  33.729   6.700  1.00  0.00     0.261 C 
ATOM      4  C   UNL     1      26.662  31.324   6.936  1.00  0.00     0.077 C 
ATOM      5  C   UNL     1      27.450  32.517   7.444  1.00  0.00     0.068 C 
ATOM      6  H   UNL     1      25.808  33.764   4.925  1.00  0.00     0.346 HD
ATOM      7  H   UNL     1      24.882  33.460   6.332  1.00  0.00     0.346 HD
ENDROOT
BRANCH   1   8
ATOM      8  C   UNL     1      24.714  31.106   5.356  1.00  0.00     0.099 C 
ATOM      9  O   UNL     1      24.453  30.730   4.182  1.00  0.00    -0.544 OA
ATOM     10  O   UNL     1      23.805  30.849   6.374  1.00  0.00    -0.544 OA
ENDBRANCH   1   8
TORSDOF 1
ENDMDL
MODEL 3
REMARK VINA RESULT:    -3.287      9.644     10.294
REMARK INTER + INTRA:          -3.499
REMARK INTER:                  -3.473
REMARK INTRA:                  -0.026
REMARK UNBOUND:                -0.020
REMARK SMILES O=C([O-])[C@@H]1CCC[NH2+]1
REMARK SMILES IDX 4 1 8 2 7 3 5 4 6 5 2 8 1 9 3 10
REMARK H PARENT 8 6 8 7
REMARK Flexibility Score: inf
ROOT
ATOM      1  C   UNL     1      17.234  26.134   0.380  1.00  0.00     0.229 C 
ATOM      2  N   UNL     1      16.506  26.133   1.652  1.00  0.00    -0.339 N 
ATOM      3  C   UNL     1      15.492  27.185   1.535  1.00  0.00     0.261 C 
ATOM      4  C   UNL     1      17.221  27.568  -0.124  1.00  0.00     0.077 C 
ATOM      5  C   UNL     1      15.934  28.146   0.433  1.00  0.00     0.068 C 
ATOM      6  H   UNL     1      16.055  25.203   1.818  1.00  0.00     0.346 HD
ATOM      7  H   UNL     1      17.143  26.363   2.452  1.00  0.00     0.346 HD
ENDROOT
BRANCH   1   8
ATOM      8  C   UNL     1      18.630  25.586   0.526  1.00  0.00     0.099 C 
ATOM      9  O   UNL     1      19.119  25.367   1.666  1.00  0.00    -0.544 OA
ATOM     10  O   UNL     1      19.390  25.320  -0.606  1.00  0.00    -0.544 OA
ENDBRANCH   1   8
TORSDOF 1
ENDMDL
MODEL 4
REMARK VINA RESULT:    -3.286      2.325      3.623
REMARK INTER + INTRA:          -3.497
REMARK INTER:                  -3.468
REMARK INTRA:                  -0.030
REMARK UNBOUND:                -0.020
REMARK SMILES O=C([O-])[C@@H]1CCC[NH2+]1
REMARK SMILES IDX 4 1 8 2 7 3 5 4 6 5 2 8 1 9 3 10
REMARK H PARENT 8 6 8 7
REMARK Flexibility Score: inf
ROOT
ATOM      1  C   UNL     1      24.843  31.545   5.957  1.00  0.00     0.229 C 
ATOM      2  N   UNL     1      23.691  32.430   6.155  1.00  0.00    -0.339 N 
ATOM      3  C   UNL     1      23.394  32.388   7.590  1.00  0.00     0.261 C 
ATOM      4  C   UNL     1      24.728  30.447   7.003  1.00  0.00     0.077 C 
ATOM      5  C   UNL     1      24.008  31.111   8.161  1.00  0.00     0.068 C 
ATOM      6  H   UNL     1      23.922  33.406   5.855  1.00  0.00     0.346 HD
ATOM      7  H   UNL     1      22.855  32.088   5.624  1.00  0.00     0.346 HD
ENDROOT
BRANCH   1   8
ATOM      8  C   UNL     1      24.904  31.001   4.553  1.00  0.00     0.099 C 
ATOM      9  O   UNL     1      24.031  30.193   4.137  1.00  0.00    -0.544 OA
ATOM     10  O   UNL     1      25.934  31.390   3.706  1.00  0.00    -0.544 OA
ENDBRANCH   1   8
TORSDOF 1
ENDMDL
MODEL 5
REMARK VINA RESULT:    -3.154      1.816      2.234
REMARK INTER + INTRA:          -3.359
REMARK INTER:                  -3.338
REMARK INTRA:                  -0.021
REMARK UNBOUND:                -0.020
REMARK SMILES O=C([O-])[C@@H]1CCC[NH2+]1
REMARK SMILES IDX 4 1 8 2 7 3 5 4 6 5 2 8 1 9 3 10
REMARK H PARENT 8 6 8 7
REMARK Flexibility Score: inf
ROOT
ATOM      1  C   UNL     1      24.531  30.731   5.044  1.00  0.00     0.229 C 
ATOM      2  N   UNL     1      25.834  31.343   4.769  1.00  0.00    -0.339 N 
ATOM      3  C   UNL     1      25.995  31.307   3.312  1.00  0.00     0.261 C 
ATOM      4  C   UNL     1      24.305  29.690   3.958  1.00  0.00     0.077 C 
ATOM      5  C   UNL     1      25.060  30.233   2.760  1.00  0.00     0.068 C 
ATOM      6  H   UNL     1      25.858  32.329   5.119  1.00  0.00     0.346 HD
ATOM      7  H   UNL     1      26.610  30.794   5.210  1.00  0.00     0.346 HD
ENDROOT
BRANCH   1   8
ATOM      8  C   UNL     1      24.461  30.144   6.430  1.00  0.00     0.099 C 
ATOM      9  O   UNL     1      24.545  30.884   7.446  1.00  0.00    -0.544 OA
ATOM     10  O   UNL     1      24.304  28.774   6.593  1.00  0.00    -0.544 OA
ENDBRANCH   1   8
TORSDOF 1
ENDMDL
MODEL 6
REMARK VINA RESULT:    -3.122      1.882      2.546
REMARK INTER + INTRA:          -3.325
REMARK INTER:                  -3.304
REMARK INTRA:                  -0.021
REMARK UNBOUND:                -0.020
REMARK SMILES O=C([O-])[C@@H]1CCC[NH2+]1
REMARK SMILES IDX 4 1 8 2 7 3 5 4 6 5 2 8 1 9 3 10
REMARK H PARENT 8 6 8 7
REMARK Flexibility Score: inf
ROOT
ATOM      1  C   UNL     1      23.212  31.850   7.232  1.00  0.00     0.229 C 
ATOM      2  N   UNL     1      23.933  32.439   6.100  1.00  0.00    -0.339 N 
ATOM      3  C   UNL     1      24.719  31.349   5.514  1.00  0.00     0.261 C 
ATOM      4  C   UNL     1      24.099  30.744   7.781  1.00  0.00     0.077 C 
ATOM      5  C   UNL     1      24.880  30.260   6.574  1.00  0.00     0.068 C 
ATOM      6  H   UNL     1      23.261  32.828   5.398  1.00  0.00     0.346 HD
ATOM      7  H   UNL     1      24.585  33.195   6.419  1.00  0.00     0.346 HD
ENDROOT
BRANCH   1   8
ATOM      8  C   UNL     1      22.858  32.878   8.276  1.00  0.00     0.099 C 
ATOM      9  O   UNL     1      22.793  34.100   7.978  1.00  0.00    -0.544 OA
ATOM     10  O   UNL     1      22.603  32.478   9.581  1.00  0.00    -0.544 OA
ENDBRANCH   1   8
TORSDOF 1
ENDMDL
MODEL 7
REMARK VINA RESULT:    -3.077     11.947     12.608
REMARK INTER + INTRA:          -3.276
REMARK INTER:                  -3.251
REMARK INTRA:                  -0.025
REMARK UNBOUND:                -0.020
REMARK SMILES O=C([O-])[C@@H]1CCC[NH2+]1
REMARK SMILES IDX 4 1 8 2 7 3 5 4 6 5 2 8 1 9 3 10
REMARK H PARENT 8 6 8 7
REMARK Flexibility Score: inf
ROOT
ATOM      1  C   UNL     1      14.304  38.675   5.892  1.00  0.00     0.229 C 
ATOM      2  N   UNL     1      15.288  38.279   4.879  1.00  0.00    -0.339 N 
ATOM      3  C   UNL     1      15.129  39.227   3.773  1.00  0.00     0.261 C 
ATOM      4  C   UNL     1      13.123  39.266   5.138  1.00  0.00     0.077 C 
ATOM      5  C   UNL     1      13.740  39.851   3.882  1.00  0.00     0.068 C 
ATOM      6  H   UNL     1      16.258  38.327   5.271  1.00  0.00     0.346 HD
ATOM      7  H   UNL     1      15.099  37.310   4.527  1.00  0.00     0.346 HD
ENDROOT
BRANCH   1   8
ATOM      8  C   UNL     1      13.907  37.523   6.777  1.00  0.00     0.099 C 
ATOM      9  O   UNL     1      14.286  36.350   6.516  1.00  0.00    -0.544 OA
ATOM     10  O   UNL     1      13.111  37.751   7.893  1.00  0.00    -0.544 OA
ENDBRANCH   1   8
TORSDOF 1
ENDMDL
MODEL 8
REMARK VINA RESULT:    -3.030      2.067      2.581
REMARK INTER + INTRA:          -3.226
REMARK INTER:                  -3.201
REMARK INTRA:                  -0.026
REMARK UNBOUND:                -0.020
REMARK SMILES O=C([O-])[C@@H]1CCC[NH2+]1
REMARK SMILES IDX 4 1 8 2 7 3 5 4 6 5 2 8 1 9 3 10
REMARK H PARENT 8 6 8 7
REMARK Flexibility Score: inf
ROOT
ATOM      1  C   UNL     1      26.217  31.355   6.289  1.00  0.00     0.229 C 
ATOM      2  N   UNL     1      25.040  30.881   7.024  1.00  0.00    -0.339 N 
ATOM      3  C   UNL     1      24.203  30.190   6.038  1.00  0.00     0.261 C 
ATOM      4  C   UNL     1      25.752  31.650   4.872  1.00  0.00     0.077 C 
ATOM      5  C   UNL     1      24.603  30.685   4.649  1.00  0.00     0.068 C 
ATOM      6  H   UNL     1      25.323  30.228   7.791  1.00  0.00     0.346 HD
ATOM      7  H   UNL     1      24.498  31.683   7.426  1.00  0.00     0.346 HD
ENDROOT
BRANCH   1   8
ATOM      8  C   UNL     1      26.853  32.551   6.949  1.00  0.00     0.099 C 
ATOM      9  O   UNL     1      27.987  32.460   7.489  1.00  0.00    -0.544 OA
ATOM     10  O   UNL     1      26.184  33.768   6.966  1.00  0.00    -0.544 OA
ENDBRANCH   1   8
TORSDOF 1
ENDMDL
MODEL 9
REMARK VINA RESULT:    -2.970     11.215     12.124
REMARK INTER + INTRA:          -3.163
REMARK INTER:                  -3.143
REMARK INTRA:                  -0.021
REMARK UNBOUND:                -0.020
REMARK SMILES O=C([O-])[C@@H]1CCC[NH2+]1
REMARK SMILES IDX 4 1 8 2 7 3 5 4 6 5 2 8 1 9 3 10
REMARK H PARENT 8 6 8 7
REMARK Flexibility Score: inf
ROOT
ATOM      1  C   UNL     1      14.914  37.275   8.261  1.00  0.00     0.229 C 
ATOM      2  N   UNL     1      14.014  38.019   9.148  1.00  0.00    -0.339 N 
ATOM      3  C   UNL     1      14.615  37.944  10.483  1.00  0.00     0.261 C 
ATOM      4  C   UNL     1      15.536  36.173   9.103  1.00  0.00     0.077 C 
ATOM      5  C   UNL     1      15.567  36.749  10.506  1.00  0.00     0.068 C 
ATOM      6  H   UNL     1      13.931  39.015   8.836  1.00  0.00     0.346 HD
ATOM      7  H   UNL     1      13.064  37.579   9.177  1.00  0.00     0.346 HD
ENDROOT
BRANCH   1   8
ATOM      8  C   UNL     1      14.198  36.740   7.048  1.00  0.00     0.099 C 
ATOM      9  O   UNL     1      13.138  37.282   6.635  1.00  0.00    -0.544 OA
ATOM     10  O   UNL     1      14.708  35.637   6.375  1.00  0.00    -0.544 OA
ENDBRANCH   1   8
TORSDOF 1
ENDMDL
