MODEL 1
REMARK VINA RESULT:    -5.208      0.000      0.000
REMARK INTER + INTRA:          -9.962
REMARK INTER:                  -7.947
REMARK INTRA:                  -2.015
REMARK UNBOUND:                -2.015
REMARK SMILES CC(=O)CCC=C(C)CCC=C(C)CCC=C(C)C
REMARK SMILES IDX 10 1 11 2 12 3 13 4 14 5 15 6 16 7 18 8 17 9 19 10 9 11 7 12
REMARK SMILES IDX 6 13 8 14 5 15 4 16 2 17 3 18 1 19
REMARK H PARENT
REMARK Flexibility Score: inf
ROOT
ATOM      1  C   UNL     1     -15.964  13.893 -31.760  1.00  0.00     0.032 C 
ENDROOT
BRANCH   1   2
ATOM      2  C   UNL     1     -17.015  12.964 -31.207  1.00  0.00    -0.028 C 
ATOM      3  C   UNL     1     -17.443  12.971 -29.924  1.00  0.00    -0.077 C 
ATOM      4  C   UNL     1     -16.922  13.966 -28.913  1.00  0.00     0.039 C 
BRANCH   3   5
ATOM      5  C   UNL     1     -18.501  11.976 -29.497  1.00  0.00     0.034 C 
BRANCH   5   6
ATOM      6  C   UNL     1     -17.934  10.555 -29.392  1.00  0.00     0.032 C 
BRANCH   6   7
ATOM      7  C   UNL     1     -17.366  10.297 -28.015  1.00  0.00    -0.028 C 
ATOM      8  C   UNL     1     -15.603   9.964 -26.310  1.00  0.00     0.039 C 
ATOM      9  C   UNL     1     -16.049  10.303 -27.709  1.00  0.00    -0.080 C 
ATOM     10  C   UNL     1     -14.987  10.626 -28.730  1.00  0.00     0.039 C 
ENDBRANCH   6   7
ENDBRANCH   5   6
ENDBRANCH   3   5
ENDBRANCH   1   2
BRANCH   1  11
ATOM     11  C   UNL     1     -14.686  13.123 -32.113  1.00  0.00     0.034 C 
BRANCH  11  12
ATOM     12  C   UNL     1     -13.475  13.785 -31.495  1.00  0.00    -0.077 C 
ATOM     13  C   UNL     1     -13.371  13.836 -30.147  1.00  0.00    -0.028 C 
ATOM     14  C   UNL     1     -12.422  14.381 -32.399  1.00  0.00     0.039 C 
BRANCH  13  15
ATOM     15  C   UNL     1     -12.191  14.412 -29.405  1.00  0.00     0.035 C 
BRANCH  15  16
ATOM     16  C   UNL     1     -11.359  13.296 -28.766  1.00  0.00     0.079 C 
BRANCH  16  17
ATOM     17  C   UNL     1     -11.730  13.115 -27.320  1.00  0.00     0.130 C 
ATOM     18  O   UNL     1     -11.870  14.094 -26.602  1.00  0.00    -0.300 OA
ATOM     19  C   UNL     1     -11.952  11.744 -26.759  1.00  0.00     0.087 C 
ENDBRANCH  16  17
ENDBRANCH  15  16
ENDBRANCH  13  15
ENDBRANCH  11  12
ENDBRANCH   1  11
TORSDOF 9
ENDMDL
MODEL 2
REMARK VINA RESULT:    -5.191     10.341     13.455
REMARK INTER + INTRA:          -9.937
REMARK INTER:                  -8.818
REMARK INTRA:                  -1.119
REMARK UNBOUND:                -2.015
REMARK SMILES CC(=O)CCC=C(C)CCC=C(C)CCC=C(C)C
REMARK SMILES IDX 10 1 11 2 12 3 13 4 14 5 15 6 16 7 18 8 17 9 19 10 9 11 7 12
REMARK SMILES IDX 6 13 8 14 5 15 4 16 2 17 3 18 1 19
REMARK H PARENT
REMARK Flexibility Score: inf
ROOT
ATOM      1  C   UNL     1     -24.292  17.871 -30.829  1.00  0.00     0.032 C 
ENDROOT
BRANCH   1   2
ATOM      2  C   UNL     1     -24.317  18.458 -32.217  1.00  0.00    -0.028 C 
ATOM      3  C   UNL     1     -23.571  19.514 -32.615  1.00  0.00    -0.077 C 
ATOM      4  C   UNL     1     -22.588  20.191 -31.689  1.00  0.00     0.039 C 
BRANCH   3   5
ATOM      5  C   UNL     1     -23.700  20.009 -34.039  1.00  0.00     0.034 C 
BRANCH   5   6
ATOM      6  C   UNL     1     -25.114  19.790 -34.591  1.00  0.00     0.032 C 
BRANCH   6   7
ATOM      7  C   UNL     1     -26.073  20.828 -34.057  1.00  0.00    -0.028 C 
ATOM      8  C   UNL     1     -28.132  21.678 -32.979  1.00  0.00     0.039 C 
ATOM      9  C   UNL     1     -27.225  20.553 -33.405  1.00  0.00    -0.080 C 
ATOM     10  C   UNL     1     -27.656  19.142 -33.094  1.00  0.00     0.039 C 
ENDBRANCH   6   7
ENDBRANCH   5   6
ENDBRANCH   3   5
ENDBRANCH   1   2
BRANCH   1  11
ATOM     11  C   UNL     1     -25.540  17.018 -30.574  1.00  0.00     0.034 C 
BRANCH  11  12
ATOM     12  C   UNL     1     -25.174  15.553 -30.475  1.00  0.00    -0.077 C 
ATOM     13  C   UNL     1     -26.045  14.696 -29.895  1.00  0.00    -0.028 C 
ATOM     14  C   UNL     1     -23.842  15.091 -31.019  1.00  0.00     0.039 C 
BRANCH  13  15
ATOM     15  C   UNL     1     -25.830  13.207 -29.786  1.00  0.00     0.035 C 
BRANCH  15  16
ATOM     16  C   UNL     1     -27.003  12.447 -30.413  1.00  0.00     0.079 C 
BRANCH  16  17
ATOM     17  C   UNL     1     -26.694  12.065 -31.833  1.00  0.00     0.130 C 
ATOM     18  O   UNL     1     -26.374  12.927 -32.638  1.00  0.00    -0.300 OA
ATOM     19  C   UNL     1     -26.752  10.631 -32.263  1.00  0.00     0.087 C 
ENDBRANCH  16  17
ENDBRANCH  15  16
ENDBRANCH  13  15
ENDBRANCH  11  12
ENDBRANCH   1  11
TORSDOF 9
ENDMDL
MODEL 3
REMARK VINA RESULT:    -5.177      2.135      4.484
REMARK INTER + INTRA:          -9.916
REMARK INTER:                  -7.401
REMARK INTRA:                  -2.515
REMARK UNBOUND:                -2.015
REMARK SMILES CC(=O)CCC=C(C)CCC=C(C)CCC=C(C)C
REMARK SMILES IDX 10 1 11 2 12 3 13 4 14 5 15 6 16 7 18 8 17 9 19 10 9 11 7 12
REMARK SMILES IDX 6 13 8 14 5 15 4 16 2 17 3 18 1 19
REMARK H PARENT
REMARK Flexibility Score: inf
ROOT
ATOM      1  C   UNL     1     -17.327  13.337 -28.843  1.00  0.00     0.032 C 
ENDROOT
BRANCH   1   2
ATOM      2  C   UNL     1     -16.460  12.742 -27.763  1.00  0.00    -0.028 C 
ATOM      3  C   UNL     1     -15.730  11.612 -27.905  1.00  0.00    -0.077 C 
ATOM      4  C   UNL     1     -15.685  10.848 -29.208  1.00  0.00     0.039 C 
BRANCH   3   5
ATOM      5  C   UNL     1     -14.907  11.117 -26.735  1.00  0.00     0.034 C 
BRANCH   5   6
ATOM      6  C   UNL     1     -13.416  11.038 -27.082  1.00  0.00     0.032 C 
BRANCH   6   7
ATOM      7  C   UNL     1     -12.859  12.406 -27.402  1.00  0.00    -0.028 C 
ATOM      8  C   UNL     1     -11.583  14.098 -28.680  1.00  0.00     0.039 C 
ATOM      9  C   UNL     1     -12.141  12.710 -28.507  1.00  0.00    -0.080 C 
ATOM     10  C   UNL     1     -11.856  11.695 -29.585  1.00  0.00     0.039 C 
ENDBRANCH   6   7
ENDBRANCH   5   6
ENDBRANCH   3   5
ENDBRANCH   1   2
BRANCH   1  11
ATOM     11  C   UNL     1     -16.623  14.520 -29.518  1.00  0.00     0.034 C 
BRANCH  11  12
ATOM     12  C   UNL     1     -15.987  14.090 -30.821  1.00  0.00    -0.077 C 
ATOM     13  C   UNL     1     -14.641  13.976 -30.889  1.00  0.00    -0.028 C 
ATOM     14  C   UNL     1     -16.872  13.810 -32.013  1.00  0.00     0.039 C 
BRANCH  13  15
ATOM     15  C   UNL     1     -13.886  13.500 -32.106  1.00  0.00     0.035 C 
BRANCH  15  16
ATOM     16  C   UNL     1     -12.708  14.432 -32.407  1.00  0.00     0.079 C 
BRANCH  16  17
ATOM     17  C   UNL     1     -11.544  13.658 -32.962  1.00  0.00     0.130 C 
ATOM     18  O   UNL     1     -11.678  13.014 -33.992  1.00  0.00    -0.300 OA
ATOM     19  C   UNL     1     -10.214  13.692 -32.273  1.00  0.00     0.087 C 
ENDBRANCH  16  17
ENDBRANCH  15  16
ENDBRANCH  13  15
ENDBRANCH  11  12
ENDBRANCH   1  11
TORSDOF 9
ENDMDL
MODEL 4
REMARK VINA RESULT:    -5.160      2.088      4.681
REMARK INTER + INTRA:          -9.889
REMARK INTER:                  -7.750
REMARK INTRA:                  -2.139
REMARK UNBOUND:                -2.015
REMARK SMILES CC(=O)CCC=C(C)CCC=C(C)CCC=C(C)C
REMARK SMILES IDX 10 1 11 2 12 3 13 4 14 5 15 6 16 7 18 8 17 9 19 10 9 11 7 12
REMARK SMILES IDX 6 13 8 14 5 15 4 16 2 17 3 18 1 19
REMARK H PARENT
REMARK Flexibility Score: inf
ROOT
ATOM      1  C   UNL     1     -11.709  12.602 -26.910  1.00  0.00     0.032 C 
ENDROOT
BRANCH   1   2
ATOM      2  C   UNL     1     -13.109  12.058 -27.046  1.00  0.00    -0.028 C 
ATOM      3  C   UNL     1     -13.445  10.994 -27.810  1.00  0.00    -0.077 C 
ATOM      4  C   UNL     1     -12.413  10.209 -28.585  1.00  0.00     0.039 C 
BRANCH   3   5
ATOM      5  C   UNL     1     -14.893  10.556 -27.864  1.00  0.00     0.034 C 
BRANCH   5   6
ATOM      6  C   UNL     1     -15.846  11.701 -27.501  1.00  0.00     0.032 C 
BRANCH   6   7
ATOM      7  C   UNL     1     -17.073  11.688 -28.384  1.00  0.00    -0.028 C 
ATOM      8  C   UNL     1     -18.823  12.636 -29.855  1.00  0.00     0.039 C 
ATOM      9  C   UNL     1     -17.551  12.759 -29.058  1.00  0.00    -0.080 C 
ATOM     10  C   UNL     1     -16.861  14.100 -29.033  1.00  0.00     0.039 C 
ENDBRANCH   6   7
ENDBRANCH   5   6
ENDBRANCH   3   5
ENDBRANCH   1   2
BRANCH   1  11
ATOM     11  C   UNL     1     -11.602  13.996 -27.539  1.00  0.00     0.034 C 
BRANCH  11  12
ATOM     12  C   UNL     1     -11.654  13.906 -29.048  1.00  0.00    -0.077 C 
ATOM     13  C   UNL     1     -12.735  14.395 -29.698  1.00  0.00    -0.028 C 
ATOM     14  C   UNL     1     -10.504  13.262 -29.786  1.00  0.00     0.039 C 
BRANCH  13  15
ATOM     15  C   UNL     1     -12.886  14.423 -31.199  1.00  0.00     0.035 C 
BRANCH  15  16
ATOM     16  C   UNL     1     -14.357  14.593 -31.589  1.00  0.00     0.079 C 
BRANCH  16  17
ATOM     17  C   UNL     1     -14.915  13.310 -32.139  1.00  0.00     0.130 C 
ATOM     18  O   UNL     1     -15.478  13.309 -33.224  1.00  0.00    -0.300 OA
ATOM     19  C   UNL     1     -14.765  12.029 -31.377  1.00  0.00     0.087 C 
ENDBRANCH  16  17
ENDBRANCH  15  16
ENDBRANCH  13  15
ENDBRANCH  11  12
ENDBRANCH   1  11
TORSDOF 9
ENDMDL
MODEL 5
REMARK VINA RESULT:    -5.123      9.847     12.161
REMARK INTER + INTRA:          -9.833
REMARK INTER:                  -8.950
REMARK INTRA:                  -0.883
REMARK UNBOUND:                -2.015
REMARK SMILES CC(=O)CCC=C(C)CCC=C(C)CCC=C(C)C
REMARK SMILES IDX 10 1 11 2 12 3 13 4 14 5 15 6 16 7 18 8 17 9 19 10 9 11 7 12
REMARK SMILES IDX 6 13 8 14 5 15 4 16 2 17 3 18 1 19
REMARK H PARENT
REMARK Flexibility Score: inf
ROOT
ATOM      1  C   UNL     1     -25.568  17.161 -30.613  1.00  0.00     0.032 C 
ENDROOT
BRANCH   1   2
ATOM      2  C   UNL     1     -25.555  15.713 -30.193  1.00  0.00    -0.028 C 
ATOM      3  C   UNL     1     -24.599  14.823 -30.545  1.00  0.00    -0.077 C 
ATOM      4  C   UNL     1     -23.405  15.222 -31.381  1.00  0.00     0.039 C 
BRANCH   3   5
ATOM      5  C   UNL     1     -24.711  13.394 -30.060  1.00  0.00     0.034 C 
BRANCH   5   6
ATOM      6  C   UNL     1     -26.174  12.969 -29.878  1.00  0.00     0.032 C 
BRANCH   6   7
ATOM      7  C   UNL     1     -26.287  11.808 -28.917  1.00  0.00    -0.028 C 
ATOM      8  C   UNL     1     -27.356  10.366 -27.213  1.00  0.00     0.039 C 
ATOM      9  C   UNL     1     -27.388  11.514 -28.188  1.00  0.00    -0.080 C 
ATOM     10  C   UNL     1     -28.664  12.309 -28.301  1.00  0.00     0.039 C 
ENDBRANCH   6   7
ENDBRANCH   5   6
ENDBRANCH   3   5
ENDBRANCH   1   2
BRANCH   1  11
ATOM     11  C   UNL     1     -26.861  17.499 -31.364  1.00  0.00     0.034 C 
BRANCH  11  12
ATOM     12  C   UNL     1     -26.624  18.612 -32.361  1.00  0.00    -0.077 C 
ATOM     13  C   UNL     1     -25.360  19.045 -32.573  1.00  0.00    -0.028 C 
ATOM     14  C   UNL     1     -27.805  19.215 -33.084  1.00  0.00     0.039 C 
BRANCH  13  15
ATOM     15  C   UNL     1     -24.980  20.102 -33.580  1.00  0.00     0.035 C 
BRANCH  15  16
ATOM     16  C   UNL     1     -23.584  19.827 -34.149  1.00  0.00     0.079 C 
BRANCH  16  17
ATOM     17  C   UNL     1     -22.525  20.471 -33.298  1.00  0.00     0.130 C 
ATOM     18  O   UNL     1     -21.364  20.099 -33.390  1.00  0.00    -0.300 OA
ATOM     19  C   UNL     1     -22.878  21.582 -32.357  1.00  0.00     0.087 C 
ENDBRANCH  16  17
ENDBRANCH  15  16
ENDBRANCH  13  15
ENDBRANCH  11  12
ENDBRANCH   1  11
TORSDOF 9
ENDMDL
MODEL 6
REMARK VINA RESULT:    -5.065      2.126      4.740
REMARK INTER + INTRA:          -9.745
REMARK INTER:                  -7.709
REMARK INTRA:                  -2.036
REMARK UNBOUND:                -2.015
REMARK SMILES CC(=O)CCC=C(C)CCC=C(C)CCC=C(C)C
REMARK SMILES IDX 10 1 11 2 12 3 13 4 14 5 15 6 16 7 18 8 17 9 19 10 9 11 7 12
REMARK SMILES IDX 6 13 8 14 5 15 4 16 2 17 3 18 1 19
REMARK H PARENT
REMARK Flexibility Score: inf
ROOT
ATOM      1  C   UNL     1     -12.086  12.260 -27.255  1.00  0.00     0.032 C 
ENDROOT
BRANCH   1   2
ATOM      2  C   UNL     1     -13.582  12.074 -27.217  1.00  0.00    -0.028 C 
ATOM      3  C   UNL     1     -14.297  11.425 -28.164  1.00  0.00    -0.077 C 
ATOM      4  C   UNL     1     -13.636  10.775 -29.357  1.00  0.00     0.039 C 
BRANCH   3   5
ATOM      5  C   UNL     1     -15.798  11.318 -28.007  1.00  0.00     0.034 C 
BRANCH   5   6
ATOM      6  C   UNL     1     -16.479  12.688 -28.114  1.00  0.00     0.032 C 
BRANCH   6   7
ATOM      7  C   UNL     1     -16.245  13.307 -29.472  1.00  0.00    -0.028 C 
ATOM      8  C   UNL     1     -16.698  13.790 -31.857  1.00  0.00     0.039 C 
ATOM      9  C   UNL     1     -17.075  13.179 -30.533  1.00  0.00    -0.080 C 
ATOM     10  C   UNL     1     -18.376  12.422 -30.449  1.00  0.00     0.039 C 
ENDBRANCH   6   7
ENDBRANCH   5   6
ENDBRANCH   3   5
ENDBRANCH   1   2
BRANCH   1  11
ATOM     11  C   UNL     1     -11.725  13.717 -27.567  1.00  0.00     0.034 C 
BRANCH  11  12
ATOM     12  C   UNL     1     -11.694  13.951 -29.061  1.00  0.00    -0.077 C 
ATOM     13  C   UNL     1     -12.797  14.441 -29.672  1.00  0.00    -0.028 C 
ATOM     14  C   UNL     1     -10.436  13.622 -29.830  1.00  0.00     0.039 C 
BRANCH  13  15
ATOM     15  C   UNL     1     -12.880  14.775 -31.140  1.00  0.00     0.035 C 
BRANCH  15  16
ATOM     16  C   UNL     1     -12.949  13.497 -31.981  1.00  0.00     0.079 C 
BRANCH  16  17
ATOM     17  C   UNL     1     -12.045  13.596 -33.178  1.00  0.00     0.130 C 
ATOM     18  O   UNL     1     -12.209  12.843 -34.127  1.00  0.00    -0.300 OA
ATOM     19  C   UNL     1     -10.959  14.627 -33.226  1.00  0.00     0.087 C 
ENDBRANCH  16  17
ENDBRANCH  15  16
ENDBRANCH  13  15
ENDBRANCH  11  12
ENDBRANCH   1  11
TORSDOF 9
ENDMDL
MODEL 7
REMARK VINA RESULT:    -5.018      2.326      4.836
REMARK INTER + INTRA:          -9.673
REMARK INTER:                  -7.224
REMARK INTRA:                  -2.448
REMARK UNBOUND:                -2.015
REMARK SMILES CC(=O)CCC=C(C)CCC=C(C)CCC=C(C)C
REMARK SMILES IDX 10 1 11 2 12 3 13 4 14 5 15 6 16 7 18 8 17 9 19 10 9 11 7 12
REMARK SMILES IDX 6 13 8 14 5 15 4 16 2 17 3 18 1 19
REMARK H PARENT
REMARK Flexibility Score: inf
ROOT
ATOM      1  C   UNL     1     -13.442  11.146 -27.678  1.00  0.00     0.032 C 
ENDROOT
BRANCH   1   2
ATOM      2  C   UNL     1     -14.597  12.116 -27.694  1.00  0.00    -0.028 C 
ATOM      3  C   UNL     1     -15.733  11.940 -28.405  1.00  0.00    -0.077 C 
ATOM      4  C   UNL     1     -15.971  10.701 -29.238  1.00  0.00     0.039 C 
BRANCH   3   5
ATOM      5  C   UNL     1     -16.813  12.998 -28.339  1.00  0.00     0.034 C 
BRANCH   5   6
ATOM      6  C   UNL     1     -17.019  13.685 -29.695  1.00  0.00     0.032 C 
BRANCH   6   7
ATOM      7  C   UNL     1     -15.949  14.721 -29.948  1.00  0.00    -0.028 C 
ATOM      8  C   UNL     1     -13.865  15.646 -30.910  1.00  0.00     0.039 C 
ATOM      9  C   UNL     1     -14.906  14.563 -30.794  1.00  0.00    -0.080 C 
ATOM     10  C   UNL     1     -14.727  13.320 -31.629  1.00  0.00     0.039 C 
ENDBRANCH   6   7
ENDBRANCH   5   6
ENDBRANCH   3   5
ENDBRANCH   1   2
BRANCH   1  11
ATOM     11  C   UNL     1     -12.144  11.850 -27.267  1.00  0.00     0.034 C 
BRANCH  11  12
ATOM     12  C   UNL     1     -11.698  12.817 -28.342  1.00  0.00    -0.077 C 
ATOM     13  C   UNL     1     -11.434  12.345 -29.581  1.00  0.00    -0.028 C 
ATOM     14  C   UNL     1     -11.549  14.280 -27.997  1.00  0.00     0.039 C 
BRANCH  13  15
ATOM     15  C   UNL     1     -11.040  13.206 -30.755  1.00  0.00     0.035 C 
BRANCH  15  16
ATOM     16  C   UNL     1     -11.130  12.412 -32.061  1.00  0.00     0.079 C 
BRANCH  16  17
ATOM     17  C   UNL     1     -11.330  13.332 -33.233  1.00  0.00     0.130 C 
ATOM     18  O   UNL     1     -11.826  12.903 -34.264  1.00  0.00    -0.300 OA
ATOM     19  C   UNL     1     -10.947  14.777 -33.137  1.00  0.00     0.087 C 
ENDBRANCH  16  17
ENDBRANCH  15  16
ENDBRANCH  13  15
ENDBRANCH  11  12
ENDBRANCH   1  11
TORSDOF 9
ENDMDL
MODEL 8
REMARK VINA RESULT:    -4.990      0.910      4.390
REMARK INTER + INTRA:          -9.630
REMARK INTER:                  -7.578
REMARK INTRA:                  -2.053
REMARK UNBOUND:                -2.015
REMARK SMILES CC(=O)CCC=C(C)CCC=C(C)CCC=C(C)C
REMARK SMILES IDX 10 1 11 2 12 3 13 4 14 5 15 6 16 7 18 8 17 9 19 10 9 11 7 12
REMARK SMILES IDX 6 13 8 14 5 15 4 16 2 17 3 18 1 19
REMARK H PARENT
REMARK Flexibility Score: inf
ROOT
ATOM      1  C   UNL     1     -18.205  11.542 -29.267  1.00  0.00     0.032 C 
ENDROOT
BRANCH   1   2
ATOM      2  C   UNL     1     -17.627  12.212 -30.487  1.00  0.00    -0.028 C 
ATOM      3  C   UNL     1     -16.945  13.380 -30.467  1.00  0.00    -0.077 C 
ATOM      4  C   UNL     1     -16.658  14.116 -29.179  1.00  0.00     0.039 C 
BRANCH   3   5
ATOM      5  C   UNL     1     -16.423  13.950 -31.769  1.00  0.00     0.034 C 
BRANCH   5   6
ATOM      6  C   UNL     1     -15.316  13.074 -32.368  1.00  0.00     0.032 C 
BRANCH   6   7
ATOM      7  C   UNL     1     -14.175  12.898 -31.394  1.00  0.00    -0.028 C 
ATOM      8  C   UNL     1     -11.995  13.398 -30.333  1.00  0.00     0.039 C 
ATOM      9  C   UNL     1     -13.103  13.717 -31.303  1.00  0.00    -0.080 C 
ATOM     10  C   UNL     1     -12.958  14.951 -32.159  1.00  0.00     0.039 C 
ENDBRANCH   6   7
ENDBRANCH   5   6
ENDBRANCH   3   5
ENDBRANCH   1   2
BRANCH   1  11
ATOM     11  C   UNL     1     -17.555  10.173 -29.037  1.00  0.00     0.034 C 
BRANCH  11  12
ATOM     12  C   UNL     1     -16.382  10.293 -28.088  1.00  0.00    -0.077 C 
ATOM     13  C   UNL     1     -15.151  10.539 -28.593  1.00  0.00    -0.028 C 
ATOM     14  C   UNL     1     -16.616  10.122 -26.606  1.00  0.00     0.039 C 
BRANCH  13  15
ATOM     15  C   UNL     1     -13.912  10.739 -27.757  1.00  0.00     0.035 C 
BRANCH  15  16
ATOM     16  C   UNL     1     -13.768  12.209 -27.350  1.00  0.00     0.079 C 
BRANCH  16  17
ATOM     17  C   UNL     1     -12.408  12.471 -26.767  1.00  0.00     0.130 C 
ATOM     18  O   UNL     1     -12.043  13.621 -26.570  1.00  0.00    -0.300 OA
ATOM     19  C   UNL     1     -11.506  11.331 -26.403  1.00  0.00     0.087 C 
ENDBRANCH  16  17
ENDBRANCH  15  16
ENDBRANCH  13  15
ENDBRANCH  11  12
ENDBRANCH   1  11
TORSDOF 9
ENDMDL
MODEL 9
REMARK VINA RESULT:    -4.844      1.657      3.825
REMARK INTER + INTRA:          -9.408
REMARK INTER:                  -7.038
REMARK INTRA:                  -2.371
REMARK UNBOUND:                -2.015
REMARK SMILES CC(=O)CCC=C(C)CCC=C(C)CCC=C(C)C
REMARK SMILES IDX 10 1 11 2 12 3 13 4 14 5 15 6 16 7 18 8 17 9 19 10 9 11 7 12
REMARK SMILES IDX 6 13 8 14 5 15 4 16 2 17 3 18 1 19
REMARK H PARENT
REMARK Flexibility Score: inf
ROOT
ATOM      1  C   UNL     1     -11.628  14.544 -31.988  1.00  0.00     0.032 C 
ENDROOT
BRANCH   1   2
ATOM      2  C   UNL     1     -12.897  13.802 -32.321  1.00  0.00    -0.028 C 
ATOM      3  C   UNL     1     -14.108  14.078 -31.784  1.00  0.00    -0.077 C 
ATOM      4  C   UNL     1     -14.308  15.213 -30.807  1.00  0.00     0.039 C 
BRANCH   3   5
ATOM      5  C   UNL     1     -15.302  13.247 -32.200  1.00  0.00     0.034 C 
BRANCH   5   6
ATOM      6  C   UNL     1     -16.625  13.953 -31.876  1.00  0.00     0.032 C 
BRANCH   6   7
ATOM      7  C   UNL     1     -17.619  12.992 -31.266  1.00  0.00    -0.028 C 
ATOM      8  C   UNL     1     -18.811  11.804 -29.451  1.00  0.00     0.039 C 
ATOM      9  C   UNL     1     -17.839  12.846 -29.939  1.00  0.00    -0.080 C 
ATOM     10  C   UNL     1     -17.127  13.686 -28.909  1.00  0.00     0.039 C 
ENDBRANCH   6   7
ENDBRANCH   5   6
ENDBRANCH   3   5
ENDBRANCH   1   2
BRANCH   1  11
ATOM     11  C   UNL     1     -10.546  13.579 -31.490  1.00  0.00     0.034 C 
BRANCH  11  12
ATOM     12  C   UNL     1     -11.062  12.748 -30.336  1.00  0.00    -0.077 C 
ATOM     13  C   UNL     1     -11.497  13.374 -29.219  1.00  0.00    -0.028 C 
ATOM     14  C   UNL     1     -11.065  11.242 -30.459  1.00  0.00     0.039 C 
BRANCH  13  15
ATOM     15  C   UNL     1     -12.089  12.670 -28.024  1.00  0.00     0.035 C 
BRANCH  15  16
ATOM     16  C   UNL     1     -13.606  12.526 -28.180  1.00  0.00     0.079 C 
BRANCH  16  17
ATOM     17  C   UNL     1     -13.988  11.087 -28.381  1.00  0.00     0.130 C 
ATOM     18  O   UNL     1     -13.574  10.235 -27.609  1.00  0.00    -0.300 OA
ATOM     19  C   UNL     1     -14.894  10.692 -29.508  1.00  0.00     0.087 C 
ENDBRANCH  16  17
ENDBRANCH  15  16
ENDBRANCH  13  15
ENDBRANCH  11  12
ENDBRANCH   1  11
TORSDOF 9
ENDMDL
