MODEL 1
REMARK VINA RESULT:    -4.969      0.000      0.000
REMARK INTER + INTRA:          -4.969
REMARK INTER:                  -4.969
REMARK INTRA:                   0.000
REMARK UNBOUND:                 0.000
REMARK SMILES C=C1[C@H]2CC[C@H](C2)C1(C)C
REMARK SMILES IDX 9 1 8 2 6 3 5 4 4 5 3 6 7 7 2 8 1 9 10 10
REMARK H PARENT
REMARK Flexibility Score: inf
ROOT
ATOM      1  C   UNL     1       6.753   6.760  15.892  1.00  0.00     0.016 C 
ATOM      2  C   UNL     1       6.784   7.389  14.482  1.00  0.00    -0.012 C 
ATOM      3  C   UNL     1       8.109   7.023  13.724  1.00  0.00    -0.001 C 
ATOM      4  C   UNL     1       8.226   7.805  12.393  1.00  0.00     0.005 C 
ATOM      5  C   UNL     1       7.096   7.195  11.536  1.00  0.00     0.008 C 
ATOM      6  C   UNL     1       6.548   6.072  12.434  1.00  0.00     0.015 C 
ATOM      7  C   UNL     1       7.798   5.637  13.167  1.00  0.00     0.012 C 
ATOM      8  C   UNL     1       5.789   6.725  13.559  1.00  0.00    -0.068 C 
ATOM      9  C   UNL     1       4.456   6.750  13.677  1.00  0.00     0.008 C 
ATOM     10  C   UNL     1       6.531   8.909  14.602  1.00  0.00     0.016 C 
ENDROOT
TORSDOF 0
ENDMDL
MODEL 2
REMARK VINA RESULT:    -4.941     14.529     16.501
REMARK INTER + INTRA:          -4.941
REMARK INTER:                  -4.941
REMARK INTRA:                   0.000
REMARK UNBOUND:                 0.000
REMARK SMILES C=C1[C@H]2CC[C@H](C2)C1(C)C
REMARK SMILES IDX 9 1 8 2 6 3 5 4 4 5 3 6 7 7 2 8 1 9 10 10
REMARK H PARENT
REMARK Flexibility Score: inf
ROOT
ATOM      1  C   UNL     1       9.749   3.518  27.347  1.00  0.00     0.016 C 
ATOM      2  C   UNL     1       9.803   4.685  28.357  1.00  0.00    -0.012 C 
ATOM      3  C   UNL     1       9.289   4.238  29.771  1.00  0.00    -0.001 C 
ATOM      4  C   UNL     1       9.162   5.447  30.728  1.00  0.00     0.005 C 
ATOM      5  C   UNL     1      10.631   5.865  30.953  1.00  0.00     0.008 C 
ATOM      6  C   UNL     1      11.418   4.782  30.191  1.00  0.00     0.015 C 
ATOM      7  C   UNL     1      10.524   3.576  30.376  1.00  0.00     0.012 C 
ATOM      8  C   UNL     1      11.226   5.037  28.720  1.00  0.00    -0.068 C 
ATOM      9  C   UNL     1      12.154   5.542  27.898  1.00  0.00     0.008 C 
ATOM     10  C   UNL     1       9.043   5.895  27.770  1.00  0.00     0.016 C 
ENDROOT
TORSDOF 0
ENDMDL
MODEL 3
REMARK VINA RESULT:    -4.853      1.064      2.442
REMARK INTER + INTRA:          -4.853
REMARK INTER:                  -4.853
REMARK INTRA:                   0.000
REMARK UNBOUND:                 0.000
REMARK SMILES C=C1[C@H]2CC[C@H](C2)C1(C)C
REMARK SMILES IDX 9 1 8 2 6 3 5 4 4 5 3 6 7 7 2 8 1 9 10 10
REMARK H PARENT
REMARK Flexibility Score: inf
ROOT
ATOM      1  C   UNL     1       6.385   8.840  14.671  1.00  0.00     0.016 C 
ATOM      2  C   UNL     1       7.182   7.716  13.973  1.00  0.00    -0.012 C 
ATOM      3  C   UNL     1       6.391   6.360  13.991  1.00  0.00    -0.001 C 
ATOM      4  C   UNL     1       7.265   5.197  13.465  1.00  0.00     0.005 C 
ATOM      5  C   UNL     1       7.431   5.539  11.969  1.00  0.00     0.008 C 
ATOM      6  C   UNL     1       6.546   6.788  11.801  1.00  0.00     0.015 C 
ATOM      7  C   UNL     1       5.447   6.514  12.803  1.00  0.00     0.012 C 
ATOM      8  C   UNL     1       7.250   7.933  12.479  1.00  0.00    -0.068 C 
ATOM      9  C   UNL     1       7.873   8.937  11.849  1.00  0.00     0.008 C 
ATOM     10  C   UNL     1       8.589   7.628  14.605  1.00  0.00     0.016 C 
ENDROOT
TORSDOF 0
ENDMDL
MODEL 4
REMARK VINA RESULT:    -4.756     14.147     16.047
REMARK INTER + INTRA:          -4.756
REMARK INTER:                  -4.756
REMARK INTRA:                   0.000
REMARK UNBOUND:                 0.000
REMARK SMILES C=C1[C@H]2CC[C@H](C2)C1(C)C
REMARK SMILES IDX 9 1 8 2 6 3 5 4 4 5 3 6 7 7 2 8 1 9 10 10
REMARK H PARENT
REMARK Flexibility Score: inf
ROOT
ATOM      1  C   UNL     1      10.833   7.537  27.764  1.00  0.00     0.016 C 
ATOM      2  C   UNL     1       9.957   6.353  28.232  1.00  0.00    -0.012 C 
ATOM      3  C   UNL     1      10.738   4.995  28.140  1.00  0.00    -0.001 C 
ATOM      4  C   UNL     1       9.805   3.794  28.424  1.00  0.00     0.005 C 
ATOM      5  C   UNL     1       9.475   3.961  29.922  1.00  0.00     0.008 C 
ATOM      6  C   UNL     1      10.341   5.165  30.334  1.00  0.00     0.015 C 
ATOM      7  C   UNL     1      11.544   4.990  29.435  1.00  0.00     0.012 C 
ATOM      8  C   UNL     1       9.724   6.394  29.724  1.00  0.00    -0.068 C 
ATOM      9  C   UNL     1       9.040   7.329  30.396  1.00  0.00     0.008 C 
ATOM     10  C   UNL     1       8.629   6.367  27.442  1.00  0.00     0.016 C 
ENDROOT
TORSDOF 0
ENDMDL
MODEL 5
REMARK VINA RESULT:    -4.737      1.094      3.135
REMARK INTER + INTRA:          -4.737
REMARK INTER:                  -4.737
REMARK INTRA:                   0.000
REMARK UNBOUND:                 0.000
REMARK SMILES C=C1[C@H]2CC[C@H](C2)C1(C)C
REMARK SMILES IDX 9 1 8 2 6 3 5 4 4 5 3 6 7 7 2 8 1 9 10 10
REMARK H PARENT
REMARK Flexibility Score: inf
ROOT
ATOM      1  C   UNL     1       6.759   5.433  11.077  1.00  0.00     0.016 C 
ATOM      2  C   UNL     1       6.526   6.222  12.385  1.00  0.00    -0.012 C 
ATOM      3  C   UNL     1       6.964   5.386  13.639  1.00  0.00    -0.001 C 
ATOM      4  C   UNL     1       6.555   6.095  14.953  1.00  0.00     0.005 C 
ATOM      5  C   UNL     1       7.466   7.341  14.969  1.00  0.00     0.008 C 
ATOM      6  C   UNL     1       8.354   7.136  13.728  1.00  0.00     0.015 C 
ATOM      7  C   UNL     1       8.469   5.629  13.688  1.00  0.00     0.012 C 
ATOM      8  C   UNL     1       7.494   7.374  12.515  1.00  0.00    -0.068 C 
ATOM      9  C   UNL     1       7.555   8.455  11.727  1.00  0.00     0.008 C 
ATOM     10  C   UNL     1       5.057   6.698  12.431  1.00  0.00     0.016 C 
ENDROOT
TORSDOF 0
ENDMDL
MODEL 6
REMARK VINA RESULT:    -4.674     14.165     15.552
REMARK INTER + INTRA:          -4.674
REMARK INTER:                  -4.674
REMARK INTRA:                   0.000
REMARK UNBOUND:                 0.000
REMARK SMILES C=C1[C@H]2CC[C@H](C2)C1(C)C
REMARK SMILES IDX 9 1 8 2 6 3 5 4 4 5 3 6 7 7 2 8 1 9 10 10
REMARK H PARENT
REMARK Flexibility Score: inf
ROOT
ATOM      1  C   UNL     1       9.940   3.907  27.804  1.00  0.00     0.016 C 
ATOM      2  C   UNL     1      10.444   5.300  28.243  1.00  0.00    -0.012 C 
ATOM      3  C   UNL     1      10.018   6.408  27.217  1.00  0.00    -0.001 C 
ATOM      4  C   UNL     1      10.682   7.765  27.553  1.00  0.00     0.005 C 
ATOM      5  C   UNL     1       9.997   8.165  28.877  1.00  0.00     0.008 C 
ATOM      6  C   UNL     1       8.954   7.050  29.076  1.00  0.00     0.015 C 
ATOM      7  C   UNL     1       8.588   6.723  27.646  1.00  0.00     0.012 C 
ATOM      8  C   UNL     1       9.699   5.799  29.458  1.00  0.00    -0.068 C 
ATOM      9  C   UNL     1       9.729   5.264  30.685  1.00  0.00     0.008 C 
ATOM     10  C   UNL     1      11.967   5.228  28.492  1.00  0.00     0.016 C 
ENDROOT
TORSDOF 0
ENDMDL
MODEL 7
REMARK VINA RESULT:    -4.656      0.841      2.924
REMARK INTER + INTRA:          -4.656
REMARK INTER:                  -4.656
REMARK INTRA:                   0.000
REMARK UNBOUND:                 0.000
REMARK SMILES C=C1[C@H]2CC[C@H](C2)C1(C)C
REMARK SMILES IDX 9 1 8 2 6 3 5 4 4 5 3 6 7 7 2 8 1 9 10 10
REMARK H PARENT
REMARK Flexibility Score: inf
ROOT
ATOM      1  C   UNL     1       6.454   7.112  11.103  1.00  0.00     0.016 C 
ATOM      2  C   UNL     1       6.893   6.775  12.545  1.00  0.00    -0.012 C 
ATOM      3  C   UNL     1       8.065   7.708  13.016  1.00  0.00    -0.001 C 
ATOM      4  C   UNL     1       8.631   7.248  14.380  1.00  0.00     0.005 C 
ATOM      5  C   UNL     1       7.470   7.546  15.353  1.00  0.00     0.008 C 
ATOM      6  C   UNL     1       6.432   8.238  14.451  1.00  0.00     0.015 C 
ATOM      7  C   UNL     1       7.325   8.963  13.469  1.00  0.00     0.012 C 
ATOM      8  C   UNL     1       5.844   7.183  13.552  1.00  0.00    -0.068 C 
ATOM      9  C   UNL     1       4.614   6.666  13.673  1.00  0.00     0.008 C 
ATOM     10  C   UNL     1       7.219   5.268  12.633  1.00  0.00     0.016 C 
ENDROOT
TORSDOF 0
ENDMDL
MODEL 8
REMARK VINA RESULT:    -4.620      1.069      2.174
REMARK INTER + INTRA:          -4.620
REMARK INTER:                  -4.620
REMARK INTRA:                   0.000
REMARK UNBOUND:                 0.000
REMARK SMILES C=C1[C@H]2CC[C@H](C2)C1(C)C
REMARK SMILES IDX 9 1 8 2 6 3 5 4 4 5 3 6 7 7 2 8 1 9 10 10
REMARK H PARENT
REMARK Flexibility Score: inf
ROOT
ATOM      1  C   UNL     1       7.060   8.000  14.830  1.00  0.00     0.016 C 
ATOM      2  C   UNL     1       6.489   7.085  13.723  1.00  0.00    -0.012 C 
ATOM      3  C   UNL     1       6.749   7.687  12.297  1.00  0.00    -0.001 C 
ATOM      4  C   UNL     1       6.014   6.872  11.205  1.00  0.00     0.005 C 
ATOM      5  C   UNL     1       6.770   5.527  11.212  1.00  0.00     0.008 C 
ATOM      6  C   UNL     1       7.906   5.774  12.221  1.00  0.00     0.015 C 
ATOM      7  C   UNL     1       8.180   7.246  12.009  1.00  0.00     0.012 C 
ATOM      8  C   UNL     1       7.289   5.810  13.594  1.00  0.00    -0.068 C 
ATOM      9  C   UNL     1       7.396   4.842  14.513  1.00  0.00     0.008 C 
ATOM     10  C   UNL     1       5.000   6.802  14.022  1.00  0.00     0.016 C 
ENDROOT
TORSDOF 0
ENDMDL
MODEL 9
REMARK VINA RESULT:    -4.615     14.317     16.249
REMARK INTER + INTRA:          -4.615
REMARK INTER:                  -4.615
REMARK INTRA:                   0.000
REMARK UNBOUND:                 0.000
REMARK SMILES C=C1[C@H]2CC[C@H](C2)C1(C)C
REMARK SMILES IDX 9 1 8 2 6 3 5 4 4 5 3 6 7 7 2 8 1 9 10 10
REMARK H PARENT
REMARK Flexibility Score: inf
ROOT
ATOM      1  C   UNL     1       9.825   6.660  27.421  1.00  0.00     0.016 C 
ATOM      2  C   UNL     1      10.570   5.639  28.310  1.00  0.00    -0.012 C 
ATOM      3  C   UNL     1      10.443   6.008  29.830  1.00  0.00    -0.001 C 
ATOM      4  C   UNL     1      11.342   5.101  30.702  1.00  0.00     0.005 C 
ATOM      5  C   UNL     1      10.667   3.719  30.572  1.00  0.00     0.008 C 
ATOM      6  C   UNL     1       9.411   4.026  29.737  1.00  0.00     0.015 C 
ATOM      7  C   UNL     1       9.081   5.428  30.198  1.00  0.00     0.012 C 
ATOM      8  C   UNL     1       9.863   4.304  28.328  1.00  0.00    -0.068 C 
ATOM      9  C   UNL     1       9.705   3.473  27.290  1.00  0.00     0.008 C 
ATOM     10  C   UNL     1      12.028   5.510  27.816  1.00  0.00     0.016 C 
ENDROOT
TORSDOF 0
ENDMDL
