MODEL 1
REMARK VINA RESULT:    -2.250      0.000      0.000
REMARK INTER + INTRA:          -7.541
REMARK INTER:                  -5.932
REMARK INTRA:                  -1.609
REMARK UNBOUND:                -1.609
REMARK SMILES CCCCCCCCCCCCCCCCCCCCCCCCCCCCCC(=O)[O-]
REMARK SMILES IDX 16 1 17 2 18 3 19 4 20 5 21 6 22 7 23 8 24 9 25 10 26 11
REMARK SMILES IDX 27 12 28 13 29 14 30 15 31 16 32 17 15 18 14 19 13 20 12 21
REMARK SMILES IDX 11 22 10 23 9 24 8 25 7 26 6 27 5 28 4 29 3 30 2 31 1 32
REMARK H PARENT
REMARK Flexibility Score: inf
ROOT
ATOM      1  C   UNL     1      -1.315  19.941  16.705  1.00  0.00     0.000 C 
ENDROOT
BRANCH   1   2
ATOM      2  C   UNL     1      -0.171  20.970  16.761  1.00  0.00     0.000 C 
BRANCH   2   3
ATOM      3  C   UNL     1       0.639  21.118  15.458  1.00  0.00     0.000 C 
BRANCH   3   4
ATOM      4  C   UNL     1       1.871  20.191  15.382  1.00  0.00     0.000 C 
BRANCH   4   5
ATOM      5  C   UNL     1       2.594  20.068  16.735  1.00  0.00     0.000 C 
BRANCH   5   6
ATOM      6  C   UNL     1       4.027  20.618  16.694  1.00  0.00     0.000 C 
BRANCH   6   7
ATOM      7  C   UNL     1       4.848  20.043  15.525  1.00  0.00     0.000 C 
BRANCH   7   8
ATOM      8  C   UNL     1       6.116  20.857  15.227  1.00  0.00     0.000 C 
BRANCH   8   9
ATOM      9  C   UNL     1       7.394  20.174  15.743  1.00  0.00     0.000 C 
BRANCH   9  10
ATOM     10  C   UNL     1       8.466  20.016  14.650  1.00  0.00     0.000 C 
BRANCH  10  11
ATOM     11  C   UNL     1       8.888  21.326  13.953  1.00  0.00     0.000 C 
BRANCH  11  12
ATOM     12  C   UNL     1      10.107  21.211  13.016  1.00  0.00     0.000 C 
BRANCH  12  13
ATOM     13  C   UNL     1      10.081  20.001  12.065  1.00  0.00     0.006 C 
BRANCH  13  14
ATOM     14  C   UNL     1      10.667  20.319  10.683  1.00  0.00     0.053 C 
BRANCH  14  15
ATOM     15  C   UNL     1       9.581  20.690   9.723  1.00  0.00     0.041 C 
ATOM     16  O   UNL     1       8.407  20.264   9.896  1.00  0.00    -0.550 OA
ATOM     17  O   UNL     1       9.871  21.476   8.614  1.00  0.00    -0.550 OA
ENDBRANCH  14  15
ENDBRANCH  13  14
ENDBRANCH  12  13
ENDBRANCH  11  12
ENDBRANCH  10  11
ENDBRANCH   9  10
ENDBRANCH   8   9
ENDBRANCH   7   8
ENDBRANCH   6   7
ENDBRANCH   5   6
ENDBRANCH   4   5
ENDBRANCH   3   4
ENDBRANCH   2   3
ENDBRANCH   1   2
BRANCH   1  18
ATOM     18  C   UNL     1      -2.147  19.909  18.001  1.00  0.00     0.000 C 
BRANCH  18  19
ATOM     19  C   UNL     1      -3.630  20.241  17.763  1.00  0.00     0.000 C 
BRANCH  19  20
ATOM     20  C   UNL     1      -4.111  20.058  16.311  1.00  0.00     0.000 C 
BRANCH  20  21
ATOM     21  C   UNL     1      -5.195  21.070  15.886  1.00  0.00     0.000 C 
BRANCH  21  22
ATOM     22  C   UNL     1      -5.719  20.794  14.466  1.00  0.00     0.000 C 
BRANCH  22  23
ATOM     23  C   UNL     1      -7.230  20.519  14.434  1.00  0.00     0.000 C 
BRANCH  23  24
ATOM     24  C   UNL     1      -7.998  21.303  15.511  1.00  0.00    -0.000 C 
BRANCH  24  25
ATOM     25  C   UNL     1      -8.923  20.404  16.344  1.00  0.00    -0.000 C 
BRANCH  25  26
ATOM     26  C   UNL     1      -8.241  19.878  17.621  1.00  0.00    -0.000 C 
BRANCH  26  27
ATOM     27  C   UNL     1      -9.025  20.229  18.895  1.00  0.00    -0.000 C 
BRANCH  27  28
ATOM     28  C   UNL     1      -8.134  20.857  19.981  1.00  0.00    -0.000 C 
BRANCH  28  29
ATOM     29  C   UNL     1      -8.216  22.393  20.005  1.00  0.00    -0.000 C 
BRANCH  29  30
ATOM     30  C   UNL     1      -8.792  22.993  21.304  1.00  0.00    -0.000 C 
BRANCH  30  31
ATOM     31  C   UNL     1      -7.891  22.846  22.544  1.00  0.00    -0.003 C 
ATOM     32  C   UNL     1      -8.151  21.557  23.320  1.00  0.00     0.004 C 
ENDBRANCH  30  31
ENDBRANCH  29  30
ENDBRANCH  28  29
ENDBRANCH  27  28
ENDBRANCH  26  27
ENDBRANCH  25  26
ENDBRANCH  24  25
ENDBRANCH  23  24
ENDBRANCH  22  23
ENDBRANCH  21  22
ENDBRANCH  20  21
ENDBRANCH  19  20
ENDBRANCH  18  19
ENDBRANCH   1  18
TORSDOF 28
ENDMDL
MODEL 2
REMARK VINA RESULT:    -2.177      2.602      3.293
REMARK INTER + INTRA:          -7.350
REMARK INTER:                  -5.846
REMARK INTRA:                  -1.504
REMARK UNBOUND:                -1.609
REMARK SMILES CCCCCCCCCCCCCCCCCCCCCCCCCCCCCC(=O)[O-]
REMARK SMILES IDX 16 1 17 2 18 3 19 4 20 5 21 6 22 7 23 8 24 9 25 10 26 11
REMARK SMILES IDX 27 12 28 13 29 14 30 15 31 16 32 17 15 18 14 19 13 20 12 21
REMARK SMILES IDX 11 22 10 23 9 24 8 25 7 26 6 27 5 28 4 29 3 30 2 31 1 32
REMARK H PARENT
REMARK Flexibility Score: inf
ROOT
ATOM      1  C   UNL     1       0.043  19.880  16.436  1.00  0.00     0.000 C 
ENDROOT
BRANCH   1   2
ATOM      2  C   UNL     1       0.986  21.092  16.548  1.00  0.00     0.000 C 
BRANCH   2   3
ATOM      3  C   UNL     1       2.462  20.806  16.209  1.00  0.00     0.000 C 
BRANCH   3   4
ATOM      4  C   UNL     1       3.450  21.233  17.316  1.00  0.00     0.000 C 
BRANCH   4   5
ATOM      5  C   UNL     1       4.901  21.304  16.808  1.00  0.00     0.000 C 
BRANCH   5   6
ATOM      6  C   UNL     1       5.242  20.173  15.826  1.00  0.00     0.000 C 
BRANCH   6   7
ATOM      7  C   UNL     1       5.380  20.671  14.376  1.00  0.00     0.000 C 
BRANCH   7   8
ATOM      8  C   UNL     1       6.415  19.875  13.567  1.00  0.00     0.000 C 
BRANCH   8   9
ATOM      9  C   UNL     1       7.835  19.992  14.144  1.00  0.00     0.000 C 
BRANCH   9  10
ATOM     10  C   UNL     1       8.598  21.216  13.605  1.00  0.00     0.000 C 
BRANCH  10  11
ATOM     11  C   UNL     1      10.033  20.929  13.118  1.00  0.00     0.000 C 
BRANCH  11  12
ATOM     12  C   UNL     1      11.125  21.846  13.707  1.00  0.00     0.000 C 
BRANCH  12  13
ATOM     13  C   UNL     1      10.681  22.682  14.920  1.00  0.00     0.006 C 
BRANCH  13  14
ATOM     14  C   UNL     1      11.119  22.069  16.257  1.00  0.00     0.053 C 
BRANCH  14  15
ATOM     15  C   UNL     1      10.339  22.661  17.389  1.00  0.00     0.041 C 
ATOM     16  O   UNL     1       9.136  22.998  17.223  1.00  0.00    -0.550 OA
ATOM     17  O   UNL     1      10.951  22.875  18.619  1.00  0.00    -0.550 OA
ENDBRANCH  14  15
ENDBRANCH  13  14
ENDBRANCH  12  13
ENDBRANCH  11  12
ENDBRANCH  10  11
ENDBRANCH   9  10
ENDBRANCH   8   9
ENDBRANCH   7   8
ENDBRANCH   6   7
ENDBRANCH   5   6
ENDBRANCH   4   5
ENDBRANCH   3   4
ENDBRANCH   2   3
ENDBRANCH   1   2
BRANCH   1  18
ATOM     18  C   UNL     1      -1.100  19.921  17.467  1.00  0.00     0.000 C 
BRANCH  18  19
ATOM     19  C   UNL     1      -2.490  19.971  16.811  1.00  0.00     0.000 C 
BRANCH  19  20
ATOM     20  C   UNL     1      -2.636  21.004  15.678  1.00  0.00     0.000 C 
BRANCH  20  21
ATOM     21  C   UNL     1      -4.067  21.564  15.532  1.00  0.00     0.000 C 
BRANCH  21  22
ATOM     22  C   UNL     1      -5.078  20.472  15.144  1.00  0.00     0.000 C 
BRANCH  22  23
ATOM     23  C   UNL     1      -6.209  21.002  14.250  1.00  0.00     0.000 C 
BRANCH  23  24
ATOM     24  C   UNL     1      -7.473  21.367  15.046  1.00  0.00    -0.000 C 
BRANCH  24  25
ATOM     25  C   UNL     1      -8.314  20.134  15.410  1.00  0.00    -0.000 C 
BRANCH  25  26
ATOM     26  C   UNL     1      -9.033  20.288  16.763  1.00  0.00    -0.000 C 
BRANCH  26  27
ATOM     27  C   UNL     1      -8.614  21.563  17.511  1.00  0.00    -0.000 C 
BRANCH  27  28
ATOM     28  C   UNL     1      -8.899  21.481  19.021  1.00  0.00    -0.000 C 
BRANCH  28  29
ATOM     29  C   UNL     1      -7.694  20.971  19.829  1.00  0.00    -0.000 C 
BRANCH  29  30
ATOM     30  C   UNL     1      -7.927  20.871  21.351  1.00  0.00    -0.000 C 
BRANCH  30  31
ATOM     31  C   UNL     1      -7.683  22.172  22.135  1.00  0.00    -0.003 C 
ATOM     32  C   UNL     1      -8.807  22.497  23.117  1.00  0.00     0.004 C 
ENDBRANCH  30  31
ENDBRANCH  29  30
ENDBRANCH  28  29
ENDBRANCH  27  28
ENDBRANCH  26  27
ENDBRANCH  25  26
ENDBRANCH  24  25
ENDBRANCH  23  24
ENDBRANCH  22  23
ENDBRANCH  21  22
ENDBRANCH  20  21
ENDBRANCH  19  20
ENDBRANCH  18  19
ENDBRANCH   1  18
TORSDOF 28
ENDMDL
MODEL 3
REMARK VINA RESULT:    -2.082      1.983      2.431
REMARK INTER + INTRA:          -7.099
REMARK INTER:                  -5.270
REMARK INTRA:                  -1.829
REMARK UNBOUND:                -1.609
REMARK SMILES CCCCCCCCCCCCCCCCCCCCCCCCCCCCCC(=O)[O-]
REMARK SMILES IDX 16 1 17 2 18 3 19 4 20 5 21 6 22 7 23 8 24 9 25 10 26 11
REMARK SMILES IDX 27 12 28 13 29 14 30 15 31 16 32 17 15 18 14 19 13 20 12 21
REMARK SMILES IDX 11 22 10 23 9 24 8 25 7 26 6 27 5 28 4 29 3 30 2 31 1 32
REMARK H PARENT
REMARK Flexibility Score: inf
ROOT
ATOM      1  C   UNL     1      -1.583  20.210  17.826  1.00  0.00     0.000 C 
ENDROOT
BRANCH   1   2
ATOM      2  C   UNL     1      -0.054  20.395  17.798  1.00  0.00     0.000 C 
BRANCH   2   3
ATOM      3  C   UNL     1       0.522  20.877  16.452  1.00  0.00     0.000 C 
BRANCH   3   4
ATOM      4  C   UNL     1       1.834  20.173  16.048  1.00  0.00     0.000 C 
BRANCH   4   5
ATOM      5  C   UNL     1       3.079  20.995  16.426  1.00  0.00     0.000 C 
BRANCH   5   6
ATOM      6  C   UNL     1       4.390  20.315  16.004  1.00  0.00     0.000 C 
BRANCH   6   7
ATOM      7  C   UNL     1       5.624  20.942  16.679  1.00  0.00     0.000 C 
BRANCH   7   8
ATOM      8  C   UNL     1       6.895  20.828  15.823  1.00  0.00     0.000 C 
BRANCH   8   9
ATOM      9  C   UNL     1       6.599  20.396  14.377  1.00  0.00     0.000 C 
BRANCH   9  10
ATOM     10  C   UNL     1       7.849  19.879  13.643  1.00  0.00     0.000 C 
BRANCH  10  11
ATOM     11  C   UNL     1       7.942  20.271  12.154  1.00  0.00     0.000 C 
BRANCH  11  12
ATOM     12  C   UNL     1       9.354  20.645  11.658  1.00  0.00     0.000 C 
BRANCH  12  13
ATOM     13  C   UNL     1      10.454  20.589  12.733  1.00  0.00     0.006 C 
BRANCH  13  14
ATOM     14  C   UNL     1      10.859  21.980  13.240  1.00  0.00     0.053 C 
BRANCH  14  15
ATOM     15  C   UNL     1      10.805  22.032  14.735  1.00  0.00     0.041 C 
ATOM     16  O   UNL     1      10.633  20.976  15.401  1.00  0.00    -0.550 OA
ATOM     17  O   UNL     1      10.907  23.252  15.393  1.00  0.00    -0.550 OA
ENDBRANCH  14  15
ENDBRANCH  13  14
ENDBRANCH  12  13
ENDBRANCH  11  12
ENDBRANCH  10  11
ENDBRANCH   9  10
ENDBRANCH   8   9
ENDBRANCH   7   8
ENDBRANCH   6   7
ENDBRANCH   5   6
ENDBRANCH   4   5
ENDBRANCH   3   4
ENDBRANCH   2   3
ENDBRANCH   1   2
BRANCH   1  18
ATOM     18  C   UNL     1      -2.165  19.880  16.439  1.00  0.00     0.000 C 
BRANCH  18  19
ATOM     19  C   UNL     1      -3.700  19.953  16.406  1.00  0.00     0.000 C 
BRANCH  19  20
ATOM     20  C   UNL     1      -4.275  21.324  16.000  1.00  0.00     0.000 C 
BRANCH  20  21
ATOM     21  C   UNL     1      -5.161  21.274  14.737  1.00  0.00     0.000 C 
BRANCH  21  22
ATOM     22  C   UNL     1      -6.374  20.345  14.918  1.00  0.00     0.000 C 
BRANCH  22  23
ATOM     23  C   UNL     1      -7.703  21.112  14.985  1.00  0.00     0.000 C 
BRANCH  23  24
ATOM     24  C   UNL     1      -8.546  20.733  16.214  1.00  0.00    -0.000 C 
BRANCH  24  25
ATOM     25  C   UNL     1      -8.988  21.960  17.023  1.00  0.00    -0.000 C 
BRANCH  25  26
ATOM     26  C   UNL     1      -8.716  21.802  18.530  1.00  0.00    -0.000 C 
BRANCH  26  27
ATOM     27  C   UNL     1      -7.364  21.132  18.819  1.00  0.00    -0.000 C 
BRANCH  27  28
ATOM     28  C   UNL     1      -6.885  21.368  20.262  1.00  0.00    -0.000 C 
BRANCH  28  29
ATOM     29  C   UNL     1      -7.294  20.236  21.219  1.00  0.00    -0.000 C 
BRANCH  29  30
ATOM     30  C   UNL     1      -8.303  20.643  22.313  1.00  0.00    -0.000 C 
BRANCH  30  31
ATOM     31  C   UNL     1      -7.680  21.268  23.574  1.00  0.00    -0.003 C 
ATOM     32  C   UNL     1      -7.717  22.795  23.562  1.00  0.00     0.004 C 
ENDBRANCH  30  31
ENDBRANCH  29  30
ENDBRANCH  28  29
ENDBRANCH  27  28
ENDBRANCH  26  27
ENDBRANCH  25  26
ENDBRANCH  24  25
ENDBRANCH  23  24
ENDBRANCH  22  23
ENDBRANCH  21  22
ENDBRANCH  20  21
ENDBRANCH  19  20
ENDBRANCH  18  19
ENDBRANCH   1  18
TORSDOF 28
ENDMDL
MODEL 4
REMARK VINA RESULT:    -2.023      5.289     15.748
REMARK INTER + INTRA:          -6.943
REMARK INTER:                  -5.635
REMARK INTRA:                  -1.308
REMARK UNBOUND:                -1.609
REMARK SMILES CCCCCCCCCCCCCCCCCCCCCCCCCCCCCC(=O)[O-]
REMARK SMILES IDX 16 1 17 2 18 3 19 4 20 5 21 6 22 7 23 8 24 9 25 10 26 11
REMARK SMILES IDX 27 12 28 13 29 14 30 15 31 16 32 17 15 18 14 19 13 20 12 21
REMARK SMILES IDX 11 22 10 23 9 24 8 25 7 26 6 27 5 28 4 29 3 30 2 31 1 32
REMARK H PARENT
REMARK Flexibility Score: inf
ROOT
ATOM      1  C   UNL     1      -0.088  20.971  17.061  1.00  0.00     0.000 C 
ENDROOT
BRANCH   1   2
ATOM      2  C   UNL     1      -1.236  19.949  17.157  1.00  0.00     0.000 C 
BRANCH   2   3
ATOM      3  C   UNL     1      -2.331  20.093  16.082  1.00  0.00     0.000 C 
BRANCH   3   4
ATOM      4  C   UNL     1      -3.763  19.883  16.620  1.00  0.00     0.000 C 
BRANCH   4   5
ATOM      5  C   UNL     1      -4.831  20.078  15.529  1.00  0.00     0.000 C 
BRANCH   5   6
ATOM      6  C   UNL     1      -5.251  21.547  15.367  1.00  0.00     0.000 C 
BRANCH   6   7
ATOM      7  C   UNL     1      -6.749  21.700  15.042  1.00  0.00     0.000 C 
BRANCH   7   8
ATOM      8  C   UNL     1      -7.434  20.359  14.736  1.00  0.00     0.000 C 
BRANCH   8   9
ATOM      9  C   UNL     1      -8.657  20.102  15.632  1.00  0.00     0.000 C 
BRANCH   9  10
ATOM     10  C   UNL     1      -8.730  21.066  16.830  1.00  0.00     0.000 C 
BRANCH  10  11
ATOM     11  C   UNL     1      -8.838  20.385  18.211  1.00  0.00     0.000 C 
BRANCH  11  12
ATOM     12  C   UNL     1      -7.621  20.578  19.138  1.00  0.00     0.000 C 
BRANCH  12  13
ATOM     13  C   UNL     1      -7.545  21.951  19.829  1.00  0.00     0.006 C 
BRANCH  13  14
ATOM     14  C   UNL     1      -8.047  21.914  21.279  1.00  0.00     0.053 C 
BRANCH  14  15
ATOM     15  C   UNL     1      -7.681  23.176  21.996  1.00  0.00     0.041 C 
ATOM     16  O   UNL     1      -7.935  23.305  23.224  1.00  0.00    -0.550 OA
ATOM     17  O   UNL     1      -7.091  24.225  21.301  1.00  0.00    -0.550 OA
ENDBRANCH  14  15
ENDBRANCH  13  14
ENDBRANCH  12  13
ENDBRANCH  11  12
ENDBRANCH  10  11
ENDBRANCH   9  10
ENDBRANCH   8   9
ENDBRANCH   7   8
ENDBRANCH   6   7
ENDBRANCH   5   6
ENDBRANCH   4   5
ENDBRANCH   3   4
ENDBRANCH   2   3
ENDBRANCH   1   2
BRANCH   1  18
ATOM     18  C   UNL     1       0.593  20.969  15.680  1.00  0.00     0.000 C 
BRANCH  18  19
ATOM     19  C   UNL     1       1.898  20.154  15.662  1.00  0.00     0.000 C 
BRANCH  19  20
ATOM     20  C   UNL     1       2.884  20.484  16.799  1.00  0.00     0.000 C 
BRANCH  20  21
ATOM     21  C   UNL     1       4.365  20.301  16.405  1.00  0.00     0.000 C 
BRANCH  21  22
ATOM     22  C   UNL     1       4.531  19.999  14.905  1.00  0.00     0.000 C 
BRANCH  22  23
ATOM     23  C   UNL     1       5.890  20.456  14.355  1.00  0.00     0.000 C 
BRANCH  23  24
ATOM     24  C   UNL     1       7.072  19.949  15.197  1.00  0.00    -0.000 C 
BRANCH  24  25
ATOM     25  C   UNL     1       8.335  20.802  15.010  1.00  0.00    -0.000 C 
BRANCH  25  26
ATOM     26  C   UNL     1       9.623  19.958  15.008  1.00  0.00    -0.000 C 
BRANCH  26  27
ATOM     27  C   UNL     1      10.889  20.816  15.155  1.00  0.00    -0.000 C 
BRANCH  27  28
ATOM     28  C   UNL     1      11.037  21.847  14.023  1.00  0.00    -0.000 C 
BRANCH  28  29
ATOM     29  C   UNL     1      10.211  21.487  12.776  1.00  0.00    -0.000 C 
BRANCH  29  30
ATOM     30  C   UNL     1      10.337  22.483  11.604  1.00  0.00    -0.000 C 
BRANCH  30  31
ATOM     31  C   UNL     1      10.563  23.948  12.015  1.00  0.00    -0.003 C 
ATOM     32  C   UNL     1      10.816  24.870  10.824  1.00  0.00     0.004 C 
ENDBRANCH  30  31
ENDBRANCH  29  30
ENDBRANCH  28  29
ENDBRANCH  27  28
ENDBRANCH  26  27
ENDBRANCH  25  26
ENDBRANCH  24  25
ENDBRANCH  23  24
ENDBRANCH  22  23
ENDBRANCH  21  22
ENDBRANCH  20  21
ENDBRANCH  19  20
ENDBRANCH  18  19
ENDBRANCH   1  18
TORSDOF 28
ENDMDL
MODEL 5
REMARK VINA RESULT:    -1.238      1.797      2.135
REMARK INTER + INTRA:          -4.873
REMARK INTER:                  -3.408
REMARK INTRA:                  -1.465
REMARK UNBOUND:                -1.609
REMARK SMILES CCCCCCCCCCCCCCCCCCCCCCCCCCCCCC(=O)[O-]
REMARK SMILES IDX 16 1 17 2 18 3 19 4 20 5 21 6 22 7 23 8 24 9 25 10 26 11
REMARK SMILES IDX 27 12 28 13 29 14 30 15 31 16 32 17 15 18 14 19 13 20 12 21
REMARK SMILES IDX 11 22 10 23 9 24 8 25 7 26 6 27 5 28 4 29 3 30 2 31 1 32
REMARK H PARENT
REMARK Flexibility Score: inf
ROOT
ATOM      1  C   UNL     1      -1.582  20.300  18.245  1.00  0.00     0.000 C 
ENDROOT
BRANCH   1   2
ATOM      2  C   UNL     1      -0.082  20.192  17.914  1.00  0.00     0.000 C 
BRANCH   2   3
ATOM      3  C   UNL     1       0.287  20.485  16.446  1.00  0.00     0.000 C 
BRANCH   3   4
ATOM      4  C   UNL     1       1.638  19.879  16.011  1.00  0.00     0.000 C 
BRANCH   4   5
ATOM      5  C   UNL     1       2.823  20.813  16.315  1.00  0.00     0.000 C 
BRANCH   5   6
ATOM      6  C   UNL     1       4.154  20.284  15.761  1.00  0.00     0.000 C 
BRANCH   6   7
ATOM      7  C   UNL     1       5.354  20.657  16.650  1.00  0.00     0.000 C 
BRANCH   7   8
ATOM      8  C   UNL     1       6.459  21.398  15.882  1.00  0.00     0.000 C 
BRANCH   8   9
ATOM      9  C   UNL     1       7.580  20.459  15.406  1.00  0.00     0.000 C 
BRANCH   9  10
ATOM     10  C   UNL     1       8.881  21.210  15.068  1.00  0.00     0.000 C 
BRANCH  10  11
ATOM     11  C   UNL     1       9.785  20.516  14.027  1.00  0.00     0.000 C 
BRANCH  11  12
ATOM     12  C   UNL     1      10.016  21.307  12.724  1.00  0.00     0.000 C 
BRANCH  12  13
ATOM     13  C   UNL     1      10.201  22.823  12.911  1.00  0.00     0.006 C 
BRANCH  13  14
ATOM     14  C   UNL     1      11.125  23.444  11.854  1.00  0.00     0.053 C 
BRANCH  14  15
ATOM     15  C   UNL     1      10.458  24.605  11.187  1.00  0.00     0.041 C 
ATOM     16  O   UNL     1      10.113  24.531   9.977  1.00  0.00    -0.550 OA
ATOM     17  O   UNL     1      10.249  25.786  11.891  1.00  0.00    -0.550 OA
ENDBRANCH  14  15
ENDBRANCH  13  14
ENDBRANCH  12  13
ENDBRANCH  11  12
ENDBRANCH  10  11
ENDBRANCH   9  10
ENDBRANCH   8   9
ENDBRANCH   7   8
ENDBRANCH   6   7
ENDBRANCH   5   6
ENDBRANCH   4   5
ENDBRANCH   3   4
ENDBRANCH   2   3
ENDBRANCH   1   2
BRANCH   1  18
ATOM     18  C   UNL     1      -2.480  19.875  17.069  1.00  0.00     0.000 C 
BRANCH  18  19
ATOM     19  C   UNL     1      -3.669  20.827  16.854  1.00  0.00     0.000 C 
BRANCH  19  20
ATOM     20  C   UNL     1      -3.496  21.830  15.698  1.00  0.00     0.000 C 
BRANCH  20  21
ATOM     21  C   UNL     1      -4.549  21.673  14.581  1.00  0.00     0.000 C 
BRANCH  21  22
ATOM     22  C   UNL     1      -5.461  20.456  14.813  1.00  0.00     0.000 C 
BRANCH  22  23
ATOM     23  C   UNL     1      -6.903  20.855  15.163  1.00  0.00     0.000 C 
BRANCH  23  24
ATOM     24  C   UNL     1      -7.300  20.450  16.593  1.00  0.00    -0.000 C 
BRANCH  24  25
ATOM     25  C   UNL     1      -8.709  20.930  16.968  1.00  0.00    -0.000 C 
BRANCH  25  26
ATOM     26  C   UNL     1      -8.767  21.550  18.376  1.00  0.00    -0.000 C 
BRANCH  26  27
ATOM     27  C   UNL     1      -9.044  23.061  18.345  1.00  0.00    -0.000 C 
BRANCH  27  28
ATOM     28  C   UNL     1      -8.903  23.715  19.731  1.00  0.00    -0.000 C 
BRANCH  28  29
ATOM     29  C   UNL     1      -7.666  23.219  20.500  1.00  0.00    -0.000 C 
BRANCH  29  30
ATOM     30  C   UNL     1      -7.975  22.489  21.825  1.00  0.00    -0.000 C 
BRANCH  30  31
ATOM     31  C   UNL     1      -8.191  20.971  21.695  1.00  0.00    -0.003 C 
ATOM     32  C   UNL     1      -7.726  20.195  22.927  1.00  0.00     0.004 C 
ENDBRANCH  30  31
ENDBRANCH  29  30
ENDBRANCH  28  29
ENDBRANCH  27  28
ENDBRANCH  26  27
ENDBRANCH  25  26
ENDBRANCH  24  25
ENDBRANCH  23  24
ENDBRANCH  22  23
ENDBRANCH  21  22
ENDBRANCH  20  21
ENDBRANCH  19  20
ENDBRANCH  18  19
ENDBRANCH   1  18
TORSDOF 28
ENDMDL
MODEL 6
REMARK VINA RESULT:    -1.045      1.107      1.588
REMARK INTER + INTRA:          -4.365
REMARK INTER:                  -2.927
REMARK INTRA:                  -1.438
REMARK UNBOUND:                -1.609
REMARK SMILES CCCCCCCCCCCCCCCCCCCCCCCCCCCCCC(=O)[O-]
REMARK SMILES IDX 16 1 17 2 18 3 19 4 20 5 21 6 22 7 23 8 24 9 25 10 26 11
REMARK SMILES IDX 27 12 28 13 29 14 30 15 31 16 32 17 15 18 14 19 13 20 12 21
REMARK SMILES IDX 11 22 10 23 9 24 8 25 7 26 6 27 5 28 4 29 3 30 2 31 1 32
REMARK H PARENT
REMARK Flexibility Score: inf
ROOT
ATOM      1  C   UNL     1      -1.803  20.590  15.770  1.00  0.00     0.000 C 
ENDROOT
BRANCH   1   2
ATOM      2  C   UNL     1      -1.201  20.306  17.158  1.00  0.00     0.000 C 
BRANCH   2   3
ATOM      3  C   UNL     1       0.282  19.885  17.154  1.00  0.00     0.000 C 
BRANCH   3   4
ATOM      4  C   UNL     1       1.007  20.174  15.823  1.00  0.00     0.000 C 
BRANCH   4   5
ATOM      5  C   UNL     1       2.522  19.919  15.916  1.00  0.00     0.000 C 
BRANCH   5   6
ATOM      6  C   UNL     1       3.320  21.191  16.236  1.00  0.00     0.000 C 
BRANCH   6   7
ATOM      7  C   UNL     1       4.827  20.919  16.399  1.00  0.00     0.000 C 
BRANCH   7   8
ATOM      8  C   UNL     1       5.533  20.647  15.062  1.00  0.00     0.000 C 
BRANCH   8   9
ATOM      9  C   UNL     1       7.008  20.252  15.241  1.00  0.00     0.000 C 
BRANCH   9  10
ATOM     10  C   UNL     1       7.974  21.419  14.968  1.00  0.00     0.000 C 
BRANCH  10  11
ATOM     11  C   UNL     1       9.469  21.088  15.151  1.00  0.00     0.000 C 
BRANCH  11  12
ATOM     12  C   UNL     1      10.170  20.496  13.911  1.00  0.00     0.000 C 
BRANCH  12  13
ATOM     13  C   UNL     1      10.168  21.408  12.671  1.00  0.00     0.006 C 
BRANCH  13  14
ATOM     14  C   UNL     1      11.001  20.839  11.514  1.00  0.00     0.053 C 
BRANCH  14  15
ATOM     15  C   UNL     1      10.348  21.132  10.200  1.00  0.00     0.041 C 
ATOM     16  O   UNL     1       9.205  20.668   9.941  1.00  0.00    -0.550 OA
ATOM     17  O   UNL     1      11.017  21.887   9.244  1.00  0.00    -0.550 OA
ENDBRANCH  14  15
ENDBRANCH  13  14
ENDBRANCH  12  13
ENDBRANCH  11  12
ENDBRANCH  10  11
ENDBRANCH   9  10
ENDBRANCH   8   9
ENDBRANCH   7   8
ENDBRANCH   6   7
ENDBRANCH   5   6
ENDBRANCH   4   5
ENDBRANCH   3   4
ENDBRANCH   2   3
ENDBRANCH   1   2
BRANCH   1  18
ATOM     18  C   UNL     1      -3.081  21.446  15.842  1.00  0.00     0.000 C 
BRANCH  18  19
ATOM     19  C   UNL     1      -4.351  20.603  16.047  1.00  0.00     0.000 C 
BRANCH  19  20
ATOM     20  C   UNL     1      -5.115  20.257  14.755  1.00  0.00     0.000 C 
BRANCH  20  21
ATOM     21  C   UNL     1      -6.215  21.279  14.395  1.00  0.00     0.000 C 
BRANCH  21  22
ATOM     22  C   UNL     1      -6.656  22.106  15.616  1.00  0.00     0.000 C 
BRANCH  22  23
ATOM     23  C   UNL     1      -8.046  21.704  16.133  1.00  0.00     0.000 C 
BRANCH  23  24
ATOM     24  C   UNL     1      -8.169  20.193  16.390  1.00  0.00    -0.000 C 
BRANCH  24  25
ATOM     25  C   UNL     1      -8.953  19.878  17.672  1.00  0.00    -0.000 C 
BRANCH  25  26
ATOM     26  C   UNL     1      -8.980  21.064  18.654  1.00  0.00    -0.000 C 
BRANCH  26  27
ATOM     27  C   UNL     1      -9.123  20.615  20.117  1.00  0.00    -0.000 C 
BRANCH  27  28
ATOM     28  C   UNL     1      -7.786  20.158  20.726  1.00  0.00    -0.000 C 
BRANCH  28  29
ATOM     29  C   UNL     1      -7.447  20.889  22.036  1.00  0.00    -0.000 C 
BRANCH  29  30
ATOM     30  C   UNL     1      -8.484  21.941  22.481  1.00  0.00    -0.000 C 
BRANCH  30  31
ATOM     31  C   UNL     1      -8.784  21.963  23.990  1.00  0.00    -0.003 C 
ATOM     32  C   UNL     1      -8.571  23.339  24.620  1.00  0.00     0.004 C 
ENDBRANCH  30  31
ENDBRANCH  29  30
ENDBRANCH  28  29
ENDBRANCH  27  28
ENDBRANCH  26  27
ENDBRANCH  25  26
ENDBRANCH  24  25
ENDBRANCH  23  24
ENDBRANCH  22  23
ENDBRANCH  21  22
ENDBRANCH  20  21
ENDBRANCH  19  20
ENDBRANCH  18  19
ENDBRANCH   1  18
TORSDOF 28
ENDMDL
MODEL 7
REMARK VINA RESULT:    -0.859      5.089     15.745
REMARK INTER + INTRA:          -3.874
REMARK INTER:                  -3.457
REMARK INTRA:                  -0.418
REMARK UNBOUND:                -1.609
REMARK SMILES CCCCCCCCCCCCCCCCCCCCCCCCCCCCCC(=O)[O-]
REMARK SMILES IDX 16 1 17 2 18 3 19 4 20 5 21 6 22 7 23 8 24 9 25 10 26 11
REMARK SMILES IDX 27 12 28 13 29 14 30 15 31 16 32 17 15 18 14 19 13 20 12 21
REMARK SMILES IDX 11 22 10 23 9 24 8 25 7 26 6 27 5 28 4 29 3 30 2 31 1 32
REMARK H PARENT
REMARK Flexibility Score: inf
ROOT
ATOM      1  C   UNL     1       3.953  22.133  17.169  1.00  0.00     0.000 C 
ENDROOT
BRANCH   1   2
ATOM      2  C   UNL     1       3.312  20.733  17.156  1.00  0.00     0.000 C 
BRANCH   2   3
ATOM      3  C   UNL     1       1.777  20.718  17.012  1.00  0.00     0.000 C 
BRANCH   3   4
ATOM      4  C   UNL     1       1.269  21.363  15.705  1.00  0.00     0.000 C 
BRANCH   4   5
ATOM      5  C   UNL     1      -0.268  21.382  15.623  1.00  0.00     0.000 C 
BRANCH   5   6
ATOM      6  C   UNL     1      -0.934  20.649  16.797  1.00  0.00     0.000 C 
BRANCH   6   7
ATOM      7  C   UNL     1      -2.238  19.939  16.387  1.00  0.00     0.000 C 
BRANCH   7   8
ATOM      8  C   UNL     1      -3.326  20.915  15.913  1.00  0.00     0.000 C 
BRANCH   8   9
ATOM      9  C   UNL     1      -4.735  20.301  15.964  1.00  0.00     0.000 C 
BRANCH   9  10
ATOM     10  C   UNL     1      -5.649  20.817  14.838  1.00  0.00     0.000 C 
BRANCH  10  11
ATOM     11  C   UNL     1      -7.135  20.421  14.969  1.00  0.00     0.000 C 
BRANCH  11  12
ATOM     12  C   UNL     1      -7.572  19.960  16.374  1.00  0.00     0.000 C 
BRANCH  12  13
ATOM     13  C   UNL     1      -7.417  21.018  17.480  1.00  0.00     0.006 C 
BRANCH  13  14
ATOM     14  C   UNL     1      -7.432  20.411  18.890  1.00  0.00     0.053 C 
BRANCH  14  15
ATOM     15  C   UNL     1      -7.677  21.471  19.917  1.00  0.00     0.041 C 
ATOM     16  O   UNL     1      -7.065  22.571  19.854  1.00  0.00    -0.550 OA
ATOM     17  O   UNL     1      -8.554  21.231  20.969  1.00  0.00    -0.550 OA
ENDBRANCH  14  15
ENDBRANCH  13  14
ENDBRANCH  12  13
ENDBRANCH  11  12
ENDBRANCH  10  11
ENDBRANCH   9  10
ENDBRANCH   8   9
ENDBRANCH   7   8
ENDBRANCH   6   7
ENDBRANCH   5   6
ENDBRANCH   4   5
ENDBRANCH   3   4
ENDBRANCH   2   3
ENDBRANCH   1   2
BRANCH   1  18
ATOM     18  C   UNL     1       5.405  22.125  16.657  1.00  0.00     0.000 C 
BRANCH  18  19
ATOM     19  C   UNL     1       5.687  20.965  15.688  1.00  0.00     0.000 C 
BRANCH  19  20
ATOM     20  C   UNL     1       6.679  21.293  14.555  1.00  0.00     0.000 C 
BRANCH  20  21
ATOM     21  C   UNL     1       7.076  20.066  13.706  1.00  0.00     0.000 C 
BRANCH  21  22
ATOM     22  C   UNL     1       8.571  20.074  13.344  1.00  0.00     0.000 C 
BRANCH  22  23
ATOM     23  C   UNL     1       8.813  20.169  11.829  1.00  0.00     0.000 C 
BRANCH  23  24
ATOM     24  C   UNL     1      10.298  20.037  11.456  1.00  0.00    -0.000 C 
BRANCH  24  25
ATOM     25  C   UNL     1      10.512  19.875   9.944  1.00  0.00    -0.000 C 
BRANCH  25  26
ATOM     26  C   UNL     1       9.933  21.051   9.137  1.00  0.00    -0.000 C 
BRANCH  26  27
ATOM     27  C   UNL     1       9.779  22.326   9.982  1.00  0.00    -0.000 C 
BRANCH  27  28
ATOM     28  C   UNL     1      11.077  23.151  10.045  1.00  0.00    -0.000 C 
BRANCH  28  29
ATOM     29  C   UNL     1      10.934  24.423  10.899  1.00  0.00    -0.000 C 
BRANCH  29  30
ATOM     30  C   UNL     1      11.038  24.198  12.423  1.00  0.00    -0.000 C 
BRANCH  30  31
ATOM     31  C   UNL     1      11.124  22.724  12.858  1.00  0.00    -0.003 C 
ATOM     32  C   UNL     1      10.554  22.482  14.255  1.00  0.00     0.004 C 
ENDBRANCH  30  31
ENDBRANCH  29  30
ENDBRANCH  28  29
ENDBRANCH  27  28
ENDBRANCH  26  27
ENDBRANCH  25  26
ENDBRANCH  24  25
ENDBRANCH  23  24
ENDBRANCH  22  23
ENDBRANCH  21  22
ENDBRANCH  20  21
ENDBRANCH  19  20
ENDBRANCH  18  19
ENDBRANCH   1  18
TORSDOF 28
ENDMDL
