MODEL 1
REMARK VINA RESULT:    48.289      0.000      0.000
REMARK INTER + INTRA:          64.427
REMARK INTER:                  65.227
REMARK INTRA:                  -0.800
REMARK UNBOUND:                -0.800
REMARK SMILES CC[C@H](CC[C@@H](C)[C@H]1CC[C@H]2[C@H]3CC(=O)C4=CC(=O)CC[C@]4(C)[C@@H]3CC[C@@]12C)C(C)C
REMARK SMILES IDX 4 1 3 2 2 3 1 4 29 5 30 6 31 7 5 8 6 9 7 10 8 11 9 12 27 13
REMARK SMILES IDX 10 14 11 15 26 16 28 17 12 18 25 19 24 20 13 21 22 22 14 23
REMARK SMILES IDX 16 24 21 25 23 26 15 27 17 28 20 29 18 30 19 31
REMARK H PARENT
REMARK Flexibility Score: inf
ROOT
ATOM      1  C   UNL     1      30.602   8.511  41.265  1.00  0.00     0.004 C 
ENDROOT
BRANCH   1   2
ATOM      2  C   UNL     1      29.473   7.444  41.107  1.00  0.00    -0.009 C 
BRANCH   2   3
ATOM      3  C   UNL     1      29.195   7.103  39.602  1.00  0.00     0.000 C 
ATOM      4  C   UNL     1      28.730   8.300  38.769  1.00  0.00     0.004 C 
ENDBRANCH   2   3
BRANCH   2   5
ATOM      5  C   UNL     1      29.751   6.187  42.002  1.00  0.00    -0.014 C 
ATOM      6  C   UNL     1      30.723   5.176  41.368  1.00  0.00     0.007 C 
ATOM      7  C   UNL     1      28.440   5.460  42.364  1.00  0.00     0.007 C 
ENDBRANCH   2   5
ENDBRANCH   1   2
BRANCH   1   8
ATOM      8  C   UNL     1      31.542   8.610  40.042  1.00  0.00     0.004 C 
BRANCH   8   9
ATOM      9  C   UNL     1      33.022   8.946  40.415  1.00  0.00    -0.011 C 
ATOM     10  C   UNL     1      33.902   7.732  40.040  1.00  0.00     0.008 C 
BRANCH   9  11
ATOM     11  C   UNL     1      33.491  10.288  39.731  1.00  0.00    -0.002 C 
ATOM     12  C   UNL     1      32.281  11.100  39.173  1.00  0.00     0.005 C 
ATOM     13  C   UNL     1      34.286  11.332  40.595  1.00  0.00    -0.026 C 
ATOM     14  C   UNL     1      32.608  12.560  39.318  1.00  0.00     0.005 C 
ATOM     15  C   UNL     1      34.041  12.652  39.829  1.00  0.00    -0.001 C 
ATOM     16  C   UNL     1      33.719  11.448  42.033  1.00  0.00     0.007 C 
ATOM     17  C   UNL     1      35.804  11.007  40.626  1.00  0.00     0.012 C 
ATOM     18  C   UNL     1      34.400  13.973  40.583  1.00  0.00     0.004 C 
ATOM     19  C   UNL     1      34.336  12.630  42.786  1.00  0.00     0.005 C 
ATOM     20  C   UNL     1      34.010  13.973  42.077  1.00  0.00     0.003 C 
ATOM     21  C   UNL     1      33.749  15.190  39.906  1.00  0.00     0.085 C 
ATOM     22  C   UNL     1      34.609  15.232  42.832  1.00  0.00    -0.000 C 
ATOM     23  C   UNL     1      34.028  16.481  40.610  1.00  0.00     0.159 C 
ATOM     24  C   UNL     1      34.300  16.522  42.060  1.00  0.00     0.005 C 
ATOM     25  C   UNL     1      36.170  15.217  42.969  1.00  0.00     0.020 C 
ATOM     26  C   UNL     1      33.959  15.277  44.262  1.00  0.00     0.017 C 
ATOM     27  O   UNL     1      34.042  17.540  39.916  1.00  0.00    -0.295 OA
ATOM     28  C   UNL     1      34.739  17.687  42.576  1.00  0.00     0.055 C 
ATOM     29  C   UNL     1      36.740  16.482  43.666  1.00  0.00     0.081 C 
ATOM     30  C   UNL     1      35.840  17.685  43.549  1.00  0.00     0.156 C 
ATOM     31  O   UNL     1      36.110  18.735  44.194  1.00  0.00    -0.295 OA
ENDBRANCH   9  11
ENDBRANCH   8   9
ENDBRANCH   1   8
TORSDOF 6
ENDMDL
MODEL 2
REMARK VINA RESULT:    50.488      0.712      1.947
REMARK INTER + INTRA:          67.397
REMARK INTER:                  67.551
REMARK INTRA:                  -0.154
REMARK UNBOUND:                -0.800
REMARK SMILES CC[C@H](CC[C@@H](C)[C@H]1CC[C@H]2[C@H]3CC(=O)C4=CC(=O)CC[C@]4(C)[C@@H]3CC[C@@]12C)C(C)C
REMARK SMILES IDX 4 1 3 2 2 3 1 4 29 5 30 6 31 7 5 8 6 9 7 10 8 11 9 12 27 13
REMARK SMILES IDX 10 14 11 15 26 16 28 17 12 18 25 19 24 20 13 21 22 22 14 23
REMARK SMILES IDX 16 24 21 25 23 26 15 27 17 28 20 29 18 30 19 31
REMARK H PARENT
REMARK Flexibility Score: inf
ROOT
ATOM      1  C   UNL     1      30.905   9.080  39.219  1.00  0.00     0.004 C 
ENDROOT
BRANCH   1   2
ATOM      2  C   UNL     1      29.649   8.153  39.256  1.00  0.00    -0.009 C 
BRANCH   2   3
ATOM      3  C   UNL     1      29.034   8.057  40.696  1.00  0.00     0.000 C 
ATOM      4  C   UNL     1      29.271   6.710  41.385  1.00  0.00     0.004 C 
ENDBRANCH   2   3
BRANCH   2   5
ATOM      5  C   UNL     1      28.614   8.554  38.149  1.00  0.00    -0.014 C 
ATOM      6  C   UNL     1      28.493   7.527  37.009  1.00  0.00     0.007 C 
ATOM      7  C   UNL     1      28.952   9.932  37.544  1.00  0.00     0.007 C 
ENDBRANCH   2   5
ENDBRANCH   1   2
BRANCH   1   8
ATOM      8  C   UNL     1      31.726   9.070  40.528  1.00  0.00     0.004 C 
BRANCH   8   9
ATOM      9  C   UNL     1      33.270   9.159  40.300  1.00  0.00    -0.011 C 
ATOM     10  C   UNL     1      33.706   7.938  39.459  1.00  0.00     0.008 C 
BRANCH   9  11
ATOM     11  C   UNL     1      33.670  10.537  39.646  1.00  0.00    -0.002 C 
ATOM     12  C   UNL     1      32.416  11.322  39.150  1.00  0.00     0.005 C 
ATOM     13  C   UNL     1      34.453  11.582  40.520  1.00  0.00    -0.026 C 
ATOM     14  C   UNL     1      32.696  12.788  39.333  1.00  0.00     0.005 C 
ATOM     15  C   UNL     1      34.139  12.916  39.805  1.00  0.00    -0.001 C 
ATOM     16  C   UNL     1      33.926  11.632  41.977  1.00  0.00     0.007 C 
ATOM     17  C   UNL     1      35.983  11.312  40.496  1.00  0.00     0.012 C 
ATOM     18  C   UNL     1      34.474  14.225  40.591  1.00  0.00     0.004 C 
ATOM     19  C   UNL     1      34.524  12.812  42.749  1.00  0.00     0.005 C 
ATOM     20  C   UNL     1      34.130  14.164  42.094  1.00  0.00     0.003 C 
ATOM     21  C   UNL     1      33.760  15.437  39.973  1.00  0.00     0.085 C 
ATOM     22  C   UNL     1      34.705  15.420  42.872  1.00  0.00    -0.000 C 
ATOM     23  C   UNL     1      34.014  16.715  40.710  1.00  0.00     0.159 C 
ATOM     24  C   UNL     1      34.328  16.721  42.151  1.00  0.00     0.005 C 
ATOM     25  C   UNL     1      36.270  15.456  42.963  1.00  0.00     0.020 C 
ATOM     26  C   UNL     1      34.098  15.396  44.321  1.00  0.00     0.017 C 
ATOM     27  O   UNL     1      33.969  17.795  40.050  1.00  0.00    -0.295 OA
ATOM     28  C   UNL     1      34.741  17.884  42.692  1.00  0.00     0.055 C 
ATOM     29  C   UNL     1      36.816  16.719  43.684  1.00  0.00     0.081 C 
ATOM     30  C   UNL     1      35.870  17.892  43.632  1.00  0.00     0.156 C 
ATOM     31  O   UNL     1      36.123  18.930  44.302  1.00  0.00    -0.295 OA
ENDBRANCH   9  11
ENDBRANCH   8   9
ENDBRANCH   1   8
TORSDOF 6
ENDMDL
