MODEL 1
REMARK VINA RESULT:    -4.882      0.000      0.000
REMARK INTER + INTRA:          -6.751
REMARK INTER:                  -6.594
REMARK INTRA:                  -0.156
REMARK UNBOUND:                -0.156
REMARK SMILES CCCCCCCC(=O)[O-]
REMARK SMILES IDX 5 1 6 2 7 3 8 4 9 5 10 6 4 7 3 8 2 9 1 10
REMARK H PARENT
REMARK Flexibility Score: inf
ROOT
ATOM      1  C   UNL     1      -5.254 -32.010 -51.945  1.00  0.00     0.000 C 
ENDROOT
BRANCH   1   2
ATOM      2  C   UNL     1      -4.222 -32.818 -51.149  1.00  0.00     0.006 C 
BRANCH   2   3
ATOM      3  C   UNL     1      -2.876 -32.860 -51.876  1.00  0.00     0.053 C 
BRANCH   3   4
ATOM      4  C   UNL     1      -1.748 -32.813 -50.894  1.00  0.00     0.041 C 
ATOM      5  O   UNL     1      -0.952 -31.838 -50.889  1.00  0.00    -0.550 OA
ATOM      6  O   UNL     1      -1.546 -33.871 -50.017  1.00  0.00    -0.550 OA
ENDBRANCH   3   4
ENDBRANCH   2   3
ENDBRANCH   1   2
BRANCH   1   7
ATOM      7  C   UNL     1      -5.735 -30.792 -51.149  1.00  0.00     0.000 C 
BRANCH   7   8
ATOM      8  C   UNL     1      -6.463 -31.221 -49.871  1.00  0.00    -0.000 C 
BRANCH   8   9
ATOM      9  C   UNL     1      -7.299 -30.068 -49.300  1.00  0.00    -0.003 C 
ATOM     10  C   UNL     1      -8.467 -30.592 -48.471  1.00  0.00     0.004 C 
ENDBRANCH   8   9
ENDBRANCH   7   8
ENDBRANCH   1   7
TORSDOF 6
ENDMDL
MODEL 2
REMARK VINA RESULT:    -4.848      3.035      3.601
REMARK INTER + INTRA:          -6.705
REMARK INTER:                  -6.445
REMARK INTRA:                  -0.260
REMARK UNBOUND:                -0.156
REMARK SMILES CCCCCCCC(=O)[O-]
REMARK SMILES IDX 5 1 6 2 7 3 8 4 9 5 10 6 4 7 3 8 2 9 1 10
REMARK H PARENT
REMARK Flexibility Score: inf
ROOT
ATOM      1  C   UNL     1      -5.919 -31.415 -50.546  1.00  0.00     0.000 C 
ENDROOT
BRANCH   1   2
ATOM      2  C   UNL     1      -5.297 -31.622 -51.932  1.00  0.00     0.006 C 
BRANCH   2   3
ATOM      3  C   UNL     1      -5.119 -30.287 -52.660  1.00  0.00     0.053 C 
BRANCH   3   4
ATOM      4  C   UNL     1      -5.070 -30.499 -54.140  1.00  0.00     0.041 C 
ATOM      5  O   UNL     1      -5.418 -29.578 -54.925  1.00  0.00    -0.550 OA
ATOM      6  O   UNL     1      -4.687 -31.732 -54.652  1.00  0.00    -0.550 OA
ENDBRANCH   3   4
ENDBRANCH   2   3
ENDBRANCH   1   2
BRANCH   1   7
ATOM      7  C   UNL     1      -6.233 -29.935 -50.297  1.00  0.00     0.000 C 
BRANCH   7   8
ATOM      8  C   UNL     1      -7.051 -29.753 -49.014  1.00  0.00    -0.000 C 
BRANCH   8   9
ATOM      9  C   UNL     1      -8.091 -30.870 -48.861  1.00  0.00    -0.003 C 
ATOM     10  C   UNL     1      -9.197 -30.464 -47.891  1.00  0.00     0.004 C 
ENDBRANCH   8   9
ENDBRANCH   7   8
ENDBRANCH   1   7
TORSDOF 6
ENDMDL
MODEL 3
REMARK VINA RESULT:    -4.844      2.805      3.705
REMARK INTER + INTRA:          -6.700
REMARK INTER:                  -6.258
REMARK INTRA:                  -0.442
REMARK UNBOUND:                -0.156
REMARK SMILES CCCCCCCC(=O)[O-]
REMARK SMILES IDX 5 1 6 2 7 3 8 4 9 5 10 6 4 7 3 8 2 9 1 10
REMARK H PARENT
REMARK Flexibility Score: inf
ROOT
ATOM      1  C   UNL     1      -6.318 -31.638 -50.837  1.00  0.00     0.000 C 
ENDROOT
BRANCH   1   2
ATOM      2  C   UNL     1      -4.943 -31.379 -51.465  1.00  0.00     0.006 C 
BRANCH   2   3
ATOM      3  C   UNL     1      -5.011 -30.239 -52.485  1.00  0.00     0.053 C 
BRANCH   3   4
ATOM      4  C   UNL     1      -4.788 -30.762 -53.869  1.00  0.00     0.041 C 
ATOM      5  O   UNL     1      -4.160 -31.839 -54.047  1.00  0.00    -0.550 OA
ATOM      6  O   UNL     1      -5.230 -30.033 -54.967  1.00  0.00    -0.550 OA
ENDBRANCH   3   4
ENDBRANCH   2   3
ENDBRANCH   1   2
BRANCH   1   7
ATOM      7  C   UNL     1      -6.360 -31.160 -49.382  1.00  0.00     0.000 C 
BRANCH   7   8
ATOM      8  C   UNL     1      -7.238 -29.913 -49.236  1.00  0.00    -0.000 C 
BRANCH   8   9
ATOM      9  C   UNL     1      -6.388 -28.671 -48.947  1.00  0.00    -0.003 C 
ATOM     10  C   UNL     1      -6.289 -27.772 -50.176  1.00  0.00     0.004 C 
ENDBRANCH   8   9
ENDBRANCH   7   8
ENDBRANCH   1   7
TORSDOF 6
ENDMDL
MODEL 4
REMARK VINA RESULT:    -4.742      3.836      4.483
REMARK INTER + INTRA:          -6.562
REMARK INTER:                  -6.284
REMARK INTRA:                  -0.278
REMARK UNBOUND:                -0.156
REMARK SMILES CCCCCCCC(=O)[O-]
REMARK SMILES IDX 5 1 6 2 7 3 8 4 9 5 10 6 4 7 3 8 2 9 1 10
REMARK H PARENT
REMARK Flexibility Score: inf
ROOT
ATOM      1  C   UNL     1      -5.617 -28.613 -50.851  1.00  0.00     0.000 C 
ENDROOT
BRANCH   1   2
ATOM      2  C   UNL     1      -5.183 -29.660 -51.884  1.00  0.00     0.006 C 
BRANCH   2   3
ATOM      3  C   UNL     1      -4.480 -29.001 -53.073  1.00  0.00     0.053 C 
BRANCH   3   4
ATOM      4  C   UNL     1      -5.284 -29.180 -54.322  1.00  0.00     0.041 C 
ATOM      5  O   UNL     1      -5.140 -30.214 -55.026  1.00  0.00    -0.550 OA
ATOM      6  O   UNL     1      -6.156 -28.182 -54.736  1.00  0.00    -0.550 OA
ENDBRANCH   3   4
ENDBRANCH   2   3
ENDBRANCH   1   2
BRANCH   1   7
ATOM      7  C   UNL     1      -6.513 -29.237 -49.776  1.00  0.00     0.000 C 
BRANCH   7   8
ATOM      8  C   UNL     1      -6.355 -30.761 -49.741  1.00  0.00    -0.000 C 
BRANCH   8   9
ATOM      9  C   UNL     1      -7.627 -31.435 -49.214  1.00  0.00    -0.003 C 
ATOM     10  C   UNL     1      -8.510 -30.440 -48.467  1.00  0.00     0.004 C 
ENDBRANCH   8   9
ENDBRANCH   7   8
ENDBRANCH   1   7
TORSDOF 6
ENDMDL
MODEL 5
REMARK VINA RESULT:    -4.733      3.752      5.440
REMARK INTER + INTRA:          -6.549
REMARK INTER:                  -6.266
REMARK INTRA:                  -0.283
REMARK UNBOUND:                -0.156
REMARK SMILES CCCCCCCC(=O)[O-]
REMARK SMILES IDX 5 1 6 2 7 3 8 4 9 5 10 6 4 7 3 8 2 9 1 10
REMARK H PARENT
REMARK Flexibility Score: inf
ROOT
ATOM      1  C   UNL     1      -5.686 -32.270 -51.323  1.00  0.00     0.000 C 
ENDROOT
BRANCH   1   2
ATOM      2  C   UNL     1      -5.980 -31.247 -50.219  1.00  0.00     0.006 C 
BRANCH   2   3
ATOM      3  C   UNL     1      -7.409 -31.403 -49.692  1.00  0.00     0.053 C 
BRANCH   3   4
ATOM      4  C   UNL     1      -7.847 -30.156 -48.991  1.00  0.00     0.041 C 
ATOM      5  O   UNL     1      -7.150 -29.110 -49.063  1.00  0.00    -0.550 OA
ATOM      6  O   UNL     1      -9.001 -30.162 -48.217  1.00  0.00    -0.550 OA
ENDBRANCH   3   4
ENDBRANCH   2   3
ENDBRANCH   1   2
BRANCH   1   7
ATOM      7  C   UNL     1      -4.191 -32.305 -51.659  1.00  0.00     0.000 C 
BRANCH   7   8
ATOM      8  C   UNL     1      -3.926 -31.730 -53.055  1.00  0.00    -0.000 C 
BRANCH   8   9
ATOM      9  C   UNL     1      -5.239 -31.471 -53.803  1.00  0.00    -0.003 C 
ATOM     10  C   UNL     1      -5.341 -30.016 -54.251  1.00  0.00     0.004 C 
ENDBRANCH   8   9
ENDBRANCH   7   8
ENDBRANCH   1   7
TORSDOF 6
ENDMDL
MODEL 6
REMARK VINA RESULT:    -4.579      3.582      5.799
REMARK INTER + INTRA:          -6.342
REMARK INTER:                  -6.163
REMARK INTRA:                  -0.179
REMARK UNBOUND:                -0.156
REMARK SMILES CCCCCCCC(=O)[O-]
REMARK SMILES IDX 5 1 6 2 7 3 8 4 9 5 10 6 4 7 3 8 2 9 1 10
REMARK H PARENT
REMARK Flexibility Score: inf
ROOT
ATOM      1  C   UNL     1      -5.702 -32.136 -51.541  1.00  0.00     0.000 C 
ENDROOT
BRANCH   1   2
ATOM      2  C   UNL     1      -5.970 -31.037 -50.505  1.00  0.00     0.006 C 
BRANCH   2   3
ATOM      3  C   UNL     1      -7.150 -31.409 -49.603  1.00  0.00     0.053 C 
BRANCH   3   4
ATOM      4  C   UNL     1      -7.796 -30.177 -49.051  1.00  0.00     0.041 C 
ATOM      5  O   UNL     1      -7.242 -29.055 -49.188  1.00  0.00    -0.550 OA
ATOM      6  O   UNL     1      -8.986 -30.275 -48.341  1.00  0.00    -0.550 OA
ENDBRANCH   3   4
ENDBRANCH   2   3
ENDBRANCH   1   2
BRANCH   1   7
ATOM      7  C   UNL     1      -4.234 -32.130 -51.983  1.00  0.00     0.000 C 
BRANCH   7   8
ATOM      8  C   UNL     1      -3.396 -33.082 -51.123  1.00  0.00    -0.000 C 
BRANCH   8   9
ATOM      9  C   UNL     1      -1.927 -33.074 -51.565  1.00  0.00    -0.003 C 
ATOM     10  C   UNL     1      -1.796 -33.394 -53.051  1.00  0.00     0.004 C 
ENDBRANCH   8   9
ENDBRANCH   7   8
ENDBRANCH   1   7
TORSDOF 6
ENDMDL
MODEL 7
REMARK VINA RESULT:    -4.560      3.347      5.480
REMARK INTER + INTRA:          -6.316
REMARK INTER:                  -5.999
REMARK INTRA:                  -0.317
REMARK UNBOUND:                -0.156
REMARK SMILES CCCCCCCC(=O)[O-]
REMARK SMILES IDX 5 1 6 2 7 3 8 4 9 5 10 6 4 7 3 8 2 9 1 10
REMARK H PARENT
REMARK Flexibility Score: inf
ROOT
ATOM      1  C   UNL     1      -4.972 -32.352 -51.785  1.00  0.00     0.000 C 
ENDROOT
BRANCH   1   2
ATOM      2  C   UNL     1      -5.464 -30.900 -51.822  1.00  0.00     0.006 C 
BRANCH   2   3
ATOM      3  C   UNL     1      -4.613 -30.055 -52.773  1.00  0.00     0.053 C 
BRANCH   3   4
ATOM      4  C   UNL     1      -5.109 -30.189 -54.178  1.00  0.00     0.041 C 
ATOM      5  O   UNL     1      -5.827 -29.287 -54.686  1.00  0.00    -0.550 OA
ATOM      6  O   UNL     1      -4.821 -31.333 -54.911  1.00  0.00    -0.550 OA
ENDBRANCH   3   4
ENDBRANCH   2   3
ENDBRANCH   1   2
BRANCH   1   7
ATOM      7  C   UNL     1      -3.619 -32.458 -51.072  1.00  0.00     0.000 C 
BRANCH   7   8
ATOM      8  C   UNL     1      -2.713 -33.487 -51.758  1.00  0.00    -0.000 C 
BRANCH   8   9
ATOM      9  C   UNL     1      -2.188 -32.953 -53.096  1.00  0.00    -0.003 C 
ATOM     10  C   UNL     1      -0.668 -33.058 -53.174  1.00  0.00     0.004 C 
ENDBRANCH   8   9
ENDBRANCH   7   8
ENDBRANCH   1   7
TORSDOF 6
ENDMDL
MODEL 8
REMARK VINA RESULT:    -4.527      1.945      3.195
REMARK INTER + INTRA:          -6.271
REMARK INTER:                  -5.866
REMARK INTRA:                  -0.406
REMARK UNBOUND:                -0.156
REMARK SMILES CCCCCCCC(=O)[O-]
REMARK SMILES IDX 5 1 6 2 7 3 8 4 9 5 10 6 4 7 3 8 2 9 1 10
REMARK H PARENT
REMARK Flexibility Score: inf
ROOT
ATOM      1  C   UNL     1      -5.036 -32.380 -51.837  1.00  0.00     0.000 C 
ENDROOT
BRANCH   1   2
ATOM      2  C   UNL     1      -3.881 -32.728 -50.890  1.00  0.00     0.006 C 
BRANCH   2   3
ATOM      3  C   UNL     1      -2.666 -33.240 -51.669  1.00  0.00     0.053 C 
BRANCH   3   4
ATOM      4  C   UNL     1      -1.718 -32.119 -51.956  1.00  0.00     0.041 C 
ATOM      5  O   UNL     1      -0.841 -31.797 -51.112  1.00  0.00    -0.550 OA
ATOM      6  O   UNL     1      -1.834 -31.395 -53.136  1.00  0.00    -0.550 OA
ENDBRANCH   3   4
ENDBRANCH   2   3
ENDBRANCH   1   2
BRANCH   1   7
ATOM      7  C   UNL     1      -5.629 -31.007 -51.503  1.00  0.00     0.000 C 
BRANCH   7   8
ATOM      8  C   UNL     1      -4.982 -29.906 -52.350  1.00  0.00    -0.000 C 
BRANCH   8   9
ATOM      9  C   UNL     1      -5.208 -30.157 -53.846  1.00  0.00    -0.003 C 
ATOM     10  C   UNL     1      -5.576 -28.867 -54.573  1.00  0.00     0.004 C 
ENDBRANCH   8   9
ENDBRANCH   7   8
ENDBRANCH   1   7
TORSDOF 6
ENDMDL
MODEL 9
REMARK VINA RESULT:    -4.447      3.584      5.417
REMARK INTER + INTRA:          -6.164
REMARK INTER:                  -5.699
REMARK INTRA:                  -0.465
REMARK UNBOUND:                -0.156
REMARK SMILES CCCCCCCC(=O)[O-]
REMARK SMILES IDX 5 1 6 2 7 3 8 4 9 5 10 6 4 7 3 8 2 9 1 10
REMARK H PARENT
REMARK Flexibility Score: inf
ROOT
ATOM      1  C   UNL     1      -3.513 -32.697 -51.914  1.00  0.00     0.000 C 
ENDROOT
BRANCH   1   2
ATOM      2  C   UNL     1      -4.858 -32.047 -52.262  1.00  0.00     0.006 C 
BRANCH   2   3
ATOM      3  C   UNL     1      -4.923 -31.678 -53.746  1.00  0.00     0.053 C 
BRANCH   3   4
ATOM      4  C   UNL     1      -4.992 -30.193 -53.914  1.00  0.00     0.041 C 
ATOM      5  O   UNL     1      -5.316 -29.695 -55.024  1.00  0.00    -0.550 OA
ATOM      6  O   UNL     1      -4.649 -29.358 -52.859  1.00  0.00    -0.550 OA
ENDBRANCH   3   4
ENDBRANCH   2   3
ENDBRANCH   1   2
BRANCH   1   7
ATOM      7  C   UNL     1      -2.591 -32.745 -53.138  1.00  0.00     0.000 C 
BRANCH   7   8
ATOM      8  C   UNL     1      -1.221 -32.135 -52.820  1.00  0.00    -0.000 C 
BRANCH   8   9
ATOM      9  C   UNL     1      -1.321 -30.615 -52.649  1.00  0.00    -0.003 C 
ATOM     10  C   UNL     1      -0.560 -30.147 -51.412  1.00  0.00     0.004 C 
ENDBRANCH   8   9
ENDBRANCH   7   8
ENDBRANCH   1   7
TORSDOF 6
ENDMDL
