MODEL 1
REMARK VINA RESULT:    -6.234      0.000      0.000
REMARK INTER + INTRA:         -13.191
REMARK INTER:                 -11.336
REMARK INTRA:                  -1.855
REMARK UNBOUND:                -1.855
REMARK SMILES CCCCCC=CCC=CCCCCCCCC(=O)[O-]
REMARK SMILES IDX 11 1 12 2 13 3 14 4 15 5 16 6 17 7 18 8 19 9 20 10 10 11
REMARK SMILES IDX 9 12 8 13 7 14 6 15 5 16 4 17 3 18 2 19 1 20
REMARK H PARENT
REMARK Flexibility Score: inf
ROOT
ATOM      1  C   UNL     1     132.336 126.253 126.786  1.00  0.00     0.027 C 
ENDROOT
BRANCH   1   2
ATOM      2  C   UNL     1     131.585 127.548 126.444  1.00  0.00     0.004 C 
BRANCH   2   3
ATOM      3  C   UNL     1     130.359 127.776 127.344  1.00  0.00     0.000 C 
BRANCH   3   4
ATOM      4  C   UNL     1     129.093 128.120 126.542  1.00  0.00     0.000 C 
BRANCH   4   5
ATOM      5  C   UNL     1     129.278 127.906 125.030  1.00  0.00     0.000 C 
BRANCH   5   6
ATOM      6  C   UNL     1     128.477 126.704 124.498  1.00  0.00     0.006 C 
BRANCH   6   7
ATOM      7  C   UNL     1     128.362 126.718 122.967  1.00  0.00     0.053 C 
BRANCH   7   8
ATOM      8  C   UNL     1     127.575 127.897 122.482  1.00  0.00     0.041 C 
ATOM      9  O   UNL     1     128.166 128.902 122.007  1.00  0.00    -0.550 OA
ATOM     10  O   UNL     1     126.190 127.898 122.586  1.00  0.00    -0.550 OA
ENDBRANCH   7   8
ENDBRANCH   6   7
ENDBRANCH   5   6
ENDBRANCH   4   5
ENDBRANCH   3   4
ENDBRANCH   2   3
ENDBRANCH   1   2
BRANCH   1  11
ATOM     11  C   UNL     1     131.378 125.149 127.139  1.00  0.00    -0.031 C 
ATOM     12  C   UNL     1     130.624 124.547 126.206  1.00  0.00    -0.027 C 
BRANCH  12  13
ATOM     13  C   UNL     1     129.651 123.457 126.566  1.00  0.00     0.054 C 
BRANCH  13  14
ATOM     14  C   UNL     1     128.844 123.831 127.777  1.00  0.00    -0.027 C 
ATOM     15  C   UNL     1     128.067 124.926 127.790  1.00  0.00    -0.031 C 
BRANCH  15  16
ATOM     16  C   UNL     1     127.262 125.305 129.002  1.00  0.00     0.027 C 
BRANCH  16  17
ATOM     17  C   UNL     1     126.199 124.242 129.313  1.00  0.00     0.004 C 
BRANCH  17  18
ATOM     18  C   UNL     1     124.784 124.686 128.911  1.00  0.00     0.000 C 
BRANCH  18  19
ATOM     19  C   UNL     1     124.201 125.741 129.861  1.00  0.00    -0.003 C 
ATOM     20  C   UNL     1     123.936 127.053 129.129  1.00  0.00     0.004 C 
ENDBRANCH  18  19
ENDBRANCH  17  18
ENDBRANCH  16  17
ENDBRANCH  15  16
ENDBRANCH  13  14
ENDBRANCH  12  13
ENDBRANCH   1  11
TORSDOF 14
ENDMDL
MODEL 2
REMARK VINA RESULT:    -6.186      2.535      6.331
REMARK INTER + INTRA:         -13.103
REMARK INTER:                 -12.196
REMARK INTRA:                  -0.907
REMARK UNBOUND:                -1.855
REMARK SMILES CCCCCC=CCC=CCCCCCCCC(=O)[O-]
REMARK SMILES IDX 11 1 12 2 13 3 14 4 15 5 16 6 17 7 18 8 19 9 20 10 10 11
REMARK SMILES IDX 9 12 8 13 7 14 6 15 5 16 4 17 3 18 2 19 1 20
REMARK H PARENT
REMARK Flexibility Score: inf
ROOT
ATOM      1  C   UNL     1     128.928 123.805 127.729  1.00  0.00     0.027 C 
ENDROOT
BRANCH   1   2
ATOM      2  C   UNL     1     127.827 124.841 128.005  1.00  0.00     0.004 C 
BRANCH   2   3
ATOM      3  C   UNL     1     127.197 124.678 129.398  1.00  0.00     0.000 C 
BRANCH   3   4
ATOM      4  C   UNL     1     125.851 123.935 129.354  1.00  0.00     0.000 C 
BRANCH   4   5
ATOM      5  C   UNL     1     124.697 124.834 128.878  1.00  0.00     0.000 C 
BRANCH   5   6
ATOM      6  C   UNL     1     124.305 125.897 129.920  1.00  0.00     0.006 C 
BRANCH   6   7
ATOM      7  C   UNL     1     123.833 127.202 129.264  1.00  0.00     0.053 C 
BRANCH   7   8
ATOM      8  C   UNL     1     122.455 127.068 128.692  1.00  0.00     0.041 C 
ATOM      9  O   UNL     1     121.486 126.764 129.436  1.00  0.00    -0.550 OA
ATOM     10  O   UNL     1     122.247 127.246 127.330  1.00  0.00    -0.550 OA
ENDBRANCH   7   8
ENDBRANCH   6   7
ENDBRANCH   5   6
ENDBRANCH   4   5
ENDBRANCH   3   4
ENDBRANCH   2   3
ENDBRANCH   1   2
BRANCH   1  11
ATOM     11  C   UNL     1     129.975 124.361 126.804  1.00  0.00    -0.031 C 
ATOM     12  C   UNL     1     130.690 125.450 127.125  1.00  0.00    -0.027 C 
BRANCH  12  13
ATOM     13  C   UNL     1     131.722 126.017 126.188  1.00  0.00     0.054 C 
BRANCH  13  14
ATOM     14  C   UNL     1     131.109 126.378 124.864  1.00  0.00    -0.027 C 
ATOM     15  C   UNL     1     129.922 127.002 124.789  1.00  0.00    -0.031 C 
BRANCH  15  16
ATOM     16  C   UNL     1     129.305 127.361 123.466  1.00  0.00     0.027 C 
BRANCH  16  17
ATOM     17  C   UNL     1     127.963 126.641 123.270  1.00  0.00     0.004 C 
BRANCH  17  18
ATOM     18  C   UNL     1     127.203 127.134 122.028  1.00  0.00     0.000 C 
BRANCH  18  19
ATOM     19  C   UNL     1     127.289 128.656 121.847  1.00  0.00    -0.003 C 
ATOM     20  C   UNL     1     125.913 129.304 121.981  1.00  0.00     0.004 C 
ENDBRANCH  18  19
ENDBRANCH  17  18
ENDBRANCH  16  17
ENDBRANCH  15  16
ENDBRANCH  13  14
ENDBRANCH  12  13
ENDBRANCH   1  11
TORSDOF 14
ENDMDL
MODEL 3
REMARK VINA RESULT:    -5.950      1.386      1.916
REMARK INTER + INTRA:         -12.676
REMARK INTER:                 -11.445
REMARK INTRA:                  -1.230
REMARK UNBOUND:                -1.855
REMARK SMILES CCCCCC=CCC=CCCCCCCCC(=O)[O-]
REMARK SMILES IDX 11 1 12 2 13 3 14 4 15 5 16 6 17 7 18 8 19 9 20 10 10 11
REMARK SMILES IDX 9 12 8 13 7 14 6 15 5 16 4 17 3 18 2 19 1 20
REMARK H PARENT
REMARK Flexibility Score: inf
ROOT
ATOM      1  C   UNL     1     131.427 125.827 124.717  1.00  0.00     0.027 C 
ENDROOT
BRANCH   1   2
ATOM      2  C   UNL     1     130.680 126.964 124.005  1.00  0.00     0.004 C 
BRANCH   2   3
ATOM      3  C   UNL     1     129.657 127.663 124.917  1.00  0.00     0.000 C 
BRANCH   3   4
ATOM      4  C   UNL     1     128.242 127.677 124.314  1.00  0.00     0.000 C 
BRANCH   4   5
ATOM      5  C   UNL     1     128.031 126.558 123.280  1.00  0.00     0.000 C 
BRANCH   5   6
ATOM      6  C   UNL     1     127.670 127.099 121.886  1.00  0.00     0.006 C 
BRANCH   6   7
ATOM      7  C   UNL     1     127.585 128.632 121.865  1.00  0.00     0.053 C 
BRANCH   7   8
ATOM      8  C   UNL     1     126.168 129.109 121.955  1.00  0.00     0.041 C 
ATOM      9  O   UNL     1     125.233 128.287 122.144  1.00  0.00    -0.550 OA
ATOM     10  O   UNL     1     125.877 130.458 121.799  1.00  0.00    -0.550 OA
ENDBRANCH   7   8
ENDBRANCH   6   7
ENDBRANCH   5   6
ENDBRANCH   4   5
ENDBRANCH   3   4
ENDBRANCH   2   3
ENDBRANCH   1   2
BRANCH   1  11
ATOM     11  C   UNL     1     130.679 125.370 125.939  1.00  0.00    -0.031 C 
ATOM     12  C   UNL     1     130.371 124.078 126.133  1.00  0.00    -0.027 C 
BRANCH  12  13
ATOM     13  C   UNL     1     129.603 123.627 127.346  1.00  0.00     0.054 C 
BRANCH  13  14
ATOM     14  C   UNL     1     128.479 124.575 127.657  1.00  0.00    -0.027 C 
ATOM     15  C   UNL     1     127.694 124.402 128.732  1.00  0.00    -0.031 C 
BRANCH  15  16
ATOM     16  C   UNL     1     126.565 125.345 129.043  1.00  0.00     0.027 C 
BRANCH  16  17
ATOM     17  C   UNL     1     125.246 124.583 129.233  1.00  0.00     0.004 C 
BRANCH  17  18
ATOM     18  C   UNL     1     124.017 125.426 128.855  1.00  0.00     0.000 C 
BRANCH  18  19
ATOM     19  C   UNL     1     123.560 126.350 129.993  1.00  0.00    -0.003 C 
ATOM     20  C   UNL     1     123.700 127.817 129.598  1.00  0.00     0.004 C 
ENDBRANCH  18  19
ENDBRANCH  17  18
ENDBRANCH  16  17
ENDBRANCH  15  16
ENDBRANCH  13  14
ENDBRANCH  12  13
ENDBRANCH   1  11
TORSDOF 14
ENDMDL
MODEL 4
REMARK VINA RESULT:    -5.914      1.124      2.502
REMARK INTER + INTRA:         -12.609
REMARK INTER:                 -11.235
REMARK INTRA:                  -1.373
REMARK UNBOUND:                -1.855
REMARK SMILES CCCCCC=CCC=CCCCCCCCC(=O)[O-]
REMARK SMILES IDX 11 1 12 2 13 3 14 4 15 5 16 6 17 7 18 8 19 9 20 10 10 11
REMARK SMILES IDX 9 12 8 13 7 14 6 15 5 16 4 17 3 18 2 19 1 20
REMARK H PARENT
REMARK Flexibility Score: inf
ROOT
ATOM      1  C   UNL     1     130.393 124.397 126.330  1.00  0.00     0.027 C 
ENDROOT
BRANCH   1   2
ATOM      2  C   UNL     1     131.351 125.410 126.974  1.00  0.00     0.004 C 
BRANCH   2   3
ATOM      3  C   UNL     1     131.331 126.776 126.268  1.00  0.00     0.000 C 
BRANCH   3   4
ATOM      4  C   UNL     1     130.387 127.780 126.951  1.00  0.00     0.000 C 
BRANCH   4   5
ATOM      5  C   UNL     1     129.035 127.902 126.229  1.00  0.00     0.000 C 
BRANCH   5   6
ATOM      6  C   UNL     1     129.080 127.364 124.788  1.00  0.00     0.006 C 
BRANCH   6   7
ATOM      7  C   UNL     1     129.018 128.491 123.748  1.00  0.00     0.053 C 
BRANCH   7   8
ATOM      8  C   UNL     1     128.088 128.155 122.623  1.00  0.00     0.041 C 
ATOM      9  O   UNL     1     128.029 126.979 122.178  1.00  0.00    -0.550 OA
ATOM     10  O   UNL     1     127.311 129.150 122.043  1.00  0.00    -0.550 OA
ENDBRANCH   7   8
ENDBRANCH   6   7
ENDBRANCH   5   6
ENDBRANCH   4   5
ENDBRANCH   3   4
ENDBRANCH   2   3
ENDBRANCH   1   2
BRANCH   1  11
ATOM     11  C   UNL     1     129.466 123.802 127.353  1.00  0.00    -0.031 C 
ATOM     12  C   UNL     1     128.412 124.483 127.829  1.00  0.00    -0.027 C 
BRANCH  12  13
ATOM     13  C   UNL     1     127.499 123.892 128.869  1.00  0.00     0.054 C 
BRANCH  13  14
ATOM     14  C   UNL     1     126.451 124.882 129.293  1.00  0.00    -0.027 C 
ATOM     15  C   UNL     1     125.142 124.617 129.159  1.00  0.00    -0.031 C 
BRANCH  15  16
ATOM     16  C   UNL     1     124.091 125.607 129.579  1.00  0.00     0.027 C 
BRANCH  16  17
ATOM     17  C   UNL     1     124.502 127.039 129.206  1.00  0.00     0.004 C 
BRANCH  17  18
ATOM     18  C   UNL     1     123.320 128.021 129.237  1.00  0.00     0.000 C 
BRANCH  18  19
ATOM     19  C   UNL     1     122.067 127.459 128.552  1.00  0.00    -0.003 C 
ATOM     20  C   UNL     1     122.232 127.439 127.035  1.00  0.00     0.004 C 
ENDBRANCH  18  19
ENDBRANCH  17  18
ENDBRANCH  16  17
ENDBRANCH  15  16
ENDBRANCH  13  14
ENDBRANCH  12  13
ENDBRANCH   1  11
TORSDOF 14
ENDMDL
MODEL 5
REMARK VINA RESULT:    -5.843      1.294      2.503
REMARK INTER + INTRA:         -12.480
REMARK INTER:                 -11.124
REMARK INTRA:                  -1.355
REMARK UNBOUND:                -1.855
REMARK SMILES CCCCCC=CCC=CCCCCCCCC(=O)[O-]
REMARK SMILES IDX 11 1 12 2 13 3 14 4 15 5 16 6 17 7 18 8 19 9 20 10 10 11
REMARK SMILES IDX 9 12 8 13 7 14 6 15 5 16 4 17 3 18 2 19 1 20
REMARK H PARENT
REMARK Flexibility Score: inf
ROOT
ATOM      1  C   UNL     1     130.374 124.356 126.320  1.00  0.00     0.027 C 
ENDROOT
BRANCH   1   2
ATOM      2  C   UNL     1     131.256 125.382 127.049  1.00  0.00     0.004 C 
BRANCH   2   3
ATOM      3  C   UNL     1     131.341 126.724 126.303  1.00  0.00     0.000 C 
BRANCH   3   4
ATOM      4  C   UNL     1     130.246 127.713 126.740  1.00  0.00     0.000 C 
BRANCH   4   5
ATOM      5  C   UNL     1     129.023 127.685 125.808  1.00  0.00     0.000 C 
BRANCH   5   6
ATOM      6  C   UNL     1     129.398 127.398 124.344  1.00  0.00     0.006 C 
BRANCH   6   7
ATOM      7  C   UNL     1     128.246 126.740 123.571  1.00  0.00     0.053 C 
BRANCH   7   8
ATOM      8  C   UNL     1     127.545 127.721 122.682  1.00  0.00     0.041 C 
ATOM      9  O   UNL     1     128.042 128.859 122.476  1.00  0.00    -0.550 OA
ATOM     10  O   UNL     1     126.324 127.390 122.107  1.00  0.00    -0.550 OA
ENDBRANCH   7   8
ENDBRANCH   6   7
ENDBRANCH   5   6
ENDBRANCH   4   5
ENDBRANCH   3   4
ENDBRANCH   2   3
ENDBRANCH   1   2
BRANCH   1  11
ATOM     11  C   UNL     1     129.338 123.780 127.245  1.00  0.00    -0.031 C 
ATOM     12  C   UNL     1     128.473 124.564 127.908  1.00  0.00    -0.027 C 
BRANCH  12  13
ATOM     13  C   UNL     1     127.452 123.985 128.849  1.00  0.00     0.054 C 
BRANCH  13  14
ATOM     14  C   UNL     1     126.427 125.015 129.235  1.00  0.00    -0.027 C 
ATOM     15  C   UNL     1     125.113 124.781 129.097  1.00  0.00    -0.031 C 
BRANCH  15  16
ATOM     16  C   UNL     1     124.085 125.811 129.478  1.00  0.00     0.027 C 
BRANCH  16  17
ATOM     17  C   UNL     1     123.009 125.945 128.391  1.00  0.00     0.004 C 
BRANCH  17  18
ATOM     18  C   UNL     1     122.137 127.196 128.574  1.00  0.00     0.000 C 
BRANCH  18  19
ATOM     19  C   UNL     1     121.772 127.455 130.042  1.00  0.00    -0.003 C 
ATOM     20  C   UNL     1     120.415 126.847 130.387  1.00  0.00     0.004 C 
ENDBRANCH  18  19
ENDBRANCH  17  18
ENDBRANCH  16  17
ENDBRANCH  15  16
ENDBRANCH  13  14
ENDBRANCH  12  13
ENDBRANCH   1  11
TORSDOF 14
ENDMDL
MODEL 6
REMARK VINA RESULT:    -5.690      1.707      3.285
REMARK INTER + INTRA:         -12.202
REMARK INTER:                 -11.241
REMARK INTRA:                  -0.961
REMARK UNBOUND:                -1.855
REMARK SMILES CCCCCC=CCC=CCCCCCCCC(=O)[O-]
REMARK SMILES IDX 11 1 12 2 13 3 14 4 15 5 16 6 17 7 18 8 19 9 20 10 10 11
REMARK SMILES IDX 9 12 8 13 7 14 6 15 5 16 4 17 3 18 2 19 1 20
REMARK H PARENT
REMARK Flexibility Score: inf
ROOT
ATOM      1  C   UNL     1     129.230 125.886 127.642  1.00  0.00     0.027 C 
ENDROOT
BRANCH   1   2
ATOM      2  C   UNL     1     129.345 126.096 126.124  1.00  0.00     0.004 C 
BRANCH   2   3
ATOM      3  C   UNL     1     129.420 127.583 125.737  1.00  0.00     0.000 C 
BRANCH   3   4
ATOM      4  C   UNL     1     129.103 127.822 124.251  1.00  0.00     0.000 C 
BRANCH   4   5
ATOM      5  C   UNL     1     128.189 126.735 123.661  1.00  0.00     0.000 C 
BRANCH   5   6
ATOM      6  C   UNL     1     127.789 127.023 122.203  1.00  0.00     0.006 C 
BRANCH   6   7
ATOM      7  C   UNL     1     127.693 128.528 121.916  1.00  0.00     0.053 C 
BRANCH   7   8
ATOM      8  C   UNL     1     126.275 129.010 121.956  1.00  0.00     0.041 C 
ATOM      9  O   UNL     1     126.017 130.232 121.801  1.00  0.00    -0.550 OA
ATOM     10  O   UNL     1     125.243 128.113 122.199  1.00  0.00    -0.550 OA
ENDBRANCH   7   8
ENDBRANCH   6   7
ENDBRANCH   5   6
ENDBRANCH   4   5
ENDBRANCH   3   4
ENDBRANCH   2   3
ENDBRANCH   1   2
BRANCH   1  11
ATOM     11  C   UNL     1     128.108 124.942 127.975  1.00  0.00    -0.031 C 
ATOM     12  C   UNL     1     127.447 125.018 129.141  1.00  0.00    -0.027 C 
BRANCH  12  13
ATOM     13  C   UNL     1     126.339 124.058 129.479  1.00  0.00     0.054 C 
BRANCH  13  14
ATOM     14  C   UNL     1     125.021 124.544 128.944  1.00  0.00    -0.027 C 
ATOM     15  C   UNL     1     124.511 125.731 129.309  1.00  0.00    -0.031 C 
BRANCH  15  16
ATOM     16  C   UNL     1     123.191 126.217 128.779  1.00  0.00     0.027 C 
BRANCH  16  17
ATOM     17  C   UNL     1     122.389 126.937 129.872  1.00  0.00     0.004 C 
BRANCH  17  18
ATOM     18  C   UNL     1     122.759 126.462 131.286  1.00  0.00     0.000 C 
BRANCH  18  19
ATOM     19  C   UNL     1     122.162 127.353 132.385  1.00  0.00    -0.003 C 
ATOM     20  C   UNL     1     123.073 128.540 132.684  1.00  0.00     0.004 C 
ENDBRANCH  18  19
ENDBRANCH  17  18
ENDBRANCH  16  17
ENDBRANCH  15  16
ENDBRANCH  13  14
ENDBRANCH  12  13
ENDBRANCH   1  11
TORSDOF 14
ENDMDL
MODEL 7
REMARK VINA RESULT:    -5.682      3.753      7.372
REMARK INTER + INTRA:         -12.187
REMARK INTER:                 -11.244
REMARK INTRA:                  -0.943
REMARK UNBOUND:                -1.855
REMARK SMILES CCCCCC=CCC=CCCCCCCCC(=O)[O-]
REMARK SMILES IDX 11 1 12 2 13 3 14 4 15 5 16 6 17 7 18 8 19 9 20 10 10 11
REMARK SMILES IDX 9 12 8 13 7 14 6 15 5 16 4 17 3 18 2 19 1 20
REMARK H PARENT
REMARK Flexibility Score: inf
ROOT
ATOM      1  C   UNL     1     127.065 125.060 129.218  1.00  0.00     0.027 C 
ENDROOT
BRANCH   1   2
ATOM      2  C   UNL     1     125.841 124.133 129.177  1.00  0.00     0.004 C 
BRANCH   2   3
ATOM      3  C   UNL     1     124.537 124.889 128.870  1.00  0.00     0.000 C 
BRANCH   3   4
ATOM      4  C   UNL     1     124.507 126.294 129.495  1.00  0.00     0.000 C 
BRANCH   4   5
ATOM      5  C   UNL     1     123.459 127.208 128.840  1.00  0.00     0.000 C 
BRANCH   5   6
ATOM      6  C   UNL     1     122.055 126.578 128.813  1.00  0.00     0.006 C 
BRANCH   6   7
ATOM      7  C   UNL     1     121.064 127.337 129.705  1.00  0.00     0.053 C 
BRANCH   7   8
ATOM      8  C   UNL     1     121.042 126.790 131.099  1.00  0.00     0.041 C 
ATOM      9  O   UNL     1     121.961 127.081 131.909  1.00  0.00    -0.550 OA
ATOM     10  O   UNL     1     120.024 125.932 131.494  1.00  0.00    -0.550 OA
ENDBRANCH   7   8
ENDBRANCH   6   7
ENDBRANCH   5   6
ENDBRANCH   4   5
ENDBRANCH   3   4
ENDBRANCH   2   3
ENDBRANCH   1   2
BRANCH   1  11
ATOM     11  C   UNL     1     128.081 124.661 128.185  1.00  0.00    -0.031 C 
ATOM     12  C   UNL     1     128.995 125.530 127.724  1.00  0.00    -0.027 C 
BRANCH  12  13
ATOM     13  C   UNL     1     129.997 125.133 126.674  1.00  0.00     0.054 C 
BRANCH  13  14
ATOM     14  C   UNL     1     129.873 126.000 125.453  1.00  0.00    -0.027 C 
ATOM     15  C   UNL     1     128.740 126.666 125.179  1.00  0.00    -0.031 C 
BRANCH  15  16
ATOM     16  C   UNL     1     128.611 127.532 123.957  1.00  0.00     0.027 C 
BRANCH  16  17
ATOM     17  C   UNL     1     128.129 126.713 122.750  1.00  0.00     0.004 C 
BRANCH  17  18
ATOM     18  C   UNL     1     127.744 127.596 121.553  1.00  0.00     0.000 C 
BRANCH  18  19
ATOM     19  C   UNL     1     127.143 128.943 121.979  1.00  0.00    -0.003 C 
ATOM     20  C   UNL     1     125.629 128.844 122.138  1.00  0.00     0.004 C 
ENDBRANCH  18  19
ENDBRANCH  17  18
ENDBRANCH  16  17
ENDBRANCH  15  16
ENDBRANCH  13  14
ENDBRANCH  12  13
ENDBRANCH   1  11
TORSDOF 14
ENDMDL
MODEL 8
REMARK VINA RESULT:    -5.598      3.775      7.723
REMARK INTER + INTRA:         -12.035
REMARK INTER:                 -11.008
REMARK INTRA:                  -1.027
REMARK UNBOUND:                -1.855
REMARK SMILES CCCCCC=CCC=CCCCCCCCC(=O)[O-]
REMARK SMILES IDX 11 1 12 2 13 3 14 4 15 5 16 6 17 7 18 8 19 9 20 10 10 11
REMARK SMILES IDX 9 12 8 13 7 14 6 15 5 16 4 17 3 18 2 19 1 20
REMARK H PARENT
REMARK Flexibility Score: inf
ROOT
ATOM      1  C   UNL     1     126.158 123.989 129.421  1.00  0.00     0.027 C 
ENDROOT
BRANCH   1   2
ATOM      2  C   UNL     1     124.877 124.638 128.876  1.00  0.00     0.004 C 
BRANCH   2   3
ATOM      3  C   UNL     1     124.497 125.922 129.633  1.00  0.00     0.000 C 
BRANCH   3   4
ATOM      4  C   UNL     1     123.348 126.688 128.954  1.00  0.00     0.000 C 
BRANCH   4   5
ATOM      5  C   UNL     1     122.132 126.866 129.879  1.00  0.00     0.000 C 
BRANCH   5   6
ATOM      6  C   UNL     1     122.430 126.466 131.335  1.00  0.00     0.006 C 
BRANCH   6   7
ATOM      7  C   UNL     1     121.936 127.520 132.336  1.00  0.00     0.053 C 
BRANCH   7   8
ATOM      8  C   UNL     1     123.050 128.408 132.800  1.00  0.00     0.041 C 
ATOM      9  O   UNL     1     123.535 128.267 133.953  1.00  0.00    -0.550 OA
ATOM     10  O   UNL     1     123.530 129.412 131.969  1.00  0.00    -0.550 OA
ENDBRANCH   7   8
ENDBRANCH   6   7
ENDBRANCH   5   6
ENDBRANCH   4   5
ENDBRANCH   3   4
ENDBRANCH   2   3
ENDBRANCH   1   2
BRANCH   1  11
ATOM     11  C   UNL     1     127.356 124.864 129.173  1.00  0.00    -0.031 C 
ATOM     12  C   UNL     1     127.981 124.881 127.985  1.00  0.00    -0.027 C 
BRANCH  12  13
ATOM     13  C   UNL     1     129.192 125.742 127.748  1.00  0.00     0.054 C 
BRANCH  13  14
ATOM     14  C   UNL     1     128.845 126.945 126.916  1.00  0.00    -0.027 C 
ATOM     15  C   UNL     1     129.449 127.183 125.741  1.00  0.00    -0.031 C 
BRANCH  15  16
ATOM     16  C   UNL     1     129.106 128.388 124.910  1.00  0.00     0.027 C 
BRANCH  16  17
ATOM     17  C   UNL     1     128.974 128.014 123.426  1.00  0.00     0.004 C 
BRANCH  17  18
ATOM     18  C   UNL     1     128.063 126.797 123.202  1.00  0.00     0.000 C 
BRANCH  18  19
ATOM     19  C   UNL     1     126.989 127.051 122.134  1.00  0.00    -0.003 C 
ATOM     20  C   UNL     1     126.618 128.529 122.067  1.00  0.00     0.004 C 
ENDBRANCH  18  19
ENDBRANCH  17  18
ENDBRANCH  16  17
ENDBRANCH  15  16
ENDBRANCH  13  14
ENDBRANCH  12  13
ENDBRANCH   1  11
TORSDOF 14
ENDMDL
MODEL 9
REMARK VINA RESULT:    -5.464      3.364      6.204
REMARK INTER + INTRA:         -11.791
REMARK INTER:                 -10.629
REMARK INTRA:                  -1.162
REMARK UNBOUND:                -1.855
REMARK SMILES CCCCCC=CCC=CCCCCCCCC(=O)[O-]
REMARK SMILES IDX 11 1 12 2 13 3 14 4 15 5 16 6 17 7 18 8 19 9 20 10 10 11
REMARK SMILES IDX 9 12 8 13 7 14 6 15 5 16 4 17 3 18 2 19 1 20
REMARK H PARENT
REMARK Flexibility Score: inf
ROOT
ATOM      1  C   UNL     1     126.112 123.855 129.252  1.00  0.00     0.027 C 
ENDROOT
BRANCH   1   2
ATOM      2  C   UNL     1     127.303 124.766 129.586  1.00  0.00     0.004 C 
BRANCH   2   3
ATOM      3  C   UNL     1     128.147 125.114 128.348  1.00  0.00     0.000 C 
BRANCH   3   4
ATOM      4  C   UNL     1     128.533 123.872 127.528  1.00  0.00     0.000 C 
BRANCH   4   5
ATOM      5  C   UNL     1     130.037 123.819 127.211  1.00  0.00     0.000 C 
BRANCH   5   6
ATOM      6  C   UNL     1     130.474 124.912 126.219  1.00  0.00     0.006 C 
BRANCH   6   7
ATOM      7  C   UNL     1     131.555 125.828 126.809  1.00  0.00     0.053 C 
BRANCH   7   8
ATOM      8  C   UNL     1     131.016 127.191 127.121  1.00  0.00     0.041 C 
ATOM      9  O   UNL     1     130.407 127.849 126.238  1.00  0.00    -0.550 OA
ATOM     10  O   UNL     1     131.216 127.746 128.378  1.00  0.00    -0.550 OA
ENDBRANCH   7   8
ENDBRANCH   6   7
ENDBRANCH   5   6
ENDBRANCH   4   5
ENDBRANCH   3   4
ENDBRANCH   2   3
ENDBRANCH   1   2
BRANCH   1  11
ATOM     11  C   UNL     1     124.906 124.664 128.861  1.00  0.00    -0.031 C 
ATOM     12  C   UNL     1     124.535 125.753 129.553  1.00  0.00    -0.027 C 
BRANCH  12  13
ATOM     13  C   UNL     1     123.315 126.547 129.172  1.00  0.00     0.054 C 
BRANCH  13  14
ATOM     14  C   UNL     1     122.627 127.098 130.389  1.00  0.00    -0.027 C 
ATOM     15  C   UNL     1     122.391 126.333 131.467  1.00  0.00    -0.031 C 
BRANCH  15  16
ATOM     16  C   UNL     1     121.699 126.880 132.684  1.00  0.00     0.027 C 
BRANCH  16  17
ATOM     17  C   UNL     1     120.194 127.050 132.433  1.00  0.00     0.004 C 
BRANCH  17  18
ATOM     18  C   UNL     1     119.473 125.707 132.229  1.00  0.00     0.000 C 
BRANCH  18  19
ATOM     19  C   UNL     1     119.491 124.829 133.488  1.00  0.00    -0.003 C 
ATOM     20  C   UNL     1     120.104 123.462 133.196  1.00  0.00     0.004 C 
ENDBRANCH  18  19
ENDBRANCH  17  18
ENDBRANCH  16  17
ENDBRANCH  15  16
ENDBRANCH  13  14
ENDBRANCH  12  13
ENDBRANCH   1  11
TORSDOF 14
ENDMDL
