MODEL 1
REMARK VINA RESULT:    -3.823      0.000      0.000
REMARK INTER + INTRA:          -8.297
REMARK INTER:                  -7.176
REMARK INTRA:                  -1.122
REMARK UNBOUND:                -1.122
REMARK SMILES O=C([O-])CCCCCCCCCCCCCCC(=O)[O-]
REMARK SMILES IDX 10 1 9 2 8 3 7 4 6 5 5 6 4 7 2 8 1 9 3 10 11 11 12 12 13 13
REMARK SMILES IDX 14 14 15 15 16 16 17 17 18 18 19 19 20 20
REMARK H PARENT
REMARK Flexibility Score: inf
ROOT
ATOM      1  C   UNL     1      -7.519 -10.352  -7.019  1.00  0.00     0.000 C 
ENDROOT
BRANCH   1   2
ATOM      2  C   UNL     1      -6.337 -10.734  -7.923  1.00  0.00     0.000 C 
BRANCH   2   3
ATOM      3  C   UNL     1      -5.271  -9.628  -8.018  1.00  0.00     0.000 C 
BRANCH   3   4
ATOM      4  C   UNL     1      -3.818 -10.106  -7.837  1.00  0.00     0.000 C 
BRANCH   4   5
ATOM      5  C   UNL     1      -3.451 -10.363  -6.368  1.00  0.00     0.000 C 
BRANCH   5   6
ATOM      6  C   UNL     1      -3.913  -9.203  -5.473  1.00  0.00     0.006 C 
BRANCH   6   7
ATOM      7  C   UNL     1      -3.013  -7.968  -5.614  1.00  0.00     0.053 C 
BRANCH   7   8
ATOM      8  C   UNL     1      -3.797  -6.746  -5.978  1.00  0.00     0.041 C 
ATOM      9  O   UNL     1      -3.412  -6.004  -6.921  1.00  0.00    -0.550 OA
ATOM     10  O   UNL     1      -4.971  -6.443  -5.300  1.00  0.00    -0.550 OA
ENDBRANCH   7   8
ENDBRANCH   6   7
ENDBRANCH   5   6
ENDBRANCH   4   5
ENDBRANCH   3   4
ENDBRANCH   2   3
ENDBRANCH   1   2
BRANCH   1  11
ATOM     11  C   UNL     1      -7.447  -8.874  -6.616  1.00  0.00     0.000 C 
BRANCH  11  12
ATOM     12  C   UNL     1      -8.839  -8.334  -6.256  1.00  0.00     0.000 C 
BRANCH  12  13
ATOM     13  C   UNL     1      -9.980  -9.207  -6.812  1.00  0.00     0.000 C 
BRANCH  13  14
ATOM     14  C   UNL     1     -11.178  -8.424  -7.387  1.00  0.00     0.000 C 
BRANCH  14  15
ATOM     15  C   UNL     1     -12.475  -8.505  -6.557  1.00  0.00     0.000 C 
BRANCH  15  16
ATOM     16  C   UNL     1     -13.323  -7.221  -6.550  1.00  0.00     0.006 C 
BRANCH  16  17
ATOM     17  C   UNL     1     -14.759  -7.459  -6.067  1.00  0.00     0.053 C 
BRANCH  17  18
ATOM     18  C   UNL     1     -15.655  -7.759  -7.227  1.00  0.00     0.041 C 
ATOM     19  O   UNL     1     -15.589  -7.064  -8.275  1.00  0.00    -0.550 OA
ATOM     20  O   UNL     1     -16.528  -8.838  -7.170  1.00  0.00    -0.550 OA
ENDBRANCH  17  18
ENDBRANCH  16  17
ENDBRANCH  15  16
ENDBRANCH  14  15
ENDBRANCH  13  14
ENDBRANCH  12  13
ENDBRANCH  11  12
ENDBRANCH   1  11
TORSDOF 15
ENDMDL
MODEL 2
REMARK VINA RESULT:    -3.679      1.404      2.694
REMARK INTER + INTRA:          -8.027
REMARK INTER:                  -6.914
REMARK INTRA:                  -1.113
REMARK UNBOUND:                -1.122
REMARK SMILES O=C([O-])CCCCCCCCCCCCCCC(=O)[O-]
REMARK SMILES IDX 10 1 9 2 8 3 7 4 6 5 5 6 4 7 2 8 1 9 3 10 11 11 12 12 13 13
REMARK SMILES IDX 14 14 15 15 16 16 17 17 18 18 19 19 20 20
REMARK H PARENT
REMARK Flexibility Score: inf
ROOT
ATOM      1  C   UNL     1      -9.091  -8.371  -5.654  1.00  0.00     0.000 C 
ENDROOT
BRANCH   1   2
ATOM      2  C   UNL     1      -8.922  -9.262  -6.894  1.00  0.00     0.000 C 
BRANCH   2   3
ATOM      3  C   UNL     1      -8.106 -10.537  -6.611  1.00  0.00     0.000 C 
BRANCH   3   4
ATOM      4  C   UNL     1      -7.204 -11.002  -7.769  1.00  0.00     0.000 C 
BRANCH   4   5
ATOM      5  C   UNL     1      -5.709 -10.960  -7.417  1.00  0.00     0.000 C 
BRANCH   5   6
ATOM      6  C   UNL     1      -4.919 -10.155  -8.460  1.00  0.00     0.006 C 
BRANCH   6   7
ATOM      7  C   UNL     1      -4.954  -8.647  -8.178  1.00  0.00     0.053 C 
BRANCH   7   8
ATOM      8  C   UNL     1      -4.694  -8.344  -6.735  1.00  0.00     0.041 C 
ATOM      9  O   UNL     1      -5.643  -8.004  -5.979  1.00  0.00    -0.550 OA
ATOM     10  O   UNL     1      -3.412  -8.471  -6.215  1.00  0.00    -0.550 OA
ENDBRANCH   7   8
ENDBRANCH   6   7
ENDBRANCH   5   6
ENDBRANCH   4   5
ENDBRANCH   3   4
ENDBRANCH   2   3
ENDBRANCH   1   2
BRANCH   1  11
ATOM     11  C   UNL     1     -10.551  -7.933  -5.487  1.00  0.00     0.000 C 
BRANCH  11  12
ATOM     12  C   UNL     1     -11.378  -8.291  -6.729  1.00  0.00     0.000 C 
BRANCH  12  13
ATOM     13  C   UNL     1     -12.626  -9.130  -6.396  1.00  0.00     0.000 C 
BRANCH  13  14
ATOM     14  C   UNL     1     -13.367  -8.713  -5.110  1.00  0.00     0.000 C 
BRANCH  14  15
ATOM     15  C   UNL     1     -14.224  -7.437  -5.231  1.00  0.00     0.000 C 
BRANCH  15  16
ATOM     16  C   UNL     1     -15.725  -7.635  -4.954  1.00  0.00     0.006 C 
BRANCH  16  17
ATOM     17  C   UNL     1     -16.616  -7.055  -6.060  1.00  0.00     0.053 C 
BRANCH  17  18
ATOM     18  C   UNL     1     -16.346  -7.744  -7.361  1.00  0.00     0.041 C 
ATOM     19  O   UNL     1     -15.812  -7.115  -8.312  1.00  0.00    -0.550 OA
ATOM     20  O   UNL     1     -16.637  -9.094  -7.506  1.00  0.00    -0.550 OA
ENDBRANCH  17  18
ENDBRANCH  16  17
ENDBRANCH  15  16
ENDBRANCH  14  15
ENDBRANCH  13  14
ENDBRANCH  12  13
ENDBRANCH  11  12
ENDBRANCH   1  11
TORSDOF 15
ENDMDL
MODEL 3
REMARK VINA RESULT:    -3.545      1.314      2.273
REMARK INTER + INTRA:          -7.776
REMARK INTER:                  -6.644
REMARK INTRA:                  -1.132
REMARK UNBOUND:                -1.122
REMARK SMILES O=C([O-])CCCCCCCCCCCCCCC(=O)[O-]
REMARK SMILES IDX 10 1 9 2 8 3 7 4 6 5 5 6 4 7 2 8 1 9 3 10 11 11 12 12 13 13
REMARK SMILES IDX 14 14 15 15 16 16 17 17 18 18 19 19 20 20
REMARK H PARENT
REMARK Flexibility Score: inf
ROOT
ATOM      1  C   UNL     1      -5.012  -9.749  -8.256  1.00  0.00     0.000 C 
ENDROOT
BRANCH   1   2
ATOM      2  C   UNL     1      -3.964 -10.627  -8.957  1.00  0.00     0.000 C 
BRANCH   2   3
ATOM      3  C   UNL     1      -2.814 -11.049  -8.025  1.00  0.00     0.000 C 
BRANCH   3   4
ATOM      4  C   UNL     1      -3.007 -10.678  -6.543  1.00  0.00     0.000 C 
BRANCH   4   5
ATOM      5  C   UNL     1      -1.780  -9.979  -5.937  1.00  0.00     0.000 C 
BRANCH   5   6
ATOM      6  C   UNL     1      -2.169  -8.637  -5.300  1.00  0.00     0.006 C 
BRANCH   6   7
ATOM      7  C   UNL     1      -3.686  -8.498  -5.117  1.00  0.00     0.053 C 
BRANCH   7   8
ATOM      8  C   UNL     1      -4.193  -7.190  -5.639  1.00  0.00     0.041 C 
ATOM      9  O   UNL     1      -3.523  -6.544  -6.487  1.00  0.00    -0.550 OA
ATOM     10  O   UNL     1      -5.423  -6.701  -5.217  1.00  0.00    -0.550 OA
ENDBRANCH   7   8
ENDBRANCH   6   7
ENDBRANCH   5   6
ENDBRANCH   4   5
ENDBRANCH   3   4
ENDBRANCH   2   3
ENDBRANCH   1   2
BRANCH   1  11
ATOM     11  C   UNL     1      -6.307 -10.533  -8.006  1.00  0.00     0.000 C 
BRANCH  11  12
ATOM     12  C   UNL     1      -7.095  -9.931  -6.834  1.00  0.00     0.000 C 
BRANCH  12  13
ATOM     13  C   UNL     1      -8.326 -10.772  -6.447  1.00  0.00     0.000 C 
BRANCH  13  14
ATOM     14  C   UNL     1      -9.670 -10.019  -6.497  1.00  0.00     0.000 C 
BRANCH  14  15
ATOM     15  C   UNL     1      -9.602  -8.527  -6.114  1.00  0.00     0.000 C 
BRANCH  15  16
ATOM     16  C   UNL     1     -10.965  -7.859  -5.861  1.00  0.00     0.006 C 
BRANCH  16  17
ATOM     17  C   UNL     1     -12.060  -8.363  -6.810  1.00  0.00     0.053 C 
BRANCH  17  18
ATOM     18  C   UNL     1     -13.230  -7.430  -6.797  1.00  0.00     0.041 C 
ATOM     19  O   UNL     1     -13.684  -6.970  -7.878  1.00  0.00    -0.550 OA
ATOM     20  O   UNL     1     -13.849  -7.108  -5.597  1.00  0.00    -0.550 OA
ENDBRANCH  17  18
ENDBRANCH  16  17
ENDBRANCH  15  16
ENDBRANCH  14  15
ENDBRANCH  13  14
ENDBRANCH  12  13
ENDBRANCH  11  12
ENDBRANCH   1  11
TORSDOF 15
ENDMDL
MODEL 4
REMARK VINA RESULT:    -3.544      1.241      9.497
REMARK INTER + INTRA:          -7.774
REMARK INTER:                  -6.666
REMARK INTRA:                  -1.108
REMARK UNBOUND:                -1.122
REMARK SMILES O=C([O-])CCCCCCCCCCCCCCC(=O)[O-]
REMARK SMILES IDX 10 1 9 2 8 3 7 4 6 5 5 6 4 7 2 8 1 9 3 10 11 11 12 12 13 13
REMARK SMILES IDX 14 14 15 15 16 16 17 17 18 18 19 19 20 20
REMARK H PARENT
REMARK Flexibility Score: inf
ROOT
ATOM      1  C   UNL     1      -9.787  -8.528  -7.123  1.00  0.00     0.000 C 
ENDROOT
BRANCH   1   2
ATOM      2  C   UNL     1     -11.315  -8.673  -7.075  1.00  0.00     0.000 C 
BRANCH   2   3
ATOM      3  C   UNL     1     -11.777  -9.920  -6.299  1.00  0.00     0.000 C 
BRANCH   3   4
ATOM      4  C   UNL     1     -12.882  -9.666  -5.257  1.00  0.00     0.000 C 
BRANCH   4   5
ATOM      5  C   UNL     1     -14.291  -9.949  -5.799  1.00  0.00     0.000 C 
BRANCH   5   6
ATOM      6  C   UNL     1     -15.222  -8.748  -5.570  1.00  0.00     0.006 C 
BRANCH   6   7
ATOM      7  C   UNL     1     -15.044  -7.663  -6.640  1.00  0.00     0.053 C 
BRANCH   7   8
ATOM      8  C   UNL     1     -16.120  -7.724  -7.680  1.00  0.00     0.041 C 
ATOM      9  O   UNL     1     -16.273  -6.771  -8.489  1.00  0.00    -0.550 OA
ATOM     10  O   UNL     1     -16.931  -8.848  -7.779  1.00  0.00    -0.550 OA
ENDBRANCH   7   8
ENDBRANCH   6   7
ENDBRANCH   5   6
ENDBRANCH   4   5
ENDBRANCH   3   4
ENDBRANCH   2   3
ENDBRANCH   1   2
BRANCH   1  11
ATOM     11  C   UNL     1      -9.148  -9.012  -5.816  1.00  0.00     0.000 C 
BRANCH  11  12
ATOM     12  C   UNL     1      -8.333 -10.293  -6.044  1.00  0.00     0.000 C 
BRANCH  12  13
ATOM     13  C   UNL     1      -7.757 -10.389  -7.470  1.00  0.00     0.000 C 
BRANCH  13  14
ATOM     14  C   UNL     1      -6.332 -10.970  -7.558  1.00  0.00     0.000 C 
BRANCH  14  15
ATOM     15  C   UNL     1      -5.272 -10.020  -8.152  1.00  0.00     0.000 C 
BRANCH  15  16
ATOM     16  C   UNL     1      -5.348  -8.568  -7.650  1.00  0.00     0.006 C 
BRANCH  16  17
ATOM     17  C   UNL     1      -4.848  -8.410  -6.208  1.00  0.00     0.053 C 
BRANCH  17  18
ATOM     18  C   UNL     1      -3.617  -7.559  -6.174  1.00  0.00     0.041 C 
ATOM     19  O   UNL     1      -3.648  -6.383  -6.622  1.00  0.00    -0.550 OA
ATOM     20  O   UNL     1      -2.450  -8.048  -5.601  1.00  0.00    -0.550 OA
ENDBRANCH  17  18
ENDBRANCH  16  17
ENDBRANCH  15  16
ENDBRANCH  14  15
ENDBRANCH  13  14
ENDBRANCH  12  13
ENDBRANCH  11  12
ENDBRANCH   1  11
TORSDOF 15
ENDMDL
MODEL 5
REMARK VINA RESULT:    -3.381      2.053      9.489
REMARK INTER + INTRA:          -7.467
REMARK INTER:                  -6.467
REMARK INTRA:                  -1.000
REMARK UNBOUND:                -1.122
REMARK SMILES O=C([O-])CCCCCCCCCCCCCCC(=O)[O-]
REMARK SMILES IDX 10 1 9 2 8 3 7 4 6 5 5 6 4 7 2 8 1 9 3 10 11 11 12 12 13 13
REMARK SMILES IDX 14 14 15 15 16 16 17 17 18 18 19 19 20 20
REMARK H PARENT
REMARK Flexibility Score: inf
ROOT
ATOM      1  C   UNL     1      -9.221  -8.225  -6.688  1.00  0.00     0.000 C 
ENDROOT
BRANCH   1   2
ATOM      2  C   UNL     1     -10.081  -9.459  -6.380  1.00  0.00     0.000 C 
BRANCH   2   3
ATOM      3  C   UNL     1     -11.566  -9.118  -6.161  1.00  0.00     0.000 C 
BRANCH   3   4
ATOM      4  C   UNL     1     -12.160  -8.120  -7.172  1.00  0.00     0.000 C 
BRANCH   4   5
ATOM      5  C   UNL     1     -13.175  -7.157  -6.536  1.00  0.00     0.000 C 
BRANCH   5   6
ATOM      6  C   UNL     1     -14.124  -7.904  -5.587  1.00  0.00     0.006 C 
BRANCH   6   7
ATOM      7  C   UNL     1     -15.302  -8.546  -6.331  1.00  0.00     0.053 C 
BRANCH   7   8
ATOM      8  C   UNL     1     -16.240  -7.518  -6.883  1.00  0.00     0.041 C 
ATOM      9  O   UNL     1     -16.983  -6.858  -6.109  1.00  0.00    -0.550 OA
ATOM     10  O   UNL     1     -16.269  -7.263  -8.249  1.00  0.00    -0.550 OA
ENDBRANCH   7   8
ENDBRANCH   6   7
ENDBRANCH   5   6
ENDBRANCH   4   5
ENDBRANCH   3   4
ENDBRANCH   2   3
ENDBRANCH   1   2
BRANCH   1  11
ATOM     11  C   UNL     1      -8.873  -7.463  -5.403  1.00  0.00     0.000 C 
BRANCH  11  12
ATOM     12  C   UNL     1      -7.368  -7.168  -5.329  1.00  0.00     0.000 C 
BRANCH  12  13
ATOM     13  C   UNL     1      -6.505  -8.334  -5.847  1.00  0.00     0.000 C 
BRANCH  13  14
ATOM     14  C   UNL     1      -4.982  -8.106  -5.757  1.00  0.00     0.000 C 
BRANCH  14  15
ATOM     15  C   UNL     1      -4.178  -9.274  -5.151  1.00  0.00     0.000 C 
BRANCH  15  16
ATOM     16  C   UNL     1      -4.148 -10.553  -6.005  1.00  0.00     0.006 C 
BRANCH  16  17
ATOM     17  C   UNL     1      -3.211 -10.440  -7.214  1.00  0.00     0.053 C 
BRANCH  17  18
ATOM     18  C   UNL     1      -3.978 -10.618  -8.486  1.00  0.00     0.041 C 
ATOM     19  O   UNL     1      -3.397 -11.035  -9.523  1.00  0.00    -0.550 OA
ATOM     20  O   UNL     1      -5.344 -10.372  -8.514  1.00  0.00    -0.550 OA
ENDBRANCH  17  18
ENDBRANCH  16  17
ENDBRANCH  15  16
ENDBRANCH  14  15
ENDBRANCH  13  14
ENDBRANCH  12  13
ENDBRANCH  11  12
ENDBRANCH   1  11
TORSDOF 15
ENDMDL
MODEL 6
REMARK VINA RESULT:    -3.340      1.317      2.310
REMARK INTER + INTRA:          -7.391
REMARK INTER:                  -6.384
REMARK INTRA:                  -1.007
REMARK UNBOUND:                -1.122
REMARK SMILES O=C([O-])CCCCCCCCCCCCCCC(=O)[O-]
REMARK SMILES IDX 10 1 9 2 8 3 7 4 6 5 5 6 4 7 2 8 1 9 3 10 11 11 12 12 13 13
REMARK SMILES IDX 14 14 15 15 16 16 17 17 18 18 19 19 20 20
REMARK H PARENT
REMARK Flexibility Score: inf
ROOT
ATOM      1  C   UNL     1      -9.248  -8.364  -6.332  1.00  0.00     0.000 C 
ENDROOT
BRANCH   1   2
ATOM      2  C   UNL     1      -7.724  -8.538  -6.401  1.00  0.00     0.000 C 
BRANCH   2   3
ATOM      3  C   UNL     1      -7.298  -9.987  -6.698  1.00  0.00     0.000 C 
BRANCH   3   4
ATOM      4  C   UNL     1      -6.064 -10.130  -7.608  1.00  0.00     0.000 C 
BRANCH   4   5
ATOM      5  C   UNL     1      -5.317  -8.803  -7.816  1.00  0.00     0.000 C 
BRANCH   5   6
ATOM      6  C   UNL     1      -4.003  -8.780  -7.021  1.00  0.00     0.006 C 
BRANCH   6   7
ATOM      7  C   UNL     1      -4.065  -7.824  -5.823  1.00  0.00     0.053 C 
BRANCH   7   8
ATOM      8  C   UNL     1      -3.228  -6.601  -6.040  1.00  0.00     0.041 C 
ATOM      9  O   UNL     1      -2.337  -6.288  -5.208  1.00  0.00    -0.550 OA
ATOM     10  O   UNL     1      -3.408  -5.827  -7.180  1.00  0.00    -0.550 OA
ENDBRANCH   7   8
ENDBRANCH   6   7
ENDBRANCH   5   6
ENDBRANCH   4   5
ENDBRANCH   3   4
ENDBRANCH   2   3
ENDBRANCH   1   2
BRANCH   1  11
ATOM     11  C   UNL     1      -9.969  -9.643  -6.776  1.00  0.00     0.000 C 
BRANCH  11  12
ATOM     12  C   UNL     1     -11.442  -9.621  -6.344  1.00  0.00     0.000 C 
BRANCH  12  13
ATOM     13  C   UNL     1     -11.780  -8.429  -5.430  1.00  0.00     0.000 C 
BRANCH  13  14
ATOM     14  C   UNL     1     -13.284  -8.220  -5.161  1.00  0.00     0.000 C 
BRANCH  14  15
ATOM     15  C   UNL     1     -13.933  -7.051  -5.929  1.00  0.00     0.000 C 
BRANCH  15  16
ATOM     16  C   UNL     1     -14.577  -7.437  -7.272  1.00  0.00     0.006 C 
BRANCH  16  17
ATOM     17  C   UNL     1     -16.110  -7.425  -7.221  1.00  0.00     0.053 C 
BRANCH  17  18
ATOM     18  C   UNL     1     -16.627  -8.765  -6.800  1.00  0.00     0.041 C 
ATOM     19  O   UNL     1     -16.776  -9.031  -5.578  1.00  0.00    -0.550 OA
ATOM     20  O   UNL     1     -16.992  -9.702  -7.758  1.00  0.00    -0.550 OA
ENDBRANCH  17  18
ENDBRANCH  16  17
ENDBRANCH  15  16
ENDBRANCH  14  15
ENDBRANCH  13  14
ENDBRANCH  12  13
ENDBRANCH  11  12
ENDBRANCH   1  11
TORSDOF 15
ENDMDL
MODEL 7
REMARK VINA RESULT:    -3.081      2.071      2.907
REMARK INTER + INTRA:          -6.905
REMARK INTER:                  -6.039
REMARK INTRA:                  -0.866
REMARK UNBOUND:                -1.122
REMARK SMILES O=C([O-])CCCCCCCCCCCCCCC(=O)[O-]
REMARK SMILES IDX 10 1 9 2 8 3 7 4 6 5 5 6 4 7 2 8 1 9 3 10 11 11 12 12 13 13
REMARK SMILES IDX 14 14 15 15 16 16 17 17 18 18 19 19 20 20
REMARK H PARENT
REMARK Flexibility Score: inf
ROOT
ATOM      1  C   UNL     1      -7.916  -7.974  -6.266  1.00  0.00     0.000 C 
ENDROOT
BRANCH   1   2
ATOM      2  C   UNL     1      -6.840  -7.818  -5.181  1.00  0.00     0.000 C 
BRANCH   2   3
ATOM      3  C   UNL     1      -5.408  -7.891  -5.740  1.00  0.00     0.000 C 
BRANCH   3   4
ATOM      4  C   UNL     1      -4.542  -9.029  -5.168  1.00  0.00     0.000 C 
BRANCH   4   5
ATOM      5  C   UNL     1      -3.079  -8.960  -5.631  1.00  0.00     0.000 C 
BRANCH   5   6
ATOM      6  C   UNL     1      -2.658 -10.264  -6.325  1.00  0.00     0.006 C 
BRANCH   6   7
ATOM      7  C   UNL     1      -3.825 -10.932  -7.063  1.00  0.00     0.053 C 
BRANCH   7   8
ATOM      8  C   UNL     1      -3.769 -10.681  -8.538  1.00  0.00     0.041 C 
ATOM      9  O   UNL     1      -4.691 -10.039  -9.106  1.00  0.00    -0.550 OA
ATOM     10  O   UNL     1      -2.681 -11.125  -9.280  1.00  0.00    -0.550 OA
ENDBRANCH   7   8
ENDBRANCH   6   7
ENDBRANCH   5   6
ENDBRANCH   4   5
ENDBRANCH   3   4
ENDBRANCH   2   3
ENDBRANCH   1   2
BRANCH   1  11
ATOM     11  C   UNL     1      -8.421  -9.421  -6.335  1.00  0.00     0.000 C 
BRANCH  11  12
ATOM     12  C   UNL     1      -9.843  -9.480  -6.910  1.00  0.00     0.000 C 
BRANCH  12  13
ATOM     13  C   UNL     1     -10.755  -8.364  -6.365  1.00  0.00     0.000 C 
BRANCH  13  14
ATOM     14  C   UNL     1     -11.568  -8.742  -5.111  1.00  0.00     0.000 C 
BRANCH  14  15
ATOM     15  C   UNL     1     -12.959  -8.083  -5.007  1.00  0.00     0.000 C 
BRANCH  15  16
ATOM     16  C   UNL     1     -13.217  -6.952  -6.017  1.00  0.00     0.006 C 
BRANCH  16  17
ATOM     17  C   UNL     1     -14.256  -7.330  -7.081  1.00  0.00     0.053 C 
BRANCH  17  18
ATOM     18  C   UNL     1     -15.466  -7.931  -6.436  1.00  0.00     0.041 C 
ATOM     19  O   UNL     1     -16.295  -7.196  -5.838  1.00  0.00    -0.550 OA
ATOM     20  O   UNL     1     -15.704  -9.295  -6.541  1.00  0.00    -0.550 OA
ENDBRANCH  17  18
ENDBRANCH  16  17
ENDBRANCH  15  16
ENDBRANCH  14  15
ENDBRANCH  13  14
ENDBRANCH  12  13
ENDBRANCH  11  12
ENDBRANCH   1  11
TORSDOF 15
ENDMDL
