MODEL 1
REMARK VINA RESULT:    -4.273      0.000      0.000
REMARK INTER + INTRA:         -13.172
REMARK INTER:                  -9.770
REMARK INTRA:                  -3.403
REMARK UNBOUND:                -3.403
REMARK SMILES CCCCCCCCCCCCCCCCCCCCCCCC(=O)[O-]
REMARK SMILES IDX 13 1 14 2 15 3 16 4 17 5 18 6 19 7 20 8 21 9 22 10 23 11
REMARK SMILES IDX 24 12 25 13 26 14 12 15 11 16 10 17 9 18 8 19 7 20 6 21 5 22
REMARK SMILES IDX 4 23 3 24 2 25 1 26
REMARK H PARENT
REMARK Flexibility Score: inf
ROOT
ATOM      1  C   UNL     1     184.826 185.358 198.108  1.00  0.00     0.000 C 
ENDROOT
BRANCH   1   2
ATOM      2  C   UNL     1     183.669 185.880 198.991  1.00  0.00     0.000 C 
BRANCH   2   3
ATOM      3  C   UNL     1     184.154 186.590 200.266  1.00  0.00     0.000 C 
BRANCH   3   4
ATOM      4  C   UNL     1     185.401 187.456 200.006  1.00  0.00     0.000 C 
BRANCH   4   5
ATOM      5  C   UNL     1     185.140 188.964 200.212  1.00  0.00     0.000 C 
BRANCH   5   6
ATOM      6  C   UNL     1     185.424 189.827 198.968  1.00  0.00     0.000 C 
BRANCH   6   7
ATOM      7  C   UNL     1     185.303 189.099 197.618  1.00  0.00     0.000 C 
BRANCH   7   8
ATOM      8  C   UNL     1     183.884 189.067 197.015  1.00  0.00     0.000 C 
BRANCH   8   9
ATOM      9  C   UNL     1     182.828 189.878 197.791  1.00  0.00     0.000 C 
BRANCH   9  10
ATOM     10  C   UNL     1     182.642 191.299 197.235  1.00  0.00     0.006 C 
BRANCH  10  11
ATOM     11  C   UNL     1     182.867 192.376 198.306  1.00  0.00     0.053 C 
BRANCH  11  12
ATOM     12  C   UNL     1     181.950 192.198 199.478  1.00  0.00     0.041 C 
ATOM     13  O   UNL     1     182.326 191.538 200.483  1.00  0.00    -0.550 OA
ATOM     14  O   UNL     1     180.693 192.787 199.473  1.00  0.00    -0.550 OA
ENDBRANCH  11  12
ENDBRANCH  10  11
ENDBRANCH   9  10
ENDBRANCH   8   9
ENDBRANCH   7   8
ENDBRANCH   6   7
ENDBRANCH   5   6
ENDBRANCH   4   5
ENDBRANCH   3   4
ENDBRANCH   2   3
ENDBRANCH   1   2
BRANCH   1  15
ATOM     15  C   UNL     1     184.874 183.822 198.001  1.00  0.00     0.000 C 
BRANCH  15  16
ATOM     16  C   UNL     1     184.711 183.076 199.339  1.00  0.00     0.000 C 
BRANCH  16  17
ATOM     17  C   UNL     1     183.519 182.102 199.400  1.00  0.00     0.000 C 
BRANCH  17  18
ATOM     18  C   UNL     1     183.286 181.528 200.804  1.00  0.00    -0.000 C 
BRANCH  18  19
ATOM     19  C   UNL     1     183.019 182.653 201.815  1.00  0.00    -0.000 C 
BRANCH  19  20
ATOM     20  C   UNL     1     181.540 183.070 201.864  1.00  0.00    -0.000 C 
BRANCH  20  21
ATOM     21  C   UNL     1     181.288 184.437 201.210  1.00  0.00    -0.000 C 
BRANCH  21  22
ATOM     22  C   UNL     1     179.790 184.762 201.174  1.00  0.00    -0.000 C 
BRANCH  22  23
ATOM     23  C   UNL     1     179.523 186.181 201.697  1.00  0.00    -0.000 C 
BRANCH  23  24
ATOM     24  C   UNL     1     180.810 187.007 201.874  1.00  0.00    -0.000 C 
BRANCH  24  25
ATOM     25  C   UNL     1     180.921 188.236 200.954  1.00  0.00    -0.003 C 
ATOM     26  C   UNL     1     180.536 187.936 199.506  1.00  0.00     0.004 C 
ENDBRANCH  24  25
ENDBRANCH  23  24
ENDBRANCH  22  23
ENDBRANCH  21  22
ENDBRANCH  20  21
ENDBRANCH  19  20
ENDBRANCH  18  19
ENDBRANCH  17  18
ENDBRANCH  16  17
ENDBRANCH  15  16
ENDBRANCH   1  15
TORSDOF 22
ENDMDL
MODEL 2
REMARK VINA RESULT:    -4.124      2.455      4.849
REMARK INTER + INTRA:         -12.832
REMARK INTER:                  -9.263
REMARK INTRA:                  -3.569
REMARK UNBOUND:                -3.403
REMARK SMILES CCCCCCCCCCCCCCCCCCCCCCCC(=O)[O-]
REMARK SMILES IDX 13 1 14 2 15 3 16 4 17 5 18 6 19 7 20 8 21 9 22 10 23 11
REMARK SMILES IDX 24 12 25 13 26 14 12 15 11 16 10 17 9 18 8 19 7 20 6 21 5 22
REMARK SMILES IDX 4 23 3 24 2 25 1 26
REMARK H PARENT
REMARK Flexibility Score: inf
ROOT
ATOM      1  C   UNL     1     182.394 181.939 200.370  1.00  0.00     0.000 C 
ENDROOT
BRANCH   1   2
ATOM      2  C   UNL     1     183.863 181.572 200.685  1.00  0.00     0.000 C 
BRANCH   2   3
ATOM      3  C   UNL     1     184.554 182.584 201.615  1.00  0.00     0.000 C 
BRANCH   3   4
ATOM      4  C   UNL     1     185.057 183.822 200.848  1.00  0.00     0.000 C 
BRANCH   4   5
ATOM      5  C   UNL     1     185.319 183.540 199.354  1.00  0.00     0.000 C 
BRANCH   5   6
ATOM      6  C   UNL     1     184.483 184.405 198.392  1.00  0.00     0.000 C 
BRANCH   6   7
ATOM      7  C   UNL     1     183.923 185.707 198.995  1.00  0.00     0.000 C 
BRANCH   7   8
ATOM      8  C   UNL     1     184.547 187.005 198.443  1.00  0.00     0.000 C 
BRANCH   8   9
ATOM      9  C   UNL     1     185.823 187.474 199.166  1.00  0.00     0.000 C 
BRANCH   9  10
ATOM     10  C   UNL     1     186.602 188.536 198.372  1.00  0.00     0.006 C 
BRANCH  10  11
ATOM     11  C   UNL     1     186.855 189.807 199.195  1.00  0.00     0.053 C 
BRANCH  11  12
ATOM     12  C   UNL     1     188.109 189.705 200.009  1.00  0.00     0.041 C 
ATOM     13  O   UNL     1     189.189 189.351 199.467  1.00  0.00    -0.550 OA
ATOM     14  O   UNL     1     188.090 190.030 201.359  1.00  0.00    -0.550 OA
ENDBRANCH  11  12
ENDBRANCH  10  11
ENDBRANCH   9  10
ENDBRANCH   8   9
ENDBRANCH   7   8
ENDBRANCH   6   7
ENDBRANCH   5   6
ENDBRANCH   4   5
ENDBRANCH   3   4
ENDBRANCH   2   3
ENDBRANCH   1   2
BRANCH   1  15
ATOM     15  C   UNL     1     181.467 181.870 201.597  1.00  0.00     0.000 C 
BRANCH  15  16
ATOM     16  C   UNL     1     180.872 183.222 202.036  1.00  0.00     0.000 C 
BRANCH  16  17
ATOM     17  C   UNL     1     181.352 184.438 201.220  1.00  0.00     0.000 C 
BRANCH  17  18
ATOM     18  C   UNL     1     181.743 185.632 202.101  1.00  0.00    -0.000 C 
BRANCH  18  19
ATOM     19  C   UNL     1     181.468 186.957 201.374  1.00  0.00    -0.000 C 
BRANCH  19  20
ATOM     20  C   UNL     1     179.986 187.139 201.006  1.00  0.00    -0.000 C 
BRANCH  20  21
ATOM     21  C   UNL     1     179.789 187.584 199.549  1.00  0.00    -0.000 C 
BRANCH  21  22
ATOM     22  C   UNL     1     180.917 188.522 199.103  1.00  0.00    -0.000 C 
BRANCH  22  23
ATOM     23  C   UNL     1     180.603 189.977 199.483  1.00  0.00    -0.000 C 
BRANCH  23  24
ATOM     24  C   UNL     1     181.860 190.785 199.853  1.00  0.00    -0.000 C 
BRANCH  24  25
ATOM     25  C   UNL     1     183.146 189.951 199.996  1.00  0.00    -0.003 C 
ATOM     26  C   UNL     1     183.516 189.668 201.452  1.00  0.00     0.004 C 
ENDBRANCH  24  25
ENDBRANCH  23  24
ENDBRANCH  22  23
ENDBRANCH  21  22
ENDBRANCH  20  21
ENDBRANCH  19  20
ENDBRANCH  18  19
ENDBRANCH  17  18
ENDBRANCH  16  17
ENDBRANCH  15  16
ENDBRANCH   1  15
TORSDOF 22
ENDMDL
MODEL 3
REMARK VINA RESULT:    -4.015      4.937      6.965
REMARK INTER + INTRA:         -12.581
REMARK INTER:                  -9.687
REMARK INTRA:                  -2.894
REMARK UNBOUND:                -3.403
REMARK SMILES CCCCCCCCCCCCCCCCCCCCCCCC(=O)[O-]
REMARK SMILES IDX 13 1 14 2 15 3 16 4 17 5 18 6 19 7 20 8 21 9 22 10 23 11
REMARK SMILES IDX 24 12 25 13 26 14 12 15 11 16 10 17 9 18 8 19 7 20 6 21 5 22
REMARK SMILES IDX 4 23 3 24 2 25 1 26
REMARK H PARENT
REMARK Flexibility Score: inf
ROOT
ATOM      1  C   UNL     1     184.740 189.984 198.165  1.00  0.00     0.000 C 
ENDROOT
BRANCH   1   2
ATOM      2  C   UNL     1     186.203 189.484 198.187  1.00  0.00     0.000 C 
BRANCH   2   3
ATOM      3  C   UNL     1     186.317 187.952 198.267  1.00  0.00     0.000 C 
BRANCH   3   4
ATOM      4  C   UNL     1     186.410 187.455 199.722  1.00  0.00     0.000 C 
BRANCH   4   5
ATOM      5  C   UNL     1     187.351 188.315 200.593  1.00  0.00     0.000 C 
BRANCH   5   6
ATOM      6  C   UNL     1     188.749 187.704 200.804  1.00  0.00     0.000 C 
BRANCH   6   7
ATOM      7  C   UNL     1     189.756 188.602 201.545  1.00  0.00     0.000 C 
BRANCH   7   8
ATOM      8  C   UNL     1     190.898 189.163 200.673  1.00  0.00     0.000 C 
BRANCH   8   9
ATOM      9  C   UNL     1     190.525 189.430 199.203  1.00  0.00     0.000 C 
BRANCH   9  10
ATOM     10  C   UNL     1     191.754 189.655 198.308  1.00  0.00     0.006 C 
BRANCH  10  11
ATOM     11  C   UNL     1     192.612 188.390 198.169  1.00  0.00     0.053 C 
BRANCH  11  12
ATOM     12  C   UNL     1     194.073 188.712 198.086  1.00  0.00     0.041 C 
ATOM     13  O   UNL     1     194.451 189.901 197.913  1.00  0.00    -0.550 OA
ATOM     14  O   UNL     1     195.016 187.703 198.229  1.00  0.00    -0.550 OA
ENDBRANCH  11  12
ENDBRANCH  10  11
ENDBRANCH   9  10
ENDBRANCH   8   9
ENDBRANCH   7   8
ENDBRANCH   6   7
ENDBRANCH   5   6
ENDBRANCH   4   5
ENDBRANCH   3   4
ENDBRANCH   2   3
ENDBRANCH   1   2
BRANCH   1  15
ATOM     15  C   UNL     1     183.749 188.961 197.578  1.00  0.00     0.000 C 
BRANCH  15  16
ATOM     16  C   UNL     1     182.478 188.735 198.419  1.00  0.00     0.000 C 
BRANCH  16  17
ATOM     17  C   UNL     1     182.448 187.411 199.207  1.00  0.00     0.000 C 
BRANCH  17  18
ATOM     18  C   UNL     1     183.025 187.544 200.622  1.00  0.00    -0.000 C 
BRANCH  18  19
ATOM     19  C   UNL     1     181.900 187.678 201.659  1.00  0.00    -0.000 C 
BRANCH  19  20
ATOM     20  C   UNL     1     180.976 186.449 201.696  1.00  0.00    -0.000 C 
BRANCH  20  21
ATOM     21  C   UNL     1     181.727 185.155 202.043  1.00  0.00    -0.000 C 
BRANCH  21  22
ATOM     22  C   UNL     1     181.408 184.047 201.032  1.00  0.00    -0.000 C 
BRANCH  22  23
ATOM     23  C   UNL     1     182.679 183.278 200.641  1.00  0.00    -0.000 C 
BRANCH  23  24
ATOM     24  C   UNL     1     183.971 184.042 200.981  1.00  0.00    -0.000 C 
BRANCH  24  25
ATOM     25  C   UNL     1     185.016 184.080 199.851  1.00  0.00    -0.003 C 
ATOM     26  C   UNL     1     184.422 184.481 198.501  1.00  0.00     0.004 C 
ENDBRANCH  24  25
ENDBRANCH  23  24
ENDBRANCH  22  23
ENDBRANCH  21  22
ENDBRANCH  20  21
ENDBRANCH  19  20
ENDBRANCH  18  19
ENDBRANCH  17  18
ENDBRANCH  16  17
ENDBRANCH  15  16
ENDBRANCH   1  15
TORSDOF 22
ENDMDL
MODEL 4
REMARK VINA RESULT:    -3.903      4.589      7.335
REMARK INTER + INTRA:         -12.324
REMARK INTER:                  -9.113
REMARK INTRA:                  -3.211
REMARK UNBOUND:                -3.403
REMARK SMILES CCCCCCCCCCCCCCCCCCCCCCCC(=O)[O-]
REMARK SMILES IDX 13 1 14 2 15 3 16 4 17 5 18 6 19 7 20 8 21 9 22 10 23 11
REMARK SMILES IDX 24 12 25 13 26 14 12 15 11 16 10 17 9 18 8 19 7 20 6 21 5 22
REMARK SMILES IDX 4 23 3 24 2 25 1 26
REMARK H PARENT
REMARK Flexibility Score: inf
ROOT
ATOM      1  C   UNL     1     184.466 189.833 197.638  1.00  0.00     0.000 C 
ENDROOT
BRANCH   1   2
ATOM      2  C   UNL     1     185.678 190.113 198.557  1.00  0.00     0.000 C 
BRANCH   2   3
ATOM      3  C   UNL     1     186.941 189.337 198.146  1.00  0.00     0.000 C 
BRANCH   3   4
ATOM      4  C   UNL     1     187.201 188.129 199.067  1.00  0.00     0.000 C 
BRANCH   4   5
ATOM      5  C   UNL     1     186.853 188.412 200.544  1.00  0.00     0.000 C 
BRANCH   5   6
ATOM      6  C   UNL     1     188.078 188.655 201.445  1.00  0.00     0.000 C 
BRANCH   6   7
ATOM      7  C   UNL     1     188.577 190.110 201.501  1.00  0.00     0.000 C 
BRANCH   7   8
ATOM      8  C   UNL     1     189.797 190.419 200.608  1.00  0.00     0.000 C 
BRANCH   8   9
ATOM      9  C   UNL     1     190.794 189.257 200.443  1.00  0.00     0.000 C 
BRANCH   9  10
ATOM     10  C   UNL     1     192.260 189.719 200.494  1.00  0.00     0.006 C 
BRANCH  10  11
ATOM     11  C   UNL     1     192.446 191.130 199.919  1.00  0.00     0.053 C 
BRANCH  11  12
ATOM     12  C   UNL     1     193.310 191.124 198.694  1.00  0.00     0.041 C 
ATOM     13  O   UNL     1     194.561 191.035 198.802  1.00  0.00    -0.550 OA
ATOM     14  O   UNL     1     192.730 191.187 197.434  1.00  0.00    -0.550 OA
ENDBRANCH  11  12
ENDBRANCH  10  11
ENDBRANCH   9  10
ENDBRANCH   8   9
ENDBRANCH   7   8
ENDBRANCH   6   7
ENDBRANCH   5   6
ENDBRANCH   4   5
ENDBRANCH   3   4
ENDBRANCH   2   3
ENDBRANCH   1   2
BRANCH   1  15
ATOM     15  C   UNL     1     183.389 190.933 197.689  1.00  0.00     0.000 C 
BRANCH  15  16
ATOM     16  C   UNL     1     182.888 191.282 199.104  1.00  0.00     0.000 C 
BRANCH  16  17
ATOM     17  C   UNL     1     181.371 191.529 199.213  1.00  0.00     0.000 C 
BRANCH  17  18
ATOM     18  C   UNL     1     180.623 190.370 199.886  1.00  0.00    -0.000 C 
BRANCH  18  19
ATOM     19  C   UNL     1     180.314 189.259 198.871  1.00  0.00    -0.000 C 
BRANCH  19  20
ATOM     20  C   UNL     1     181.213 188.025 199.047  1.00  0.00    -0.000 C 
BRANCH  20  21
ATOM     21  C   UNL     1     181.867 187.963 200.437  1.00  0.00    -0.000 C 
BRANCH  21  22
ATOM     22  C   UNL     1     183.296 187.413 200.348  1.00  0.00    -0.000 C 
BRANCH  22  23
ATOM     23  C   UNL     1     183.501 186.626 199.045  1.00  0.00    -0.000 C 
BRANCH  23  24
ATOM     24  C   UNL     1     184.579 185.534 199.166  1.00  0.00    -0.000 C 
BRANCH  24  25
ATOM     25  C   UNL     1     184.051 184.091 199.067  1.00  0.00    -0.003 C 
ATOM     26  C   UNL     1     183.005 183.763 200.131  1.00  0.00     0.004 C 
ENDBRANCH  24  25
ENDBRANCH  23  24
ENDBRANCH  22  23
ENDBRANCH  21  22
ENDBRANCH  20  21
ENDBRANCH  19  20
ENDBRANCH  18  19
ENDBRANCH  17  18
ENDBRANCH  16  17
ENDBRANCH  15  16
ENDBRANCH   1  15
TORSDOF 22
ENDMDL
MODEL 5
REMARK VINA RESULT:    -3.841      8.236     11.978
REMARK INTER + INTRA:         -12.184
REMARK INTER:                  -9.295
REMARK INTRA:                  -2.889
REMARK UNBOUND:                -3.403
REMARK SMILES CCCCCCCCCCCCCCCCCCCCCCCC(=O)[O-]
REMARK SMILES IDX 13 1 14 2 15 3 16 4 17 5 18 6 19 7 20 8 21 9 22 10 23 11
REMARK SMILES IDX 24 12 25 13 26 14 12 15 11 16 10 17 9 18 8 19 7 20 6 21 5 22
REMARK SMILES IDX 4 23 3 24 2 25 1 26
REMARK H PARENT
REMARK Flexibility Score: inf
ROOT
ATOM      1  C   UNL     1     192.820 190.878 197.716  1.00  0.00     0.000 C 
ENDROOT
BRANCH   1   2
ATOM      2  C   UNL     1     193.160 189.424 198.115  1.00  0.00     0.000 C 
BRANCH   2   3
ATOM      3  C   UNL     1     192.113 188.791 199.047  1.00  0.00     0.000 C 
BRANCH   3   4
ATOM      4  C   UNL     1     190.739 189.476 198.922  1.00  0.00     0.000 C 
BRANCH   4   5
ATOM      5  C   UNL     1     190.231 190.054 200.260  1.00  0.00     0.000 C 
BRANCH   5   6
ATOM      6  C   UNL     1     190.041 189.002 201.370  1.00  0.00     0.000 C 
BRANCH   6   7
ATOM      7  C   UNL     1     189.032 187.884 201.052  1.00  0.00     0.000 C 
BRANCH   7   8
ATOM      8  C   UNL     1     187.557 188.331 200.995  1.00  0.00     0.000 C 
BRANCH   8   9
ATOM      9  C   UNL     1     186.886 188.190 199.616  1.00  0.00     0.000 C 
BRANCH   9  10
ATOM     10  C   UNL     1     185.665 189.110 199.450  1.00  0.00     0.006 C 
BRANCH  10  11
ATOM     11  C   UNL     1     185.604 189.749 198.055  1.00  0.00     0.053 C 
BRANCH  11  12
ATOM     12  C   UNL     1     184.205 190.128 197.675  1.00  0.00     0.041 C 
ATOM     13  O   UNL     1     183.546 189.405 196.882  1.00  0.00    -0.550 OA
ATOM     14  O   UNL     1     183.620 191.263 198.221  1.00  0.00    -0.550 OA
ENDBRANCH  11  12
ENDBRANCH  10  11
ENDBRANCH   9  10
ENDBRANCH   8   9
ENDBRANCH   7   8
ENDBRANCH   6   7
ENDBRANCH   5   6
ENDBRANCH   4   5
ENDBRANCH   3   4
ENDBRANCH   2   3
ENDBRANCH   1   2
BRANCH   1  15
ATOM     15  C   UNL     1     193.666 191.932 198.455  1.00  0.00     0.000 C 
BRANCH  15  16
ATOM     16  C   UNL     1     193.444 191.987 199.979  1.00  0.00     0.000 C 
BRANCH  16  17
ATOM     17  C   UNL     1     194.677 191.625 200.829  1.00  0.00     0.000 C 
BRANCH  17  18
ATOM     18  C   UNL     1     195.908 191.280 199.980  1.00  0.00    -0.000 C 
BRANCH  18  19
ATOM     19  C   UNL     1     197.182 191.867 200.605  1.00  0.00    -0.000 C 
BRANCH  19  20
ATOM     20  C   UNL     1     196.906 192.634 201.909  1.00  0.00    -0.000 C 
BRANCH  20  21
ATOM     21  C   UNL     1     197.753 193.910 202.034  1.00  0.00    -0.000 C 
BRANCH  21  22
ATOM     22  C   UNL     1     196.861 195.155 202.125  1.00  0.00    -0.000 C 
BRANCH  22  23
ATOM     23  C   UNL     1     196.357 195.571 200.735  1.00  0.00    -0.000 C 
BRANCH  23  24
ATOM     24  C   UNL     1     194.831 195.438 200.585  1.00  0.00    -0.000 C 
BRANCH  24  25
ATOM     25  C   UNL     1     194.071 195.189 201.901  1.00  0.00    -0.003 C 
ATOM     26  C   UNL     1     192.560 195.365 201.760  1.00  0.00     0.004 C 
ENDBRANCH  24  25
ENDBRANCH  23  24
ENDBRANCH  22  23
ENDBRANCH  21  22
ENDBRANCH  20  21
ENDBRANCH  19  20
ENDBRANCH  18  19
ENDBRANCH  17  18
ENDBRANCH  16  17
ENDBRANCH  15  16
ENDBRANCH   1  15
TORSDOF 22
ENDMDL
MODEL 6
REMARK VINA RESULT:    -3.830      6.099      9.966
REMARK INTER + INTRA:         -12.160
REMARK INTER:                  -9.772
REMARK INTRA:                  -2.388
REMARK UNBOUND:                -3.403
REMARK SMILES CCCCCCCCCCCCCCCCCCCCCCCC(=O)[O-]
REMARK SMILES IDX 13 1 14 2 15 3 16 4 17 5 18 6 19 7 20 8 21 9 22 10 23 11
REMARK SMILES IDX 24 12 25 13 26 14 12 15 11 16 10 17 9 18 8 19 7 20 6 21 5 22
REMARK SMILES IDX 4 23 3 24 2 25 1 26
REMARK H PARENT
REMARK Flexibility Score: inf
ROOT
ATOM      1  C   UNL     1     189.945 191.228 200.684  1.00  0.00     0.000 C 
ENDROOT
BRANCH   1   2
ATOM      2  C   UNL     1     189.366 189.947 201.327  1.00  0.00     0.000 C 
BRANCH   2   3
ATOM      3  C   UNL     1     188.144 189.391 200.576  1.00  0.00     0.000 C 
BRANCH   3   4
ATOM      4  C   UNL     1     188.424 189.207 199.073  1.00  0.00     0.000 C 
BRANCH   4   5
ATOM      5  C   UNL     1     187.146 189.270 198.210  1.00  0.00     0.000 C 
BRANCH   5   6
ATOM      6  C   UNL     1     186.345 187.955 198.173  1.00  0.00     0.000 C 
BRANCH   6   7
ATOM      7  C   UNL     1     184.919 188.068 197.604  1.00  0.00     0.000 C 
BRANCH   7   8
ATOM      8  C   UNL     1     183.799 187.580 198.545  1.00  0.00     0.000 C 
BRANCH   8   9
ATOM      9  C   UNL     1     184.015 187.899 200.036  1.00  0.00     0.000 C 
BRANCH   9  10
ATOM     10  C   UNL     1     183.847 189.393 200.356  1.00  0.00     0.006 C 
BRANCH  10  11
ATOM     11  C   UNL     1     182.561 189.976 199.753  1.00  0.00     0.053 C 
BRANCH  11  12
ATOM     12  C   UNL     1     182.717 191.424 199.398  1.00  0.00     0.041 C 
ATOM     13  O   UNL     1     182.245 192.316 200.151  1.00  0.00    -0.550 OA
ATOM     14  O   UNL     1     183.410 191.786 198.250  1.00  0.00    -0.550 OA
ENDBRANCH  11  12
ENDBRANCH  10  11
ENDBRANCH   9  10
ENDBRANCH   8   9
ENDBRANCH   7   8
ENDBRANCH   6   7
ENDBRANCH   5   6
ENDBRANCH   4   5
ENDBRANCH   3   4
ENDBRANCH   2   3
ENDBRANCH   1   2
BRANCH   1  15
ATOM     15  C   UNL     1     191.471 191.180 200.485  1.00  0.00     0.000 C 
BRANCH  15  16
ATOM     16  C   UNL     1     191.990 189.923 199.760  1.00  0.00     0.000 C 
BRANCH  16  17
ATOM     17  C   UNL     1     192.463 190.156 198.313  1.00  0.00     0.000 C 
BRANCH  17  18
ATOM     18  C   UNL     1     193.347 191.402 198.166  1.00  0.00    -0.000 C 
BRANCH  18  19
ATOM     19  C   UNL     1     194.753 191.141 198.728  1.00  0.00    -0.000 C 
BRANCH  19  20
ATOM     20  C   UNL     1     195.311 192.339 199.513  1.00  0.00    -0.000 C 
BRANCH  20  21
ATOM     21  C   UNL     1     194.606 193.658 199.160  1.00  0.00    -0.000 C 
BRANCH  21  22
ATOM     22  C   UNL     1     194.229 194.435 200.428  1.00  0.00    -0.000 C 
BRANCH  22  23
ATOM     23  C   UNL     1     192.763 194.890 200.376  1.00  0.00    -0.000 C 
BRANCH  23  24
ATOM     24  C   UNL     1     192.117 194.992 201.770  1.00  0.00    -0.000 C 
BRANCH  24  25
ATOM     25  C   UNL     1     190.609 194.685 201.807  1.00  0.00    -0.003 C 
ATOM     26  C   UNL     1     189.742 195.941 201.728  1.00  0.00     0.004 C 
ENDBRANCH  24  25
ENDBRANCH  23  24
ENDBRANCH  22  23
ENDBRANCH  21  22
ENDBRANCH  20  21
ENDBRANCH  19  20
ENDBRANCH  18  19
ENDBRANCH  17  18
ENDBRANCH  16  17
ENDBRANCH  15  16
ENDBRANCH   1  15
TORSDOF 22
ENDMDL
MODEL 7
REMARK VINA RESULT:    -3.819      8.672     12.040
REMARK INTER + INTRA:         -12.133
REMARK INTER:                  -8.948
REMARK INTRA:                  -3.185
REMARK UNBOUND:                -3.403
REMARK SMILES CCCCCCCCCCCCCCCCCCCCCCCC(=O)[O-]
REMARK SMILES IDX 13 1 14 2 15 3 16 4 17 5 18 6 19 7 20 8 21 9 22 10 23 11
REMARK SMILES IDX 24 12 25 13 26 14 12 15 11 16 10 17 9 18 8 19 7 20 6 21 5 22
REMARK SMILES IDX 4 23 3 24 2 25 1 26
REMARK H PARENT
REMARK Flexibility Score: inf
ROOT
ATOM      1  C   UNL     1     193.996 189.962 197.407  1.00  0.00     0.000 C 
ENDROOT
BRANCH   1   2
ATOM      2  C   UNL     1     194.304 191.143 198.357  1.00  0.00     0.000 C 
BRANCH   2   3
ATOM      3  C   UNL     1     193.064 191.656 199.108  1.00  0.00     0.000 C 
BRANCH   3   4
ATOM      4  C   UNL     1     193.072 191.234 200.590  1.00  0.00     0.000 C 
BRANCH   4   5
ATOM      5  C   UNL     1     192.576 189.789 200.807  1.00  0.00     0.000 C 
BRANCH   5   6
ATOM      6  C   UNL     1     191.165 189.516 200.253  1.00  0.00     0.000 C 
BRANCH   6   7
ATOM      7  C   UNL     1     190.245 188.690 201.170  1.00  0.00     0.000 C 
BRANCH   7   8
ATOM      8  C   UNL     1     188.761 188.657 200.749  1.00  0.00     0.000 C 
BRANCH   8   9
ATOM      9  C   UNL     1     188.241 189.948 200.092  1.00  0.00     0.000 C 
BRANCH   9  10
ATOM     10  C   UNL     1     186.912 189.744 199.345  1.00  0.00     0.006 C 
BRANCH  10  11
ATOM     11  C   UNL     1     187.051 188.767 198.169  1.00  0.00     0.053 C 
BRANCH  11  12
ATOM     12  C   UNL     1     185.884 187.831 198.079  1.00  0.00     0.041 C 
ATOM     13  O   UNL     1     185.070 187.923 197.122  1.00  0.00    -0.550 OA
ATOM     14  O   UNL     1     185.713 186.840 199.036  1.00  0.00    -0.550 OA
ENDBRANCH  11  12
ENDBRANCH  10  11
ENDBRANCH   9  10
ENDBRANCH   8   9
ENDBRANCH   7   8
ENDBRANCH   6   7
ENDBRANCH   5   6
ENDBRANCH   4   5
ENDBRANCH   3   4
ENDBRANCH   2   3
ENDBRANCH   1   2
BRANCH   1  15
ATOM     15  C   UNL     1     194.646 188.636 197.844  1.00  0.00     0.000 C 
BRANCH  15  16
ATOM     16  C   UNL     1     196.067 188.773 198.426  1.00  0.00     0.000 C 
BRANCH  16  17
ATOM     17  C   UNL     1     196.285 188.074 199.781  1.00  0.00     0.000 C 
BRANCH  17  18
ATOM     18  C   UNL     1     196.113 189.020 200.977  1.00  0.00    -0.000 C 
BRANCH  18  19
ATOM     19  C   UNL     1     197.019 190.252 200.831  1.00  0.00    -0.000 C 
BRANCH  19  20
ATOM     20  C   UNL     1     196.563 191.434 201.701  1.00  0.00    -0.000 C 
BRANCH  20  21
ATOM     21  C   UNL     1     197.652 192.505 201.864  1.00  0.00    -0.000 C 
BRANCH  21  22
ATOM     22  C   UNL     1     197.274 193.791 201.120  1.00  0.00    -0.000 C 
BRANCH  22  23
ATOM     23  C   UNL     1     195.835 193.715 200.589  1.00  0.00    -0.000 C 
BRANCH  23  24
ATOM     24  C   UNL     1     194.903 194.760 201.229  1.00  0.00    -0.000 C 
BRANCH  24  25
ATOM     25  C   UNL     1     193.660 195.116 200.393  1.00  0.00    -0.003 C 
ATOM     26  C   UNL     1     192.354 194.976 201.174  1.00  0.00     0.004 C 
ENDBRANCH  24  25
ENDBRANCH  23  24
ENDBRANCH  22  23
ENDBRANCH  21  22
ENDBRANCH  20  21
ENDBRANCH  19  20
ENDBRANCH  18  19
ENDBRANCH  17  18
ENDBRANCH  16  17
ENDBRANCH  15  16
ENDBRANCH   1  15
TORSDOF 22
ENDMDL
MODEL 8
REMARK VINA RESULT:    -3.800      8.480     12.479
REMARK INTER + INTRA:         -12.090
REMARK INTER:                  -9.448
REMARK INTRA:                  -2.643
REMARK UNBOUND:                -3.403
REMARK SMILES CCCCCCCCCCCCCCCCCCCCCCCC(=O)[O-]
REMARK SMILES IDX 13 1 14 2 15 3 16 4 17 5 18 6 19 7 20 8 21 9 22 10 23 11
REMARK SMILES IDX 24 12 25 13 26 14 12 15 11 16 10 17 9 18 8 19 7 20 6 21 5 22
REMARK SMILES IDX 4 23 3 24 2 25 1 26
REMARK H PARENT
REMARK Flexibility Score: inf
ROOT
ATOM      1  C   UNL     1     194.025 190.176 198.060  1.00  0.00     0.000 C 
ENDROOT
BRANCH   1   2
ATOM      2  C   UNL     1     192.582 190.726 198.124  1.00  0.00     0.000 C 
BRANCH   2   3
ATOM      3  C   UNL     1     191.540 189.654 198.487  1.00  0.00     0.000 C 
BRANCH   3   4
ATOM      4  C   UNL     1     191.305 189.567 200.007  1.00  0.00     0.000 C 
BRANCH   4   5
ATOM      5  C   UNL     1     190.218 190.543 200.504  1.00  0.00     0.000 C 
BRANCH   5   6
ATOM      6  C   UNL     1     189.325 189.974 201.623  1.00  0.00     0.000 C 
BRANCH   6   7
ATOM      7  C   UNL     1     189.024 188.468 201.524  1.00  0.00     0.000 C 
BRANCH   7   8
ATOM      8  C   UNL     1     187.919 188.086 200.518  1.00  0.00     0.000 C 
BRANCH   8   9
ATOM      9  C   UNL     1     186.775 189.108 200.386  1.00  0.00     0.000 C 
BRANCH   9  10
ATOM     10  C   UNL     1     186.685 189.723 198.979  1.00  0.00     0.006 C 
BRANCH  10  11
ATOM     11  C   UNL     1     186.528 188.656 197.887  1.00  0.00     0.053 C 
BRANCH  11  12
ATOM     12  C   UNL     1     185.162 188.040 197.901  1.00  0.00     0.041 C 
ATOM     13  O   UNL     1     184.146 188.745 197.658  1.00  0.00    -0.550 OA
ATOM     14  O   UNL     1     185.015 186.682 198.151  1.00  0.00    -0.550 OA
ENDBRANCH  11  12
ENDBRANCH  10  11
ENDBRANCH   9  10
ENDBRANCH   8   9
ENDBRANCH   7   8
ENDBRANCH   6   7
ENDBRANCH   5   6
ENDBRANCH   4   5
ENDBRANCH   3   4
ENDBRANCH   2   3
ENDBRANCH   1   2
BRANCH   1  15
ATOM     15  C   UNL     1     195.045 191.035 198.830  1.00  0.00     0.000 C 
BRANCH  15  16
ATOM     16  C   UNL     1     194.831 191.082 200.356  1.00  0.00     0.000 C 
BRANCH  16  17
ATOM     17  C   UNL     1     194.598 192.490 200.936  1.00  0.00     0.000 C 
BRANCH  17  18
ATOM     18  C   UNL     1     193.214 193.058 200.591  1.00  0.00    -0.000 C 
BRANCH  18  19
ATOM     19  C   UNL     1     193.169 194.572 200.846  1.00  0.00    -0.000 C 
BRANCH  19  20
ATOM     20  C   UNL     1     193.711 195.391 199.663  1.00  0.00    -0.000 C 
BRANCH  20  21
ATOM     21  C   UNL     1     195.208 195.709 199.801  1.00  0.00    -0.000 C 
BRANCH  21  22
ATOM     22  C   UNL     1     195.472 196.585 201.032  1.00  0.00    -0.000 C 
BRANCH  22  23
ATOM     23  C   UNL     1     196.352 195.846 202.052  1.00  0.00    -0.000 C 
BRANCH  23  24
ATOM     24  C   UNL     1     197.588 195.187 201.413  1.00  0.00    -0.000 C 
BRANCH  24  25
ATOM     25  C   UNL     1     198.038 193.875 202.080  1.00  0.00    -0.003 C 
ATOM     26  C   UNL     1     198.349 192.769 201.073  1.00  0.00     0.004 C 
ENDBRANCH  24  25
ENDBRANCH  23  24
ENDBRANCH  22  23
ENDBRANCH  21  22
ENDBRANCH  20  21
ENDBRANCH  19  20
ENDBRANCH  18  19
ENDBRANCH  17  18
ENDBRANCH  16  17
ENDBRANCH  15  16
ENDBRANCH   1  15
TORSDOF 22
ENDMDL
MODEL 9
REMARK VINA RESULT:    -3.744      1.423      2.666
REMARK INTER + INTRA:         -11.963
REMARK INTER:                  -8.878
REMARK INTRA:                  -3.085
REMARK UNBOUND:                -3.403
REMARK SMILES CCCCCCCCCCCCCCCCCCCCCCCC(=O)[O-]
REMARK SMILES IDX 13 1 14 2 15 3 16 4 17 5 18 6 19 7 20 8 21 9 22 10 23 11
REMARK SMILES IDX 24 12 25 13 26 14 12 15 11 16 10 17 9 18 8 19 7 20 6 21 5 22
REMARK SMILES IDX 4 23 3 24 2 25 1 26
REMARK H PARENT
REMARK Flexibility Score: inf
ROOT
ATOM      1  C   UNL     1     184.880 185.647 198.148  1.00  0.00     0.000 C 
ENDROOT
BRANCH   1   2
ATOM      2  C   UNL     1     183.709 186.214 198.982  1.00  0.00     0.000 C 
BRANCH   2   3
ATOM      3  C   UNL     1     184.171 186.979 200.233  1.00  0.00     0.000 C 
BRANCH   3   4
ATOM      4  C   UNL     1     185.618 187.490 200.096  1.00  0.00     0.000 C 
BRANCH   4   5
ATOM      5  C   UNL     1     185.748 189.007 200.351  1.00  0.00     0.000 C 
BRANCH   5   6
ATOM      6  C   UNL     1     185.940 189.847 199.075  1.00  0.00     0.000 C 
BRANCH   6   7
ATOM      7  C   UNL     1     185.484 189.174 197.768  1.00  0.00     0.000 C 
BRANCH   7   8
ATOM      8  C   UNL     1     184.077 189.576 197.281  1.00  0.00     0.000 C 
BRANCH   8   9
ATOM      9  C   UNL     1     183.469 190.803 197.986  1.00  0.00     0.000 C 
BRANCH   9  10
ATOM     10  C   UNL     1     182.585 190.425 199.186  1.00  0.00     0.006 C 
BRANCH  10  11
ATOM     11  C   UNL     1     182.268 191.633 200.078  1.00  0.00     0.053 C 
BRANCH  11  12
ATOM     12  C   UNL     1     181.186 192.490 199.494  1.00  0.00     0.041 C 
ATOM     13  O   UNL     1     181.463 193.623 199.019  1.00  0.00    -0.550 OA
ATOM     14  O   UNL     1     179.879 192.024 199.447  1.00  0.00    -0.550 OA
ENDBRANCH  11  12
ENDBRANCH  10  11
ENDBRANCH   9  10
ENDBRANCH   8   9
ENDBRANCH   7   8
ENDBRANCH   6   7
ENDBRANCH   5   6
ENDBRANCH   4   5
ENDBRANCH   3   4
ENDBRANCH   2   3
ENDBRANCH   1   2
BRANCH   1  15
ATOM     15  C   UNL     1     184.878 184.110 198.051  1.00  0.00     0.000 C 
BRANCH  15  16
ATOM     16  C   UNL     1     185.093 183.377 199.390  1.00  0.00     0.000 C 
BRANCH  16  17
ATOM     17  C   UNL     1     184.157 182.178 199.632  1.00  0.00     0.000 C 
BRANCH  17  18
ATOM     18  C   UNL     1     183.827 181.966 201.116  1.00  0.00    -0.000 C 
BRANCH  18  19
ATOM     19  C   UNL     1     183.649 183.314 201.831  1.00  0.00    -0.000 C 
BRANCH  19  20
ATOM     20  C   UNL     1     182.176 183.643 202.123  1.00  0.00    -0.000 C 
BRANCH  20  21
ATOM     21  C   UNL     1     181.497 184.396 200.968  1.00  0.00    -0.000 C 
BRANCH  21  22
ATOM     22  C   UNL     1     179.973 184.393 201.132  1.00  0.00    -0.000 C 
BRANCH  22  23
ATOM     23  C   UNL     1     179.325 183.333 200.229  1.00  0.00    -0.000 C 
BRANCH  23  24
ATOM     24  C   UNL     1     180.304 182.220 199.814  1.00  0.00    -0.000 C 
BRANCH  24  25
ATOM     25  C   UNL     1     179.950 180.818 200.343  1.00  0.00    -0.003 C 
ATOM     26  C   UNL     1     181.073 179.801 200.139  1.00  0.00     0.004 C 
ENDBRANCH  24  25
ENDBRANCH  23  24
ENDBRANCH  22  23
ENDBRANCH  21  22
ENDBRANCH  20  21
ENDBRANCH  19  20
ENDBRANCH  18  19
ENDBRANCH  17  18
ENDBRANCH  16  17
ENDBRANCH  15  16
ENDBRANCH   1  15
TORSDOF 22
ENDMDL
