MODEL 1
REMARK VINA RESULT:    -4.557      0.000      0.000
REMARK INTER + INTRA:         -13.646
REMARK INTER:                 -10.417
REMARK INTRA:                  -3.229
REMARK UNBOUND:                -3.229
REMARK SMILES CCCCCCCCCCCCCCCCCCCCCCCC(=O)[O-]
REMARK SMILES IDX 13 1 14 2 15 3 16 4 17 5 18 6 19 7 20 8 21 9 22 10 23 11
REMARK SMILES IDX 24 12 25 13 26 14 12 15 11 16 10 17 9 18 8 19 7 20 6 21 5 22
REMARK SMILES IDX 4 23 3 24 2 25 1 26
REMARK H PARENT
REMARK Flexibility Score: inf
ROOT
ATOM      1  C   UNL     1     -10.571   4.507   8.343  1.00  0.00     0.000 C 
ENDROOT
BRANCH   1   2
ATOM      2  C   UNL     1     -11.419   3.333   7.825  1.00  0.00     0.000 C 
BRANCH   2   3
ATOM      3  C   UNL     1     -11.353   3.182   6.297  1.00  0.00     0.000 C 
BRANCH   3   4
ATOM      4  C   UNL     1     -11.569   4.509   5.554  1.00  0.00     0.000 C 
BRANCH   4   5
ATOM      5  C   UNL     1     -12.851   4.461   4.709  1.00  0.00     0.000 C 
BRANCH   5   6
ATOM      6  C   UNL     1     -13.481   5.849   4.494  1.00  0.00     0.000 C 
BRANCH   6   7
ATOM      7  C   UNL     1     -14.319   5.995   3.207  1.00  0.00     0.000 C 
BRANCH   7   8
ATOM      8  C   UNL     1     -14.281   7.392   2.561  1.00  0.00     0.000 C 
BRANCH   8   9
ATOM      9  C   UNL     1     -14.321   8.530   3.596  1.00  0.00     0.000 C 
BRANCH   9  10
ATOM     10  C   UNL     1     -14.098   9.911   2.962  1.00  0.00     0.006 C 
BRANCH  10  11
ATOM     11  C   UNL     1     -13.511   9.823   1.547  1.00  0.00     0.053 C 
BRANCH  11  12
ATOM     12  C   UNL     1     -12.392  10.801   1.385  1.00  0.00     0.041 C 
ATOM     13  O   UNL     1     -12.097  11.590   2.323  1.00  0.00    -0.550 OA
ATOM     14  O   UNL     1     -11.643  10.811   0.215  1.00  0.00    -0.550 OA
ENDBRANCH  11  12
ENDBRANCH  10  11
ENDBRANCH   9  10
ENDBRANCH   8   9
ENDBRANCH   7   8
ENDBRANCH   6   7
ENDBRANCH   5   6
ENDBRANCH   4   5
ENDBRANCH   3   4
ENDBRANCH   2   3
ENDBRANCH   1   2
BRANCH   1  15
ATOM     15  C   UNL     1     -11.406   5.557   9.101  1.00  0.00     0.000 C 
BRANCH  15  16
ATOM     16  C   UNL     1     -12.925   5.287   9.044  1.00  0.00     0.000 C 
BRANCH  16  17
ATOM     17  C   UNL     1     -13.662   6.308   8.161  1.00  0.00     0.000 C 
BRANCH  17  18
ATOM     18  C   UNL     1     -13.106   7.733   8.317  1.00  0.00    -0.000 C 
BRANCH  18  19
ATOM     19  C   UNL     1     -12.838   8.435   6.965  1.00  0.00    -0.000 C 
BRANCH  19  20
ATOM     20  C   UNL     1     -12.497   9.924   7.138  1.00  0.00    -0.000 C 
BRANCH  20  21
ATOM     21  C   UNL     1     -12.191  10.626   5.801  1.00  0.00    -0.000 C 
BRANCH  21  22
ATOM     22  C   UNL     1     -10.695  10.914   5.542  1.00  0.00    -0.000 C 
BRANCH  22  23
ATOM     23  C   UNL     1      -9.708  10.071   6.372  1.00  0.00    -0.000 C 
BRANCH  23  24
ATOM     24  C   UNL     1      -8.359   9.779   5.687  1.00  0.00    -0.000 C 
BRANCH  24  25
ATOM     25  C   UNL     1      -8.149   8.311   5.274  1.00  0.00    -0.003 C 
ATOM     26  C   UNL     1      -9.042   7.341   6.049  1.00  0.00     0.004 C 
ENDBRANCH  24  25
ENDBRANCH  23  24
ENDBRANCH  22  23
ENDBRANCH  21  22
ENDBRANCH  20  21
ENDBRANCH  19  20
ENDBRANCH  18  19
ENDBRANCH  17  18
ENDBRANCH  16  17
ENDBRANCH  15  16
ENDBRANCH   1  15
TORSDOF 22
ENDMDL
MODEL 2
REMARK VINA RESULT:    -4.525      1.192      5.569
REMARK INTER + INTRA:         -13.572
REMARK INTER:                  -9.888
REMARK INTRA:                  -3.684
REMARK UNBOUND:                -3.229
REMARK SMILES CCCCCCCCCCCCCCCCCCCCCCCC(=O)[O-]
REMARK SMILES IDX 13 1 14 2 15 3 16 4 17 5 18 6 19 7 20 8 21 9 22 10 23 11
REMARK SMILES IDX 24 12 25 13 26 14 12 15 11 16 10 17 9 18 8 19 7 20 6 21 5 22
REMARK SMILES IDX 4 23 3 24 2 25 1 26
REMARK H PARENT
REMARK Flexibility Score: inf
ROOT
ATOM      1  C   UNL     1      -7.728   9.294   5.006  1.00  0.00     0.000 C 
ENDROOT
BRANCH   1   2
ATOM      2  C   UNL     1      -7.330  10.697   5.491  1.00  0.00     0.000 C 
BRANCH   2   3
ATOM      3  C   UNL     1      -8.100  11.133   6.747  1.00  0.00     0.000 C 
BRANCH   3   4
ATOM      4  C   UNL     1      -9.379  11.921   6.422  1.00  0.00     0.000 C 
BRANCH   4   5
ATOM      5  C   UNL     1     -10.630  11.113   6.799  1.00  0.00     0.000 C 
BRANCH   5   6
ATOM      6  C   UNL     1     -11.399  10.588   5.574  1.00  0.00     0.000 C 
BRANCH   6   7
ATOM      7  C   UNL     1     -12.506   9.560   5.888  1.00  0.00     0.000 C 
BRANCH   7   8
ATOM      8  C   UNL     1     -13.898   9.917   5.336  1.00  0.00     0.000 C 
BRANCH   8   9
ATOM      9  C   UNL     1     -14.182   9.272   3.968  1.00  0.00     0.000 C 
BRANCH   9  10
ATOM     10  C   UNL     1     -14.157  10.292   2.819  1.00  0.00     0.006 C 
BRANCH  10  11
ATOM     11  C   UNL     1     -13.295   9.828   1.638  1.00  0.00     0.053 C 
BRANCH  11  12
ATOM     12  C   UNL     1     -12.290  10.877   1.282  1.00  0.00     0.041 C 
ATOM     13  O   UNL     1     -11.778  10.902   0.131  1.00  0.00    -0.550 OA
ATOM     14  O   UNL     1     -11.951  11.856   2.208  1.00  0.00    -0.550 OA
ENDBRANCH  11  12
ENDBRANCH  10  11
ENDBRANCH   9  10
ENDBRANCH   8   9
ENDBRANCH   7   8
ENDBRANCH   6   7
ENDBRANCH   5   6
ENDBRANCH   4   5
ENDBRANCH   3   4
ENDBRANCH   2   3
ENDBRANCH   1   2
BRANCH   1  15
ATOM     15  C   UNL     1      -8.243   8.393   6.145  1.00  0.00     0.000 C 
BRANCH  15  16
ATOM     16  C   UNL     1      -9.162   7.254   5.654  1.00  0.00     0.000 C 
BRANCH  16  17
ATOM     17  C   UNL     1     -10.117   6.764   6.755  1.00  0.00     0.000 C 
BRANCH  17  18
ATOM     18  C   UNL     1      -9.730   5.377   7.297  1.00  0.00    -0.000 C 
BRANCH  18  19
ATOM     19  C   UNL     1     -10.393   5.046   8.654  1.00  0.00    -0.000 C 
BRANCH  19  20
ATOM     20  C   UNL     1     -11.171   3.720   8.615  1.00  0.00    -0.000 C 
BRANCH  20  21
ATOM     21  C   UNL     1     -11.511   3.269   7.182  1.00  0.00    -0.000 C 
BRANCH  21  22
ATOM     22  C   UNL     1     -12.925   3.656   6.695  1.00  0.00    -0.000 C 
BRANCH  22  23
ATOM     23  C   UNL     1     -12.969   4.692   5.554  1.00  0.00    -0.000 C 
BRANCH  23  24
ATOM     24  C   UNL     1     -13.674   6.018   5.900  1.00  0.00    -0.000 C 
BRANCH  24  25
ATOM     25  C   UNL     1     -14.331   6.054   7.293  1.00  0.00    -0.003 C 
ATOM     26  C   UNL     1     -13.574   6.939   8.285  1.00  0.00     0.004 C 
ENDBRANCH  24  25
ENDBRANCH  23  24
ENDBRANCH  22  23
ENDBRANCH  21  22
ENDBRANCH  20  21
ENDBRANCH  19  20
ENDBRANCH  18  19
ENDBRANCH  17  18
ENDBRANCH  16  17
ENDBRANCH  15  16
ENDBRANCH   1  15
TORSDOF 22
ENDMDL
MODEL 3
REMARK VINA RESULT:    -4.518      2.633      6.349
REMARK INTER + INTRA:         -13.557
REMARK INTER:                 -10.453
REMARK INTRA:                  -3.104
REMARK UNBOUND:                -3.229
REMARK SMILES CCCCCCCCCCCCCCCCCCCCCCCC(=O)[O-]
REMARK SMILES IDX 13 1 14 2 15 3 16 4 17 5 18 6 19 7 20 8 21 9 22 10 23 11
REMARK SMILES IDX 24 12 25 13 26 14 12 15 11 16 10 17 9 18 8 19 7 20 6 21 5 22
REMARK SMILES IDX 4 23 3 24 2 25 1 26
REMARK H PARENT
REMARK Flexibility Score: inf
ROOT
ATOM      1  C   UNL     1     -14.357   7.154   2.043  1.00  0.00     0.000 C 
ENDROOT
BRANCH   1   2
ATOM      2  C   UNL     1     -13.981   8.643   1.974  1.00  0.00     0.000 C 
BRANCH   2   3
ATOM      3  C   UNL     1     -14.199   9.374   3.309  1.00  0.00     0.000 C 
BRANCH   3   4
ATOM      4  C   UNL     1     -14.490  10.872   3.131  1.00  0.00     0.000 C 
BRANCH   4   5
ATOM      5  C   UNL     1     -13.204  11.699   3.270  1.00  0.00     0.000 C 
BRANCH   5   6
ATOM      6  C   UNL     1     -12.608  11.652   4.688  1.00  0.00     0.000 C 
BRANCH   6   7
ATOM      7  C   UNL     1     -11.190  11.053   4.783  1.00  0.00     0.000 C 
BRANCH   7   8
ATOM      8  C   UNL     1     -10.956  10.124   5.988  1.00  0.00     0.000 C 
BRANCH   8   9
ATOM      9  C   UNL     1      -9.529  10.231   6.556  1.00  0.00     0.000 C 
BRANCH   9  10
ATOM     10  C   UNL     1      -8.462   9.750   5.561  1.00  0.00     0.006 C 
BRANCH  10  11
ATOM     11  C   UNL     1      -7.302   9.017   6.248  1.00  0.00     0.053 C 
BRANCH  11  12
ATOM     12  C   UNL     1      -6.312   9.999   6.789  1.00  0.00     0.041 C 
ATOM     13  O   UNL     1      -6.565  10.641   7.844  1.00  0.00    -0.550 OA
ATOM     14  O   UNL     1      -5.089  10.173   6.154  1.00  0.00    -0.550 OA
ENDBRANCH  11  12
ENDBRANCH  10  11
ENDBRANCH   9  10
ENDBRANCH   8   9
ENDBRANCH   7   8
ENDBRANCH   6   7
ENDBRANCH   5   6
ENDBRANCH   4   5
ENDBRANCH   3   4
ENDBRANCH   2   3
ENDBRANCH   1   2
BRANCH   1  15
ATOM     15  C   UNL     1     -14.706   6.692   3.470  1.00  0.00     0.000 C 
BRANCH  15  16
ATOM     16  C   UNL     1     -14.072   5.336   3.845  1.00  0.00     0.000 C 
BRANCH  16  17
ATOM     17  C   UNL     1     -13.067   5.465   5.002  1.00  0.00     0.000 C 
BRANCH  17  18
ATOM     18  C   UNL     1     -13.184   6.812   5.736  1.00  0.00    -0.000 C 
BRANCH  18  19
ATOM     19  C   UNL     1     -13.514   6.660   7.239  1.00  0.00    -0.000 C 
BRANCH  19  20
ATOM     20  C   UNL     1     -13.879   5.214   7.613  1.00  0.00    -0.000 C 
BRANCH  20  21
ATOM     21  C   UNL     1     -12.893   4.590   8.617  1.00  0.00    -0.000 C 
BRANCH  21  22
ATOM     22  C   UNL     1     -12.009   3.458   8.048  1.00  0.00    -0.000 C 
BRANCH  22  23
ATOM     23  C   UNL     1     -10.680   3.914   7.414  1.00  0.00    -0.000 C 
BRANCH  23  24
ATOM     24  C   UNL     1     -10.141   5.263   7.926  1.00  0.00    -0.000 C 
BRANCH  24  25
ATOM     25  C   UNL     1      -9.490   6.149   6.847  1.00  0.00    -0.003 C 
ATOM     26  C   UNL     1      -9.622   5.565   5.439  1.00  0.00     0.004 C 
ENDBRANCH  24  25
ENDBRANCH  23  24
ENDBRANCH  22  23
ENDBRANCH  21  22
ENDBRANCH  20  21
ENDBRANCH  19  20
ENDBRANCH  18  19
ENDBRANCH  17  18
ENDBRANCH  16  17
ENDBRANCH  15  16
ENDBRANCH   1  15
TORSDOF 22
ENDMDL
MODEL 4
REMARK VINA RESULT:    -4.512      2.557      5.736
REMARK INTER + INTRA:         -13.544
REMARK INTER:                 -10.702
REMARK INTRA:                  -2.843
REMARK UNBOUND:                -3.229
REMARK SMILES CCCCCCCCCCCCCCCCCCCCCCCC(=O)[O-]
REMARK SMILES IDX 13 1 14 2 15 3 16 4 17 5 18 6 19 7 20 8 21 9 22 10 23 11
REMARK SMILES IDX 24 12 25 13 26 14 12 15 11 16 10 17 9 18 8 19 7 20 6 21 5 22
REMARK SMILES IDX 4 23 3 24 2 25 1 26
REMARK H PARENT
REMARK Flexibility Score: inf
ROOT
ATOM      1  C   UNL     1     -11.288   5.463   9.066  1.00  0.00     0.000 C 
ENDROOT
BRANCH   1   2
ATOM      2  C   UNL     1     -12.769   5.051   9.112  1.00  0.00     0.000 C 
BRANCH   2   3
ATOM      3  C   UNL     1     -13.681   6.024   8.350  1.00  0.00     0.000 C 
BRANCH   3   4
ATOM      4  C   UNL     1     -12.960   7.312   7.925  1.00  0.00     0.000 C 
BRANCH   4   5
ATOM      5  C   UNL     1     -13.714   8.011   6.784  1.00  0.00     0.000 C 
BRANCH   5   6
ATOM      6  C   UNL     1     -12.830   8.990   5.990  1.00  0.00     0.000 C 
BRANCH   6   7
ATOM      7  C   UNL     1     -11.400   9.173   6.539  1.00  0.00     0.000 C 
BRANCH   7   8
ATOM      8  C   UNL     1     -10.529  10.175   5.761  1.00  0.00     0.000 C 
BRANCH   8   9
ATOM      9  C   UNL     1      -9.429  10.811   6.630  1.00  0.00     0.000 C 
BRANCH   9  10
ATOM     10  C   UNL     1      -8.155  11.125   5.830  1.00  0.00     0.006 C 
BRANCH  10  11
ATOM     11  C   UNL     1      -7.040  10.099   6.070  1.00  0.00     0.053 C 
BRANCH  11  12
ATOM     12  C   UNL     1      -5.763  10.789   6.428  1.00  0.00     0.041 C 
ATOM     13  O   UNL     1      -5.573  11.204   7.603  1.00  0.00    -0.550 OA
ATOM     14  O   UNL     1      -4.763  10.935   5.475  1.00  0.00    -0.550 OA
ENDBRANCH  11  12
ENDBRANCH  10  11
ENDBRANCH   9  10
ENDBRANCH   8   9
ENDBRANCH   7   8
ENDBRANCH   6   7
ENDBRANCH   5   6
ENDBRANCH   4   5
ENDBRANCH   3   4
ENDBRANCH   2   3
ENDBRANCH   1   2
BRANCH   1  15
ATOM     15  C   UNL     1     -10.453   4.583   8.117  1.00  0.00     0.000 C 
BRANCH  15  16
ATOM     16  C   UNL     1      -9.853   5.364   6.929  1.00  0.00     0.000 C 
BRANCH  16  17
ATOM     17  C   UNL     1     -10.592   5.074   5.612  1.00  0.00     0.000 C 
BRANCH  17  18
ATOM     18  C   UNL     1     -11.632   3.949   5.754  1.00  0.00    -0.000 C 
BRANCH  18  19
ATOM     19  C   UNL     1     -13.064   4.392   5.375  1.00  0.00    -0.000 C 
BRANCH  19  20
ATOM     20  C   UNL     1     -13.128   5.018   3.971  1.00  0.00    -0.000 C 
BRANCH  20  21
ATOM     21  C   UNL     1     -14.409   5.841   3.742  1.00  0.00    -0.000 C 
BRANCH  21  22
ATOM     22  C   UNL     1     -14.403   6.720   2.472  1.00  0.00    -0.000 C 
BRANCH  22  23
ATOM     23  C   UNL     1     -14.270   8.236   2.719  1.00  0.00    -0.000 C 
BRANCH  23  24
ATOM     24  C   UNL     1     -13.949   9.077   1.469  1.00  0.00    -0.000 C 
BRANCH  24  25
ATOM     25  C   UNL     1     -13.222  10.404   1.753  1.00  0.00    -0.003 C 
ATOM     26  C   UNL     1     -12.081  10.679   0.774  1.00  0.00     0.004 C 
ENDBRANCH  24  25
ENDBRANCH  23  24
ENDBRANCH  22  23
ENDBRANCH  21  22
ENDBRANCH  20  21
ENDBRANCH  19  20
ENDBRANCH  18  19
ENDBRANCH  17  18
ENDBRANCH  16  17
ENDBRANCH  15  16
ENDBRANCH   1  15
TORSDOF 22
ENDMDL
MODEL 5
REMARK VINA RESULT:    -4.404      1.241      5.019
REMARK INTER + INTRA:         -13.297
REMARK INTER:                 -10.178
REMARK INTRA:                  -3.119
REMARK UNBOUND:                -3.229
REMARK SMILES CCCCCCCCCCCCCCCCCCCCCCCC(=O)[O-]
REMARK SMILES IDX 13 1 14 2 15 3 16 4 17 5 18 6 19 7 20 8 21 9 22 10 23 11
REMARK SMILES IDX 24 12 25 13 26 14 12 15 11 16 10 17 9 18 8 19 7 20 6 21 5 22
REMARK SMILES IDX 4 23 3 24 2 25 1 26
REMARK H PARENT
REMARK Flexibility Score: inf
ROOT
ATOM      1  C   UNL     1      -9.491   6.873   6.091  1.00  0.00     0.000 C 
ENDROOT
BRANCH   1   2
ATOM      2  C   UNL     1      -8.507   8.017   6.389  1.00  0.00     0.000 C 
BRANCH   2   3
ATOM      3  C   UNL     1      -8.141   8.827   5.136  1.00  0.00     0.000 C 
BRANCH   3   4
ATOM      4  C   UNL     1      -7.916  10.318   5.431  1.00  0.00     0.000 C 
BRANCH   4   5
ATOM      5  C   UNL     1      -8.370  10.668   6.856  1.00  0.00     0.000 C 
BRANCH   5   6
ATOM      6  C   UNL     1      -9.668  11.495   6.887  1.00  0.00     0.000 C 
BRANCH   6   7
ATOM      7  C   UNL     1     -10.960  10.677   7.093  1.00  0.00     0.000 C 
BRANCH   7   8
ATOM      8  C   UNL     1     -12.182  11.182   6.306  1.00  0.00     0.000 C 
BRANCH   8   9
ATOM      9  C   UNL     1     -12.311  10.530   4.918  1.00  0.00     0.000 C 
BRANCH   9  10
ATOM     10  C   UNL     1     -12.820  11.512   3.851  1.00  0.00     0.006 C 
BRANCH  10  11
ATOM     11  C   UNL     1     -11.863  11.635   2.658  1.00  0.00     0.053 C 
BRANCH  11  12
ATOM     12  C   UNL     1     -12.398  10.884   1.481  1.00  0.00     0.041 C 
ATOM     13  O   UNL     1     -11.800  10.933   0.372  1.00  0.00    -0.550 OA
ATOM     14  O   UNL     1     -13.531  10.093   1.618  1.00  0.00    -0.550 OA
ENDBRANCH  11  12
ENDBRANCH  10  11
ENDBRANCH   9  10
ENDBRANCH   8   9
ENDBRANCH   7   8
ENDBRANCH   6   7
ENDBRANCH   5   6
ENDBRANCH   4   5
ENDBRANCH   3   4
ENDBRANCH   2   3
ENDBRANCH   1   2
BRANCH   1  15
ATOM     15  C   UNL     1      -9.447   5.757   7.153  1.00  0.00     0.000 C 
BRANCH  15  16
ATOM     16  C   UNL     1     -10.394   4.579   6.841  1.00  0.00     0.000 C 
BRANCH  16  17
ATOM     17  C   UNL     1     -11.170   4.114   8.084  1.00  0.00     0.000 C 
BRANCH  17  18
ATOM     18  C   UNL     1     -11.514   5.275   9.034  1.00  0.00    -0.000 C 
BRANCH  18  19
ATOM     19  C   UNL     1     -12.963   5.788   8.869  1.00  0.00    -0.000 C 
BRANCH  19  20
ATOM     20  C   UNL     1     -13.014   7.273   8.469  1.00  0.00    -0.000 C 
BRANCH  20  21
ATOM     21  C   UNL     1     -13.278   7.477   6.966  1.00  0.00    -0.000 C 
BRANCH  21  22
ATOM     22  C   UNL     1     -13.950   6.283   6.252  1.00  0.00    -0.000 C 
BRANCH  22  23
ATOM     23  C   UNL     1     -13.113   5.625   5.138  1.00  0.00    -0.000 C 
BRANCH  23  24
ATOM     24  C   UNL     1     -13.914   5.162   3.905  1.00  0.00    -0.000 C 
BRANCH  24  25
ATOM     25  C   UNL     1     -14.882   6.214   3.333  1.00  0.00    -0.003 C 
ATOM     26  C   UNL     1     -14.399   6.812   2.011  1.00  0.00     0.004 C 
ENDBRANCH  24  25
ENDBRANCH  23  24
ENDBRANCH  22  23
ENDBRANCH  21  22
ENDBRANCH  20  21
ENDBRANCH  19  20
ENDBRANCH  18  19
ENDBRANCH  17  18
ENDBRANCH  16  17
ENDBRANCH  15  16
ENDBRANCH   1  15
TORSDOF 22
ENDMDL
MODEL 6
REMARK VINA RESULT:    -4.395      1.471      3.507
REMARK INTER + INTRA:         -13.275
REMARK INTER:                 -10.212
REMARK INTRA:                  -3.063
REMARK UNBOUND:                -3.229
REMARK SMILES CCCCCCCCCCCCCCCCCCCCCCCC(=O)[O-]
REMARK SMILES IDX 13 1 14 2 15 3 16 4 17 5 18 6 19 7 20 8 21 9 22 10 23 11
REMARK SMILES IDX 24 12 25 13 26 14 12 15 11 16 10 17 9 18 8 19 7 20 6 21 5 22
REMARK SMILES IDX 4 23 3 24 2 25 1 26
REMARK H PARENT
REMARK Flexibility Score: inf
ROOT
ATOM      1  C   UNL     1     -12.396   3.873   5.745  1.00  0.00     0.000 C 
ENDROOT
BRANCH   1   2
ATOM      2  C   UNL     1     -12.904   4.792   4.622  1.00  0.00     0.000 C 
BRANCH   2   3
ATOM      3  C   UNL     1     -13.992   5.767   5.098  1.00  0.00     0.000 C 
BRANCH   3   4
ATOM      4  C   UNL     1     -14.282   6.883   4.082  1.00  0.00     0.000 C 
BRANCH   4   5
ATOM      5  C   UNL     1     -14.077   8.267   4.716  1.00  0.00     0.000 C 
BRANCH   5   6
ATOM      6  C   UNL     1     -13.463   8.198   6.126  1.00  0.00     0.000 C 
BRANCH   6   7
ATOM      7  C   UNL     1     -12.563   9.392   6.506  1.00  0.00     0.000 C 
BRANCH   7   8
ATOM      8  C   UNL     1     -12.717  10.634   5.609  1.00  0.00     0.000 C 
BRANCH   8   9
ATOM      9  C   UNL     1     -11.403  11.036   4.916  1.00  0.00     0.000 C 
BRANCH   9  10
ATOM     10  C   UNL     1     -11.639  11.790   3.598  1.00  0.00     0.006 C 
BRANCH  10  11
ATOM     11  C   UNL     1     -12.979  11.428   2.943  1.00  0.00     0.053 C 
BRANCH  11  12
ATOM     12  C   UNL     1     -12.752  10.662   1.679  1.00  0.00     0.041 C 
ATOM     13  O   UNL     1     -11.848  11.015   0.876  1.00  0.00    -0.550 OA
ATOM     14  O   UNL     1     -13.509   9.529   1.409  1.00  0.00    -0.550 OA
ENDBRANCH  11  12
ENDBRANCH  10  11
ENDBRANCH   9  10
ENDBRANCH   8   9
ENDBRANCH   7   8
ENDBRANCH   6   7
ENDBRANCH   5   6
ENDBRANCH   4   5
ENDBRANCH   3   4
ENDBRANCH   2   3
ENDBRANCH   1   2
BRANCH   1  15
ATOM     15  C   UNL     1     -12.913   4.288   7.136  1.00  0.00     0.000 C 
BRANCH  15  16
ATOM     16  C   UNL     1     -12.146   3.621   8.297  1.00  0.00     0.000 C 
BRANCH  16  17
ATOM     17  C   UNL     1     -10.627   3.837   8.187  1.00  0.00     0.000 C 
BRANCH  17  18
ATOM     18  C   UNL     1     -10.240   5.326   8.207  1.00  0.00    -0.000 C 
BRANCH  18  19
ATOM     19  C   UNL     1      -9.296   5.725   7.049  1.00  0.00    -0.000 C 
BRANCH  19  20
ATOM     20  C   UNL     1      -9.915   6.796   6.135  1.00  0.00    -0.000 C 
BRANCH  20  21
ATOM     21  C   UNL     1      -9.205   8.158   6.246  1.00  0.00    -0.000 C 
BRANCH  21  22
ATOM     22  C   UNL     1      -8.182   8.455   5.127  1.00  0.00    -0.000 C 
BRANCH  22  23
ATOM     23  C   UNL     1      -7.409   9.780   5.275  1.00  0.00    -0.000 C 
BRANCH  23  24
ATOM     24  C   UNL     1      -6.274   9.763   6.316  1.00  0.00    -0.000 C 
BRANCH  24  25
ATOM     25  C   UNL     1      -6.304  10.927   7.323  1.00  0.00    -0.003 C 
ATOM     26  C   UNL     1      -7.711  11.230   7.841  1.00  0.00     0.004 C 
ENDBRANCH  24  25
ENDBRANCH  23  24
ENDBRANCH  22  23
ENDBRANCH  21  22
ENDBRANCH  20  21
ENDBRANCH  19  20
ENDBRANCH  18  19
ENDBRANCH  17  18
ENDBRANCH  16  17
ENDBRANCH  15  16
ENDBRANCH   1  15
TORSDOF 22
ENDMDL
MODEL 7
REMARK VINA RESULT:    -4.387      1.451      2.539
REMARK INTER + INTRA:         -13.258
REMARK INTER:                 -10.064
REMARK INTRA:                  -3.194
REMARK UNBOUND:                -3.229
REMARK SMILES CCCCCCCCCCCCCCCCCCCCCCCC(=O)[O-]
REMARK SMILES IDX 13 1 14 2 15 3 16 4 17 5 18 6 19 7 20 8 21 9 22 10 23 11
REMARK SMILES IDX 24 12 25 13 26 14 12 15 11 16 10 17 9 18 8 19 7 20 6 21 5 22
REMARK SMILES IDX 4 23 3 24 2 25 1 26
REMARK H PARENT
REMARK Flexibility Score: inf
ROOT
ATOM      1  C   UNL     1      -9.585   5.831   6.762  1.00  0.00     0.000 C 
ENDROOT
BRANCH   1   2
ATOM      2  C   UNL     1     -10.190   5.144   7.998  1.00  0.00     0.000 C 
BRANCH   2   3
ATOM      3  C   UNL     1     -10.752   3.748   7.687  1.00  0.00     0.000 C 
BRANCH   3   4
ATOM      4  C   UNL     1     -12.127   3.501   8.327  1.00  0.00     0.000 C 
BRANCH   4   5
ATOM      5  C   UNL     1     -13.212   4.340   7.636  1.00  0.00     0.000 C 
BRANCH   5   6
ATOM      6  C   UNL     1     -13.174   4.227   6.101  1.00  0.00     0.000 C 
BRANCH   6   7
ATOM      7  C   UNL     1     -13.897   5.359   5.344  1.00  0.00     0.000 C 
BRANCH   7   8
ATOM      8  C   UNL     1     -13.602   5.423   3.834  1.00  0.00     0.000 C 
BRANCH   8   9
ATOM      9  C   UNL     1     -14.740   6.077   3.030  1.00  0.00     0.000 C 
BRANCH   9  10
ATOM     10  C   UNL     1     -14.281   7.334   2.275  1.00  0.00     0.006 C 
BRANCH  10  11
ATOM     11  C   UNL     1     -14.152   8.558   3.191  1.00  0.00     0.053 C 
BRANCH  11  12
ATOM     12  C   UNL     1     -13.883   9.788   2.383  1.00  0.00     0.041 C 
ATOM     13  O   UNL     1     -14.303  10.909   2.775  1.00  0.00    -0.550 OA
ATOM     14  O   UNL     1     -13.129   9.702   1.220  1.00  0.00    -0.550 OA
ENDBRANCH  11  12
ENDBRANCH  10  11
ENDBRANCH   9  10
ENDBRANCH   8   9
ENDBRANCH   7   8
ENDBRANCH   6   7
ENDBRANCH   5   6
ENDBRANCH   4   5
ENDBRANCH   3   4
ENDBRANCH   2   3
ENDBRANCH   1   2
BRANCH   1  15
ATOM     15  C   UNL     1     -10.532   6.870   6.133  1.00  0.00     0.000 C 
BRANCH  15  16
ATOM     16  C   UNL     1     -11.551   7.452   7.135  1.00  0.00     0.000 C 
BRANCH  16  17
ATOM     17  C   UNL     1     -12.441   8.531   6.495  1.00  0.00     0.000 C 
BRANCH  17  18
ATOM     18  C   UNL     1     -12.735   9.698   7.454  1.00  0.00    -0.000 C 
BRANCH  18  19
ATOM     19  C   UNL     1     -12.969  11.041   6.725  1.00  0.00    -0.000 C 
BRANCH  19  20
ATOM     20  C   UNL     1     -11.657  11.805   6.475  1.00  0.00    -0.000 C 
BRANCH  20  21
ATOM     21  C   UNL     1     -10.664  11.685   7.646  1.00  0.00    -0.000 C 
BRANCH  21  22
ATOM     22  C   UNL     1      -9.212  11.350   7.239  1.00  0.00    -0.000 C 
BRANCH  22  23
ATOM     23  C   UNL     1      -9.055  10.149   6.286  1.00  0.00    -0.000 C 
BRANCH  23  24
ATOM     24  C   UNL     1      -7.766   9.325   6.478  1.00  0.00    -0.000 C 
BRANCH  24  25
ATOM     25  C   UNL     1      -6.545   9.849   5.701  1.00  0.00    -0.003 C 
ATOM     26  C   UNL     1      -5.411  10.313   6.616  1.00  0.00     0.004 C 
ENDBRANCH  24  25
ENDBRANCH  23  24
ENDBRANCH  22  23
ENDBRANCH  21  22
ENDBRANCH  20  21
ENDBRANCH  19  20
ENDBRANCH  18  19
ENDBRANCH  17  18
ENDBRANCH  16  17
ENDBRANCH  15  16
ENDBRANCH   1  15
TORSDOF 22
ENDMDL
MODEL 8
REMARK VINA RESULT:    -4.359      2.220      5.794
REMARK INTER + INTRA:         -13.194
REMARK INTER:                  -9.184
REMARK INTRA:                  -4.010
REMARK UNBOUND:                -3.229
REMARK SMILES CCCCCCCCCCCCCCCCCCCCCCCC(=O)[O-]
REMARK SMILES IDX 13 1 14 2 15 3 16 4 17 5 18 6 19 7 20 8 21 9 22 10 23 11
REMARK SMILES IDX 24 12 25 13 26 14 12 15 11 16 10 17 9 18 8 19 7 20 6 21 5 22
REMARK SMILES IDX 4 23 3 24 2 25 1 26
REMARK H PARENT
REMARK Flexibility Score: inf
ROOT
ATOM      1  C   UNL     1     -10.309   6.818   6.200  1.00  0.00     0.000 C 
ENDROOT
BRANCH   1   2
ATOM      2  C   UNL     1     -11.420   7.496   7.018  1.00  0.00     0.000 C 
BRANCH   2   3
ATOM      3  C   UNL     1     -12.543   8.067   6.138  1.00  0.00     0.000 C 
BRANCH   3   4
ATOM      4  C   UNL     1     -13.882   8.191   6.881  1.00  0.00     0.000 C 
BRANCH   4   5
ATOM      5  C   UNL     1     -14.434   9.621   6.778  1.00  0.00     0.000 C 
BRANCH   5   6
ATOM      6  C   UNL     1     -13.419  10.617   6.189  1.00  0.00     0.000 C 
BRANCH   6   7
ATOM      7  C   UNL     1     -12.786  11.586   7.210  1.00  0.00     0.000 C 
BRANCH   7   8
ATOM      8  C   UNL     1     -11.260  11.462   7.363  1.00  0.00     0.000 C 
BRANCH   8   9
ATOM      9  C   UNL     1     -10.554  11.102   6.044  1.00  0.00     0.000 C 
BRANCH   9  10
ATOM     10  C   UNL     1      -9.028  11.260   6.130  1.00  0.00     0.006 C 
BRANCH  10  11
ATOM     11  C   UNL     1      -8.346  10.057   6.794  1.00  0.00     0.053 C 
BRANCH  11  12
ATOM     12  C   UNL     1      -7.333   9.457   5.873  1.00  0.00     0.041 C 
ATOM     13  O   UNL     1      -7.702   8.811   4.856  1.00  0.00    -0.550 OA
ATOM     14  O   UNL     1      -5.978   9.651   6.112  1.00  0.00    -0.550 OA
ENDBRANCH  11  12
ENDBRANCH  10  11
ENDBRANCH   9  10
ENDBRANCH   8   9
ENDBRANCH   7   8
ENDBRANCH   6   7
ENDBRANCH   5   6
ENDBRANCH   4   5
ENDBRANCH   3   4
ENDBRANCH   2   3
ENDBRANCH   1   2
BRANCH   1  15
ATOM     15  C   UNL     1      -9.619   5.673   6.966  1.00  0.00     0.000 C 
BRANCH  15  16
ATOM     16  C   UNL     1     -10.244   5.400   8.350  1.00  0.00     0.000 C 
BRANCH  16  17
ATOM     17  C   UNL     1     -10.598   3.916   8.544  1.00  0.00     0.000 C 
BRANCH  17  18
ATOM     18  C   UNL     1     -11.747   3.459   7.629  1.00  0.00    -0.000 C 
BRANCH  18  19
ATOM     19  C   UNL     1     -13.043   4.279   7.824  1.00  0.00    -0.000 C 
BRANCH  19  20
ATOM     20  C   UNL     1     -13.718   4.630   6.487  1.00  0.00    -0.000 C 
BRANCH  20  21
ATOM     21  C   UNL     1     -12.771   4.479   5.282  1.00  0.00    -0.000 C 
BRANCH  21  22
ATOM     22  C   UNL     1     -13.414   4.764   3.906  1.00  0.00    -0.000 C 
BRANCH  22  23
ATOM     23  C   UNL     1     -14.393   5.954   3.870  1.00  0.00    -0.000 C 
BRANCH  23  24
ATOM     24  C   UNL     1     -14.318   6.824   2.600  1.00  0.00    -0.000 C 
BRANCH  24  25
ATOM     25  C   UNL     1     -14.334   8.342   2.858  1.00  0.00    -0.003 C 
ATOM     26  C   UNL     1     -13.798   9.152   1.677  1.00  0.00     0.004 C 
ENDBRANCH  24  25
ENDBRANCH  23  24
ENDBRANCH  22  23
ENDBRANCH  21  22
ENDBRANCH  20  21
ENDBRANCH  19  20
ENDBRANCH  18  19
ENDBRANCH  17  18
ENDBRANCH  16  17
ENDBRANCH  15  16
ENDBRANCH   1  15
TORSDOF 22
ENDMDL
MODEL 9
REMARK VINA RESULT:    -4.325      2.238      5.280
REMARK INTER + INTRA:         -13.116
REMARK INTER:                  -9.859
REMARK INTRA:                  -3.257
REMARK UNBOUND:                -3.229
REMARK SMILES CCCCCCCCCCCCCCCCCCCCCCCC(=O)[O-]
REMARK SMILES IDX 13 1 14 2 15 3 16 4 17 5 18 6 19 7 20 8 21 9 22 10 23 11
REMARK SMILES IDX 24 12 25 13 26 14 12 15 11 16 10 17 9 18 8 19 7 20 6 21 5 22
REMARK SMILES IDX 4 23 3 24 2 25 1 26
REMARK H PARENT
REMARK Flexibility Score: inf
ROOT
ATOM      1  C   UNL     1      -8.004   8.748   5.072  1.00  0.00     0.000 C 
ENDROOT
BRANCH   1   2
ATOM      2  C   UNL     1      -8.468   8.007   6.336  1.00  0.00     0.000 C 
BRANCH   2   3
ATOM      3  C   UNL     1      -9.702   7.126   6.090  1.00  0.00     0.000 C 
BRANCH   3   4
ATOM      4  C   UNL     1      -9.466   5.651   6.449  1.00  0.00     0.000 C 
BRANCH   4   5
ATOM      5  C   UNL     1     -10.214   5.274   7.736  1.00  0.00     0.000 C 
BRANCH   5   6
ATOM      6  C   UNL     1     -11.721   5.054   7.513  1.00  0.00     0.000 C 
BRANCH   6   7
ATOM      7  C   UNL     1     -12.645   5.987   8.323  1.00  0.00     0.000 C 
BRANCH   7   8
ATOM      8  C   UNL     1     -13.748   6.681   7.504  1.00  0.00     0.000 C 
BRANCH   8   9
ATOM      9  C   UNL     1     -13.253   7.953   6.792  1.00  0.00     0.000 C 
BRANCH   9  10
ATOM     10  C   UNL     1     -13.640   7.985   5.306  1.00  0.00     0.006 C 
BRANCH  10  11
ATOM     11  C   UNL     1     -14.633   6.877   4.931  1.00  0.00     0.053 C 
BRANCH  11  12
ATOM     12  C   UNL     1     -14.118   6.084   3.773  1.00  0.00     0.041 C 
ATOM     13  O   UNL     1     -14.145   6.568   2.610  1.00  0.00    -0.550 OA
ATOM     14  O   UNL     1     -13.564   4.827   3.984  1.00  0.00    -0.550 OA
ENDBRANCH  11  12
ENDBRANCH  10  11
ENDBRANCH   9  10
ENDBRANCH   8   9
ENDBRANCH   7   8
ENDBRANCH   6   7
ENDBRANCH   5   6
ENDBRANCH   4   5
ENDBRANCH   3   4
ENDBRANCH   2   3
ENDBRANCH   1   2
BRANCH   1  15
ATOM     15  C   UNL     1      -7.356  10.111   5.382  1.00  0.00     0.000 C 
BRANCH  15  16
ATOM     16  C   UNL     1      -6.763  10.195   6.805  1.00  0.00     0.000 C 
BRANCH  16  17
ATOM     17  C   UNL     1      -7.407  11.318   7.635  1.00  0.00     0.000 C 
BRANCH  17  18
ATOM     18  C   UNL     1      -8.567  12.007   6.897  1.00  0.00    -0.000 C 
BRANCH  18  19
ATOM     19  C   UNL     1      -9.940  11.778   7.570  1.00  0.00    -0.000 C 
BRANCH  19  20
ATOM     20  C   UNL     1     -10.762  10.687   6.863  1.00  0.00    -0.000 C 
BRANCH  20  21
ATOM     21  C   UNL     1     -11.714  11.256   5.794  1.00  0.00    -0.000 C 
BRANCH  21  22
ATOM     22  C   UNL     1     -11.079  11.475   4.404  1.00  0.00    -0.000 C 
BRANCH  22  23
ATOM     23  C   UNL     1     -12.066  11.838   3.277  1.00  0.00    -0.000 C 
BRANCH  23  24
ATOM     24  C   UNL     1     -13.199  10.819   3.046  1.00  0.00    -0.000 C 
BRANCH  24  25
ATOM     25  C   UNL     1     -13.275  10.253   1.617  1.00  0.00    -0.003 C 
ATOM     26  C   UNL     1     -12.103  10.692   0.739  1.00  0.00     0.004 C 
ENDBRANCH  24  25
ENDBRANCH  23  24
ENDBRANCH  22  23
ENDBRANCH  21  22
ENDBRANCH  20  21
ENDBRANCH  19  20
ENDBRANCH  18  19
ENDBRANCH  17  18
ENDBRANCH  16  17
ENDBRANCH  15  16
ENDBRANCH   1  15
TORSDOF 22
ENDMDL
