MODEL 1
REMARK VINA RESULT:    -4.371      0.000      0.000
REMARK INTER + INTRA:          -6.415
REMARK INTER:                  -6.160
REMARK INTRA:                  -0.256
REMARK UNBOUND:                -0.256
REMARK SMILES CCCCCCCCC(=O)[O-]
REMARK SMILES IDX 6 1 7 2 8 3 9 4 10 5 11 6 5 7 4 8 3 9 2 10 1 11
REMARK H PARENT
REMARK Flexibility Score: inf
ROOT
ATOM      1  C   UNL     1     -20.111  23.881  -5.768  1.00  0.00     0.000 C 
ENDROOT
BRANCH   1   2
ATOM      2  C   UNL     1     -20.559  23.534  -4.341  1.00  0.00     0.006 C 
BRANCH   2   3
ATOM      3  C   UNL     1     -20.152  22.112  -3.934  1.00  0.00     0.053 C 
BRANCH   3   4
ATOM      4  C   UNL     1     -20.811  21.691  -2.657  1.00  0.00     0.041 C 
ATOM      5  O   UNL     1     -20.476  20.615  -2.094  1.00  0.00    -0.550 OA
ATOM      6  O   UNL     1     -21.774  22.502  -2.071  1.00  0.00    -0.550 OA
ENDBRANCH   3   4
ENDBRANCH   2   3
ENDBRANCH   1   2
BRANCH   1   7
ATOM      7  C   UNL     1     -20.960  25.016  -6.351  1.00  0.00     0.000 C 
BRANCH   7   8
ATOM      8  C   UNL     1     -22.359  25.037  -5.722  1.00  0.00    -0.000 C 
BRANCH   8   9
ATOM      9  C   UNL     1     -22.628  26.374  -5.021  1.00  0.00    -0.000 C 
BRANCH   9  10
ATOM     10  C   UNL     1     -23.667  26.210  -3.906  1.00  0.00    -0.003 C 
ATOM     11  C   UNL     1     -23.139  25.317  -2.788  1.00  0.00     0.004 C 
ENDBRANCH   9  10
ENDBRANCH   8   9
ENDBRANCH   7   8
ENDBRANCH   1   7
TORSDOF 7
ENDMDL
MODEL 2
REMARK VINA RESULT:    -4.221     12.491     13.772
REMARK INTER + INTRA:          -6.204
REMARK INTER:                  -5.833
REMARK INTRA:                  -0.371
REMARK UNBOUND:                -0.256
REMARK SMILES CCCCCCCCC(=O)[O-]
REMARK SMILES IDX 6 1 7 2 8 3 9 4 10 5 11 6 5 7 4 8 3 9 2 10 1 11
REMARK H PARENT
REMARK Flexibility Score: inf
ROOT
ATOM      1  C   UNL     1     -15.549  33.268 -11.250  1.00  0.00     0.000 C 
ENDROOT
BRANCH   1   2
ATOM      2  C   UNL     1     -14.599  34.426 -10.914  1.00  0.00     0.006 C 
BRANCH   2   3
ATOM      3  C   UNL     1     -14.362  34.564  -9.405  1.00  0.00     0.053 C 
BRANCH   3   4
ATOM      4  C   UNL     1     -13.284  35.559  -9.102  1.00  0.00     0.041 C 
ATOM      5  O   UNL     1     -12.431  35.857  -9.979  1.00  0.00    -0.550 OA
ATOM      6  O   UNL     1     -13.241  36.180  -7.861  1.00  0.00    -0.550 OA
ENDBRANCH   3   4
ENDBRANCH   2   3
ENDBRANCH   1   2
BRANCH   1   7
ATOM      7  C   UNL     1     -16.509  33.653 -12.382  1.00  0.00     0.000 C 
BRANCH   7   8
ATOM      8  C   UNL     1     -17.966  33.620 -11.904  1.00  0.00    -0.000 C 
BRANCH   8   9
ATOM      9  C   UNL     1     -18.077  32.967 -10.521  1.00  0.00    -0.000 C 
BRANCH   9  10
ATOM     10  C   UNL     1     -18.433  34.004  -9.450  1.00  0.00    -0.003 C 
ATOM     11  C   UNL     1     -19.571  33.510  -8.562  1.00  0.00     0.004 C 
ENDBRANCH   9  10
ENDBRANCH   8   9
ENDBRANCH   7   8
ENDBRANCH   1   7
TORSDOF 7
ENDMDL
MODEL 3
REMARK VINA RESULT:    -4.210      1.050      2.660
REMARK INTER + INTRA:          -6.188
REMARK INTER:                  -5.587
REMARK INTRA:                  -0.602
REMARK UNBOUND:                -0.256
REMARK SMILES CCCCCCCCC(=O)[O-]
REMARK SMILES IDX 6 1 7 2 8 3 9 4 10 5 11 6 5 7 4 8 3 9 2 10 1 11
REMARK H PARENT
REMARK Flexibility Score: inf
ROOT
ATOM      1  C   UNL     1     -21.884  24.864  -2.753  1.00  0.00     0.000 C 
ENDROOT
BRANCH   1   2
ATOM      2  C   UNL     1     -21.831  23.330  -2.710  1.00  0.00     0.006 C 
BRANCH   2   3
ATOM      3  C   UNL     1     -20.721  22.762  -3.605  1.00  0.00     0.053 C 
BRANCH   3   4
ATOM      4  C   UNL     1     -20.319  21.383  -3.181  1.00  0.00     0.041 C 
ATOM      5  O   UNL     1     -19.681  20.638  -3.971  1.00  0.00    -0.550 OA
ATOM      6  O   UNL     1     -20.623  20.932  -1.903  1.00  0.00    -0.550 OA
ENDBRANCH   3   4
ENDBRANCH   2   3
ENDBRANCH   1   2
BRANCH   1   7
ATOM      7  C   UNL     1     -23.332  25.363  -2.806  1.00  0.00     0.000 C 
BRANCH   7   8
ATOM      8  C   UNL     1     -23.737  25.729  -4.239  1.00  0.00    -0.000 C 
BRANCH   8   9
ATOM      9  C   UNL     1     -22.515  26.143  -5.067  1.00  0.00    -0.000 C 
BRANCH   9  10
ATOM     10  C   UNL     1     -22.312  25.197  -6.257  1.00  0.00    -0.003 C 
ATOM     11  C   UNL     1     -20.829  24.980  -6.541  1.00  0.00     0.004 C 
ENDBRANCH   9  10
ENDBRANCH   8   9
ENDBRANCH   7   8
ENDBRANCH   1   7
TORSDOF 7
ENDMDL
MODEL 4
REMARK VINA RESULT:    -3.959     13.301     14.352
REMARK INTER + INTRA:          -5.835
REMARK INTER:                  -5.493
REMARK INTRA:                  -0.342
REMARK UNBOUND:                -0.256
REMARK SMILES CCCCCCCCC(=O)[O-]
REMARK SMILES IDX 6 1 7 2 8 3 9 4 10 5 11 6 5 7 4 8 3 9 2 10 1 11
REMARK H PARENT
REMARK Flexibility Score: inf
ROOT
ATOM      1  C   UNL     1     -15.558  33.497 -11.270  1.00  0.00     0.000 C 
ENDROOT
BRANCH   1   2
ATOM      2  C   UNL     1     -14.367  34.390 -10.895  1.00  0.00     0.006 C 
BRANCH   2   3
ATOM      3  C   UNL     1     -14.331  34.710  -9.395  1.00  0.00     0.053 C 
BRANCH   3   4
ATOM      4  C   UNL     1     -13.216  35.650  -9.055  1.00  0.00     0.041 C 
ATOM      5  O   UNL     1     -12.420  36.041  -9.950  1.00  0.00    -0.550 OA
ATOM      6  O   UNL     1     -13.074  36.121  -7.756  1.00  0.00    -0.550 OA
ENDBRANCH   3   4
ENDBRANCH   2   3
ENDBRANCH   1   2
BRANCH   1   7
ATOM      7  C   UNL     1     -16.703  33.655 -10.264  1.00  0.00     0.000 C 
BRANCH   7   8
ATOM      8  C   UNL     1     -18.055  33.762 -10.980  1.00  0.00    -0.000 C 
BRANCH   8   9
ATOM      9  C   UNL     1     -17.940  33.317 -12.443  1.00  0.00    -0.000 C 
BRANCH   9  10
ATOM     10  C   UNL     1     -18.470  34.400 -13.390  1.00  0.00    -0.003 C 
ATOM     11  C   UNL     1     -19.901  34.099 -13.825  1.00  0.00     0.004 C 
ENDBRANCH   9  10
ENDBRANCH   8   9
ENDBRANCH   7   8
ENDBRANCH   1   7
TORSDOF 7
ENDMDL
MODEL 5
REMARK VINA RESULT:    -3.861     19.452     19.906
REMARK INTER + INTRA:          -5.697
REMARK INTER:                  -5.139
REMARK INTRA:                  -0.558
REMARK UNBOUND:                -0.256
REMARK SMILES CCCCCCCCC(=O)[O-]
REMARK SMILES IDX 6 1 7 2 8 3 9 4 10 5 11 6 5 7 4 8 3 9 2 10 1 11
REMARK H PARENT
REMARK Flexibility Score: inf
ROOT
ATOM      1  C   UNL     1      -4.116  34.227   0.523  1.00  0.00     0.000 C 
ENDROOT
BRANCH   1   2
ATOM      2  C   UNL     1      -5.068  33.641   1.576  1.00  0.00     0.006 C 
BRANCH   2   3
ATOM      3  C   UNL     1      -6.409  34.385   1.625  1.00  0.00     0.053 C 
BRANCH   3   4
ATOM      4  C   UNL     1      -7.520  33.564   1.046  1.00  0.00     0.041 C 
ATOM      5  O   UNL     1      -8.345  34.085   0.250  1.00  0.00    -0.550 OA
ATOM      6  O   UNL     1      -7.625  32.216   1.361  1.00  0.00    -0.550 OA
ENDBRANCH   3   4
ENDBRANCH   2   3
ENDBRANCH   1   2
BRANCH   1   7
ATOM      7  C   UNL     1      -4.134  35.759   0.558  1.00  0.00     0.000 C 
BRANCH   7   8
ATOM      8  C   UNL     1      -4.394  36.339  -0.838  1.00  0.00    -0.000 C 
BRANCH   8   9
ATOM      9  C   UNL     1      -5.019  37.736  -0.747  1.00  0.00    -0.000 C 
BRANCH   9  10
ATOM     10  C   UNL     1      -6.197  37.747   0.233  1.00  0.00    -0.003 C 
ATOM     11  C   UNL     1      -7.531  37.750  -0.508  1.00  0.00     0.004 C 
ENDBRANCH   9  10
ENDBRANCH   8   9
ENDBRANCH   7   8
ENDBRANCH   1   7
TORSDOF 7
ENDMDL
MODEL 6
REMARK VINA RESULT:    -3.631     19.409     19.863
REMARK INTER + INTRA:          -5.373
REMARK INTER:                  -5.146
REMARK INTRA:                  -0.226
REMARK UNBOUND:                -0.256
REMARK SMILES CCCCCCCCC(=O)[O-]
REMARK SMILES IDX 6 1 7 2 8 3 9 4 10 5 11 6 5 7 4 8 3 9 2 10 1 11
REMARK H PARENT
REMARK Flexibility Score: inf
ROOT
ATOM      1  C   UNL     1      -6.165  35.777   1.795  1.00  0.00     0.000 C 
ENDROOT
BRANCH   1   2
ATOM      2  C   UNL     1      -5.565  34.720   0.857  1.00  0.00     0.006 C 
BRANCH   2   3
ATOM      3  C   UNL     1      -5.782  33.292   1.376  1.00  0.00     0.053 C 
BRANCH   3   4
ATOM      4  C   UNL     1      -7.175  32.811   1.110  1.00  0.00     0.041 C 
ATOM      5  O   UNL     1      -7.983  33.531   0.466  1.00  0.00    -0.550 OA
ATOM      6  O   UNL     1      -7.571  31.553   1.545  1.00  0.00    -0.550 OA
ENDBRANCH   3   4
ENDBRANCH   2   3
ENDBRANCH   1   2
BRANCH   1   7
ATOM      7  C   UNL     1      -5.556  37.158   1.530  1.00  0.00     0.000 C 
BRANCH   7   8
ATOM      8  C   UNL     1      -6.605  38.125   0.968  1.00  0.00    -0.000 C 
BRANCH   8   9
ATOM      9  C   UNL     1      -6.799  37.913  -0.538  1.00  0.00    -0.000 C 
BRANCH   9  10
ATOM     10  C   UNL     1      -5.453  37.920  -1.271  1.00  0.00    -0.003 C 
ATOM     11  C   UNL     1      -5.645  38.096  -2.775  1.00  0.00     0.004 C 
ENDBRANCH   9  10
ENDBRANCH   8   9
ENDBRANCH   7   8
ENDBRANCH   1   7
TORSDOF 7
ENDMDL
MODEL 7
REMARK VINA RESULT:    -3.593     11.166     12.336
REMARK INTER + INTRA:          -5.319
REMARK INTER:                  -5.215
REMARK INTRA:                  -0.104
REMARK UNBOUND:                -0.256
REMARK SMILES CCCCCCCCC(=O)[O-]
REMARK SMILES IDX 6 1 7 2 8 3 9 4 10 5 11 6 5 7 4 8 3 9 2 10 1 11
REMARK H PARENT
REMARK Flexibility Score: inf
ROOT
ATOM      1  C   UNL     1     -18.552  33.131  -9.896  1.00  0.00     0.000 C 
ENDROOT
BRANCH   1   2
ATOM      2  C   UNL     1     -18.106  33.963 -11.107  1.00  0.00     0.006 C 
BRANCH   2   3
ATOM      3  C   UNL     1     -17.085  33.221 -11.978  1.00  0.00     0.053 C 
BRANCH   3   4
ATOM      4  C   UNL     1     -15.678  33.596 -11.625  1.00  0.00     0.041 C 
ATOM      5  O   UNL     1     -14.819  33.759 -12.531  1.00  0.00    -0.550 OA
ATOM      6  O   UNL     1     -15.325  33.796 -10.297  1.00  0.00    -0.550 OA
ENDBRANCH   3   4
ENDBRANCH   2   3
ENDBRANCH   1   2
BRANCH   1   7
ATOM      7  C   UNL     1     -19.128  34.028  -8.794  1.00  0.00     0.000 C 
BRANCH   7   8
ATOM      8  C   UNL     1     -20.250  33.312  -8.031  1.00  0.00    -0.000 C 
BRANCH   8   9
ATOM      9  C   UNL     1     -21.388  34.281  -7.689  1.00  0.00    -0.000 C 
BRANCH   9  10
ATOM     10  C   UNL     1     -22.666  33.520  -7.320  1.00  0.00    -0.003 C 
ATOM     11  C   UNL     1     -23.910  34.292  -7.749  1.00  0.00     0.004 C 
ENDBRANCH   9  10
ENDBRANCH   8   9
ENDBRANCH   7   8
ENDBRANCH   1   7
TORSDOF 7
ENDMDL
MODEL 8
REMARK VINA RESULT:    -3.579      2.635      4.928
REMARK INTER + INTRA:          -5.299
REMARK INTER:                  -5.143
REMARK INTRA:                  -0.156
REMARK UNBOUND:                -0.256
REMARK SMILES CCCCCCCCC(=O)[O-]
REMARK SMILES IDX 6 1 7 2 8 3 9 4 10 5 11 6 5 7 4 8 3 9 2 10 1 11
REMARK H PARENT
REMARK Flexibility Score: inf
ROOT
ATOM      1  C   UNL     1     -23.233  25.369  -3.298  1.00  0.00     0.000 C 
ENDROOT
BRANCH   1   2
ATOM      2  C   UNL     1     -23.419  25.401  -4.821  1.00  0.00     0.006 C 
BRANCH   2   3
ATOM      3  C   UNL     1     -22.269  26.127  -5.532  1.00  0.00     0.053 C 
BRANCH   3   4
ATOM      4  C   UNL     1     -21.752  25.339  -6.697  1.00  0.00     0.041 C 
ATOM      5  O   UNL     1     -22.337  25.396  -7.811  1.00  0.00    -0.550 OA
ATOM      6  O   UNL     1     -20.606  24.568  -6.560  1.00  0.00    -0.550 OA
ENDBRANCH   3   4
ENDBRANCH   2   3
ENDBRANCH   1   2
BRANCH   1   7
ATOM      7  C   UNL     1     -21.805  24.951  -2.926  1.00  0.00     0.000 C 
BRANCH   7   8
ATOM      8  C   UNL     1     -21.616  23.437  -3.083  1.00  0.00    -0.000 C 
BRANCH   8   9
ATOM      9  C   UNL     1     -20.435  23.123  -4.008  1.00  0.00    -0.000 C 
BRANCH   9  10
ATOM     10  C   UNL     1     -20.099  21.628  -3.983  1.00  0.00    -0.003 C 
ATOM     11  C   UNL     1     -20.397  21.019  -2.617  1.00  0.00     0.004 C 
ENDBRANCH   9  10
ENDBRANCH   8   9
ENDBRANCH   7   8
ENDBRANCH   1   7
TORSDOF 7
ENDMDL
