MODEL 1
REMARK VINA RESULT:    -6.314      0.000      0.000
REMARK INTER + INTRA:          -6.778
REMARK INTER:                  -6.683
REMARK INTRA:                  -0.095
REMARK UNBOUND:                -0.095
REMARK SMILES C=C(C)[C@@H]1CC=C(C)C(=O)C1
REMARK SMILES IDX 8 1 7 2 6 3 5 4 4 5 11 6 9 7 10 8 2 9 1 10 3 11
REMARK H PARENT
REMARK Flexibility Score: inf
ROOT
ATOM      1  C   UNL     1      -7.129  33.115  19.840  1.00  0.00     0.048 C 
ATOM      2  C   UNL     1      -7.589  33.361  21.250  1.00  0.00    -0.012 C 
ATOM      3  C   UNL     1      -7.527  34.600  21.768  1.00  0.00    -0.019 C 
ATOM      4  C   UNL     1      -7.991  34.906  23.167  1.00  0.00     0.036 C 
ATOM      5  C   UNL     1      -7.754  33.706  24.104  1.00  0.00     0.025 C 
ATOM      6  C   UNL     1      -8.420  32.441  23.531  1.00  0.00     0.089 C 
ATOM      7  C   UNL     1      -7.994  32.219  22.107  1.00  0.00     0.158 C 
ATOM      8  O   UNL     1      -8.019  31.050  21.633  1.00  0.00    -0.295 OA
ENDROOT
BRANCH   5   9
ATOM      9  C   UNL     1      -8.228  33.998  25.522  1.00  0.00    -0.077 C 
ATOM     10  C   UNL     1      -8.288  35.255  25.995  1.00  0.00     0.008 C 
ATOM     11  C   UNL     1      -8.644  32.867  26.427  1.00  0.00     0.039 C 
ENDBRANCH   5   9
TORSDOF 1
ENDMDL
MODEL 2
REMARK VINA RESULT:    -6.122      1.947      3.383
REMARK INTER + INTRA:          -6.575
REMARK INTER:                  -6.484
REMARK INTRA:                  -0.091
REMARK UNBOUND:                -0.095
REMARK SMILES C=C(C)[C@@H]1CC=C(C)C(=O)C1
REMARK SMILES IDX 8 1 7 2 6 3 5 4 4 5 11 6 9 7 10 8 2 9 1 10 3 11
REMARK H PARENT
REMARK Flexibility Score: inf
ROOT
ATOM      1  C   UNL     1      -8.555  28.250  22.095  1.00  0.00     0.048 C 
ATOM      2  C   UNL     1      -8.218  29.701  22.303  1.00  0.00    -0.012 C 
ATOM      3  C   UNL     1      -7.418  30.063  23.321  1.00  0.00    -0.019 C 
ATOM      4  C   UNL     1      -7.033  31.499  23.564  1.00  0.00     0.036 C 
ATOM      5  C   UNL     1      -8.168  32.454  23.146  1.00  0.00     0.025 C 
ATOM      6  C   UNL     1      -8.570  32.197  21.681  1.00  0.00     0.089 C 
ATOM      7  C   UNL     1      -8.865  30.739  21.462  1.00  0.00     0.158 C 
ATOM      8  O   UNL     1      -9.644  30.403  20.529  1.00  0.00    -0.295 OA
ENDROOT
BRANCH   5   9
ATOM      9  C   UNL     1      -7.788  33.911  23.376  1.00  0.00    -0.077 C 
ATOM     10  C   UNL     1      -7.689  34.421  24.616  1.00  0.00     0.008 C 
ATOM     11  C   UNL     1      -7.514  34.816  22.202  1.00  0.00     0.039 C 
ENDBRANCH   5   9
TORSDOF 1
ENDMDL
MODEL 3
REMARK VINA RESULT:    -5.976      1.771      4.264
REMARK INTER + INTRA:          -6.420
REMARK INTER:                  -6.322
REMARK INTRA:                  -0.098
REMARK UNBOUND:                -0.095
REMARK SMILES C=C(C)[C@@H]1CC=C(C)C(=O)C1
REMARK SMILES IDX 8 1 7 2 6 3 5 4 4 5 11 6 9 7 10 8 2 9 1 10 3 11
REMARK H PARENT
REMARK Flexibility Score: inf
ROOT
ATOM      1  C   UNL     1      -9.482  29.336  25.096  1.00  0.00     0.048 C 
ATOM      2  C   UNL     1      -8.839  30.356  24.198  1.00  0.00    -0.012 C 
ATOM      3  C   UNL     1      -8.920  31.663  24.504  1.00  0.00    -0.019 C 
ATOM      4  C   UNL     1      -8.280  32.725  23.650  1.00  0.00     0.036 C 
ATOM      5  C   UNL     1      -8.283  32.317  22.164  1.00  0.00     0.025 C 
ATOM      6  C   UNL     1      -7.613  30.942  21.986  1.00  0.00     0.089 C 
ATOM      7  C   UNL     1      -8.225  29.931  22.915  1.00  0.00     0.158 C 
ATOM      8  O   UNL     1      -8.179  28.709  22.610  1.00  0.00    -0.295 OA
ENDROOT
BRANCH   5   9
ATOM      9  C   UNL     1      -7.629  33.379  21.289  1.00  0.00    -0.077 C 
ATOM     10  C   UNL     1      -7.111  33.073  20.087  1.00  0.00     0.008 C 
ATOM     11  C   UNL     1      -7.552  34.807  21.764  1.00  0.00     0.039 C 
ENDBRANCH   5   9
TORSDOF 1
ENDMDL
MODEL 4
REMARK VINA RESULT:    -5.944      2.202      4.510
REMARK INTER + INTRA:          -6.387
REMARK INTER:                  -6.290
REMARK INTRA:                  -0.097
REMARK UNBOUND:                -0.095
REMARK SMILES C=C(C)[C@@H]1CC=C(C)C(=O)C1
REMARK SMILES IDX 8 1 7 2 6 3 5 4 4 5 11 6 9 7 10 8 2 9 1 10 3 11
REMARK H PARENT
REMARK Flexibility Score: inf
ROOT
ATOM      1  C   UNL     1      -7.900  30.137  26.689  1.00  0.00     0.048 C 
ATOM      2  C   UNL     1      -8.004  30.967  25.440  1.00  0.00    -0.012 C 
ATOM      3  C   UNL     1      -7.499  30.502  24.284  1.00  0.00    -0.019 C 
ATOM      4  C   UNL     1      -7.592  31.283  22.999  1.00  0.00     0.036 C 
ATOM      5  C   UNL     1      -7.536  32.799  23.268  1.00  0.00     0.025 C 
ATOM      6  C   UNL     1      -8.628  33.203  24.277  1.00  0.00     0.089 C 
ATOM      7  C   UNL     1      -8.552  32.345  25.509  1.00  0.00     0.158 C 
ATOM      8  O   UNL     1      -8.994  32.796  26.601  1.00  0.00    -0.295 OA
ENDROOT
BRANCH   5   9
ATOM      9  C   UNL     1      -7.640  33.602  21.977  1.00  0.00    -0.077 C 
ATOM     10  C   UNL     1      -7.845  34.930  21.994  1.00  0.00     0.008 C 
ATOM     11  C   UNL     1      -7.511  32.910  20.645  1.00  0.00     0.039 C 
ENDBRANCH   5   9
TORSDOF 1
ENDMDL
MODEL 5
REMARK VINA RESULT:    -5.929      1.645      4.344
REMARK INTER + INTRA:          -6.371
REMARK INTER:                  -6.278
REMARK INTRA:                  -0.094
REMARK UNBOUND:                -0.095
REMARK SMILES C=C(C)[C@@H]1CC=C(C)C(=O)C1
REMARK SMILES IDX 8 1 7 2 6 3 5 4 4 5 11 6 9 7 10 8 2 9 1 10 3 11
REMARK H PARENT
REMARK Flexibility Score: inf
ROOT
ATOM      1  C   UNL     1      -8.329  34.937  26.290  1.00  0.00     0.048 C 
ATOM      2  C   UNL     1      -8.166  34.291  24.942  1.00  0.00    -0.012 C 
ATOM      3  C   UNL     1      -8.072  35.056  23.840  1.00  0.00    -0.019 C 
ATOM      4  C   UNL     1      -7.890  34.463  22.468  1.00  0.00     0.036 C 
ATOM      5  C   UNL     1      -8.597  33.099  22.356  1.00  0.00     0.025 C 
ATOM      6  C   UNL     1      -8.112  32.153  23.471  1.00  0.00     0.089 C 
ATOM      7  C   UNL     1      -8.234  32.814  24.815  1.00  0.00     0.158 C 
ATOM      8  O   UNL     1      -8.358  32.095  25.844  1.00  0.00    -0.295 OA
ENDROOT
BRANCH   5   9
ATOM      9  C   UNL     1      -8.412  32.482  20.976  1.00  0.00    -0.077 C 
ATOM     10  C   UNL     1      -9.239  31.526  20.519  1.00  0.00     0.008 C 
ATOM     11  C   UNL     1      -7.284  32.941  20.088  1.00  0.00     0.039 C 
ENDBRANCH   5   9
TORSDOF 1
ENDMDL
MODEL 6
REMARK VINA RESULT:    -5.912      2.105      3.312
REMARK INTER + INTRA:          -6.353
REMARK INTER:                  -6.257
REMARK INTRA:                  -0.096
REMARK UNBOUND:                -0.095
REMARK SMILES C=C(C)[C@@H]1CC=C(C)C(=O)C1
REMARK SMILES IDX 8 1 7 2 6 3 5 4 4 5 11 6 9 7 10 8 2 9 1 10 3 11
REMARK H PARENT
REMARK Flexibility Score: inf
ROOT
ATOM      1  C   UNL     1      -8.353  28.216  22.362  1.00  0.00     0.048 C 
ATOM      2  C   UNL     1      -8.344  29.696  22.631  1.00  0.00    -0.012 C 
ATOM      3  C   UNL     1      -7.782  30.534  21.742  1.00  0.00    -0.019 C 
ATOM      4  C   UNL     1      -7.760  32.025  21.952  1.00  0.00     0.036 C 
ATOM      5  C   UNL     1      -7.665  32.372  23.451  1.00  0.00     0.025 C 
ATOM      6  C   UNL     1      -8.804  31.688  24.231  1.00  0.00     0.089 C 
ATOM      7  C   UNL     1      -8.842  30.216  23.929  1.00  0.00     0.158 C 
ATOM      8  O   UNL     1      -9.337  29.426  24.779  1.00  0.00    -0.295 OA
ENDROOT
BRANCH   5   9
ATOM      9  C   UNL     1      -7.653  33.878  23.679  1.00  0.00    -0.077 C 
ATOM     10  C   UNL     1      -7.511  34.739  22.658  1.00  0.00     0.008 C 
ATOM     11  C   UNL     1      -7.802  34.432  25.073  1.00  0.00     0.039 C 
ENDBRANCH   5   9
TORSDOF 1
ENDMDL
MODEL 7
REMARK VINA RESULT:    -5.808      1.669      2.473
REMARK INTER + INTRA:          -6.243
REMARK INTER:                  -6.145
REMARK INTRA:                  -0.098
REMARK UNBOUND:                -0.095
REMARK SMILES C=C(C)[C@@H]1CC=C(C)C(=O)C1
REMARK SMILES IDX 8 1 7 2 6 3 5 4 4 5 11 6 9 7 10 8 2 9 1 10 3 11
REMARK H PARENT
REMARK Flexibility Score: inf
ROOT
ATOM      1  C   UNL     1      -7.498  32.918  20.075  1.00  0.00     0.048 C 
ATOM      2  C   UNL     1      -7.531  32.655  21.555  1.00  0.00    -0.012 C 
ATOM      3  C   UNL     1      -7.521  31.390  22.010  1.00  0.00    -0.019 C 
ATOM      4  C   UNL     1      -7.534  31.069  23.481  1.00  0.00     0.036 C 
ATOM      5  C   UNL     1      -8.328  32.127  24.272  1.00  0.00     0.025 C 
ATOM      6  C   UNL     1      -7.773  33.536  23.985  1.00  0.00     0.089 C 
ATOM      7  C   UNL     1      -7.699  33.783  22.504  1.00  0.00     0.158 C 
ATOM      8  O   UNL     1      -7.745  34.969  22.076  1.00  0.00    -0.295 OA
ENDROOT
BRANCH   5   9
ATOM      9  C   UNL     1      -8.341  31.821  25.764  1.00  0.00    -0.077 C 
ATOM     10  C   UNL     1      -8.701  32.751  26.666  1.00  0.00     0.008 C 
ATOM     11  C   UNL     1      -7.947  30.453  26.258  1.00  0.00     0.039 C 
ENDBRANCH   5   9
TORSDOF 1
ENDMDL
MODEL 8
REMARK VINA RESULT:    -5.693      1.975      4.799
REMARK INTER + INTRA:          -6.121
REMARK INTER:                  -6.025
REMARK INTRA:                  -0.096
REMARK UNBOUND:                -0.095
REMARK SMILES C=C(C)[C@@H]1CC=C(C)C(=O)C1
REMARK SMILES IDX 8 1 7 2 6 3 5 4 4 5 11 6 9 7 10 8 2 9 1 10 3 11
REMARK H PARENT
REMARK Flexibility Score: inf
ROOT
ATOM      1  C   UNL     1      -8.341  32.942  27.193  1.00  0.00     0.048 C 
ATOM      2  C   UNL     1      -8.502  32.924  25.698  1.00  0.00    -0.012 C 
ATOM      3  C   UNL     1      -9.006  31.834  25.092  1.00  0.00    -0.019 C 
ATOM      4  C   UNL     1      -9.205  31.769  23.601  1.00  0.00     0.036 C 
ATOM      5  C   UNL     1      -8.130  32.589  22.862  1.00  0.00     0.025 C 
ATOM      6  C   UNL     1      -8.109  34.037  23.386  1.00  0.00     0.089 C 
ATOM      7  C   UNL     1      -7.992  34.056  24.884  1.00  0.00     0.158 C 
ATOM      8  O   UNL     1      -7.486  35.064  25.449  1.00  0.00    -0.295 OA
ENDROOT
BRANCH   5   9
ATOM      9  C   UNL     1      -8.326  32.540  21.352  1.00  0.00    -0.077 C 
ATOM     10  C   UNL     1      -9.312  31.815  20.797  1.00  0.00     0.008 C 
ATOM     11  C   UNL     1      -7.404  33.315  20.445  1.00  0.00     0.039 C 
ENDBRANCH   5   9
TORSDOF 1
ENDMDL
MODEL 9
REMARK VINA RESULT:    -5.657      2.393      3.922
REMARK INTER + INTRA:          -6.083
REMARK INTER:                  -5.987
REMARK INTRA:                  -0.096
REMARK UNBOUND:                -0.095
REMARK SMILES C=C(C)[C@@H]1CC=C(C)C(=O)C1
REMARK SMILES IDX 8 1 7 2 6 3 5 4 4 5 11 6 9 7 10 8 2 9 1 10 3 11
REMARK H PARENT
REMARK Flexibility Score: inf
ROOT
ATOM      1  C   UNL     1      -7.526  35.003  21.980  1.00  0.00     0.048 C 
ATOM      2  C   UNL     1      -7.650  33.535  22.279  1.00  0.00    -0.012 C 
ATOM      3  C   UNL     1      -7.857  32.662  21.277  1.00  0.00    -0.019 C 
ATOM      4  C   UNL     1      -7.970  31.180  21.518  1.00  0.00     0.036 C 
ATOM      5  C   UNL     1      -8.611  30.889  22.889  1.00  0.00     0.025 C 
ATOM      6  C   UNL     1      -7.830  31.605  24.007  1.00  0.00     0.089 C 
ATOM      7  C   UNL     1      -7.668  33.065  23.687  1.00  0.00     0.158 C 
ATOM      8  O   UNL     1      -7.509  33.887  24.631  1.00  0.00    -0.295 OA
ENDROOT
BRANCH   5   9
ATOM      9  C   UNL     1      -8.723  29.393  23.151  1.00  0.00    -0.077 C 
ATOM     10  C   UNL     1      -8.261  28.492  22.268  1.00  0.00     0.008 C 
ATOM     11  C   UNL     1      -9.362  28.894  24.422  1.00  0.00     0.039 C 
ENDBRANCH   5   9
TORSDOF 1
ENDMDL
