MODEL 1
REMARK VINA RESULT:    -3.487      0.000      0.000
REMARK INTER + INTRA:          -5.197
REMARK INTER:                  -4.710
REMARK INTRA:                  -0.486
REMARK UNBOUND:                -0.486
REMARK SMILES [NH3+]CCCC[C@H]([NH3+])C(=O)[O-]
REMARK SMILES IDX 4 1 3 2 2 3 1 4 5 8 6 9 7 10 8 14 9 15 10 16
REMARK H PARENT 1 5 1 6 1 7 7 11 7 12 7 13
REMARK Flexibility Score: inf
ROOT
ATOM      1  C   UNL     1      68.582  -2.953   2.184  1.00  0.00     0.012 C 
ENDROOT
BRANCH   1   2
ATOM      2  C   UNL     1      68.258  -1.616   2.872  1.00  0.00     0.061 C 
BRANCH   2   3
ATOM      3  C   UNL     1      67.732  -1.803   4.306  1.00  0.00     0.258 C 
BRANCH   3   4
ATOM      4  N   UNL     1      66.339  -1.376   4.446  1.00  0.00    -0.358 N 
ATOM      5  H   UNL     1      66.319  -0.376   4.751  1.00  0.00     0.344 HD
ATOM      6  H   UNL     1      65.849  -1.956   5.166  1.00  0.00     0.344 HD
ATOM      7  H   UNL     1      65.842  -1.449   3.529  1.00  0.00     0.344 HD
ENDBRANCH   3   4
ENDBRANCH   2   3
ENDBRANCH   1   2
BRANCH   1   8
ATOM      8  C   UNL     1      67.514  -3.357   1.144  1.00  0.00     0.072 C 
BRANCH   8   9
ATOM      9  C   UNL     1      66.587  -4.500   1.622  1.00  0.00     0.227 C 
BRANCH   9  10
ATOM     10  N   UNL     1      66.242  -5.381   0.500  1.00  0.00    -0.350 N 
ATOM     11  H   UNL     1      65.333  -5.080   0.079  1.00  0.00     0.345 HD
ATOM     12  H   UNL     1      66.156  -6.373   0.822  1.00  0.00     0.345 HD
ATOM     13  H   UNL     1      66.978  -5.321  -0.240  1.00  0.00     0.345 HD
ENDBRANCH   9  10
BRANCH   9  14
ATOM     14  C   UNL     1      65.331  -3.962   2.253  1.00  0.00     0.099 C 
ATOM     15  O   UNL     1      64.465  -3.384   1.546  1.00  0.00    -0.544 OA
ATOM     16  O   UNL     1      65.113  -4.110   3.617  1.00  0.00    -0.544 OA
ENDBRANCH   9  14
ENDBRANCH   8   9
ENDBRANCH   1   8
TORSDOF 7
ENDMDL
MODEL 2
REMARK VINA RESULT:    -3.480      2.676      4.557
REMARK INTER + INTRA:          -5.188
REMARK INTER:                  -5.119
REMARK INTRA:                  -0.069
REMARK UNBOUND:                -0.486
REMARK SMILES [NH3+]CCCC[C@H]([NH3+])C(=O)[O-]
REMARK SMILES IDX 4 1 3 2 2 3 1 4 5 8 6 9 7 10 8 14 9 15 10 16
REMARK H PARENT 1 5 1 6 1 7 7 11 7 12 7 13
REMARK Flexibility Score: inf
ROOT
ATOM      1  C   UNL     1      65.291  -3.791   2.351  1.00  0.00     0.012 C 
ENDROOT
BRANCH   1   2
ATOM      2  C   UNL     1      66.377  -4.006   1.284  1.00  0.00     0.061 C 
BRANCH   2   3
ATOM      3  C   UNL     1      66.757  -5.488   1.120  1.00  0.00     0.258 C 
BRANCH   3   4
ATOM      4  N   UNL     1      66.774  -5.904  -0.283  1.00  0.00    -0.358 N 
ATOM      5  H   UNL     1      66.260  -5.195  -0.854  1.00  0.00     0.344 HD
ATOM      6  H   UNL     1      66.301  -6.831  -0.395  1.00  0.00     0.344 HD
ATOM      7  H   UNL     1      67.757  -5.959  -0.635  1.00  0.00     0.344 HD
ENDBRANCH   3   4
ENDBRANCH   2   3
ENDBRANCH   1   2
BRANCH   1   8
ATOM      8  C   UNL     1      65.722  -2.785   3.441  1.00  0.00     0.072 C 
BRANCH   8   9
ATOM      9  C   UNL     1      64.585  -2.408   4.420  1.00  0.00     0.227 C 
BRANCH   9  10
ATOM     10  N   UNL     1      63.450  -1.833   3.689  1.00  0.00    -0.350 N 
ATOM     11  H   UNL     1      62.604  -2.435   3.817  1.00  0.00     0.345 HD
ATOM     12  H   UNL     1      63.666  -1.761   2.667  1.00  0.00     0.345 HD
ATOM     13  H   UNL     1      63.231  -0.881   4.063  1.00  0.00     0.345 HD
ENDBRANCH   9  10
BRANCH   9  14
ATOM     14  C   UNL     1      65.062  -1.438   5.468  1.00  0.00     0.099 C 
ATOM     15  O   UNL     1      66.292  -1.316   5.706  1.00  0.00    -0.544 OA
ATOM     16  O   UNL     1      64.148  -0.662   6.171  1.00  0.00    -0.544 OA
ENDBRANCH   9  14
ENDBRANCH   8   9
ENDBRANCH   1   8
TORSDOF 7
ENDMDL
MODEL 3
REMARK VINA RESULT:    -3.466      2.386      3.894
REMARK INTER + INTRA:          -5.168
REMARK INTER:                  -5.054
REMARK INTRA:                  -0.114
REMARK UNBOUND:                -0.486
REMARK SMILES [NH3+]CCCC[C@H]([NH3+])C(=O)[O-]
REMARK SMILES IDX 4 1 3 2 2 3 1 4 5 8 6 9 7 10 8 14 9 15 10 16
REMARK H PARENT 1 5 1 6 1 7 7 11 7 12 7 13
REMARK Flexibility Score: inf
ROOT
ATOM      1  C   UNL     1      65.900  -3.647   1.988  1.00  0.00     0.012 C 
ENDROOT
BRANCH   1   2
ATOM      2  C   UNL     1      67.095  -3.987   1.081  1.00  0.00     0.061 C 
BRANCH   2   3
ATOM      3  C   UNL     1      67.001  -5.402   0.486  1.00  0.00     0.258 C 
BRANCH   3   4
ATOM      4  N   UNL     1      65.684  -6.005   0.697  1.00  0.00    -0.358 N 
ATOM      5  H   UNL     1      65.703  -6.993   0.353  1.00  0.00     0.344 HD
ATOM      6  H   UNL     1      64.952  -5.480   0.165  1.00  0.00     0.344 HD
ATOM      7  H   UNL     1      65.447  -6.017   1.715  1.00  0.00     0.344 HD
ENDBRANCH   3   4
ENDBRANCH   2   3
ENDBRANCH   1   2
BRANCH   1   8
ATOM      8  C   UNL     1      66.305  -2.783   3.202  1.00  0.00     0.072 C 
BRANCH   8   9
ATOM      9  C   UNL     1      65.334  -2.906   4.400  1.00  0.00     0.227 C 
BRANCH   9  10
ATOM     10  N   UNL     1      64.607  -4.180   4.341  1.00  0.00    -0.350 N 
ATOM     11  H   UNL     1      63.616  -4.037   4.642  1.00  0.00     0.345 HD
ATOM     12  H   UNL     1      65.055  -4.890   4.966  1.00  0.00     0.345 HD
ATOM     13  H   UNL     1      64.600  -4.541   3.359  1.00  0.00     0.345 HD
ENDBRANCH   9  10
BRANCH   9  14
ATOM     14  C   UNL     1      64.356  -1.762   4.436  1.00  0.00     0.099 C 
ATOM     15  O   UNL     1      63.529  -1.607   3.499  1.00  0.00    -0.544 OA
ATOM     16  O   UNL     1      64.351  -0.878   5.508  1.00  0.00    -0.544 OA
ENDBRANCH   9  14
ENDBRANCH   8   9
ENDBRANCH   1   8
TORSDOF 7
ENDMDL
MODEL 4
REMARK VINA RESULT:    -3.460      2.200      2.767
REMARK INTER + INTRA:          -5.160
REMARK INTER:                  -4.892
REMARK INTRA:                  -0.268
REMARK UNBOUND:                -0.486
REMARK SMILES [NH3+]CCCC[C@H]([NH3+])C(=O)[O-]
REMARK SMILES IDX 4 1 3 2 2 3 1 4 5 8 6 9 7 10 8 14 9 15 10 16
REMARK H PARENT 1 5 1 6 1 7 7 11 7 12 7 13
REMARK Flexibility Score: inf
ROOT
ATOM      1  C   UNL     1      66.638  -3.472   1.656  1.00  0.00     0.012 C 
ENDROOT
BRANCH   1   2
ATOM      2  C   UNL     1      67.727  -3.296   2.727  1.00  0.00     0.061 C 
BRANCH   2   3
ATOM      3  C   UNL     1      68.569  -2.027   2.508  1.00  0.00     0.258 C 
BRANCH   3   4
ATOM      4  N   UNL     1      68.083  -0.895   3.298  1.00  0.00    -0.358 N 
ATOM      5  H   UNL     1      67.183  -0.556   2.887  1.00  0.00     0.344 HD
ATOM      6  H   UNL     1      68.776  -0.112   3.280  1.00  0.00     0.344 HD
ATOM      7  H   UNL     1      67.902  -1.191   4.285  1.00  0.00     0.344 HD
ENDBRANCH   3   4
ENDBRANCH   2   3
ENDBRANCH   1   2
BRANCH   1   8
ATOM      8  C   UNL     1      65.220  -3.567   2.262  1.00  0.00     0.072 C 
BRANCH   8   9
ATOM      9  C   UNL     1      65.175  -3.267   3.778  1.00  0.00     0.227 C 
BRANCH   9  10
ATOM     10  N   UNL     1      64.575  -4.393   4.505  1.00  0.00    -0.350 N 
ATOM     11  H   UNL     1      63.784  -4.792   3.949  1.00  0.00     0.345 HD
ATOM     12  H   UNL     1      64.216  -4.082   5.437  1.00  0.00     0.345 HD
ATOM     13  H   UNL     1      65.287  -5.147   4.643  1.00  0.00     0.345 HD
ENDBRANCH   9  10
BRANCH   9  14
ATOM     14  C   UNL     1      64.404  -2.006   4.067  1.00  0.00     0.099 C 
ATOM     15  O   UNL     1      63.447  -1.664   3.323  1.00  0.00    -0.544 OA
ATOM     16  O   UNL     1      64.734  -1.218   5.162  1.00  0.00    -0.544 OA
ENDBRANCH   9  14
ENDBRANCH   8   9
ENDBRANCH   1   8
TORSDOF 7
ENDMDL
MODEL 5
REMARK VINA RESULT:    -3.451      2.061      2.792
REMARK INTER + INTRA:          -5.148
REMARK INTER:                  -4.652
REMARK INTRA:                  -0.496
REMARK UNBOUND:                -0.486
REMARK SMILES [NH3+]CCCC[C@H]([NH3+])C(=O)[O-]
REMARK SMILES IDX 4 1 3 2 2 3 1 4 5 8 6 9 7 10 8 14 9 15 10 16
REMARK H PARENT 1 5 1 6 1 7 7 11 7 12 7 13
REMARK Flexibility Score: inf
ROOT
ATOM      1  C   UNL     1      64.966  -4.235   4.261  1.00  0.00     0.012 C 
ENDROOT
BRANCH   1   2
ATOM      2  C   UNL     1      64.671  -2.731   4.123  1.00  0.00     0.061 C 
BRANCH   2   3
ATOM      3  C   UNL     1      65.463  -1.880   5.130  1.00  0.00     0.258 C 
BRANCH   3   4
ATOM      4  N   UNL     1      66.702  -1.351   4.556  1.00  0.00    -0.358 N 
ATOM      5  H   UNL     1      66.563  -0.342   4.321  1.00  0.00     0.344 HD
ATOM      6  H   UNL     1      66.949  -1.869   3.682  1.00  0.00     0.344 HD
ATOM      7  H   UNL     1      67.482  -1.423   5.248  1.00  0.00     0.344 HD
ENDBRANCH   3   4
ENDBRANCH   2   3
ENDBRANCH   1   2
BRANCH   1   8
ATOM      8  C   UNL     1      66.068  -4.714   3.291  1.00  0.00     0.072 C 
BRANCH   8   9
ATOM      9  C   UNL     1      65.890  -4.191   1.846  1.00  0.00     0.227 C 
BRANCH   9  10
ATOM     10  N   UNL     1      65.560  -5.298   0.939  1.00  0.00    -0.350 N 
ATOM     11  H   UNL     1      65.560  -4.957  -0.050  1.00  0.00     0.345 HD
ATOM     12  H   UNL     1      64.617  -5.691   1.165  1.00  0.00     0.345 HD
ATOM     13  H   UNL     1      66.279  -6.053   1.022  1.00  0.00     0.345 HD
ENDBRANCH   9  10
BRANCH   9  14
ATOM     14  C   UNL     1      67.128  -3.485   1.360  1.00  0.00     0.099 C 
ATOM     15  O   UNL     1      67.587  -3.729   0.213  1.00  0.00    -0.544 OA
ATOM     16  O   UNL     1      67.766  -2.552   2.168  1.00  0.00    -0.544 OA
ENDBRANCH   9  14
ENDBRANCH   8   9
ENDBRANCH   1   8
TORSDOF 7
ENDMDL
MODEL 6
REMARK VINA RESULT:    -3.387      2.052      4.238
REMARK INTER + INTRA:          -5.061
REMARK INTER:                  -4.883
REMARK INTRA:                  -0.178
REMARK UNBOUND:                -0.486
REMARK SMILES [NH3+]CCCC[C@H]([NH3+])C(=O)[O-]
REMARK SMILES IDX 4 1 3 2 2 3 1 4 5 8 6 9 7 10 8 14 9 15 10 16
REMARK H PARENT 1 5 1 6 1 7 7 11 7 12 7 13
REMARK Flexibility Score: inf
ROOT
ATOM      1  C   UNL     1      65.583  -4.699   3.083  1.00  0.00     0.012 C 
ENDROOT
BRANCH   1   2
ATOM      2  C   UNL     1      65.818  -3.893   1.795  1.00  0.00     0.061 C 
BRANCH   2   3
ATOM      3  C   UNL     1      66.992  -4.438   0.964  1.00  0.00     0.258 C 
BRANCH   3   4
ATOM      4  N   UNL     1      66.596  -5.565   0.118  1.00  0.00    -0.358 N 
ATOM      5  H   UNL     1      65.709  -5.322  -0.379  1.00  0.00     0.344 HD
ATOM      6  H   UNL     1      66.432  -6.419   0.700  1.00  0.00     0.344 HD
ATOM      7  H   UNL     1      67.332  -5.757  -0.600  1.00  0.00     0.344 HD
ENDBRANCH   3   4
ENDBRANCH   2   3
ENDBRANCH   1   2
BRANCH   1   8
ATOM      8  C   UNL     1      65.539  -3.806   4.342  1.00  0.00     0.072 C 
BRANCH   8   9
ATOM      9  C   UNL     1      65.438  -2.296   4.026  1.00  0.00     0.227 C 
BRANCH   9  10
ATOM     10  N   UNL     1      66.347  -1.530   4.888  1.00  0.00    -0.350 N 
ATOM     11  H   UNL     1      66.269  -1.870   5.874  1.00  0.00     0.345 HD
ATOM     12  H   UNL     1      66.112  -0.511   4.858  1.00  0.00     0.345 HD
ATOM     13  H   UNL     1      67.335  -1.666   4.574  1.00  0.00     0.345 HD
ENDBRANCH   9  10
BRANCH   9  14
ATOM     14  C   UNL     1      64.029  -1.791   4.194  1.00  0.00     0.099 C 
ATOM     15  O   UNL     1      63.575  -1.554   5.344  1.00  0.00    -0.544 OA
ATOM     16  O   UNL     1      63.225  -1.572   3.082  1.00  0.00    -0.544 OA
ENDBRANCH   9  14
ENDBRANCH   8   9
ENDBRANCH   1   8
TORSDOF 7
ENDMDL
MODEL 7
REMARK VINA RESULT:    -3.309      2.155      2.473
REMARK INTER + INTRA:          -4.957
REMARK INTER:                  -4.794
REMARK INTRA:                  -0.162
REMARK UNBOUND:                -0.486
REMARK SMILES [NH3+]CCCC[C@H]([NH3+])C(=O)[O-]
REMARK SMILES IDX 4 1 3 2 2 3 1 4 5 8 6 9 7 10 8 14 9 15 10 16
REMARK H PARENT 1 5 1 6 1 7 7 11 7 12 7 13
REMARK Flexibility Score: inf
ROOT
ATOM      1  C   UNL     1      66.873  -3.213   2.309  1.00  0.00     0.012 C 
ENDROOT
BRANCH   1   2
ATOM      2  C   UNL     1      66.257  -2.638   3.595  1.00  0.00     0.061 C 
BRANCH   2   3
ATOM      3  C   UNL     1      64.729  -2.810   3.646  1.00  0.00     0.258 C 
BRANCH   3   4
ATOM      4  N   UNL     1      64.039  -1.555   3.947  1.00  0.00    -0.358 N 
ATOM      5  H   UNL     1      64.023  -1.416   4.983  1.00  0.00     0.344 HD
ATOM      6  H   UNL     1      63.053  -1.588   3.598  1.00  0.00     0.344 HD
ATOM      7  H   UNL     1      64.545  -0.749   3.515  1.00  0.00     0.344 HD
ENDBRANCH   3   4
ENDBRANCH   2   3
ENDBRANCH   1   2
BRANCH   1   8
ATOM      8  C   UNL     1      65.906  -4.153   1.557  1.00  0.00     0.072 C 
BRANCH   8   9
ATOM      9  C   UNL     1      66.480  -5.569   1.319  1.00  0.00     0.227 C 
BRANCH   9  10
ATOM     10  N   UNL     1      66.681  -5.805  -0.116  1.00  0.00    -0.350 N 
ATOM     11  H   UNL     1      66.360  -6.769  -0.365  1.00  0.00     0.345 HD
ATOM     12  H   UNL     1      67.692  -5.706  -0.368  1.00  0.00     0.345 HD
ATOM     13  H   UNL     1      66.118  -5.121  -0.672  1.00  0.00     0.345 HD
ENDBRANCH   9  10
BRANCH   9  14
ATOM     14  C   UNL     1      65.577  -6.631   1.889  1.00  0.00     0.099 C 
ATOM     15  O   UNL     1      64.916  -7.379   1.121  1.00  0.00    -0.544 OA
ATOM     16  O   UNL     1      65.477  -6.802   3.264  1.00  0.00    -0.544 OA
ENDBRANCH   9  14
ENDBRANCH   8   9
ENDBRANCH   1   8
TORSDOF 7
ENDMDL
MODEL 8
REMARK VINA RESULT:    -3.201      1.850      3.116
REMARK INTER + INTRA:          -4.810
REMARK INTER:                  -4.283
REMARK INTRA:                  -0.526
REMARK UNBOUND:                -0.486
REMARK SMILES [NH3+]CCCC[C@H]([NH3+])C(=O)[O-]
REMARK SMILES IDX 4 1 3 2 2 3 1 4 5 8 6 9 7 10 8 14 9 15 10 16
REMARK H PARENT 1 5 1 6 1 7 7 11 7 12 7 13
REMARK Flexibility Score: inf
ROOT
ATOM      1  C   UNL     1      67.455  -2.276   4.593  1.00  0.00     0.012 C 
ENDROOT
BRANCH   1   2
ATOM      2  C   UNL     1      67.949  -1.482   3.372  1.00  0.00     0.061 C 
BRANCH   2   3
ATOM      3  C   UNL     1      68.751  -2.351   2.389  1.00  0.00     0.258 C 
BRANCH   3   4
ATOM      4  N   UNL     1      67.888  -3.056   1.440  1.00  0.00    -0.358 N 
ATOM      5  H   UNL     1      67.253  -2.365   0.979  1.00  0.00     0.344 HD
ATOM      6  H   UNL     1      67.304  -3.768   1.937  1.00  0.00     0.344 HD
ATOM      7  H   UNL     1      68.463  -3.518   0.699  1.00  0.00     0.344 HD
ENDBRANCH   3   4
ENDBRANCH   2   3
ENDBRANCH   1   2
BRANCH   1   8
ATOM      8  C   UNL     1      65.997  -1.935   4.971  1.00  0.00     0.072 C 
BRANCH   8   9
ATOM      9  C   UNL     1      64.968  -2.332   3.886  1.00  0.00     0.227 C 
BRANCH   9  10
ATOM     10  N   UNL     1      63.611  -1.967   4.311  1.00  0.00    -0.350 N 
ATOM     11  H   UNL     1      63.641  -1.535   5.263  1.00  0.00     0.345 HD
ATOM     12  H   UNL     1      62.993  -2.812   4.339  1.00  0.00     0.345 HD
ATOM     13  H   UNL     1      63.206  -1.266   3.649  1.00  0.00     0.345 HD
ENDBRANCH   9  10
BRANCH   9  14
ATOM     14  C   UNL     1      65.029  -3.805   3.582  1.00  0.00     0.099 C 
ATOM     15  O   UNL     1      65.284  -4.201   2.415  1.00  0.00    -0.544 OA
ATOM     16  O   UNL     1      64.817  -4.738   4.590  1.00  0.00    -0.544 OA
ENDBRANCH   9  14
ENDBRANCH   8   9
ENDBRANCH   1   8
TORSDOF 7
ENDMDL
MODEL 9
REMARK VINA RESULT:    -3.167      1.809      3.609
REMARK INTER + INTRA:          -4.765
REMARK INTER:                  -4.219
REMARK INTRA:                  -0.546
REMARK UNBOUND:                -0.486
REMARK SMILES [NH3+]CCCC[C@H]([NH3+])C(=O)[O-]
REMARK SMILES IDX 4 1 3 2 2 3 1 4 5 8 6 9 7 10 8 14 9 15 10 16
REMARK H PARENT 1 5 1 6 1 7 7 11 7 12 7 13
REMARK Flexibility Score: inf
ROOT
ATOM      1  C   UNL     1      67.592  -3.169   2.397  1.00  0.00     0.012 C 
ENDROOT
BRANCH   1   2
ATOM      2  C   UNL     1      67.032  -3.530   1.010  1.00  0.00     0.061 C 
BRANCH   2   3
ATOM      3  C   UNL     1      67.210  -5.020   0.672  1.00  0.00     0.258 C 
BRANCH   3   4
ATOM      4  N   UNL     1      65.935  -5.740   0.652  1.00  0.00    -0.358 N 
ATOM      5  H   UNL     1      65.153  -5.047   0.701  1.00  0.00     0.344 HD
ATOM      6  H   UNL     1      65.865  -6.382   1.475  1.00  0.00     0.344 HD
ATOM      7  H   UNL     1      65.838  -6.282  -0.236  1.00  0.00     0.344 HD
ENDBRANCH   3   4
ENDBRANCH   2   3
ENDBRANCH   1   2
BRANCH   1   8
ATOM      8  C   UNL     1      66.513  -2.595   3.340  1.00  0.00     0.072 C 
BRANCH   8   9
ATOM      9  C   UNL     1      65.239  -3.467   3.427  1.00  0.00     0.227 C 
BRANCH   9  10
ATOM     10  N   UNL     1      64.144  -2.713   4.051  1.00  0.00    -0.350 N 
ATOM     11  H   UNL     1      64.030  -3.012   5.046  1.00  0.00     0.345 HD
ATOM     12  H   UNL     1      63.246  -2.877   3.540  1.00  0.00     0.345 HD
ATOM     13  H   UNL     1      64.365  -1.691   4.041  1.00  0.00     0.345 HD
ENDBRANCH   9  10
BRANCH   9  14
ATOM     14  C   UNL     1      65.491  -4.734   4.201  1.00  0.00     0.099 C 
ATOM     15  O   UNL     1      65.931  -4.678   5.380  1.00  0.00    -0.544 OA
ATOM     16  O   UNL     1      65.229  -5.971   3.626  1.00  0.00    -0.544 OA
ENDBRANCH   9  14
ENDBRANCH   8   9
ENDBRANCH   1   8
TORSDOF 7
ENDMDL
