MODEL 1
REMARK VINA RESULT:    17.243      0.000      0.000
REMARK INTER + INTRA:          28.851
REMARK INTER:                  26.316
REMARK INTRA:                   2.536
REMARK UNBOUND:                 2.536
REMARK SMILES CC1=CCC[C@@H](C)C(=O)C[C@H](C(C)C)C(=O)C1
REMARK SMILES IDX 8 1 9 2 6 3 7 4 5 5 4 6 3 7 2 8 1 9 10 11 11 12 15 13 16 14
REMARK SMILES IDX 17 15 12 17 13 18 14 19
REMARK H PARENT
REMARK Flexibility Score: 70.00
ROOT
ATOM      1  C   UNL     1      35.332  12.231  40.318  1.00  0.00     0.136 C 
ATOM      2  O   UNL     1      34.661  12.795  39.465  1.00  0.00    -0.299 OA
ENDROOT
BRANCH   1   3
ATOM      3  C   UNL     1      35.675  10.764  40.155  1.00  0.00     0.053 C 
ATOM      4  C   UNL     1      37.081  10.652  39.554  1.00  0.00     0.016 C 
BRANCH   3   5
ATOM      5  C   UNL     1      34.655  10.006  39.269  1.00  0.00     0.015 C 
BRANCH   5   6
ATOM      6  C   UNL     1      33.558   9.270  40.056  1.00  0.00     0.028 C 
BRANCH   6   7
ATOM      7  C   UNL     1      32.425  10.179  40.468  1.00  0.00    -0.028 C 
ATOM      8  C   UNL     1      32.462  11.093  41.465  1.00  0.00    -0.070 CG0
ATOM      9  C   UNL     1      31.174  11.799  41.816  1.00  0.00     0.039 C 
ATOM     10  G   UNL     1      33.699  11.364  42.305  1.00  0.00     0.000 G0
ENDBRANCH   6   7
ENDBRANCH   5   6
ENDBRANCH   3   5
ENDBRANCH   1   3
BRANCH   1  11
ATOM     11  C   UNL     1      35.929  13.047  41.440  1.00  0.00     0.087 C 
BRANCH  11  12
ATOM     12  C   UNL     1      34.857  13.790  42.289  1.00  0.00     0.066 C 
BRANCH  12  13
ATOM     13  C   UNL     1      33.778  12.825  42.786  1.00  0.00     0.140 C 
ATOM     14  O   UNL     1      32.931  13.203  43.584  1.00  0.00    -0.299 OA
BRANCH  13  15
ATOM     15  C   UNL     1      33.720  11.392  42.319  1.00  0.00     0.106 CG0
ATOM     16  G   UNL     1      32.493  11.111  41.468  1.00  0.00     0.000 G0
ENDBRANCH  13  15
ENDBRANCH  12  13
BRANCH  12  17
ATOM     17  C   UNL     1      35.484  14.628  43.453  1.00  0.00    -0.006 C 
ATOM     18  C   UNL     1      37.013  14.475  43.559  1.00  0.00     0.008 C 
ATOM     19  C   UNL     1      35.104  16.115  43.362  1.00  0.00     0.008 C 
ENDBRANCH  12  17
ENDBRANCH  11  12
ENDBRANCH   1  11
TORSDOF 1
ENDMDL
MODEL 2
REMARK VINA RESULT:    17.961      2.147      5.088
REMARK INTER + INTRA:          29.947
REMARK INTER:                  28.670
REMARK INTRA:                   1.277
REMARK UNBOUND:                 2.536
REMARK SMILES CC1=CCC[C@@H](C)C(=O)C[C@H](C(C)C)C(=O)C1
REMARK SMILES IDX 8 1 9 2 6 3 7 4 5 5 4 6 3 7 2 8 1 9 10 11 11 12 15 13 16 14
REMARK SMILES IDX 17 15 12 17 13 18 14 19
REMARK H PARENT
REMARK Flexibility Score: 70.00
ROOT
ATOM      1  C   UNL     1      34.126  14.941  39.712  1.00  0.00     0.136 C 
ATOM      2  O   UNL     1      35.176  14.990  39.087  1.00  0.00    -0.299 OA
ENDROOT
BRANCH   1   3
ATOM      3  C   UNL     1      33.565  16.202  40.339  1.00  0.00     0.053 C 
ATOM      4  C   UNL     1      33.350  17.244  39.236  1.00  0.00     0.016 C 
BRANCH   3   5
ATOM      5  C   UNL     1      34.484  16.778  41.445  1.00  0.00     0.015 C 
BRANCH   5   6
ATOM      6  C   UNL     1      34.230  16.195  42.845  1.00  0.00     0.028 C 
BRANCH   6   7
ATOM      7  C   UNL     1      35.428  15.463  43.398  1.00  0.00    -0.028 C 
ATOM      8  C   UNL     1      35.663  14.134  43.297  1.00  0.00    -0.070 CG0
ATOM      9  C   UNL     1      36.846  13.573  44.049  1.00  0.00     0.039 C 
ATOM     10  G   UNL     1      34.745  13.178  42.555  1.00  0.00     0.000 G0
ENDBRANCH   6   7
ENDBRANCH   5   6
ENDBRANCH   3   5
ENDBRANCH   1   3
BRANCH   1  11
ATOM     11  C   UNL     1      33.335  13.654  39.719  1.00  0.00     0.087 C 
BRANCH  11  12
ATOM     12  C   UNL     1      34.196  12.413  40.090  1.00  0.00     0.066 C 
BRANCH  12  13
ATOM     13  C   UNL     1      35.200  12.745  41.196  1.00  0.00     0.140 C 
ATOM     14  O   UNL     1      36.401  12.723  40.967  1.00  0.00    -0.299 OA
BRANCH  13  15
ATOM     15  C   UNL     1      34.752  13.109  42.589  1.00  0.00     0.106 CG0
ATOM     16  G   UNL     1      35.660  14.140  43.238  1.00  0.00     0.000 G0
ENDBRANCH  13  15
ENDBRANCH  12  13
BRANCH  12  17
ATOM     17  C   UNL     1      33.326  11.158  40.438  1.00  0.00    -0.006 C 
ATOM     18  C   UNL     1      34.069   9.825  40.231  1.00  0.00     0.008 C 
ATOM     19  C   UNL     1      32.753  11.232  41.863  1.00  0.00     0.008 C 
ENDBRANCH  12  17
ENDBRANCH  11  12
ENDBRANCH   1  11
TORSDOF 1
ENDMDL
MODEL 3
REMARK VINA RESULT:    18.054      1.912      4.177
REMARK INTER + INTRA:          30.089
REMARK INTER:                  28.986
REMARK INTRA:                   1.103
REMARK UNBOUND:                 2.536
REMARK SMILES CC1=CCC[C@@H](C)C(=O)C[C@H](C(C)C)C(=O)C1
REMARK SMILES IDX 8 1 9 2 6 3 7 4 5 5 4 6 3 7 2 8 1 9 10 11 11 12 15 13 16 14
REMARK SMILES IDX 17 15 12 17 13 18 14 19
REMARK H PARENT
REMARK Flexibility Score: 70.00
ROOT
ATOM      1  C   UNL     1      34.611  13.256  40.528  1.00  0.00     0.136 C 
ATOM      2  O   UNL     1      34.193  14.398  40.661  1.00  0.00    -0.299 OA
ENDROOT
BRANCH   1   3
ATOM      3  C   UNL     1      35.672  12.729  41.473  1.00  0.00     0.053 C 
ATOM      4  C   UNL     1      35.916  13.774  42.568  1.00  0.00     0.016 C 
BRANCH   3   5
ATOM      5  C   UNL     1      37.000  12.392  40.751  1.00  0.00     0.015 C 
BRANCH   5   6
ATOM      6  C   UNL     1      36.899  11.226  39.754  1.00  0.00     0.028 C 
BRANCH   6   7
ATOM      7  C   UNL     1      36.564   9.914  40.423  1.00  0.00    -0.028 C 
ATOM      8  C   UNL     1      35.468   9.158  40.182  1.00  0.00    -0.070 CG0
ATOM      9  C   UNL     1      35.242   7.954  41.064  1.00  0.00     0.039 C 
ATOM     10  G   UNL     1      34.416   9.517  39.146  1.00  0.00     0.000 G0
ENDBRANCH   6   7
ENDBRANCH   5   6
ENDBRANCH   3   5
ENDBRANCH   1   3
BRANCH   1  11
ATOM     11  C   UNL     1      33.952  12.347  39.516  1.00  0.00     0.087 C 
BRANCH  11  12
ATOM     12  C   UNL     1      32.865  11.427  40.143  1.00  0.00     0.066 C 
BRANCH  12  13
ATOM     13  C   UNL     1      33.106   9.960  39.784  1.00  0.00     0.140 C 
ATOM     14  O   UNL     1      32.244   9.120  40.003  1.00  0.00    -0.299 OA
BRANCH  13  15
ATOM     15  C   UNL     1      34.398   9.500  39.155  1.00  0.00     0.106 CG0
ATOM     16  G   UNL     1      35.442   9.121  40.190  1.00  0.00     0.000 G0
ENDBRANCH  13  15
ENDBRANCH  12  13
BRANCH  12  17
ATOM     17  C   UNL     1      32.711  11.642  41.686  1.00  0.00    -0.006 C 
ATOM     18  C   UNL     1      31.254  11.532  42.175  1.00  0.00     0.008 C 
ATOM     19  C   UNL     1      33.615  10.695  42.493  1.00  0.00     0.008 C 
ENDBRANCH  12  17
ENDBRANCH  11  12
ENDBRANCH   1  11
TORSDOF 1
ENDMDL
MODEL 4
REMARK VINA RESULT:    18.074      1.498      3.433
REMARK INTER + INTRA:          30.119
REMARK INTER:                  28.401
REMARK INTRA:                   1.717
REMARK UNBOUND:                 2.536
REMARK SMILES CC1=CCC[C@@H](C)C(=O)C[C@H](C(C)C)C(=O)C1
REMARK SMILES IDX 8 1 9 2 6 3 7 4 5 5 4 6 3 7 2 8 1 9 10 11 11 12 15 13 16 14
REMARK SMILES IDX 17 15 12 17 13 18 14 19
REMARK H PARENT
REMARK Flexibility Score: 70.00
ROOT
ATOM      1  C   UNL     1      33.217  11.560  42.711  1.00  0.00     0.136 C 
ATOM      2  O   UNL     1      33.539  10.567  43.348  1.00  0.00    -0.299 OA
ENDROOT
BRANCH   1   3
ATOM      3  C   UNL     1      32.100  11.470  41.691  1.00  0.00     0.053 C 
ATOM      4  C   UNL     1      31.222  10.260  42.031  1.00  0.00     0.016 C 
BRANCH   3   5
ATOM      5  C   UNL     1      32.626  11.354  40.239  1.00  0.00     0.015 C 
BRANCH   5   6
ATOM      6  C   UNL     1      33.360  10.037  39.936  1.00  0.00     0.028 C 
BRANCH   6   7
ATOM      7  C   UNL     1      34.843  10.119  40.211  1.00  0.00    -0.028 C 
ATOM      8  C   UNL     1      35.617  11.220  40.071  1.00  0.00    -0.070 CG0
ATOM      9  C   UNL     1      37.106  11.055  40.253  1.00  0.00     0.039 C 
ATOM     10  G   UNL     1      35.075  12.573  39.644  1.00  0.00     0.000 G0
ENDBRANCH   6   7
ENDBRANCH   5   6
ENDBRANCH   3   5
ENDBRANCH   1   3
BRANCH   1  11
ATOM     11  C   UNL     1      33.839  12.891  43.064  1.00  0.00     0.087 C 
BRANCH  11  12
ATOM     12  C   UNL     1      35.109  13.211  42.223  1.00  0.00     0.066 C 
BRANCH  12  13
ATOM     13  C   UNL     1      34.746  13.529  40.771  1.00  0.00     0.140 C 
ATOM     14  O   UNL     1      34.129  14.548  40.498  1.00  0.00    -0.299 OA
BRANCH  13  15
ATOM     15  C   UNL     1      35.133  12.611  39.639  1.00  0.00     0.106 CG0
ATOM     16  G   UNL     1      35.591  11.249  40.130  1.00  0.00     0.000 G0
ENDBRANCH  13  15
ENDBRANCH  12  13
BRANCH  12  17
ATOM     17  C   UNL     1      35.995  14.327  42.871  1.00  0.00    -0.006 C 
ATOM     18  C   UNL     1      35.202  15.594  43.246  1.00  0.00     0.008 C 
ATOM     19  C   UNL     1      36.776  13.809  44.090  1.00  0.00     0.008 C 
ENDBRANCH  12  17
ENDBRANCH  11  12
ENDBRANCH   1  11
TORSDOF 1
ENDMDL
MODEL 5
REMARK VINA RESULT:    19.469      1.433      1.812
REMARK INTER + INTRA:          32.248
REMARK INTER:                  30.679
REMARK INTRA:                   1.569
REMARK UNBOUND:                 2.536
REMARK SMILES CC1=CCC[C@@H](C)C(=O)C[C@H](C(C)C)C(=O)C1
REMARK SMILES IDX 8 1 9 2 6 3 7 4 5 5 4 6 3 7 2 8 1 9 10 11 11 12 15 13 16 14
REMARK SMILES IDX 17 15 12 17 13 18 14 19
REMARK H PARENT
REMARK Flexibility Score: 70.00
ROOT
ATOM      1  C   UNL     1      36.476  10.760  40.187  1.00  0.00     0.136 C 
ATOM      2  O   UNL     1      37.070  10.662  39.122  1.00  0.00    -0.299 OA
ENDROOT
BRANCH   1   3
ATOM      3  C   UNL     1      35.523   9.665  40.619  1.00  0.00     0.053 C 
ATOM      4  C   UNL     1      36.307   8.621  41.424  1.00  0.00     0.016 C 
BRANCH   3   5
ATOM      5  C   UNL     1      34.809   8.988  39.422  1.00  0.00     0.015 C 
BRANCH   5   6
ATOM      6  C   UNL     1      33.461   9.626  39.048  1.00  0.00     0.028 C 
BRANCH   6   7
ATOM      7  C   UNL     1      32.544   9.792  40.237  1.00  0.00    -0.028 C 
ATOM      8  C   UNL     1      32.428  10.903  41.000  1.00  0.00    -0.070 CG0
ATOM      9  C   UNL     1      31.563  10.816  42.235  1.00  0.00     0.039 C 
ATOM     10  G   UNL     1      33.197  12.186  40.732  1.00  0.00     0.000 G0
ENDBRANCH   6   7
ENDBRANCH   5   6
ENDBRANCH   3   5
ENDBRANCH   1   3
BRANCH   1  11
ATOM     11  C   UNL     1      36.820  11.901  41.116  1.00  0.00     0.087 C 
BRANCH  11  12
ATOM     12  C   UNL     1      35.679  12.952  41.236  1.00  0.00     0.066 C 
BRANCH  12  13
ATOM     13  C   UNL     1      34.370  12.299  41.686  1.00  0.00     0.140 C 
ATOM     14  O   UNL     1      34.253  11.870  42.826  1.00  0.00    -0.299 OA
BRANCH  13  15
ATOM     15  C   UNL     1      33.191  12.164  40.755  1.00  0.00     0.106 CG0
ATOM     16  G   UNL     1      32.410  10.884  40.993  1.00  0.00     0.000 G0
ENDBRANCH  13  15
ENDBRANCH  12  13
BRANCH  12  17
ATOM     17  C   UNL     1      36.074  14.169  42.138  1.00  0.00    -0.006 C 
ATOM     18  C   UNL     1      34.866  14.848  42.810  1.00  0.00     0.008 C 
ATOM     19  C   UNL     1      37.124  13.787  43.195  1.00  0.00     0.008 C 
ENDBRANCH  12  17
ENDBRANCH  11  12
ENDBRANCH   1  11
TORSDOF 1
ENDMDL
MODEL 6
REMARK VINA RESULT:    19.793      1.483      4.129
REMARK INTER + INTRA:          32.742
REMARK INTER:                  29.025
REMARK INTRA:                   3.718
REMARK UNBOUND:                 2.536
REMARK SMILES CC1=CCC[C@@H](C)C(=O)C[C@H](C(C)C)C(=O)C1
REMARK SMILES IDX 8 1 9 2 6 3 7 4 5 5 4 6 3 7 2 8 1 9 10 11 11 12 15 13 16 14
REMARK SMILES IDX 17 15 12 17 13 18 14 19
REMARK H PARENT
REMARK Flexibility Score: 70.00
ROOT
ATOM      1  C   UNL     1      36.213  13.251  42.026  1.00  0.00     0.136 C 
ATOM      2  O   UNL     1      37.105  13.934  42.511  1.00  0.00    -0.299 OA
ENDROOT
BRANCH   1   3
ATOM      3  C   UNL     1      34.765  13.580  42.330  1.00  0.00     0.053 C 
ATOM      4  C   UNL     1      34.719  14.858  43.175  1.00  0.00     0.016 C 
BRANCH   3   5
ATOM      5  C   UNL     1      34.033  12.429  43.065  1.00  0.00     0.015 C 
BRANCH   5   6
ATOM      6  C   UNL     1      32.564  12.248  42.649  1.00  0.00     0.028 C 
BRANCH   6   7
ATOM      7  C   UNL     1      32.297  10.900  42.024  1.00  0.00    -0.028 C 
ATOM      8  C   UNL     1      32.442  10.588  40.715  1.00  0.00    -0.070 CG0
ATOM      9  C   UNL     1      31.979   9.223  40.265  1.00  0.00     0.039 C 
ATOM     10  G   UNL     1      32.947  11.571  39.674  1.00  0.00     0.000 G0
ENDBRANCH   6   7
ENDBRANCH   5   6
ENDBRANCH   3   5
ENDBRANCH   1   3
BRANCH   1  11
ATOM     11  C   UNL     1      36.571  12.186  41.016  1.00  0.00     0.087 C 
BRANCH  11  12
ATOM     12  C   UNL     1      35.364  11.284  40.629  1.00  0.00     0.066 C 
BRANCH  12  13
ATOM     13  C   UNL     1      34.329  12.062  39.813  1.00  0.00     0.140 C 
ATOM     14  O   UNL     1      34.632  13.120  39.280  1.00  0.00    -0.299 OA
BRANCH  13  15
ATOM     15  C   UNL     1      32.918  11.559  39.637  1.00  0.00     0.106 CG0
ATOM     16  G   UNL     1      32.512  10.583  40.728  1.00  0.00     0.000 G0
ENDBRANCH  13  15
ENDBRANCH  12  13
BRANCH  12  17
ATOM     17  C   UNL     1      35.804   9.960  39.919  1.00  0.00    -0.006 C 
ATOM     18  C   UNL     1      34.716   9.366  39.006  1.00  0.00     0.008 C 
ATOM     19  C   UNL     1      37.117  10.135  39.137  1.00  0.00     0.008 C 
ENDBRANCH  12  17
ENDBRANCH  11  12
ENDBRANCH   1  11
TORSDOF 1
ENDMDL
