MODEL 1
REMARK VINA RESULT:    -4.836      0.000      0.000
REMARK INTER + INTRA:          -4.836
REMARK INTER:                  -4.836
REMARK INTRA:                   0.000
REMARK UNBOUND:                 0.000
REMARK SMILES CC1=CC(=O)[C@@H]2C[C@H]1C2(C)C
REMARK SMILES IDX 1 1 2 2 3 3 4 4 5 5 6 6 7 7 8 8 9 9 10 10 11 11
REMARK H PARENT
REMARK Flexibility Score: inf
ROOT
ATOM      1  C   UNL     1     -29.187 -12.650  21.681  1.00  0.00     0.040 C 
ATOM      2  C   UNL     1     -28.699 -12.642  23.095  1.00  0.00    -0.066 C 
ATOM      3  C   UNL     1     -27.514 -13.218  23.439  1.00  0.00     0.047 C 
ATOM      4  C   UNL     1     -27.121 -13.116  24.882  1.00  0.00     0.159 C 
ATOM      5  O   UNL     1     -26.032 -13.575  25.315  1.00  0.00    -0.295 OA
ATOM      6  C   UNL     1     -28.135 -12.417  25.788  1.00  0.00     0.067 C 
ATOM      7  C   UNL     1     -29.492 -13.033  25.383  1.00  0.00     0.021 C 
ATOM      8  C   UNL     1     -29.519 -11.999  24.234  1.00  0.00     0.022 C 
ATOM      9  C   UNL     1     -28.588 -11.100  25.098  1.00  0.00    -0.019 C 
ATOM     10  C   UNL     1     -29.385 -10.176  26.055  1.00  0.00     0.012 C 
ATOM     11  C   UNL     1     -27.517 -10.239  24.371  1.00  0.00     0.012 C 
ENDROOT
TORSDOF 0
ENDMDL
MODEL 2
REMARK VINA RESULT:    -4.763      1.603      3.018
REMARK INTER + INTRA:          -4.763
REMARK INTER:                  -4.763
REMARK INTRA:                   0.000
REMARK UNBOUND:                 0.000
REMARK SMILES CC1=CC(=O)[C@@H]2C[C@H]1C2(C)C
REMARK SMILES IDX 1 1 2 2 3 3 4 4 5 5 6 6 7 7 8 8 9 9 10 10 11 11
REMARK H PARENT
REMARK Flexibility Score: inf
ROOT
ATOM      1  C   UNL     1     -25.781 -13.384  25.775  1.00  0.00     0.040 C 
ATOM      2  C   UNL     1     -26.850 -12.956  24.819  1.00  0.00    -0.066 C 
ATOM      3  C   UNL     1     -27.126 -13.675  23.696  1.00  0.00     0.047 C 
ATOM      4  C   UNL     1     -28.239 -13.159  22.836  1.00  0.00     0.159 C 
ATOM      5  O   UNL     1     -28.614 -13.756  21.792  1.00  0.00    -0.295 OA
ATOM      6  C   UNL     1     -28.888 -11.860  23.314  1.00  0.00     0.067 C 
ATOM      7  C   UNL     1     -27.693 -10.954  23.681  1.00  0.00     0.021 C 
ATOM      8  C   UNL     1     -27.679 -11.673  25.048  1.00  0.00     0.022 C 
ATOM      9  C   UNL     1     -29.187 -11.987  24.834  1.00  0.00    -0.019 C 
ATOM     10  C   UNL     1     -30.105 -10.850  25.351  1.00  0.00     0.012 C 
ATOM     11  C   UNL     1     -29.740 -13.339  25.368  1.00  0.00     0.012 C 
ENDROOT
TORSDOF 0
ENDMDL
MODEL 3
REMARK VINA RESULT:    -4.737      1.001      3.071
REMARK INTER + INTRA:          -4.737
REMARK INTER:                  -4.737
REMARK INTRA:                   0.000
REMARK UNBOUND:                 0.000
REMARK SMILES CC1=CC(=O)[C@@H]2C[C@H]1C2(C)C
REMARK SMILES IDX 1 1 2 2 3 3 4 4 5 5 6 6 7 7 8 8 9 9 10 10 11 11
REMARK H PARENT
REMARK Flexibility Score: inf
ROOT
ATOM      1  C   UNL     1     -28.581  -9.656  25.747  1.00  0.00     0.040 C 
ATOM      2  C   UNL     1     -28.043 -10.956  25.237  1.00  0.00    -0.066 C 
ATOM      3  C   UNL     1     -27.110 -11.659  25.935  1.00  0.00     0.047 C 
ATOM      4  C   UNL     1     -26.673 -12.960  25.333  1.00  0.00     0.159 C 
ATOM      5  O   UNL     1     -25.845 -13.720  25.902  1.00  0.00    -0.295 OA
ATOM      6  C   UNL     1     -27.304 -13.301  23.983  1.00  0.00     0.067 C 
ATOM      7  C   UNL     1     -27.203 -11.989  23.177  1.00  0.00     0.021 C 
ATOM      8  C   UNL     1     -28.503 -11.553  23.889  1.00  0.00     0.022 C 
ATOM      9  C   UNL     1     -28.837 -13.061  24.079  1.00  0.00    -0.019 C 
ATOM     10  C   UNL     1     -29.603 -13.651  22.867  1.00  0.00     0.012 C 
ATOM     11  C   UNL     1     -29.574 -13.493  25.378  1.00  0.00     0.012 C 
ENDROOT
TORSDOF 0
ENDMDL
MODEL 4
REMARK VINA RESULT:    -4.686      1.594      2.854
REMARK INTER + INTRA:          -4.686
REMARK INTER:                  -4.686
REMARK INTRA:                   0.000
REMARK UNBOUND:                 0.000
REMARK SMILES CC1=CC(=O)[C@@H]2C[C@H]1C2(C)C
REMARK SMILES IDX 1 1 2 2 3 3 4 4 5 5 6 6 7 7 8 8 9 9 10 10 11 11
REMARK H PARENT
REMARK Flexibility Score: inf
ROOT
ATOM      1  C   UNL     1     -27.507  -9.476  24.290  1.00  0.00     0.040 C 
ATOM      2  C   UNL     1     -28.024 -10.808  23.846  1.00  0.00    -0.066 C 
ATOM      3  C   UNL     1     -27.405 -11.517  22.862  1.00  0.00     0.047 C 
ATOM      4  C   UNL     1     -28.003 -12.851  22.530  1.00  0.00     0.159 C 
ATOM      5  O   UNL     1     -27.499 -13.616  21.666  1.00  0.00    -0.295 OA
ATOM      6  C   UNL     1     -29.264 -13.216  23.313  1.00  0.00     0.067 C 
ATOM      7  C   UNL     1     -30.124 -11.935  23.264  1.00  0.00     0.021 C 
ATOM      8  C   UNL     1     -29.291 -11.435  24.467  1.00  0.00     0.022 C 
ATOM      9  C   UNL     1     -29.012 -12.924  24.819  1.00  0.00    -0.019 C 
ATOM     10  C   UNL     1     -30.111 -13.530  25.729  1.00  0.00     0.012 C 
ATOM     11  C   UNL     1     -27.626 -13.290  25.422  1.00  0.00     0.012 C 
ENDROOT
TORSDOF 0
ENDMDL
MODEL 5
REMARK VINA RESULT:    -4.677      1.583      3.388
REMARK INTER + INTRA:          -4.677
REMARK INTER:                  -4.677
REMARK INTRA:                   0.000
REMARK UNBOUND:                 0.000
REMARK SMILES CC1=CC(=O)[C@@H]2C[C@H]1C2(C)C
REMARK SMILES IDX 1 1 2 2 3 3 4 4 5 5 6 6 7 7 8 8 9 9 10 10 11 11
REMARK H PARENT
REMARK Flexibility Score: inf
ROOT
ATOM      1  C   UNL     1     -27.497  -9.222  24.310  1.00  0.00     0.040 C 
ATOM      2  C   UNL     1     -27.906 -10.654  24.456  1.00  0.00    -0.066 C 
ATOM      3  C   UNL     1     -28.878 -11.027  25.333  1.00  0.00     0.047 C 
ATOM      4  C   UNL     1     -29.217 -12.486  25.364  1.00  0.00     0.159 C 
ATOM      5  O   UNL     1     -30.125 -12.950  26.104  1.00  0.00    -0.295 OA
ATOM      6  C   UNL     1     -28.386 -13.372  24.435  1.00  0.00     0.067 C 
ATOM      7  C   UNL     1     -26.934 -12.897  24.660  1.00  0.00     0.021 C 
ATOM      8  C   UNL     1     -27.235 -11.778  23.638  1.00  0.00     0.022 C 
ATOM      9  C   UNL     1     -28.331 -12.702  23.033  1.00  0.00    -0.019 C 
ATOM     10  C   UNL     1     -27.766 -13.654  21.947  1.00  0.00     0.012 C 
ATOM     11  C   UNL     1     -29.625 -12.042  22.477  1.00  0.00     0.012 C 
ENDROOT
TORSDOF 0
ENDMDL
MODEL 6
REMARK VINA RESULT:    -4.578      1.827      3.184
REMARK INTER + INTRA:          -4.578
REMARK INTER:                  -4.578
REMARK INTRA:                   0.000
REMARK UNBOUND:                 0.000
REMARK SMILES CC1=CC(=O)[C@@H]2C[C@H]1C2(C)C
REMARK SMILES IDX 1 1 2 2 3 3 4 4 5 5 6 6 7 7 8 8 9 9 10 10 11 11
REMARK H PARENT
REMARK Flexibility Score: inf
ROOT
ATOM      1  C   UNL     1     -25.994 -13.491  25.756  1.00  0.00     0.040 C 
ATOM      2  C   UNL     1     -27.226 -12.675  25.520  1.00  0.00    -0.066 C 
ATOM      3  C   UNL     1     -27.339 -11.406  26.000  1.00  0.00     0.047 C 
ATOM      4  C   UNL     1     -28.610 -10.683  25.671  1.00  0.00     0.159 C 
ATOM      5  O   UNL     1     -28.816  -9.493  26.025  1.00  0.00    -0.295 OA
ATOM      6  C   UNL     1     -29.635 -11.492  24.876  1.00  0.00     0.067 C 
ATOM      7  C   UNL     1     -29.671 -12.861  25.588  1.00  0.00     0.021 C 
ATOM      8  C   UNL     1     -28.435 -13.236  24.740  1.00  0.00     0.022 C 
ATOM      9  C   UNL     1     -28.906 -12.187  23.692  1.00  0.00    -0.019 C 
ATOM     10  C   UNL     1     -29.896 -12.788  22.661  1.00  0.00     0.012 C 
ATOM     11  C   UNL     1     -27.823 -11.385  22.917  1.00  0.00     0.012 C 
ENDROOT
TORSDOF 0
ENDMDL
MODEL 7
REMARK VINA RESULT:    -4.281      1.871      3.118
REMARK INTER + INTRA:          -4.281
REMARK INTER:                  -4.281
REMARK INTRA:                   0.000
REMARK UNBOUND:                 0.000
REMARK SMILES CC1=CC(=O)[C@@H]2C[C@H]1C2(C)C
REMARK SMILES IDX 1 1 2 2 3 3 4 4 5 5 6 6 7 7 8 8 9 9 10 10 11 11
REMARK H PARENT
REMARK Flexibility Score: inf
ROOT
ATOM      1  C   UNL     1     -30.051  -9.882  25.400  1.00  0.00     0.040 C 
ATOM      2  C   UNL     1     -29.647 -11.200  24.819  1.00  0.00    -0.066 C 
ATOM      3  C   UNL     1     -30.125 -11.622  23.617  1.00  0.00     0.047 C 
ATOM      4  C   UNL     1     -29.620 -12.947  23.130  1.00  0.00     0.159 C 
ATOM      5  O   UNL     1     -29.958 -13.426  22.016  1.00  0.00    -0.295 OA
ATOM      6  C   UNL     1     -28.667 -13.673  24.080  1.00  0.00     0.067 C 
ATOM      7  C   UNL     1     -29.343 -13.548  25.462  1.00  0.00     0.021 C 
ATOM      8  C   UNL     1     -28.685 -12.154  25.561  1.00  0.00     0.022 C 
ATOM      9  C   UNL     1     -27.595 -12.661  24.573  1.00  0.00    -0.019 C 
ATOM     10  C   UNL     1     -26.418 -13.358  25.302  1.00  0.00     0.012 C 
ATOM     11  C   UNL     1     -27.004 -11.651  23.549  1.00  0.00     0.012 C 
ENDROOT
TORSDOF 0
ENDMDL
MODEL 8
REMARK VINA RESULT:    -4.207      1.682      2.338
REMARK INTER + INTRA:          -4.207
REMARK INTER:                  -4.207
REMARK INTRA:                   0.000
REMARK UNBOUND:                 0.000
REMARK SMILES CC1=CC(=O)[C@@H]2C[C@H]1C2(C)C
REMARK SMILES IDX 1 1 2 2 3 3 4 4 5 5 6 6 7 7 8 8 9 9 10 10 11 11
REMARK H PARENT
REMARK Flexibility Score: inf
ROOT
ATOM      1  C   UNL     1     -27.511 -13.482  21.794  1.00  0.00     0.040 C 
ATOM      2  C   UNL     1     -27.594 -12.691  23.062  1.00  0.00    -0.066 C 
ATOM      3  C   UNL     1     -27.143 -11.408  23.128  1.00  0.00     0.047 C 
ATOM      4  C   UNL     1     -27.310 -10.713  24.445  1.00  0.00     0.159 C 
ATOM      5  O   UNL     1     -26.968  -9.514  24.621  1.00  0.00    -0.295 OA
ATOM      6  C   UNL     1     -27.925 -11.561  25.559  1.00  0.00     0.067 C 
ATOM      7  C   UNL     1     -27.173 -12.907  25.469  1.00  0.00     0.021 C 
ATOM      8  C   UNL     1     -28.176 -13.294  24.359  1.00  0.00     0.022 C 
ATOM      9  C   UNL     1     -29.178 -12.286  24.993  1.00  0.00    -0.019 C 
ATOM     10  C   UNL     1     -30.038 -12.934  26.108  1.00  0.00     0.012 C 
ATOM     11  C   UNL     1     -30.125 -11.496  24.046  1.00  0.00     0.012 C 
ENDROOT
TORSDOF 0
ENDMDL
MODEL 9
REMARK VINA RESULT:    -4.011      1.868      3.094
REMARK INTER + INTRA:          -4.011
REMARK INTER:                  -4.011
REMARK INTRA:                   0.000
REMARK UNBOUND:                 0.000
REMARK SMILES CC1=CC(=O)[C@@H]2C[C@H]1C2(C)C
REMARK SMILES IDX 1 1 2 2 3 3 4 4 5 5 6 6 7 7 8 8 9 9 10 10 11 11
REMARK H PARENT
REMARK Flexibility Score: inf
ROOT
ATOM      1  C   UNL     1     -29.881 -13.050  21.568  1.00  0.00     0.040 C 
ATOM      2  C   UNL     1     -29.348 -12.349  22.777  1.00  0.00    -0.066 C 
ATOM      3  C   UNL     1     -30.124 -11.500  23.504  1.00  0.00     0.047 C 
ATOM      4  C   UNL     1     -29.483 -10.883  24.710  1.00  0.00     0.159 C 
ATOM      5  O   UNL     1     -30.109 -10.112  25.484  1.00  0.00    -0.295 OA
ATOM      6  C   UNL     1     -28.018 -11.257  24.935  1.00  0.00     0.067 C 
ATOM      7  C   UNL     1     -27.372 -11.112  23.541  1.00  0.00     0.021 C 
ATOM      8  C   UNL     1     -27.890 -12.538  23.248  1.00  0.00     0.022 C 
ATOM      9  C   UNL     1     -27.872 -12.798  24.783  1.00  0.00    -0.019 C 
ATOM     10  C   UNL     1     -26.495 -13.311  25.277  1.00  0.00     0.012 C 
ATOM     11  C   UNL     1     -28.977 -13.709  25.387  1.00  0.00     0.012 C 
ENDROOT
TORSDOF 0
ENDMDL
