MODEL 1
REMARK VINA RESULT:    -4.859      0.000      0.000
REMARK INTER + INTRA:          -6.725
REMARK INTER:                  -6.421
REMARK INTRA:                  -0.303
REMARK UNBOUND:                -0.303
REMARK SMILES CCCCC=CC=CCO
REMARK SMILES IDX 5 1 6 2 4 3 3 4 2 5 1 6 7 7 8 8 9 9 10 10
REMARK H PARENT 10 11
REMARK Flexibility Score: inf
ROOT
ATOM      1  C   UNL     1      62.383 -14.528  20.001  1.00  0.00    -0.027 C 
ATOM      2  C   UNL     1      63.361 -15.361  19.615  1.00  0.00    -0.005 C 
ENDROOT
BRANCH   1   3
ATOM      3  C   UNL     1      61.139 -14.946  20.737  1.00  0.00     0.027 C 
BRANCH   3   4
ATOM      4  C   UNL     1      60.093 -13.821  20.743  1.00  0.00     0.004 C 
BRANCH   4   5
ATOM      5  C   UNL     1      60.700 -12.454  21.091  1.00  0.00    -0.003 C 
ATOM      6  C   UNL     1      60.670 -12.157  22.591  1.00  0.00     0.004 C 
ENDBRANCH   4   5
ENDBRANCH   3   4
ENDBRANCH   1   3
BRANCH   2   7
ATOM      7  C   UNL     1      63.357 -16.821  19.876  1.00  0.00    -0.002 C 
ATOM      8  C   UNL     1      64.400 -17.622  19.621  1.00  0.00     0.001 C 
BRANCH   8   9
ATOM      9  C   UNL     1      65.704 -17.156  19.042  1.00  0.00     0.183 C 
BRANCH   9  10
ATOM     10  O   UNL     1      66.721 -17.290  19.995  1.00  0.00    -0.392 OA
ATOM     11  H   UNL     1      67.031 -18.231  19.934  1.00  0.00     0.210 HD
ENDBRANCH   9  10
ENDBRANCH   8   9
ENDBRANCH   2   7
TORSDOF 6
ENDMDL
MODEL 2
REMARK VINA RESULT:    -4.857     16.607     17.579
REMARK INTER + INTRA:          -6.722
REMARK INTER:                  -6.303
REMARK INTRA:                  -0.419
REMARK UNBOUND:                -0.303
REMARK SMILES CCCCC=CC=CCO
REMARK SMILES IDX 5 1 6 2 4 3 3 4 2 5 1 6 7 7 8 8 9 9 10 10
REMARK H PARENT 10 11
REMARK Flexibility Score: inf
ROOT
ATOM      1  C   UNL     1      69.471  -5.635   6.288  1.00  0.00    -0.027 C 
ATOM      2  C   UNL     1      69.712  -6.306   5.151  1.00  0.00    -0.005 C 
ENDROOT
BRANCH   1   3
ATOM      3  C   UNL     1      70.428  -5.533   7.444  1.00  0.00     0.027 C 
BRANCH   3   4
ATOM      4  C   UNL     1      70.156  -6.628   8.488  1.00  0.00     0.004 C 
BRANCH   4   5
ATOM      5  C   UNL     1      70.375  -6.137   9.927  1.00  0.00    -0.003 C 
ATOM      6  C   UNL     1      71.547  -6.834  10.618  1.00  0.00     0.004 C 
ENDBRANCH   4   5
ENDBRANCH   3   4
ENDBRANCH   1   3
BRANCH   2   7
ATOM      7  C   UNL     1      70.972  -7.034   4.870  1.00  0.00    -0.002 C 
ATOM      8  C   UNL     1      71.095  -8.365   4.962  1.00  0.00     0.001 C 
BRANCH   8   9
ATOM      9  C   UNL     1      69.984  -9.292   5.360  1.00  0.00     0.183 C 
BRANCH   9  10
ATOM     10  O   UNL     1      70.055  -9.556   6.733  1.00  0.00    -0.392 OA
ATOM     11  H   UNL     1      70.347  -8.709   7.160  1.00  0.00     0.210 HD
ENDBRANCH   9  10
ENDBRANCH   8   9
ENDBRANCH   2   7
TORSDOF 6
ENDMDL
MODEL 3
REMARK VINA RESULT:    -4.856      1.375      2.046
REMARK INTER + INTRA:          -6.721
REMARK INTER:                  -6.159
REMARK INTRA:                  -0.562
REMARK UNBOUND:                -0.303
REMARK SMILES CCCCC=CC=CCO
REMARK SMILES IDX 5 1 6 2 4 3 3 4 2 5 1 6 7 7 8 8 9 9 10 10
REMARK H PARENT 10 11
REMARK Flexibility Score: inf
ROOT
ATOM      1  C   UNL     1      62.385 -14.571  20.057  1.00  0.00    -0.027 C 
ATOM      2  C   UNL     1      63.369 -15.386  19.650  1.00  0.00    -0.005 C 
ENDROOT
BRANCH   1   3
ATOM      3  C   UNL     1      61.167 -15.011  20.822  1.00  0.00     0.027 C 
BRANCH   3   4
ATOM      4  C   UNL     1      61.188 -14.467  22.260  1.00  0.00     0.004 C 
BRANCH   4   5
ATOM      5  C   UNL     1      61.859 -15.436  23.246  1.00  0.00    -0.003 C 
ATOM      6  C   UNL     1      61.375 -16.877  23.080  1.00  0.00     0.004 C 
ENDBRANCH   4   5
ENDBRANCH   3   4
ENDBRANCH   1   3
BRANCH   2   7
ATOM      7  C   UNL     1      63.398 -16.845  19.912  1.00  0.00    -0.002 C 
ATOM      8  C   UNL     1      64.448 -17.629  19.630  1.00  0.00     0.001 C 
BRANCH   8   9
ATOM      9  C   UNL     1      65.726 -17.141  19.013  1.00  0.00     0.183 C 
BRANCH   9  10
ATOM     10  O   UNL     1      66.765 -17.223  19.949  1.00  0.00    -0.392 OA
ATOM     11  H   UNL     1      67.602 -17.304  19.422  1.00  0.00     0.210 HD
ENDBRANCH   9  10
ENDBRANCH   8   9
ENDBRANCH   2   7
TORSDOF 6
ENDMDL
MODEL 4
REMARK VINA RESULT:    -4.707      2.685      5.762
REMARK INTER + INTRA:          -6.524
REMARK INTER:                  -6.211
REMARK INTRA:                  -0.312
REMARK UNBOUND:                -0.303
REMARK SMILES CCCCC=CC=CCO
REMARK SMILES IDX 5 1 6 2 4 3 3 4 2 5 1 6 7 7 8 8 9 9 10 10
REMARK H PARENT 10 11
REMARK Flexibility Score: inf
ROOT
ATOM      1  C   UNL     1      63.167 -15.522  19.734  1.00  0.00    -0.027 C 
ATOM      2  C   UNL     1      62.272 -14.578  20.065  1.00  0.00    -0.005 C 
ENDROOT
BRANCH   1   3
ATOM      3  C   UNL     1      63.122 -16.950  20.204  1.00  0.00     0.027 C 
BRANCH   3   4
ATOM      4  C   UNL     1      64.382 -17.717  19.772  1.00  0.00     0.004 C 
BRANCH   4   5
ATOM      5  C   UNL     1      65.160 -16.993  18.663  1.00  0.00    -0.003 C 
ATOM      6  C   UNL     1      66.674 -17.046  18.870  1.00  0.00     0.004 C 
ENDBRANCH   4   5
ENDBRANCH   3   4
ENDBRANCH   1   3
BRANCH   2   7
ATOM      7  C   UNL     1      61.098 -14.819  20.938  1.00  0.00    -0.002 C 
ATOM      8  C   UNL     1      60.468 -13.851  21.617  1.00  0.00     0.001 C 
BRANCH   8   9
ATOM      9  C   UNL     1      60.862 -12.403  21.588  1.00  0.00     0.183 C 
BRANCH   9  10
ATOM     10  O   UNL     1      61.069 -11.942  22.894  1.00  0.00    -0.392 OA
ATOM     11  H   UNL     1      61.998 -11.593  22.917  1.00  0.00     0.210 HD
ENDBRANCH   9  10
ENDBRANCH   8   9
ENDBRANCH   2   7
TORSDOF 6
ENDMDL
MODEL 5
REMARK VINA RESULT:    -4.660     16.270     17.410
REMARK INTER + INTRA:          -6.462
REMARK INTER:                  -5.967
REMARK INTRA:                  -0.494
REMARK UNBOUND:                -0.303
REMARK SMILES CCCCC=CC=CCO
REMARK SMILES IDX 5 1 6 2 4 3 3 4 2 5 1 6 7 7 8 8 9 9 10 10
REMARK H PARENT 10 11
REMARK Flexibility Score: inf
ROOT
ATOM      1  C   UNL     1      70.505  -5.605   6.354  1.00  0.00    -0.027 C 
ATOM      2  C   UNL     1      70.839  -5.552   7.652  1.00  0.00    -0.005 C 
ENDROOT
BRANCH   1   3
ATOM      3  C   UNL     1      69.133  -5.934   5.832  1.00  0.00     0.027 C 
BRANCH   3   4
ATOM      4  C   UNL     1      69.140  -7.255   5.045  1.00  0.00     0.004 C 
BRANCH   4   5
ATOM      5  C   UNL     1      70.112  -8.287   5.635  1.00  0.00    -0.003 C 
ATOM      6  C   UNL     1      69.525  -9.038   6.830  1.00  0.00     0.004 C 
ENDBRANCH   4   5
ENDBRANCH   3   4
ENDBRANCH   1   3
BRANCH   2   7
ATOM      7  C   UNL     1      69.888  -5.800   8.763  1.00  0.00    -0.002 C 
ATOM      8  C   UNL     1      70.233  -6.387   9.917  1.00  0.00     0.001 C 
BRANCH   8   9
ATOM      9  C   UNL     1      71.617  -6.870  10.240  1.00  0.00     0.183 C 
BRANCH   9  10
ATOM     10  O   UNL     1      72.067  -6.264  11.420  1.00  0.00    -0.392 OA
ATOM     11  H   UNL     1      72.850  -5.712  11.162  1.00  0.00     0.210 HD
ENDBRANCH   9  10
ENDBRANCH   8   9
ENDBRANCH   2   7
TORSDOF 6
ENDMDL
MODEL 6
REMARK VINA RESULT:    -4.502      2.257      3.019
REMARK INTER + INTRA:          -6.253
REMARK INTER:                  -5.459
REMARK INTRA:                  -0.794
REMARK UNBOUND:                -0.303
REMARK SMILES CCCCC=CC=CCO
REMARK SMILES IDX 5 1 6 2 4 3 3 4 2 5 1 6 7 7 8 8 9 9 10 10
REMARK H PARENT 10 11
REMARK Flexibility Score: inf
ROOT
ATOM      1  C   UNL     1      61.644 -15.082  23.277  1.00  0.00    -0.027 C 
ATOM      2  C   UNL     1      62.091 -16.044  22.454  1.00  0.00    -0.005 C 
ENDROOT
BRANCH   1   3
ATOM      3  C   UNL     1      60.422 -14.240  23.030  1.00  0.00     0.027 C 
BRANCH   3   4
ATOM      4  C   UNL     1      60.805 -12.784  22.718  1.00  0.00     0.004 C 
BRANCH   4   5
ATOM      5  C   UNL     1      60.439 -12.374  21.284  1.00  0.00    -0.003 C 
ATOM      6  C   UNL     1      59.390 -13.291  20.656  1.00  0.00     0.004 C 
ENDBRANCH   4   5
ENDBRANCH   3   4
ENDBRANCH   1   3
BRANCH   2   7
ATOM      7  C   UNL     1      61.426 -16.421  21.184  1.00  0.00    -0.002 C 
ATOM      8  C   UNL     1      61.901 -16.096  19.974  1.00  0.00     0.001 C 
BRANCH   8   9
ATOM      9  C   UNL     1      63.159 -15.312  19.741  1.00  0.00     0.183 C 
BRANCH   9  10
ATOM     10  O   UNL     1      62.839 -14.026  19.289  1.00  0.00    -0.392 OA
ATOM     11  H   UNL     1      61.855 -14.018  19.162  1.00  0.00     0.210 HD
ENDBRANCH   9  10
ENDBRANCH   8   9
ENDBRANCH   2   7
TORSDOF 6
ENDMDL
MODEL 7
REMARK VINA RESULT:    -4.489     17.458     18.297
REMARK INTER + INTRA:          -6.236
REMARK INTER:                  -5.949
REMARK INTRA:                  -0.287
REMARK UNBOUND:                -0.303
REMARK SMILES CCCCC=CC=CCO
REMARK SMILES IDX 5 1 6 2 4 3 3 4 2 5 1 6 7 7 8 8 9 9 10 10
REMARK H PARENT 10 11
REMARK Flexibility Score: inf
ROOT
ATOM      1  C   UNL     1      70.210  -5.997   5.236  1.00  0.00    -0.027 C 
ATOM      2  C   UNL     1      70.773  -6.697   6.233  1.00  0.00    -0.005 C 
ENDROOT
BRANCH   1   3
ATOM      3  C   UNL     1      68.852  -5.352   5.300  1.00  0.00     0.027 C 
BRANCH   3   4
ATOM      4  C   UNL     1      67.765  -6.292   4.753  1.00  0.00     0.004 C 
BRANCH   4   5
ATOM      5  C   UNL     1      66.437  -5.566   4.492  1.00  0.00    -0.003 C 
ATOM      6  C   UNL     1      65.282  -6.528   4.215  1.00  0.00     0.004 C 
ENDBRANCH   4   5
ENDBRANCH   3   4
ENDBRANCH   1   3
BRANCH   2   7
ATOM      7  C   UNL     1      70.133  -6.923   7.551  1.00  0.00    -0.002 C 
ATOM      8  C   UNL     1      70.626  -6.453   8.705  1.00  0.00     0.001 C 
BRANCH   8   9
ATOM      9  C   UNL     1      71.884  -5.642   8.820  1.00  0.00     0.183 C 
BRANCH   9  10
ATOM     10  O   UNL     1      71.623  -4.311   8.469  1.00  0.00    -0.392 OA
ATOM     11  H   UNL     1      70.637  -4.237   8.391  1.00  0.00     0.210 HD
ENDBRANCH   9  10
ENDBRANCH   8   9
ENDBRANCH   2   7
TORSDOF 6
ENDMDL
MODEL 8
REMARK VINA RESULT:    -4.424      1.658      2.296
REMARK INTER + INTRA:          -6.150
REMARK INTER:                  -5.662
REMARK INTRA:                  -0.488
REMARK UNBOUND:                -0.303
REMARK SMILES CCCCC=CC=CCO
REMARK SMILES IDX 5 1 6 2 4 3 3 4 2 5 1 6 7 7 8 8 9 9 10 10
REMARK H PARENT 10 11
REMARK Flexibility Score: inf
ROOT
ATOM      1  C   UNL     1      61.423 -15.330  22.805  1.00  0.00    -0.027 C 
ATOM      2  C   UNL     1      62.511 -15.798  22.176  1.00  0.00    -0.005 C 
ENDROOT
BRANCH   1   3
ATOM      3  C   UNL     1      60.349 -14.498  22.158  1.00  0.00     0.027 C 
BRANCH   3   4
ATOM      4  C   UNL     1      60.015 -13.263  23.010  1.00  0.00     0.004 C 
BRANCH   4   5
ATOM      5  C   UNL     1      60.623 -11.973  22.440  1.00  0.00    -0.003 C 
ATOM      6  C   UNL     1      60.914 -12.067  20.943  1.00  0.00     0.004 C 
ENDBRANCH   4   5
ENDBRANCH   3   4
ENDBRANCH   1   3
BRANCH   2   7
ATOM      7  C   UNL     1      62.802 -15.569  20.740  1.00  0.00    -0.002 C 
ATOM      8  C   UNL     1      63.031 -16.556  19.864  1.00  0.00     0.001 C 
BRANCH   8   9
ATOM      9  C   UNL     1      63.027 -18.016  20.213  1.00  0.00     0.183 C 
BRANCH   9  10
ATOM     10  O   UNL     1      64.269 -18.582  19.900  1.00  0.00    -0.392 OA
ATOM     11  H   UNL     1      64.383 -18.467  18.921  1.00  0.00     0.210 HD
ENDBRANCH   9  10
ENDBRANCH   8   9
ENDBRANCH   2   7
TORSDOF 6
ENDMDL
MODEL 9
REMARK VINA RESULT:    -4.410      3.301      5.531
REMARK INTER + INTRA:          -6.131
REMARK INTER:                  -5.592
REMARK INTRA:                  -0.538
REMARK UNBOUND:                -0.303
REMARK SMILES CCCCC=CC=CCO
REMARK SMILES IDX 5 1 6 2 4 3 3 4 2 5 1 6 7 7 8 8 9 9 10 10
REMARK H PARENT 10 11
REMARK Flexibility Score: inf
ROOT
ATOM      1  C   UNL     1      62.893 -15.331  20.068  1.00  0.00    -0.027 C 
ATOM      2  C   UNL     1      61.972 -14.516  20.604  1.00  0.00    -0.005 C 
ENDROOT
BRANCH   1   3
ATOM      3  C   UNL     1      63.405 -16.590  20.713  1.00  0.00     0.027 C 
BRANCH   3   4
ATOM      4  C   UNL     1      62.901 -17.838  19.971  1.00  0.00     0.004 C 
BRANCH   4   5
ATOM      5  C   UNL     1      61.498 -18.267  20.427  1.00  0.00    -0.003 C 
ATOM      6  C   UNL     1      61.417 -18.524  21.932  1.00  0.00     0.004 C 
ENDBRANCH   4   5
ENDBRANCH   3   4
ENDBRANCH   1   3
BRANCH   2   7
ATOM      7  C   UNL     1      61.316 -14.753  21.912  1.00  0.00    -0.002 C 
ATOM      8  C   UNL     1      60.806 -13.776  22.674  1.00  0.00     0.001 C 
BRANCH   8   9
ATOM      9  C   UNL     1      60.830 -12.320  22.311  1.00  0.00     0.183 C 
BRANCH   9  10
ATOM     10  O   UNL     1      60.337 -11.558  23.377  1.00  0.00    -0.392 OA
ATOM     11  H   UNL     1      59.383 -11.381  23.169  1.00  0.00     0.210 HD
ENDBRANCH   9  10
ENDBRANCH   8   9
ENDBRANCH   2   7
TORSDOF 6
ENDMDL
