MODEL 1
REMARK VINA RESULT:     3.551      0.000      0.000
REMARK INTER + INTRA:           4.064
REMARK INTER:                   3.863
REMARK INTRA:                   0.201
REMARK UNBOUND:                 0.201
REMARK SMILES C[C@@H]1[C@H](C)CC[C@@]2(C(=O)[O-])CC[C@]3(C)C(=CC[C@H]4[C@]5(C)CC[C@H](O)C(C)(C)[C@@H]5CC[C@]43C)[C@@H]12
REMARK SMILES IDX 7 1 6 2 11 3 33 4 5 5 12 6 15 7 2 8 3 9 13 10 16 11 1 12
REMARK SMILES IDX 4 13 14 14 31 15 17 16 18 17 30 18 32 19 19 20 29 21 28 22
REMARK SMILES IDX 21 23 20 24 25 25 22 26 23 27 26 28 27 29 8 30 9 31 10 32
REMARK SMILES IDX 24 33
REMARK H PARENT 24 34
REMARK Flexibility Score: inf
ROOT
ATOM      1  C   UNL     1     -39.422  11.066  22.436  1.00  0.00     0.017 C 
ATOM      2  C   UNL     1     -38.389  12.125  22.938  1.00  0.00     0.014 C 
ATOM      3  C   UNL     1     -39.814  11.345  20.961  1.00  0.00     0.014 C 
ATOM      4  C   UNL     1     -38.799   9.626  22.592  1.00  0.00     0.030 C 
ATOM      5  C   UNL     1     -37.936  11.881  24.385  1.00  0.00     0.004 C 
ATOM      6  C   UNL     1     -38.673  11.116  19.971  1.00  0.00     0.013 C 
ATOM      7  C   UNL     1     -37.732   9.337  21.473  1.00  0.00    -0.063 C 
ATOM      8  C   UNL     1     -38.326   9.369  24.078  1.00  0.00    -0.003 C 
ATOM      9  C   UNL     1     -37.333  10.474  24.545  1.00  0.00    -0.011 C 
ATOM     10  C   UNL     1     -38.100   9.660  19.998  1.00  0.00    -0.006 C 
ATOM     11  C   UNL     1     -36.592   8.652  21.758  1.00  0.00    -0.027 C 
ATOM     12  C   UNL     1     -39.494   9.152  25.071  1.00  0.00     0.008 C 
ATOM     13  C   UNL     1     -36.829  10.255  25.978  1.00  0.00     0.008 C 
ATOM     14  C   UNL     1     -39.271   8.711  19.560  1.00  0.00     0.017 C 
ATOM     15  C   UNL     1     -36.831   9.552  18.987  1.00  0.00    -0.020 C 
ATOM     16  C   UNL     1     -35.506   8.280  20.795  1.00  0.00     0.032 C 
ATOM     17  C   UNL     1     -35.897   8.311  19.302  1.00  0.00     0.006 C 
ATOM     18  C   UNL     1     -37.283   9.540  17.479  1.00  0.00     0.008 C 
ATOM     19  C   UNL     1     -35.906  10.815  19.148  1.00  0.00     0.012 C 
ATOM     20  C   UNL     1     -36.211   6.883  18.656  1.00  0.00    -0.025 C 
ATOM     21  C   UNL     1     -36.627   8.457  16.623  1.00  0.00     0.005 C 
ATOM     22  C   UNL     1     -36.867   7.034  17.203  1.00  0.00     0.003 C 
ATOM     23  C   UNL     1     -34.850   6.082  18.551  1.00  0.00     0.010 C 
ATOM     24  C   UNL     1     -37.142   6.058  19.609  1.00  0.00     0.012 C 
ATOM     25  C   UNL     1     -36.460   5.892  16.173  1.00  0.00    -0.006 C 
ATOM     26  C   UNL     1     -34.106   6.292  17.236  1.00  0.00     0.033 C 
ATOM     27  C   UNL     1     -34.894   5.778  16.018  1.00  0.00     0.120 C 
ATOM     28  C   UNL     1     -37.132   6.123  14.783  1.00  0.00     0.014 C 
ATOM     29  C   UNL     1     -37.037   4.525  16.643  1.00  0.00     0.014 C 
ENDROOT
BRANCH   1  30
ATOM     30  C   UNL     1     -40.734  11.204  23.202  1.00  0.00     0.048 C 
ATOM     31  O   UNL     1     -41.771  10.613  22.795  1.00  0.00    -0.550 OA
ATOM     32  O   UNL     1     -40.845  12.075  24.280  1.00  0.00    -0.550 OA
ENDBRANCH   1  30
BRANCH  27  33
ATOM     33  O   UNL     1     -34.429   6.485  14.893  1.00  0.00    -0.393 OA
ATOM     34  H   UNL     1     -34.579   5.911  14.095  1.00  0.00     0.210 HD
ENDBRANCH  27  33
TORSDOF 2
ENDMDL
MODEL 2
REMARK VINA RESULT:     5.905      2.389      3.300
REMARK INTER + INTRA:           6.624
REMARK INTER:                   4.626
REMARK INTRA:                   1.998
REMARK UNBOUND:                 0.201
REMARK SMILES C[C@@H]1[C@H](C)CC[C@@]2(C(=O)[O-])CC[C@]3(C)C(=CC[C@H]4[C@]5(C)CC[C@H](O)C(C)(C)[C@@H]5CC[C@]43C)[C@@H]12
REMARK SMILES IDX 7 1 6 2 11 3 33 4 5 5 12 6 15 7 2 8 3 9 13 10 16 11 1 12
REMARK SMILES IDX 4 13 14 14 31 15 17 16 18 17 30 18 32 19 19 20 29 21 28 22
REMARK SMILES IDX 21 23 20 24 25 25 22 26 23 27 26 28 27 29 8 30 9 31 10 32
REMARK SMILES IDX 24 33
REMARK H PARENT 24 34
REMARK Flexibility Score: inf
ROOT
ATOM      1  C   UNL     1     -38.095  10.698  20.530  1.00  0.00     0.017 C 
ATOM      2  C   UNL     1     -36.844  11.344  21.208  1.00  0.00     0.014 C 
ATOM      3  C   UNL     1     -37.784  10.322  19.058  1.00  0.00     0.014 C 
ATOM      4  C   UNL     1     -38.529   9.428  21.358  1.00  0.00     0.030 C 
ATOM      5  C   UNL     1     -37.080  11.708  22.681  1.00  0.00     0.004 C 
ATOM      6  C   UNL     1     -36.770   9.187  18.917  1.00  0.00     0.013 C 
ATOM      7  C   UNL     1     -37.569   8.212  21.089  1.00  0.00    -0.063 C 
ATOM      8  C   UNL     1     -38.770   9.795  22.877  1.00  0.00    -0.003 C 
ATOM      9  C   UNL     1     -37.511  10.474  23.492  1.00  0.00    -0.011 C 
ATOM     10  C   UNL     1     -37.213   7.860  19.618  1.00  0.00    -0.006 C 
ATOM     11  C   UNL     1     -37.207   7.375  22.098  1.00  0.00    -0.027 C 
ATOM     12  C   UNL     1     -40.068  10.601  23.121  1.00  0.00     0.008 C 
ATOM     13  C   UNL     1     -37.690  10.829  24.974  1.00  0.00     0.008 C 
ATOM     14  C   UNL     1     -38.521   7.386  18.892  1.00  0.00     0.017 C 
ATOM     15  C   UNL     1     -36.026   6.755  19.497  1.00  0.00    -0.020 C 
ATOM     16  C   UNL     1     -36.327   6.167  21.988  1.00  0.00     0.032 C 
ATOM     17  C   UNL     1     -36.157   5.591  20.565  1.00  0.00     0.006 C 
ATOM     18  C   UNL     1     -35.923   6.165  18.041  1.00  0.00     0.008 C 
ATOM     19  C   UNL     1     -34.633   7.427  19.787  1.00  0.00     0.012 C 
ATOM     20  C   UNL     1     -37.046   4.302  20.247  1.00  0.00    -0.025 C 
ATOM     21  C   UNL     1     -35.819   4.641  17.974  1.00  0.00     0.005 C 
ATOM     22  C   UNL     1     -37.014   3.946  18.686  1.00  0.00     0.003 C 
ATOM     23  C   UNL     1     -36.471   3.090  21.087  1.00  0.00     0.010 C 
ATOM     24  C   UNL     1     -38.515   4.530  20.741  1.00  0.00     0.012 C 
ATOM     25  C   UNL     1     -37.080   2.389  18.362  1.00  0.00    -0.006 C 
ATOM     26  C   UNL     1     -35.398   2.285  20.359  1.00  0.00     0.033 C 
ATOM     27  C   UNL     1     -35.930   1.594  19.092  1.00  0.00     0.120 C 
ATOM     28  C   UNL     1     -37.032   2.132  16.823  1.00  0.00     0.014 C 
ATOM     29  C   UNL     1     -38.462   1.817  18.792  1.00  0.00     0.014 C 
ENDROOT
BRANCH   1  30
ATOM     30  C   UNL     1     -39.223  11.719  20.423  1.00  0.00     0.048 C 
ATOM     31  O   UNL     1     -39.813  12.125  21.461  1.00  0.00    -0.550 OA
ATOM     32  O   UNL     1     -39.706  12.125  19.183  1.00  0.00    -0.550 OA
ENDBRANCH   1  30
BRANCH  27  33
ATOM     33  O   UNL     1     -34.827   1.376  18.243  1.00  0.00    -0.393 OA
ATOM     34  H   UNL     1     -35.153   1.444  17.306  1.00  0.00     0.210 HD
ENDBRANCH  27  33
TORSDOF 2
ENDMDL
