MODEL 1
REMARK VINA RESULT:     0.000      0.000      0.000
REMARK INTER + INTRA:          -0.053
REMARK INTER:                   0.000
REMARK INTRA:                  -0.053
REMARK UNBOUND:                -0.053
REMARK SMILES O=C([O-])c1cc(O)c(O)c(O)c1
REMARK SMILES IDX 4 1 5 2 12 3 6 4 10 5 8 6 2 7 1 8 3 9 7 10 11 12 9 14
REMARK H PARENT 7 11 11 13 9 15
REMARK Flexibility Score: inf
ROOT
ATOM      1  C   UNL     1      15.738  14.600  53.700  1.00  0.00     0.005 A 
ATOM      2  C   UNL     1      16.736  13.695  53.294  1.00  0.00     0.060 A 
ATOM      3  C   UNL     1      14.404  14.348  53.340  1.00  0.00     0.060 A 
ATOM      4  C   UNL     1      16.409  12.561  52.543  1.00  0.00     0.162 A 
ATOM      5  C   UNL     1      14.068  13.215  52.587  1.00  0.00     0.162 A 
ATOM      6  C   UNL     1      15.073  12.316  52.186  1.00  0.00     0.200 A 
ENDROOT
BRANCH   1   7
ATOM      7  C   UNL     1      16.085  15.798  54.495  1.00  0.00     0.072 C 
ATOM      8  O   UNL     1      15.190  16.606  54.858  1.00  0.00    -0.545 OA
ATOM      9  O   UNL     1      17.404  16.048  54.854  1.00  0.00    -0.545 OA
ENDBRANCH   1   7
BRANCH   4  10
ATOM     10  O   UNL     1      17.428  11.689  52.161  1.00  0.00    -0.504 OA
ATOM     11  H   UNL     1      17.993  11.849  51.335  1.00  0.00     0.293 HD
ENDBRANCH   4  10
BRANCH   5  12
ATOM     12  O   UNL     1      12.740  12.977  52.236  1.00  0.00    -0.504 OA
ATOM     13  H   UNL     1      12.004  13.636  52.463  1.00  0.00     0.293 HD
ENDBRANCH   5  12
BRANCH   6  14
ATOM     14  O   UNL     1      14.756  11.183  51.437  1.00  0.00    -0.502 OA
ATOM     15  H   UNL     1      14.168  10.442  51.801  1.00  0.00     0.293 HD
ENDBRANCH   6  14
TORSDOF 4
ENDMDL
MODEL 2
REMARK VINA RESULT:     0.000      4.138      4.845
REMARK INTER + INTRA:          -0.053
REMARK INTER:                   0.000
REMARK INTRA:                  -0.053
REMARK UNBOUND:                -0.053
REMARK SMILES O=C([O-])c1cc(O)c(O)c(O)c1
REMARK SMILES IDX 4 1 5 2 12 3 6 4 10 5 8 6 2 7 1 8 3 9 7 10 11 12 9 14
REMARK H PARENT 7 11 11 13 9 15
REMARK Flexibility Score: inf
ROOT
ATOM      1  C   UNL     1      13.466  17.039  50.298  1.00  0.00     0.005 A 
ATOM      2  C   UNL     1      14.789  16.649  50.024  1.00  0.00     0.060 A 
ATOM      3  C   UNL     1      12.870  16.627  51.502  1.00  0.00     0.060 A 
ATOM      4  C   UNL     1      15.505  15.862  50.933  1.00  0.00     0.162 A 
ATOM      5  C   UNL     1      13.580  15.838  52.417  1.00  0.00     0.162 A 
ATOM      6  C   UNL     1      14.902  15.452  52.134  1.00  0.00     0.200 A 
ENDROOT
BRANCH   1   7
ATOM      7  C   UNL     1      12.711  17.872  49.337  1.00  0.00     0.072 C 
ATOM      8  O   UNL     1      11.527  18.222  49.585  1.00  0.00    -0.545 OA
ATOM      9  O   UNL     1      13.300  18.283  48.147  1.00  0.00    -0.545 OA
ENDBRANCH   1   7
BRANCH   4  10
ATOM     10  O   UNL     1      16.814  15.496  50.624  1.00  0.00    -0.504 OA
ATOM     11  H   UNL     1      17.414  16.076  50.048  1.00  0.00     0.293 HD
ENDBRANCH   4  10
BRANCH   5  12
ATOM     12  O   UNL     1      12.976  15.435  53.608  1.00  0.00    -0.504 OA
ATOM     13  H   UNL     1      12.010  15.660  53.817  1.00  0.00     0.293 HD
ENDBRANCH   5  12
BRANCH   6  14
ATOM     14  O   UNL     1      15.623  14.668  53.035  1.00  0.00    -0.502 OA
ATOM     15  H   UNL     1      15.972  13.749  52.792  1.00  0.00     0.293 HD
ENDBRANCH   6  14
TORSDOF 4
ENDMDL
MODEL 3
REMARK VINA RESULT:     0.000      6.062      7.367
REMARK INTER + INTRA:          -0.053
REMARK INTER:                   0.000
REMARK INTRA:                  -0.053
REMARK UNBOUND:                -0.053
REMARK SMILES O=C([O-])c1cc(O)c(O)c(O)c1
REMARK SMILES IDX 4 1 5 2 12 3 6 4 10 5 8 6 2 7 1 8 3 9 7 10 11 12 9 14
REMARK H PARENT 7 11 11 13 9 15
REMARK Flexibility Score: inf
ROOT
ATOM      1  C   UNL     1       9.063  16.702  51.139  1.00  0.00     0.005 A 
ATOM      2  C   UNL     1      10.354  16.158  51.253  1.00  0.00     0.060 A 
ATOM      3  C   UNL     1       8.481  16.815  49.865  1.00  0.00     0.060 A 
ATOM      4  C   UNL     1      11.054  15.735  50.118  1.00  0.00     0.162 A 
ATOM      5  C   UNL     1       9.175  16.394  48.724  1.00  0.00     0.162 A 
ATOM      6  C   UNL     1      10.467  15.852  48.847  1.00  0.00     0.200 A 
ENDROOT
BRANCH   1   7
ATOM      7  C   UNL     1       8.323  17.148  52.341  1.00  0.00     0.072 C 
ATOM      8  O   UNL     1       7.166  17.633  52.237  1.00  0.00    -0.545 OA
ATOM      9  O   UNL     1       8.896  17.035  53.602  1.00  0.00    -0.545 OA
ENDBRANCH   1   7
BRANCH   4  10
ATOM     10  O   UNL     1      12.333  15.201  50.274  1.00  0.00    -0.504 OA
ATOM     11  H   UNL     1      13.126  15.538  49.741  1.00  0.00     0.293 HD
ENDBRANCH   4  10
BRANCH   5  12
ATOM     12  O   UNL     1       8.587  16.512  47.464  1.00  0.00    -0.504 OA
ATOM     13  H   UNL     1       7.926  15.826  47.120  1.00  0.00     0.293 HD
ENDBRANCH   5  12
BRANCH   6  14
ATOM     14  O   UNL     1      11.171  15.427  47.720  1.00  0.00    -0.502 OA
ATOM     15  H   UNL     1      12.169  15.569  47.622  1.00  0.00     0.293 HD
ENDBRANCH   6  14
TORSDOF 4
ENDMDL
MODEL 4
REMARK VINA RESULT:     0.000     10.253     11.015
REMARK INTER + INTRA:          -0.053
REMARK INTER:                   0.000
REMARK INTRA:                  -0.053
REMARK UNBOUND:                -0.053
REMARK SMILES O=C([O-])c1cc(O)c(O)c(O)c1
REMARK SMILES IDX 4 1 5 2 12 3 6 4 10 5 8 6 2 7 1 8 3 9 7 10 11 12 9 14
REMARK H PARENT 7 11 11 13 9 15
REMARK Flexibility Score: inf
ROOT
ATOM      1  C   UNL     1      12.439  21.652  47.591  1.00  0.00     0.005 A 
ATOM      2  C   UNL     1      12.985  22.810  47.010  1.00  0.00     0.060 A 
ATOM      3  C   UNL     1      12.256  20.510  46.793  1.00  0.00     0.060 A 
ATOM      4  C   UNL     1      13.342  22.830  45.657  1.00  0.00     0.162 A 
ATOM      5  C   UNL     1      12.611  20.522  45.438  1.00  0.00     0.162 A 
ATOM      6  C   UNL     1      13.156  21.685  44.864  1.00  0.00     0.200 A 
ENDROOT
BRANCH   1   7
ATOM      7  C   UNL     1      12.062  21.632  49.022  1.00  0.00     0.072 C 
ATOM      8  O   UNL     1      11.575  20.593  49.541  1.00  0.00    -0.545 OA
ATOM      9  O   UNL     1      12.243  22.759  49.813  1.00  0.00    -0.545 OA
ENDBRANCH   1   7
BRANCH   4  10
ATOM     10  O   UNL     1      13.881  23.998  45.119  1.00  0.00    -0.504 OA
ATOM     11  H   UNL     1      14.521  24.586  45.640  1.00  0.00     0.293 HD
ENDBRANCH   4  10
BRANCH   5  12
ATOM     12  O   UNL     1      12.425  19.382  44.656  1.00  0.00    -0.504 OA
ATOM     13  H   UNL     1      13.039  18.580  44.731  1.00  0.00     0.293 HD
ENDBRANCH   5  12
BRANCH   6  14
ATOM     14  O   UNL     1      13.516  21.713  43.517  1.00  0.00    -0.502 OA
ATOM     15  H   UNL     1      14.353  21.260  43.172  1.00  0.00     0.293 HD
ENDBRANCH   6  14
TORSDOF 4
ENDMDL
MODEL 5
REMARK VINA RESULT:     0.000      6.824      8.556
REMARK INTER + INTRA:          -0.053
REMARK INTER:                   0.000
REMARK INTRA:                  -0.053
REMARK UNBOUND:                -0.053
REMARK SMILES O=C([O-])c1cc(O)c(O)c(O)c1
REMARK SMILES IDX 4 1 5 2 12 3 6 4 10 5 8 6 2 7 1 8 3 9 7 10 11 12 9 14
REMARK H PARENT 7 11 11 13 9 15
REMARK Flexibility Score: inf
ROOT
ATOM      1  C   UNL     1       8.988  14.805  50.109  1.00  0.00     0.005 A 
ATOM      2  C   UNL     1       7.997  14.783  51.106  1.00  0.00     0.060 A 
ATOM      3  C   UNL     1       9.935  15.842  50.113  1.00  0.00     0.060 A 
ATOM      4  C   UNL     1       7.950  15.779  52.088  1.00  0.00     0.162 A 
ATOM      5  C   UNL     1       9.895  16.843  51.093  1.00  0.00     0.162 A 
ATOM      6  C   UNL     1       8.899  16.814  52.085  1.00  0.00     0.200 A 
ENDROOT
BRANCH   1   7
ATOM      7  C   UNL     1       9.037  13.751  49.072  1.00  0.00     0.072 C 
ATOM      8  O   UNL     1       9.927  13.771  48.181  1.00  0.00    -0.545 OA
ATOM      9  O   UNL     1       8.103  12.723  49.068  1.00  0.00    -0.545 OA
ENDBRANCH   1   7
BRANCH   4  10
ATOM     10  O   UNL     1       6.951  15.721  53.059  1.00  0.00    -0.504 OA
ATOM     11  H   UNL     1       6.761  16.496  53.684  1.00  0.00     0.293 HD
ENDBRANCH   4  10
BRANCH   5  12
ATOM     12  O   UNL     1      10.841  17.868  51.084  1.00  0.00    -0.504 OA
ATOM     13  H   UNL     1      11.389  18.092  51.907  1.00  0.00     0.293 HD
ENDBRANCH   5  12
BRANCH   6  14
ATOM     14  O   UNL     1       8.846  17.802  53.069  1.00  0.00    -0.502 OA
ATOM     15  H   UNL     1       8.740  18.784  52.843  1.00  0.00     0.293 HD
ENDBRANCH   6  14
TORSDOF 4
ENDMDL
MODEL 6
REMARK VINA RESULT:     0.000      9.751     10.860
REMARK INTER + INTRA:          -0.053
REMARK INTER:                   0.000
REMARK INTRA:                  -0.053
REMARK UNBOUND:                -0.053
REMARK SMILES O=C([O-])c1cc(O)c(O)c(O)c1
REMARK SMILES IDX 4 1 5 2 12 3 6 4 10 5 8 6 2 7 1 8 3 9 7 10 11 12 9 14
REMARK H PARENT 7 11 11 13 9 15
REMARK Flexibility Score: inf
ROOT
ATOM      1  C   UNL     1      11.229  20.449  48.031  1.00  0.00     0.005 A 
ATOM      2  C   UNL     1      11.288  21.853  48.088  1.00  0.00     0.060 A 
ATOM      3  C   UNL     1      11.414  19.809  46.794  1.00  0.00     0.060 A 
ATOM      4  C   UNL     1      11.526  22.605  46.932  1.00  0.00     0.162 A 
ATOM      5  C   UNL     1      11.653  20.555  45.632  1.00  0.00     0.162 A 
ATOM      6  C   UNL     1      11.709  21.959  45.698  1.00  0.00     0.200 A 
ENDROOT
BRANCH   1   7
ATOM      7  C   UNL     1      10.978  19.655  49.253  1.00  0.00     0.072 C 
ATOM      8  O   UNL     1      10.927  18.397  49.201  1.00  0.00    -0.545 OA
ATOM      9  O   UNL     1      10.797  20.285  50.478  1.00  0.00    -0.545 OA
ENDBRANCH   1   7
BRANCH   4  10
ATOM     10  O   UNL     1      11.577  23.995  47.032  1.00  0.00    -0.504 OA
ATOM     11  H   UNL     1      11.676  24.590  46.217  1.00  0.00     0.293 HD
ENDBRANCH   4  10
BRANCH   5  12
ATOM     12  O   UNL     1      11.834  19.908  44.410  1.00  0.00    -0.504 OA
ATOM     13  H   UNL     1      12.589  20.159  43.783  1.00  0.00     0.293 HD
ENDBRANCH   5  12
BRANCH   6  14
ATOM     14  O   UNL     1      11.947  22.717  44.552  1.00  0.00    -0.502 OA
ATOM     15  H   UNL     1      11.477  22.530  43.674  1.00  0.00     0.293 HD
ENDBRANCH   6  14
TORSDOF 4
ENDMDL
MODEL 7
REMARK VINA RESULT:     0.000     14.452     16.045
REMARK INTER + INTRA:          -0.053
REMARK INTER:                   0.000
REMARK INTRA:                  -0.053
REMARK UNBOUND:                -0.053
REMARK SMILES O=C([O-])c1cc(O)c(O)c(O)c1
REMARK SMILES IDX 4 1 5 2 12 3 6 4 10 5 8 6 2 7 1 8 3 9 7 10 11 12 9 14
REMARK H PARENT 7 11 11 13 9 15
REMARK Flexibility Score: inf
ROOT
ATOM      1  C   UNL     1       5.665  22.671  45.932  1.00  0.00     0.005 A 
ATOM      2  C   UNL     1       5.400  22.394  47.285  1.00  0.00     0.060 A 
ATOM      3  C   UNL     1       5.535  23.990  45.469  1.00  0.00     0.060 A 
ATOM      4  C   UNL     1       5.012  23.414  48.160  1.00  0.00     0.162 A 
ATOM      5  C   UNL     1       5.147  25.018  46.339  1.00  0.00     0.162 A 
ATOM      6  C   UNL     1       4.883  24.732  47.690  1.00  0.00     0.200 A 
ENDROOT
BRANCH   1   7
ATOM      7  C   UNL     1       6.076  21.591  45.008  1.00  0.00     0.072 C 
ATOM      8  O   UNL     1       6.314  21.841  43.797  1.00  0.00    -0.545 OA
ATOM      9  O   UNL     1       6.207  20.285  45.464  1.00  0.00    -0.545 OA
ENDBRANCH   1   7
BRANCH   4  10
ATOM     10  O   UNL     1       4.759  23.098  49.495  1.00  0.00    -0.504 OA
ATOM     11  H   UNL     1       4.829  22.150  49.847  1.00  0.00     0.293 HD
ENDBRANCH   4  10
BRANCH   5  12
ATOM     12  O   UNL     1       5.021  26.324  45.866  1.00  0.00    -0.504 OA
ATOM     13  H   UNL     1       4.539  26.531  44.998  1.00  0.00     0.293 HD
ENDBRANCH   5  12
BRANCH   6  14
ATOM     14  O   UNL     1       4.497  25.743  48.569  1.00  0.00    -0.502 OA
ATOM     15  H   UNL     1       3.813  25.591  49.301  1.00  0.00     0.293 HD
ENDBRANCH   6  14
TORSDOF 4
ENDMDL
MODEL 8
REMARK VINA RESULT:     0.000      7.386      9.885
REMARK INTER + INTRA:          -0.053
REMARK INTER:                   0.000
REMARK INTRA:                  -0.053
REMARK UNBOUND:                -0.053
REMARK SMILES O=C([O-])c1cc(O)c(O)c(O)c1
REMARK SMILES IDX 4 1 5 2 12 3 6 4 10 5 8 6 2 7 1 8 3 9 7 10 11 12 9 14
REMARK H PARENT 7 11 11 13 9 15
REMARK Flexibility Score: inf
ROOT
ATOM      1  C   UNL     1      15.124  21.787  55.185  1.00  0.00     0.005 A 
ATOM      2  C   UNL     1      15.430  23.125  55.494  1.00  0.00     0.060 A 
ATOM      3  C   UNL     1      14.356  21.037  56.092  1.00  0.00     0.060 A 
ATOM      4  C   UNL     1      14.979  23.704  56.685  1.00  0.00     0.162 A 
ATOM      5  C   UNL     1      13.901  21.610  57.287  1.00  0.00     0.162 A 
ATOM      6  C   UNL     1      14.213  22.948  57.588  1.00  0.00     0.200 A 
ENDROOT
BRANCH   1   7
ATOM      7  C   UNL     1      15.600  21.176  53.925  1.00  0.00     0.072 C 
ATOM      8  O   UNL     1      15.323  19.978  53.650  1.00  0.00    -0.545 OA
ATOM      9  O   UNL     1      16.357  21.916  53.026  1.00  0.00    -0.545 OA
ENDBRANCH   1   7
BRANCH   4  10
ATOM     10  O   UNL     1      15.304  25.033  56.953  1.00  0.00    -0.504 OA
ATOM     11  H   UNL     1      14.652  25.791  56.789  1.00  0.00     0.293 HD
ENDBRANCH   4  10
BRANCH   5  12
ATOM     12  O   UNL     1      13.140  20.855  58.179  1.00  0.00    -0.504 OA
ATOM     13  H   UNL     1      12.243  20.465  57.915  1.00  0.00     0.293 HD
ENDBRANCH   5  12
BRANCH   6  14
ATOM     14  O   UNL     1      13.767  23.534  58.773  1.00  0.00    -0.502 OA
ATOM     15  H   UNL     1      13.139  24.329  58.780  1.00  0.00     0.293 HD
ENDBRANCH   6  14
TORSDOF 4
ENDMDL
MODEL 9
REMARK VINA RESULT:     0.000      8.869      9.195
REMARK INTER + INTRA:          -0.053
REMARK INTER:                   0.000
REMARK INTRA:                  -0.053
REMARK UNBOUND:                -0.053
REMARK SMILES O=C([O-])c1cc(O)c(O)c(O)c1
REMARK SMILES IDX 4 1 5 2 12 3 6 4 10 5 8 6 2 7 1 8 3 9 7 10 11 12 9 14
REMARK H PARENT 7 11 11 13 9 15
REMARK Flexibility Score: inf
ROOT
ATOM      1  C   UNL     1      15.327  22.061  55.861  1.00  0.00     0.005 A 
ATOM      2  C   UNL     1      14.295  22.317  54.941  1.00  0.00     0.060 A 
ATOM      3  C   UNL     1      15.017  21.421  57.072  1.00  0.00     0.060 A 
ATOM      4  C   UNL     1      12.978  21.942  55.223  1.00  0.00     0.162 A 
ATOM      5  C   UNL     1      13.699  21.042  57.363  1.00  0.00     0.162 A 
ATOM      6  C   UNL     1      12.674  21.303  56.437  1.00  0.00     0.200 A 
ENDROOT
BRANCH   1   7
ATOM      7  C   UNL     1      16.721  22.457  55.561  1.00  0.00     0.072 C 
ATOM      8  O   UNL     1      17.644  22.226  56.385  1.00  0.00    -0.545 OA
ATOM      9  O   UNL     1      17.031  23.089  54.362  1.00  0.00    -0.545 OA
ENDBRANCH   1   7
BRANCH   4  10
ATOM     10  O   UNL     1      11.983  22.213  54.284  1.00  0.00    -0.504 OA
ATOM     11  H   UNL     1      12.100  22.003  53.299  1.00  0.00     0.293 HD
ENDBRANCH   4  10
BRANCH   5  12
ATOM     12  O   UNL     1      13.404  20.408  58.569  1.00  0.00    -0.504 OA
ATOM     13  H   UNL     1      14.073  20.376  59.330  1.00  0.00     0.293 HD
ENDBRANCH   5  12
BRANCH   6  14
ATOM     14  O   UNL     1      11.357  20.932  56.710  1.00  0.00    -0.502 OA
ATOM     15  H   UNL     1      10.944  20.087  56.333  1.00  0.00     0.293 HD
ENDBRANCH   6  14
TORSDOF 4
ENDMDL
