MODEL 1
REMARK VINA RESULT:    -3.192      0.000      0.000
REMARK INTER + INTRA:          -6.931
REMARK INTER:                  -5.431
REMARK INTRA:                  -1.499
REMARK UNBOUND:                -1.499
REMARK SMILES CCCCCCCCCCCCCC(=O)[O-]
REMARK SMILES IDX 8 1 9 2 10 3 11 4 12 5 13 6 14 7 15 8 16 9 7 10 6 11 5 12
REMARK SMILES IDX 4 13 3 14 2 15 1 16
REMARK H PARENT
REMARK Flexibility Score: inf
ROOT
ATOM      1  C   UNL     1      -9.307  22.877  10.328  1.00  0.00     0.000 C 
ENDROOT
BRANCH   1   2
ATOM      2  C   UNL     1      -8.533  22.117   9.239  1.00  0.00     0.000 C 
BRANCH   2   3
ATOM      3  C   UNL     1      -7.011  22.272   9.376  1.00  0.00     0.000 C 
BRANCH   3   4
ATOM      4  C   UNL     1      -6.561  22.008  10.819  1.00  0.00     0.000 C 
BRANCH   4   5
ATOM      5  C   UNL     1      -5.667  23.146  11.334  1.00  0.00     0.006 C 
BRANCH   5   6
ATOM      6  C   UNL     1      -4.844  23.791  10.211  1.00  0.00     0.053 C 
BRANCH   6   7
ATOM      7  C   UNL     1      -3.388  23.860  10.557  1.00  0.00     0.041 C 
ATOM      8  O   UNL     1      -2.953  23.271  11.582  1.00  0.00    -0.550 OA
ATOM      9  O   UNL     1      -2.508  24.547   9.733  1.00  0.00    -0.550 OA
ENDBRANCH   6   7
ENDBRANCH   5   6
ENDBRANCH   4   5
ENDBRANCH   3   4
ENDBRANCH   2   3
ENDBRANCH   1   2
BRANCH   1  10
ATOM     10  C   UNL     1     -10.423  22.033  10.960  1.00  0.00     0.000 C 
BRANCH  10  11
ATOM     11  C   UNL     1     -10.035  20.550  10.997  1.00  0.00    -0.000 C 
BRANCH  11  12
ATOM     12  C   UNL     1     -10.024  20.019  12.436  1.00  0.00    -0.000 C 
BRANCH  12  13
ATOM     13  C   UNL     1      -8.750  20.453  13.173  1.00  0.00    -0.000 C 
BRANCH  13  14
ATOM     14  C   UNL     1      -9.074  21.469  14.278  1.00  0.00    -0.000 C 
BRANCH  14  15
ATOM     15  C   UNL     1      -8.168  22.709  14.223  1.00  0.00    -0.003 C 
ATOM     16  C   UNL     1      -7.992  23.373  15.589  1.00  0.00     0.004 C 
ENDBRANCH  14  15
ENDBRANCH  13  14
ENDBRANCH  12  13
ENDBRANCH  11  12
ENDBRANCH  10  11
ENDBRANCH   1  10
TORSDOF 12
ENDMDL
MODEL 2
REMARK VINA RESULT:    -3.090      1.553      2.234
REMARK INTER + INTRA:          -6.757
REMARK INTER:                  -4.940
REMARK INTRA:                  -1.816
REMARK UNBOUND:                -1.499
REMARK SMILES CCCCCCCCCCCCCC(=O)[O-]
REMARK SMILES IDX 8 1 9 2 10 3 11 4 12 5 13 6 14 7 15 8 16 9 7 10 6 11 5 12
REMARK SMILES IDX 4 13 3 14 2 15 1 16
REMARK H PARENT
REMARK Flexibility Score: inf
ROOT
ATOM      1  C   UNL     1      -8.359  21.648  11.703  1.00  0.00     0.000 C 
ENDROOT
BRANCH   1   2
ATOM      2  C   UNL     1      -6.993  21.372  12.350  1.00  0.00     0.000 C 
BRANCH   2   3
ATOM      3  C   UNL     1      -5.932  22.412  11.962  1.00  0.00     0.000 C 
BRANCH   3   4
ATOM      4  C   UNL     1      -6.572  23.607  11.243  1.00  0.00     0.000 C 
BRANCH   4   5
ATOM      5  C   UNL     1      -5.527  24.381  10.425  1.00  0.00     0.006 C 
BRANCH   5   6
ATOM      6  C   UNL     1      -4.127  23.762  10.538  1.00  0.00     0.053 C 
BRANCH   6   7
ATOM      7  C   UNL     1      -3.130  24.738  11.084  1.00  0.00     0.041 C 
ATOM      8  O   UNL     1      -3.408  25.422  12.104  1.00  0.00    -0.550 OA
ATOM      9  O   UNL     1      -1.884  24.868  10.488  1.00  0.00    -0.550 OA
ENDBRANCH   6   7
ENDBRANCH   5   6
ENDBRANCH   4   5
ENDBRANCH   3   4
ENDBRANCH   2   3
ENDBRANCH   1   2
BRANCH   1  10
ATOM     10  C   UNL     1      -9.528  21.079  12.521  1.00  0.00     0.000 C 
BRANCH  10  11
ATOM     11  C   UNL     1      -9.045  20.560  13.879  1.00  0.00    -0.000 C 
BRANCH  11  12
ATOM     12  C   UNL     1     -10.031  20.933  14.994  1.00  0.00    -0.000 C 
BRANCH  12  13
ATOM     13  C   UNL     1      -9.921  22.420  15.353  1.00  0.00    -0.000 C 
BRANCH  13  14
ATOM     14  C   UNL     1      -8.474  22.794  15.706  1.00  0.00    -0.000 C 
BRANCH  14  15
ATOM     15  C   UNL     1      -7.936  23.948  14.847  1.00  0.00    -0.003 C 
ATOM     16  C   UNL     1      -9.022  24.613  14.002  1.00  0.00     0.004 C 
ENDBRANCH  14  15
ENDBRANCH  13  14
ENDBRANCH  12  13
ENDBRANCH  11  12
ENDBRANCH  10  11
ENDBRANCH   1  10
TORSDOF 12
ENDMDL
MODEL 3
REMARK VINA RESULT:    -3.046      1.572      3.128
REMARK INTER + INTRA:          -6.683
REMARK INTER:                  -5.029
REMARK INTRA:                  -1.654
REMARK UNBOUND:                -1.499
REMARK SMILES CCCCCCCCCCCCCC(=O)[O-]
REMARK SMILES IDX 8 1 9 2 10 3 11 4 12 5 13 6 14 7 15 8 16 9 7 10 6 11 5 12
REMARK SMILES IDX 4 13 3 14 2 15 1 16
REMARK H PARENT
REMARK Flexibility Score: inf
ROOT
ATOM      1  C   UNL     1      -7.388  22.560  12.970  1.00  0.00     0.000 C 
ENDROOT
BRANCH   1   2
ATOM      2  C   UNL     1      -6.778  21.565  11.971  1.00  0.00     0.000 C 
BRANCH   2   3
ATOM      3  C   UNL     1      -6.390  22.224  10.639  1.00  0.00     0.000 C 
BRANCH   3   4
ATOM      4  C   UNL     1      -5.772  23.609  10.872  1.00  0.00     0.000 C 
BRANCH   4   5
ATOM      5  C   UNL     1      -4.278  23.611  10.520  1.00  0.00     0.006 C 
BRANCH   5   6
ATOM      6  C   UNL     1      -3.931  24.670   9.464  1.00  0.00     0.053 C 
BRANCH   6   7
ATOM      7  C   UNL     1      -3.611  24.050   8.139  1.00  0.00     0.041 C 
ATOM      8  O   UNL     1      -4.423  23.253   7.600  1.00  0.00    -0.550 OA
ATOM      9  O   UNL     1      -2.432  24.379   7.483  1.00  0.00    -0.550 OA
ENDBRANCH   6   7
ENDBRANCH   5   6
ENDBRANCH   4   5
ENDBRANCH   3   4
ENDBRANCH   2   3
ENDBRANCH   1   2
BRANCH   1  10
ATOM     10  C   UNL     1      -8.445  21.915  13.879  1.00  0.00     0.000 C 
BRANCH  10  11
ATOM     11  C   UNL     1      -8.626  20.431  13.541  1.00  0.00    -0.000 C 
BRANCH  11  12
ATOM     12  C   UNL     1     -10.108  20.087  13.341  1.00  0.00    -0.000 C 
BRANCH  12  13
ATOM     13  C   UNL     1     -10.727  20.945  12.230  1.00  0.00    -0.000 C 
BRANCH  13  14
ATOM     14  C   UNL     1     -10.333  20.416  10.843  1.00  0.00    -0.000 C 
BRANCH  14  15
ATOM     15  C   UNL     1      -9.999  21.544   9.854  1.00  0.00    -0.003 C 
ATOM     16  C   UNL     1     -10.090  22.932  10.487  1.00  0.00     0.004 C 
ENDBRANCH  14  15
ENDBRANCH  13  14
ENDBRANCH  12  13
ENDBRANCH  11  12
ENDBRANCH  10  11
ENDBRANCH   1  10
TORSDOF 12
ENDMDL
MODEL 4
REMARK VINA RESULT:    -3.033      3.217      5.137
REMARK INTER + INTRA:          -6.660
REMARK INTER:                  -4.485
REMARK INTRA:                  -2.175
REMARK UNBOUND:                -1.499
REMARK SMILES CCCCCCCCCCCCCC(=O)[O-]
REMARK SMILES IDX 8 1 9 2 10 3 11 4 12 5 13 6 14 7 15 8 16 9 7 10 6 11 5 12
REMARK SMILES IDX 4 13 3 14 2 15 1 16
REMARK H PARENT
REMARK Flexibility Score: inf
ROOT
ATOM      1  C   UNL     1      -7.008  23.649  11.495  1.00  0.00     0.000 C 
ENDROOT
BRANCH   1   2
ATOM      2  C   UNL     1      -7.275  24.213  12.900  1.00  0.00     0.000 C 
BRANCH   2   3
ATOM      3  C   UNL     1      -8.758  24.535  13.138  1.00  0.00     0.000 C 
BRANCH   3   4
ATOM      4  C   UNL     1      -9.180  24.154  14.563  1.00  0.00     0.000 C 
BRANCH   4   5
ATOM      5  C   UNL     1      -8.027  23.475  15.316  1.00  0.00     0.006 C 
BRANCH   5   6
ATOM      6  C   UNL     1      -8.141  23.653  16.836  1.00  0.00     0.053 C 
BRANCH   6   7
ATOM      7  C   UNL     1      -7.680  25.010  17.274  1.00  0.00     0.041 C 
ATOM      8  O   UNL     1      -6.653  25.525  16.759  1.00  0.00    -0.550 OA
ATOM      9  O   UNL     1      -8.402  25.717  18.226  1.00  0.00    -0.550 OA
ENDBRANCH   6   7
ENDBRANCH   5   6
ENDBRANCH   4   5
ENDBRANCH   3   4
ENDBRANCH   2   3
ENDBRANCH   1   2
BRANCH   1  10
ATOM     10  C   UNL     1      -7.534  22.217  11.322  1.00  0.00     0.000 C 
BRANCH  10  11
ATOM     11  C   UNL     1      -7.048  21.313  12.460  1.00  0.00    -0.000 C 
BRANCH  11  12
ATOM     12  C   UNL     1      -8.223  20.585  13.126  1.00  0.00    -0.000 C 
BRANCH  12  13
ATOM     13  C   UNL     1      -9.550  20.942  12.444  1.00  0.00    -0.000 C 
BRANCH  13  14
ATOM     14  C   UNL     1     -10.697  20.989  13.464  1.00  0.00    -0.000 C 
BRANCH  14  15
ATOM     15  C   UNL     1     -10.260  20.536  14.866  1.00  0.00    -0.003 C 
ATOM     16  C   UNL     1     -11.053  21.217  15.981  1.00  0.00     0.004 C 
ENDBRANCH  14  15
ENDBRANCH  13  14
ENDBRANCH  12  13
ENDBRANCH  11  12
ENDBRANCH  10  11
ENDBRANCH   1  10
TORSDOF 12
ENDMDL
MODEL 5
REMARK VINA RESULT:    -2.954      2.030      3.472
REMARK INTER + INTRA:          -6.526
REMARK INTER:                  -4.857
REMARK INTRA:                  -1.669
REMARK UNBOUND:                -1.499
REMARK SMILES CCCCCCCCCCCCCC(=O)[O-]
REMARK SMILES IDX 8 1 9 2 10 3 11 4 12 5 13 6 14 7 15 8 16 9 7 10 6 11 5 12
REMARK SMILES IDX 4 13 3 14 2 15 1 16
REMARK H PARENT
REMARK Flexibility Score: inf
ROOT
ATOM      1  C   UNL     1     -10.693  23.132  12.495  1.00  0.00     0.000 C 
ENDROOT
BRANCH   1   2
ATOM      2  C   UNL     1     -10.553  21.601  12.518  1.00  0.00     0.000 C 
BRANCH   2   3
ATOM      3  C   UNL     1      -9.242  21.116  11.882  1.00  0.00     0.000 C 
BRANCH   3   4
ATOM      4  C   UNL     1      -8.195  20.796  12.957  1.00  0.00     0.000 C 
BRANCH   4   5
ATOM      5  C   UNL     1      -6.861  21.491  12.650  1.00  0.00     0.006 C 
BRANCH   5   6
ATOM      6  C   UNL     1      -7.055  22.813  11.895  1.00  0.00     0.053 C 
BRANCH   6   7
ATOM      7  C   UNL     1      -5.897  23.115  10.994  1.00  0.00     0.041 C 
ATOM      8  O   UNL     1      -4.718  22.913  11.390  1.00  0.00    -0.550 OA
ATOM      9  O   UNL     1      -6.119  23.588   9.708  1.00  0.00    -0.550 OA
ENDBRANCH   6   7
ENDBRANCH   5   6
ENDBRANCH   4   5
ENDBRANCH   3   4
ENDBRANCH   2   3
ENDBRANCH   1   2
BRANCH   1  10
ATOM     10  C   UNL     1     -10.426  23.772  13.865  1.00  0.00     0.000 C 
BRANCH  10  11
ATOM     11  C   UNL     1     -10.648  22.760  14.995  1.00  0.00    -0.000 C 
BRANCH  11  12
ATOM     12  C   UNL     1      -9.418  22.675  15.908  1.00  0.00    -0.000 C 
BRANCH  12  13
ATOM     13  C   UNL     1      -8.307  23.615  15.425  1.00  0.00    -0.000 C 
BRANCH  13  14
ATOM     14  C   UNL     1      -7.459  24.116  16.603  1.00  0.00    -0.000 C 
BRANCH  14  15
ATOM     15  C   UNL     1      -8.207  24.041  17.943  1.00  0.00    -0.003 C 
ATOM     16  C   UNL     1      -7.303  23.625  19.103  1.00  0.00     0.004 C 
ENDBRANCH  14  15
ENDBRANCH  13  14
ENDBRANCH  12  13
ENDBRANCH  11  12
ENDBRANCH  10  11
ENDBRANCH   1  10
TORSDOF 12
ENDMDL
MODEL 6
REMARK VINA RESULT:    -2.939      1.695      3.068
REMARK INTER + INTRA:          -6.500
REMARK INTER:                  -4.415
REMARK INTRA:                  -2.085
REMARK UNBOUND:                -1.499
REMARK SMILES CCCCCCCCCCCCCC(=O)[O-]
REMARK SMILES IDX 8 1 9 2 10 3 11 4 12 5 13 6 14 7 15 8 16 9 7 10 6 11 5 12
REMARK SMILES IDX 4 13 3 14 2 15 1 16
REMARK H PARENT
REMARK Flexibility Score: inf
ROOT
ATOM      1  C   UNL     1     -10.509  21.601  12.581  1.00  0.00     0.000 C 
ENDROOT
BRANCH   1   2
ATOM      2  C   UNL     1      -9.231  21.051  11.928  1.00  0.00     0.000 C 
BRANCH   2   3
ATOM      3  C   UNL     1      -8.043  21.002  12.900  1.00  0.00     0.000 C 
BRANCH   3   4
ATOM      4  C   UNL     1      -6.765  21.528  12.232  1.00  0.00     0.000 C 
BRANCH   4   5
ATOM      5  C   UNL     1      -7.098  22.351  10.979  1.00  0.00     0.006 C 
BRANCH   5   6
ATOM      6  C   UNL     1      -5.839  22.767  10.206  1.00  0.00     0.053 C 
BRANCH   6   7
ATOM      7  C   UNL     1      -4.926  23.610  11.042  1.00  0.00     0.041 C 
ATOM      8  O   UNL     1      -5.324  24.714  11.498  1.00  0.00    -0.550 OA
ATOM      9  O   UNL     1      -3.647  23.162  11.344  1.00  0.00    -0.550 OA
ENDBRANCH   6   7
ENDBRANCH   5   6
ENDBRANCH   4   5
ENDBRANCH   3   4
ENDBRANCH   2   3
ENDBRANCH   1   2
BRANCH   1  10
ATOM     10  C   UNL     1     -10.612  21.247  14.072  1.00  0.00     0.000 C 
BRANCH  10  11
ATOM     11  C   UNL     1     -10.720  22.512  14.930  1.00  0.00    -0.000 C 
BRANCH  11  12
ATOM     12  C   UNL     1      -9.628  22.544  16.007  1.00  0.00    -0.000 C 
BRANCH  12  13
ATOM     13  C   UNL     1      -8.467  23.455  15.587  1.00  0.00    -0.000 C 
BRANCH  13  14
ATOM     14  C   UNL     1      -8.977  24.660  14.784  1.00  0.00    -0.000 C 
BRANCH  14  15
ATOM     15  C   UNL     1      -8.247  24.828  13.443  1.00  0.00    -0.003 C 
ATOM     16  C   UNL     1      -9.203  25.062  12.273  1.00  0.00     0.004 C 
ENDBRANCH  14  15
ENDBRANCH  13  14
ENDBRANCH  12  13
ENDBRANCH  11  12
ENDBRANCH  10  11
ENDBRANCH   1  10
TORSDOF 12
ENDMDL
MODEL 7
REMARK VINA RESULT:    -2.936      1.041      1.746
REMARK INTER + INTRA:          -6.494
REMARK INTER:                  -4.891
REMARK INTRA:                  -1.604
REMARK UNBOUND:                -1.499
REMARK SMILES CCCCCCCCCCCCCC(=O)[O-]
REMARK SMILES IDX 8 1 9 2 10 3 11 4 12 5 13 6 14 7 15 8 16 9 7 10 6 11 5 12
REMARK SMILES IDX 4 13 3 14 2 15 1 16
REMARK H PARENT
REMARK Flexibility Score: inf
ROOT
ATOM      1  C   UNL     1      -9.514  21.400  11.108  1.00  0.00     0.000 C 
ENDROOT
BRANCH   1   2
ATOM      2  C   UNL     1      -9.338  22.924  11.206  1.00  0.00     0.000 C 
BRANCH   2   3
ATOM      3  C   UNL     1      -7.896  23.335  11.535  1.00  0.00     0.000 C 
BRANCH   3   4
ATOM      4  C   UNL     1      -6.914  22.201  11.207  1.00  0.00     0.000 C 
BRANCH   4   5
ATOM      5  C   UNL     1      -6.150  22.494   9.908  1.00  0.00     0.006 C 
BRANCH   5   6
ATOM      6  C   UNL     1      -5.493  23.880   9.920  1.00  0.00     0.053 C 
BRANCH   6   7
ATOM      7  C   UNL     1      -4.026  23.798  10.216  1.00  0.00     0.041 C 
ATOM      8  O   UNL     1      -3.624  23.242  11.272  1.00  0.00    -0.550 OA
ATOM      9  O   UNL     1      -3.104  24.306   9.311  1.00  0.00    -0.550 OA
ENDBRANCH   6   7
ENDBRANCH   5   6
ENDBRANCH   4   5
ENDBRANCH   3   4
ENDBRANCH   2   3
ENDBRANCH   1   2
BRANCH   1  10
ATOM     10  C   UNL     1     -10.318  20.821  12.282  1.00  0.00     0.000 C 
BRANCH  10  11
ATOM     11  C   UNL     1      -9.405  20.057  13.247  1.00  0.00    -0.000 C 
BRANCH  11  12
ATOM     12  C   UNL     1      -8.992  20.941  14.432  1.00  0.00    -0.000 C 
BRANCH  12  13
ATOM     13  C   UNL     1     -10.151  21.843  14.876  1.00  0.00    -0.000 C 
BRANCH  13  14
ATOM     14  C   UNL     1      -9.657  23.266  15.174  1.00  0.00    -0.000 C 
BRANCH  14  15
ATOM     15  C   UNL     1      -8.128  23.346  15.301  1.00  0.00    -0.003 C 
ATOM     16  C   UNL     1      -7.666  23.606  16.734  1.00  0.00     0.004 C 
ENDBRANCH  14  15
ENDBRANCH  13  14
ENDBRANCH  12  13
ENDBRANCH  11  12
ENDBRANCH  10  11
ENDBRANCH   1  10
TORSDOF 12
ENDMDL
MODEL 8
REMARK VINA RESULT:    -2.911      3.162      5.670
REMARK INTER + INTRA:          -6.452
REMARK INTER:                  -4.713
REMARK INTRA:                  -1.739
REMARK UNBOUND:                -1.499
REMARK SMILES CCCCCCCCCCCCCC(=O)[O-]
REMARK SMILES IDX 8 1 9 2 10 3 11 4 12 5 13 6 14 7 15 8 16 9 7 10 6 11 5 12
REMARK SMILES IDX 4 13 3 14 2 15 1 16
REMARK H PARENT
REMARK Flexibility Score: inf
ROOT
ATOM      1  C   UNL     1     -10.264  21.403  14.144  1.00  0.00     0.000 C 
ENDROOT
BRANCH   1   2
ATOM      2  C   UNL     1     -10.307  22.810  13.526  1.00  0.00     0.000 C 
BRANCH   2   3
ATOM      3  C   UNL     1     -10.422  23.918  14.583  1.00  0.00     0.000 C 
BRANCH   3   4
ATOM      4  C   UNL     1      -9.200  24.844  14.543  1.00  0.00     0.000 C 
BRANCH   4   5
ATOM      5  C   UNL     1      -7.905  24.058  14.798  1.00  0.00     0.006 C 
BRANCH   5   6
ATOM      6  C   UNL     1      -7.839  23.495  16.224  1.00  0.00     0.053 C 
BRANCH   6   7
ATOM      7  C   UNL     1      -7.471  24.551  17.222  1.00  0.00     0.041 C 
ATOM      8  O   UNL     1      -6.441  25.254  17.048  1.00  0.00    -0.550 OA
ATOM      9  O   UNL     1      -8.282  24.779  18.326  1.00  0.00    -0.550 OA
ENDBRANCH   6   7
ENDBRANCH   5   6
ENDBRANCH   4   5
ENDBRANCH   3   4
ENDBRANCH   2   3
ENDBRANCH   1   2
BRANCH   1  10
ATOM     10  C   UNL     1      -9.034  20.598  13.699  1.00  0.00     0.000 C 
BRANCH  10  11
ATOM     11  C   UNL     1      -8.481  21.131  12.372  1.00  0.00    -0.000 C 
BRANCH  11  12
ATOM     12  C   UNL     1      -6.960  21.314  12.444  1.00  0.00    -0.000 C 
BRANCH  12  13
ATOM     13  C   UNL     1      -6.509  22.513  11.599  1.00  0.00    -0.000 C 
BRANCH  13  14
ATOM     14  C   UNL     1      -7.714  23.215  10.955  1.00  0.00    -0.000 C 
BRANCH  14  15
ATOM     15  C   UNL     1      -7.698  23.126   9.421  1.00  0.00    -0.003 C 
ATOM     16  C   UNL     1      -6.530  22.296   8.889  1.00  0.00     0.004 C 
ENDBRANCH  14  15
ENDBRANCH  13  14
ENDBRANCH  12  13
ENDBRANCH  11  12
ENDBRANCH  10  11
ENDBRANCH   1  10
TORSDOF 12
ENDMDL
MODEL 9
REMARK VINA RESULT:    -2.893      1.411      3.112
REMARK INTER + INTRA:          -6.422
REMARK INTER:                  -5.100
REMARK INTRA:                  -1.322
REMARK UNBOUND:                -1.499
REMARK SMILES CCCCCCCCCCCCCC(=O)[O-]
REMARK SMILES IDX 8 1 9 2 10 3 11 4 12 5 13 6 14 7 15 8 16 9 7 10 6 11 5 12
REMARK SMILES IDX 4 13 3 14 2 15 1 16
REMARK H PARENT
REMARK Flexibility Score: inf
ROOT
ATOM      1  C   UNL     1      -6.690  21.740  11.432  1.00  0.00     0.000 C 
ENDROOT
BRANCH   1   2
ATOM      2  C   UNL     1      -6.798  22.176   9.962  1.00  0.00     0.000 C 
BRANCH   2   3
ATOM      3  C   UNL     1      -6.199  23.568   9.711  1.00  0.00     0.000 C 
BRANCH   3   4
ATOM      4  C   UNL     1      -5.070  23.501   8.674  1.00  0.00     0.000 C 
BRANCH   4   5
ATOM      5  C   UNL     1      -3.746  24.004   9.268  1.00  0.00     0.006 C 
BRANCH   5   6
ATOM      6  C   UNL     1      -3.709  23.873  10.797  1.00  0.00     0.053 C 
BRANCH   6   7
ATOM      7  C   UNL     1      -2.672  24.765  11.407  1.00  0.00     0.041 C 
ATOM      8  O   UNL     1      -1.482  24.725  10.997  1.00  0.00    -0.550 OA
ATOM      9  O   UNL     1      -3.026  25.663  12.405  1.00  0.00    -0.550 OA
ENDBRANCH   6   7
ENDBRANCH   5   6
ENDBRANCH   4   5
ENDBRANCH   3   4
ENDBRANCH   2   3
ENDBRANCH   1   2
BRANCH   1  10
ATOM     10  C   UNL     1      -7.285  22.772  12.401  1.00  0.00     0.000 C 
BRANCH  10  11
ATOM     11  C   UNL     1      -7.884  22.085  13.633  1.00  0.00    -0.000 C 
BRANCH  11  12
ATOM     12  C   UNL     1      -9.412  21.993  13.525  1.00  0.00    -0.000 C 
BRANCH  12  13
ATOM     13  C   UNL     1      -9.876  20.532  13.500  1.00  0.00    -0.000 C 
BRANCH  13  14
ATOM     14  C   UNL     1     -10.113  20.055  12.059  1.00  0.00    -0.000 C 
BRANCH  14  15
ATOM     15  C   UNL     1     -10.634  21.175  11.145  1.00  0.00    -0.003 C 
ATOM     16  C   UNL     1     -10.247  20.971   9.681  1.00  0.00     0.004 C 
ENDBRANCH  14  15
ENDBRANCH  13  14
ENDBRANCH  12  13
ENDBRANCH  11  12
ENDBRANCH  10  11
ENDBRANCH   1  10
TORSDOF 12
ENDMDL
