MODEL 1
REMARK VINA RESULT:    -4.005      0.000      0.000
REMARK INTER + INTRA:          -6.559
REMARK INTER:                  -5.761
REMARK INTRA:                  -0.798
REMARK UNBOUND:                -0.798
REMARK SMILES O=C(CO)[C@@H](O)[C@@H](O)[C@@H](O)CO
REMARK SMILES IDX 7 1 9 2 11 3 12 4 10 6 5 8 2 9 1 10 3 11 4 12 6 14 8 16
REMARK H PARENT 12 5 10 7 4 13 6 15 8 17
REMARK Flexibility Score: inf
ROOT
ATOM      1  C   UNL     1       3.010  34.092  29.703  1.00  0.00     0.181 C 
ENDROOT
BRANCH   1   2
ATOM      2  C   UNL     1       4.260  33.352  30.253  1.00  0.00     0.171 C 
BRANCH   2   3
ATOM      3  C   UNL     1       4.273  31.857  29.874  1.00  0.00     0.190 C 
BRANCH   3   4
ATOM      4  O   UNL     1       5.583  31.389  29.703  1.00  0.00    -0.394 OA
ATOM      5  H   UNL     1       6.177  32.184  29.741  1.00  0.00     0.210 HD
ENDBRANCH   3   4
ENDBRANCH   2   3
BRANCH   2   6
ATOM      6  O   UNL     1       4.342  33.482  31.651  1.00  0.00    -0.388 OA
ATOM      7  H   UNL     1       5.291  33.345  31.909  1.00  0.00     0.211 HD
ENDBRANCH   2   6
ENDBRANCH   1   2
BRANCH   1   8
ATOM      8  C   UNL     1       2.702  35.390  30.484  1.00  0.00     0.214 C 
BRANCH   8   9
ATOM      9  C   UNL     1       2.493  36.573  29.560  1.00  0.00     0.189 C 
ATOM     10  O   UNL     1       3.459  37.200  29.151  1.00  0.00    -0.294 OA
BRANCH   9  11
ATOM     11  C   UNL     1       1.113  36.985  29.125  1.00  0.00     0.234 C 
BRANCH  11  12
ATOM     12  O   UNL     1       0.535  35.979  28.339  1.00  0.00    -0.388 OA
ATOM     13  H   UNL     1       1.284  35.425  27.994  1.00  0.00     0.211 HD
ENDBRANCH  11  12
ENDBRANCH   9  11
ENDBRANCH   8   9
BRANCH   8  14
ATOM     14  O   UNL     1       1.551  35.195  31.265  1.00  0.00    -0.382 OA
ATOM     15  H   UNL     1       0.898  34.707  30.696  1.00  0.00     0.211 HD
ENDBRANCH   8  14
ENDBRANCH   1   8
BRANCH   1  16
ATOM     16  O   UNL     1       3.189  34.400  28.342  1.00  0.00    -0.387 OA
ATOM     17  H   UNL     1       2.310  34.288  27.893  1.00  0.00     0.211 HD
ENDBRANCH   1  16
TORSDOF 10
ENDMDL
MODEL 2
REMARK VINA RESULT:    -4.005      1.158      1.986
REMARK INTER + INTRA:          -6.558
REMARK INTER:                  -5.788
REMARK INTRA:                  -0.770
REMARK UNBOUND:                -0.798
REMARK SMILES O=C(CO)[C@@H](O)[C@@H](O)[C@@H](O)CO
REMARK SMILES IDX 7 1 9 2 11 3 12 4 10 6 5 8 2 9 1 10 3 11 4 12 6 14 8 16
REMARK H PARENT 12 5 10 7 4 13 6 15 8 17
REMARK Flexibility Score: inf
ROOT
ATOM      1  C   UNL     1       4.003  33.657  29.898  1.00  0.00     0.181 C 
ENDROOT
BRANCH   1   2
ATOM      2  C   UNL     1       3.946  32.354  30.744  1.00  0.00     0.171 C 
BRANCH   2   3
ATOM      3  C   UNL     1       4.397  31.115  29.945  1.00  0.00     0.190 C 
BRANCH   3   4
ATOM      4  O   UNL     1       5.747  31.210  29.579  1.00  0.00    -0.394 OA
ATOM      5  H   UNL     1       5.787  31.814  28.791  1.00  0.00     0.210 HD
ENDBRANCH   3   4
ENDBRANCH   2   3
BRANCH   2   6
ATOM      6  O   UNL     1       2.650  32.142  31.247  1.00  0.00    -0.388 OA
ATOM      7  H   UNL     1       2.404  31.200  31.053  1.00  0.00     0.211 HD
ENDBRANCH   2   6
ENDBRANCH   1   2
BRANCH   1   8
ATOM      8  C   UNL     1       2.643  33.996  29.246  1.00  0.00     0.214 C 
BRANCH   8   9
ATOM      9  C   UNL     1       1.936  35.128  29.964  1.00  0.00     0.189 C 
ATOM     10  O   UNL     1       1.697  35.033  31.158  1.00  0.00    -0.294 OA
BRANCH   9  11
ATOM     11  C   UNL     1       1.531  36.379  29.233  1.00  0.00     0.234 C 
BRANCH  11  12
ATOM     12  O   UNL     1       0.569  36.078  28.258  1.00  0.00    -0.388 OA
ATOM     13  H   UNL     1       1.065  35.928  27.411  1.00  0.00     0.211 HD
ENDBRANCH  11  12
ENDBRANCH   9  11
ENDBRANCH   8   9
BRANCH   8  14
ATOM     14  O   UNL     1       2.852  34.349  27.903  1.00  0.00    -0.382 OA
ATOM     15  H   UNL     1       3.066  35.320  27.892  1.00  0.00     0.211 HD
ENDBRANCH   8  14
ENDBRANCH   1   8
BRANCH   1  16
ATOM     16  O   UNL     1       4.416  34.737  30.699  1.00  0.00    -0.387 OA
ATOM     17  H   UNL     1       5.313  35.019  30.380  1.00  0.00     0.211 HD
ENDBRANCH   1  16
TORSDOF 10
ENDMDL
MODEL 3
REMARK VINA RESULT:    -3.981      0.988      4.766
REMARK INTER + INTRA:          -6.524
REMARK INTER:                  -5.690
REMARK INTRA:                  -0.835
REMARK UNBOUND:                -0.798
REMARK SMILES O=C(CO)[C@@H](O)[C@@H](O)[C@@H](O)CO
REMARK SMILES IDX 7 1 9 2 11 3 12 4 10 6 5 8 2 9 1 10 3 11 4 12 6 14 8 16
REMARK H PARENT 12 5 10 7 4 13 6 15 8 17
REMARK Flexibility Score: inf
ROOT
ATOM      1  C   UNL     1       2.349  35.174  30.195  1.00  0.00     0.181 C 
ENDROOT
BRANCH   1   2
ATOM      2  C   UNL     1       2.407  36.684  29.835  1.00  0.00     0.171 C 
BRANCH   2   3
ATOM      3  C   UNL     1       1.125  37.170  29.130  1.00  0.00     0.190 C 
BRANCH   3   4
ATOM      4  O   UNL     1       0.571  36.159  28.332  1.00  0.00    -0.394 OA
ATOM      5  H   UNL     1       0.165  36.608  27.544  1.00  0.00     0.210 HD
ENDBRANCH   3   4
ENDBRANCH   2   3
BRANCH   2   6
ATOM      6  O   UNL     1       3.522  36.962  29.024  1.00  0.00    -0.388 OA
ATOM      7  H   UNL     1       3.558  37.945  28.892  1.00  0.00     0.211 HD
ENDBRANCH   2   6
ENDBRANCH   1   2
BRANCH   1   8
ATOM      8  C   UNL     1       3.337  34.330  29.357  1.00  0.00     0.214 C 
BRANCH   8   9
ATOM      9  C   UNL     1       3.450  32.910  29.872  1.00  0.00     0.189 C 
ATOM     10  O   UNL     1       2.447  32.317  30.241  1.00  0.00    -0.294 OA
BRANCH   9  11
ATOM     11  C   UNL     1       4.779  32.207  29.930  1.00  0.00     0.234 C 
BRANCH  11  12
ATOM     12  O   UNL     1       4.689  30.954  29.308  1.00  0.00    -0.388 OA
ATOM     13  H   UNL     1       5.178  31.031  28.447  1.00  0.00     0.211 HD
ENDBRANCH  11  12
ENDBRANCH   9  11
ENDBRANCH   8   9
BRANCH   8  14
ATOM     14  O   UNL     1       2.906  34.312  28.021  1.00  0.00    -0.382 OA
ATOM     15  H   UNL     1       3.704  34.111  27.464  1.00  0.00     0.211 HD
ENDBRANCH   8  14
ENDBRANCH   1   8
BRANCH   1  16
ATOM     16  O   UNL     1       2.627  34.991  31.563  1.00  0.00    -0.387 OA
ATOM     17  H   UNL     1       2.531  35.874  32.007  1.00  0.00     0.211 HD
ENDBRANCH   1  16
TORSDOF 10
ENDMDL
MODEL 4
REMARK VINA RESULT:    -3.922      1.634      2.612
REMARK INTER + INTRA:          -6.440
REMARK INTER:                  -5.328
REMARK INTRA:                  -1.111
REMARK UNBOUND:                -0.798
REMARK SMILES O=C(CO)[C@@H](O)[C@@H](O)[C@@H](O)CO
REMARK SMILES IDX 7 1 9 2 11 3 12 4 10 6 5 8 2 9 1 10 3 11 4 12 6 14 8 16
REMARK H PARENT 12 5 10 7 4 13 6 15 8 17
REMARK Flexibility Score: inf
ROOT
ATOM      1  C   UNL     1       3.747  33.414  30.087  1.00  0.00     0.181 C 
ENDROOT
BRANCH   1   2
ATOM      2  C   UNL     1       4.098  31.935  29.768  1.00  0.00     0.171 C 
BRANCH   2   3
ATOM      3  C   UNL     1       3.355  30.943  30.686  1.00  0.00     0.190 C 
BRANCH   3   4
ATOM      4  O   UNL     1       1.982  30.921  30.402  1.00  0.00    -0.394 OA
ATOM      5  H   UNL     1       1.786  31.743  29.880  1.00  0.00     0.210 HD
ENDBRANCH   3   4
ENDBRANCH   2   3
BRANCH   2   6
ATOM      6  O   UNL     1       5.485  31.718  29.869  1.00  0.00    -0.388 OA
ATOM      7  H   UNL     1       5.761  31.179  29.083  1.00  0.00     0.211 HD
ENDBRANCH   2   6
ENDBRANCH   1   2
BRANCH   1   8
ATOM      8  C   UNL     1       2.971  34.096  28.936  1.00  0.00     0.214 C 
BRANCH   8   9
ATOM      9  C   UNL     1       1.509  34.297  29.278  1.00  0.00     0.189 C 
ATOM     10  O   UNL     1       0.784  33.326  29.435  1.00  0.00    -0.294 OA
BRANCH   9  11
ATOM     11  C   UNL     1       0.931  35.676  29.440  1.00  0.00     0.234 C 
BRANCH  11  12
ATOM     12  O   UNL     1       0.622  36.220  28.186  1.00  0.00    -0.388 OA
ATOM     13  H   UNL     1      -0.334  36.009  28.015  1.00  0.00     0.211 HD
ENDBRANCH  11  12
ENDBRANCH   9  11
ENDBRANCH   8   9
BRANCH   8  14
ATOM     14  O   UNL     1       3.563  35.338  28.656  1.00  0.00    -0.382 OA
ATOM     15  H   UNL     1       3.435  35.906  29.462  1.00  0.00     0.211 HD
ENDBRANCH   8  14
ENDBRANCH   1   8
BRANCH   1  16
ATOM     16  O   UNL     1       2.985  33.488  31.268  1.00  0.00    -0.387 OA
ATOM     17  H   UNL     1       2.654  32.573  31.467  1.00  0.00     0.211 HD
ENDBRANCH   1  16
TORSDOF 10
ENDMDL
MODEL 5
REMARK VINA RESULT:    -3.869      1.357      1.876
REMARK INTER + INTRA:          -6.363
REMARK INTER:                  -5.410
REMARK INTRA:                  -0.953
REMARK UNBOUND:                -0.798
REMARK SMILES O=C(CO)[C@@H](O)[C@@H](O)[C@@H](O)CO
REMARK SMILES IDX 7 1 9 2 11 3 12 4 10 6 5 8 2 9 1 10 3 11 4 12 6 14 8 16
REMARK H PARENT 12 5 10 7 4 13 6 15 8 17
REMARK Flexibility Score: inf
ROOT
ATOM      1  C   UNL     1       2.595  33.200  30.299  1.00  0.00     0.181 C 
ENDROOT
BRANCH   1   2
ATOM      2  C   UNL     1       4.045  33.014  29.773  1.00  0.00     0.171 C 
BRANCH   2   3
ATOM      3  C   UNL     1       4.697  31.716  30.291  1.00  0.00     0.190 C 
BRANCH   3   4
ATOM      4  O   UNL     1       4.403  30.632  29.453  1.00  0.00    -0.394 OA
ATOM      5  H   UNL     1       4.803  29.827  29.877  1.00  0.00     0.210 HD
ENDBRANCH   3   4
ENDBRANCH   2   3
BRANCH   2   6
ATOM      6  O   UNL     1       4.848  34.115  30.124  1.00  0.00    -0.388 OA
ATOM      7  H   UNL     1       4.356  34.938  29.866  1.00  0.00     0.211 HD
ENDBRANCH   2   6
ENDBRANCH   1   2
BRANCH   1   8
ATOM      8  C   UNL     1       1.786  34.209  29.452  1.00  0.00     0.214 C 
BRANCH   8   9
ATOM      9  C   UNL     1       1.689  35.565  30.122  1.00  0.00     0.189 C 
ATOM     10  O   UNL     1       2.368  35.802  31.110  1.00  0.00    -0.294 OA
BRANCH   9  11
ATOM     11  C   UNL     1       0.777  36.634  29.585  1.00  0.00     0.234 C 
BRANCH  11  12
ATOM     12  O   UNL     1       0.380  36.318  28.279  1.00  0.00    -0.388 OA
ATOM     13  H   UNL     1       1.033  35.651  27.939  1.00  0.00     0.211 HD
ENDBRANCH  11  12
ENDBRANCH   9  11
ENDBRANCH   8   9
BRANCH   8  14
ATOM     14  O   UNL     1       2.398  34.348  28.196  1.00  0.00    -0.382 OA
ATOM     15  H   UNL     1       3.358  34.120  28.317  1.00  0.00     0.211 HD
ENDBRANCH   8  14
ENDBRANCH   1   8
BRANCH   1  16
ATOM     16  O   UNL     1       1.924  31.964  30.317  1.00  0.00    -0.387 OA
ATOM     17  H   UNL     1       2.010  31.565  29.411  1.00  0.00     0.211 HD
ENDBRANCH   1  16
TORSDOF 10
ENDMDL
MODEL 6
REMARK VINA RESULT:    -3.862      1.642      4.605
REMARK INTER + INTRA:          -6.354
REMARK INTER:                  -5.347
REMARK INTRA:                  -1.007
REMARK UNBOUND:                -0.798
REMARK SMILES O=C(CO)[C@@H](O)[C@@H](O)[C@@H](O)CO
REMARK SMILES IDX 7 1 9 2 11 3 12 4 10 6 5 8 2 9 1 10 3 11 4 12 6 14 8 16
REMARK H PARENT 12 5 10 7 4 13 6 15 8 17
REMARK Flexibility Score: inf
ROOT
ATOM      1  C   UNL     1       2.517  35.060  29.068  1.00  0.00     0.181 C 
ENDROOT
BRANCH   1   2
ATOM      2  C   UNL     1       1.243  35.888  29.390  1.00  0.00     0.171 C 
BRANCH   2   3
ATOM      3  C   UNL     1       0.260  35.123  30.300  1.00  0.00     0.190 C 
BRANCH   3   4
ATOM      4  O   UNL     1      -0.345  34.061  29.614  1.00  0.00    -0.394 OA
ATOM      5  H   UNL     1      -0.837  33.527  30.291  1.00  0.00     0.210 HD
ENDBRANCH   3   4
ENDBRANCH   2   3
BRANCH   2   6
ATOM      6  O   UNL     1       0.585  36.272  28.208  1.00  0.00    -0.388 OA
ATOM      7  H   UNL     1      -0.224  36.785  28.469  1.00  0.00     0.211 HD
ENDBRANCH   2   6
ENDBRANCH   1   2
BRANCH   1   8
ATOM      8  C   UNL     1       3.071  34.324  30.309  1.00  0.00     0.214 C 
BRANCH   8   9
ATOM      9  C   UNL     1       3.020  32.818  30.145  1.00  0.00     0.189 C 
ATOM     10  O   UNL     1       1.951  32.234  30.239  1.00  0.00    -0.294 OA
BRANCH   9  11
ATOM     11  C   UNL     1       4.266  32.025  29.857  1.00  0.00     0.234 C 
BRANCH  11  12
ATOM     12  O   UNL     1       4.995  31.826  31.037  1.00  0.00    -0.388 OA
ATOM     13  H   UNL     1       5.532  31.001  30.901  1.00  0.00     0.211 HD
ENDBRANCH  11  12
ENDBRANCH   9  11
ENDBRANCH   8   9
BRANCH   8  14
ATOM     14  O   UNL     1       4.398  34.728  30.529  1.00  0.00    -0.382 OA
ATOM     15  H   UNL     1       4.818  34.833  29.634  1.00  0.00     0.211 HD
ENDBRANCH   8  14
ENDBRANCH   1   8
BRANCH   1  16
ATOM     16  O   UNL     1       2.243  34.122  28.055  1.00  0.00    -0.387 OA
ATOM     17  H   UNL     1       1.344  33.743  28.236  1.00  0.00     0.211 HD
ENDBRANCH   1  16
TORSDOF 10
ENDMDL
MODEL 7
REMARK VINA RESULT:    -3.860      2.394      3.699
REMARK INTER + INTRA:          -6.350
REMARK INTER:                  -5.193
REMARK INTRA:                  -1.157
REMARK UNBOUND:                -0.798
REMARK SMILES O=C(CO)[C@@H](O)[C@@H](O)[C@@H](O)CO
REMARK SMILES IDX 7 1 9 2 11 3 12 4 10 6 5 8 2 9 1 10 3 11 4 12 6 14 8 16
REMARK H PARENT 12 5 10 7 4 13 6 15 8 17
REMARK Flexibility Score: inf
ROOT
ATOM      1  C   UNL     1       0.290  36.027  30.214  1.00  0.00     0.181 C 
ENDROOT
BRANCH   1   2
ATOM      2  C   UNL     1      -0.518  34.775  30.652  1.00  0.00     0.171 C 
BRANCH   2   3
ATOM      3  C   UNL     1       0.174  33.457  30.247  1.00  0.00     0.190 C 
BRANCH   3   4
ATOM      4  O   UNL     1       0.172  33.291  28.855  1.00  0.00    -0.394 OA
ATOM      5  H   UNL     1       0.607  32.417  28.672  1.00  0.00     0.210 HD
ENDBRANCH   3   4
ENDBRANCH   2   3
BRANCH   2   6
ATOM      6  O   UNL     1      -1.818  34.806  30.114  1.00  0.00    -0.388 OA
ATOM      7  H   UNL     1      -2.397  35.290  30.760  1.00  0.00     0.211 HD
ENDBRANCH   2   6
ENDBRANCH   1   2
BRANCH   1   8
ATOM      8  C   UNL     1       1.768  35.961  30.663  1.00  0.00     0.214 C 
BRANCH   8   9
ATOM      9  C   UNL     1       2.720  36.302  29.534  1.00  0.00     0.189 C 
ATOM     10  O   UNL     1       2.870  37.468  29.199  1.00  0.00    -0.294 OA
BRANCH   9  11
ATOM     11  C   UNL     1       3.497  35.230  28.820  1.00  0.00     0.234 C 
BRANCH  11  12
ATOM     12  O   UNL     1       2.664  34.548  27.922  1.00  0.00    -0.388 OA
ATOM     13  H   UNL     1       1.753  34.927  28.039  1.00  0.00     0.211 HD
ENDBRANCH  11  12
ENDBRANCH   9  11
ENDBRANCH   8   9
BRANCH   8  14
ATOM     14  O   UNL     1       1.965  36.853  31.729  1.00  0.00    -0.382 OA
ATOM     15  H   UNL     1       1.577  37.725  31.450  1.00  0.00     0.211 HD
ENDBRANCH   8  14
ENDBRANCH   1   8
BRANCH   1  16
ATOM     16  O   UNL     1       0.235  36.175  28.816  1.00  0.00    -0.387 OA
ATOM     17  H   UNL     1       1.070  35.787  28.442  1.00  0.00     0.211 HD
ENDBRANCH   1  16
TORSDOF 10
ENDMDL
MODEL 8
REMARK VINA RESULT:    -3.846      1.301      4.816
REMARK INTER + INTRA:          -6.331
REMARK INTER:                  -5.744
REMARK INTRA:                  -0.587
REMARK UNBOUND:                -0.798
REMARK SMILES O=C(CO)[C@@H](O)[C@@H](O)[C@@H](O)CO
REMARK SMILES IDX 7 1 9 2 11 3 12 4 10 6 5 8 2 9 1 10 3 11 4 12 6 14 8 16
REMARK H PARENT 12 5 10 7 4 13 6 15 8 17
REMARK Flexibility Score: inf
ROOT
ATOM      1  C   UNL     1       3.197  34.803  29.932  1.00  0.00     0.181 C 
ENDROOT
BRANCH   1   2
ATOM      2  C   UNL     1       2.295  35.572  28.927  1.00  0.00     0.171 C 
BRANCH   2   3
ATOM      3  C   UNL     1       1.180  36.372  29.631  1.00  0.00     0.190 C 
BRANCH   3   4
ATOM      4  O   UNL     1       0.104  36.611  28.764  1.00  0.00    -0.394 OA
ATOM      5  H   UNL     1      -0.624  37.002  29.315  1.00  0.00     0.210 HD
ENDBRANCH   3   4
ENDBRANCH   2   3
BRANCH   2   6
ATOM      6  O   UNL     1       1.722  34.689  27.995  1.00  0.00    -0.388 OA
ATOM      7  H   UNL     1       0.886  35.108  27.661  1.00  0.00     0.211 HD
ENDBRANCH   2   6
ENDBRANCH   1   2
BRANCH   1   8
ATOM      8  C   UNL     1       2.982  33.274  29.866  1.00  0.00     0.214 C 
BRANCH   8   9
ATOM      9  C   UNL     1       4.022  32.519  30.669  1.00  0.00     0.189 C 
ATOM     10  O   UNL     1       4.484  33.019  31.684  1.00  0.00    -0.294 OA
BRANCH   9  11
ATOM     11  C   UNL     1       4.490  31.153  30.247  1.00  0.00     0.234 C 
BRANCH  11  12
ATOM     12  O   UNL     1       5.720  31.249  29.582  1.00  0.00    -0.388 OA
ATOM     13  H   UNL     1       5.871  30.373  29.140  1.00  0.00     0.211 HD
ENDBRANCH  11  12
ENDBRANCH   9  11
ENDBRANCH   8   9
BRANCH   8  14
ATOM     14  O   UNL     1       1.700  32.968  30.351  1.00  0.00    -0.382 OA
ATOM     15  H   UNL     1       1.404  33.749  30.890  1.00  0.00     0.211 HD
ENDBRANCH   8  14
ENDBRANCH   1   8
BRANCH   1  16
ATOM     16  O   UNL     1       4.552  35.093  29.687  1.00  0.00    -0.387 OA
ATOM     17  H   UNL     1       4.846  34.523  28.930  1.00  0.00     0.211 HD
ENDBRANCH   1  16
TORSDOF 10
ENDMDL
MODEL 9
REMARK VINA RESULT:    -3.794      1.235      2.213
REMARK INTER + INTRA:          -6.255
REMARK INTER:                  -5.181
REMARK INTRA:                  -1.074
REMARK UNBOUND:                -0.798
REMARK SMILES O=C(CO)[C@@H](O)[C@@H](O)[C@@H](O)CO
REMARK SMILES IDX 7 1 9 2 11 3 12 4 10 6 5 8 2 9 1 10 3 11 4 12 6 14 8 16
REMARK H PARENT 12 5 10 7 4 13 6 15 8 17
REMARK Flexibility Score: inf
ROOT
ATOM      1  C   UNL     1       3.510  33.883  29.370  1.00  0.00     0.181 C 
ENDROOT
BRANCH   1   2
ATOM      2  C   UNL     1       3.680  32.646  30.294  1.00  0.00     0.171 C 
BRANCH   2   3
ATOM      3  C   UNL     1       4.374  32.997  31.626  1.00  0.00     0.190 C 
BRANCH   3   4
ATOM      4  O   UNL     1       3.486  33.625  32.510  1.00  0.00    -0.394 OA
ATOM      5  H   UNL     1       2.675  33.054  32.555  1.00  0.00     0.210 HD
ENDBRANCH   3   4
ENDBRANCH   2   3
BRANCH   2   6
ATOM      6  O   UNL     1       4.402  31.630  29.642  1.00  0.00    -0.388 OA
ATOM      7  H   UNL     1       4.969  32.063  28.951  1.00  0.00     0.211 HD
ENDBRANCH   2   6
ENDBRANCH   1   2
BRANCH   1   8
ATOM      8  C   UNL     1       2.046  34.373  29.303  1.00  0.00     0.214 C 
BRANCH   8   9
ATOM      9  C   UNL     1       1.853  35.688  30.032  1.00  0.00     0.189 C 
ATOM     10  O   UNL     1       2.166  35.780  31.209  1.00  0.00    -0.294 OA
BRANCH   9  11
ATOM     11  C   UNL     1       1.291  36.892  29.326  1.00  0.00     0.234 C 
BRANCH  11  12
ATOM     12  O   UNL     1       0.005  36.612  28.844  1.00  0.00    -0.388 OA
ATOM     13  H   UNL     1       0.109  36.379  27.884  1.00  0.00     0.211 HD
ENDBRANCH  11  12
ENDBRANCH   9  11
ENDBRANCH   8   9
BRANCH   8  14
ATOM     14  O   UNL     1       1.672  34.522  27.958  1.00  0.00    -0.382 OA
ATOM     15  H   UNL     1       1.716  33.619  27.545  1.00  0.00     0.211 HD
ENDBRANCH   8  14
ENDBRANCH   1   8
BRANCH   1  16
ATOM     16  O   UNL     1       4.332  34.935  29.814  1.00  0.00    -0.387 OA
ATOM     17  H   UNL     1       4.557  34.757  30.764  1.00  0.00     0.211 HD
ENDBRANCH   1  16
TORSDOF 10
ENDMDL
