MODEL 1
REMARK VINA RESULT:    -3.471      0.000      0.000
REMARK INTER + INTRA:          -7.498
REMARK INTER:                  -6.516
REMARK INTRA:                  -0.982
REMARK UNBOUND:                -0.982
REMARK SMILES O=C([O-])CCCCCCCCCCCCCCC(=O)[O-]
REMARK SMILES IDX 10 1 9 2 8 3 7 4 6 5 5 6 4 7 2 8 1 9 3 10 11 11 12 12 13 13
REMARK SMILES IDX 14 14 15 15 16 16 17 17 18 18 19 19 20 20
REMARK H PARENT
REMARK Flexibility Score: inf
ROOT
ATOM      1  C   UNL     1      -8.639   6.220   6.006  1.00  0.00     0.000 C 
ENDROOT
BRANCH   1   2
ATOM      2  C   UNL     1      -9.500   5.570   7.104  1.00  0.00     0.000 C 
BRANCH   2   3
ATOM      3  C   UNL     1      -8.970   5.859   8.517  1.00  0.00     0.000 C 
BRANCH   3   4
ATOM      4  C   UNL     1      -7.963   4.800   9.000  1.00  0.00     0.000 C 
BRANCH   4   5
ATOM      5  C   UNL     1      -6.703   5.435   9.627  1.00  0.00     0.000 C 
BRANCH   5   6
ATOM      6  C   UNL     1      -5.971   6.409   8.684  1.00  0.00     0.006 C 
BRANCH   6   7
ATOM      7  C   UNL     1      -6.082   7.884   9.099  1.00  0.00     0.053 C 
BRANCH   7   8
ATOM      8  C   UNL     1      -4.752   8.573   9.070  1.00  0.00     0.041 C 
ATOM      9  O   UNL     1      -4.427   9.280   8.080  1.00  0.00    -0.550 OA
ATOM     10  O   UNL     1      -3.861   8.418  10.125  1.00  0.00    -0.550 OA
ENDBRANCH   7   8
ENDBRANCH   6   7
ENDBRANCH   5   6
ENDBRANCH   4   5
ENDBRANCH   3   4
ENDBRANCH   2   3
ENDBRANCH   1   2
BRANCH   1  11
ATOM     11  C   UNL     1      -8.752   7.754   5.994  1.00  0.00     0.000 C 
BRANCH  11  12
ATOM     12  C   UNL     1     -10.029   8.245   5.290  1.00  0.00     0.000 C 
BRANCH  12  13
ATOM     13  C   UNL     1      -9.804   8.543   3.799  1.00  0.00     0.000 C 
BRANCH  13  14
ATOM     14  C   UNL     1      -8.325   8.431   3.392  1.00  0.00     0.000 C 
BRANCH  14  15
ATOM     15  C   UNL     1      -7.998   9.235   2.123  1.00  0.00     0.000 C 
BRANCH  15  16
ATOM     16  C   UNL     1      -9.044   9.045   1.015  1.00  0.00     0.006 C 
BRANCH  16  17
ATOM     17  C   UNL     1      -8.499   9.516  -0.338  1.00  0.00     0.053 C 
BRANCH  17  18
ATOM     18  C   UNL     1      -9.209   8.825  -1.458  1.00  0.00     0.041 C 
ATOM     19  O   UNL     1      -9.319   9.384  -2.581  1.00  0.00    -0.550 OA
ATOM     20  O   UNL     1      -9.794   7.581  -1.249  1.00  0.00    -0.550 OA
ENDBRANCH  17  18
ENDBRANCH  16  17
ENDBRANCH  15  16
ENDBRANCH  14  15
ENDBRANCH  13  14
ENDBRANCH  12  13
ENDBRANCH  11  12
ENDBRANCH   1  11
TORSDOF 15
ENDMDL
MODEL 2
REMARK VINA RESULT:    -3.311      1.883      2.480
REMARK INTER + INTRA:          -7.196
REMARK INTER:                  -5.781
REMARK INTRA:                  -1.416
REMARK UNBOUND:                -0.982
REMARK SMILES O=C([O-])CCCCCCCCCCCCCCC(=O)[O-]
REMARK SMILES IDX 10 1 9 2 8 3 7 4 6 5 5 6 4 7 2 8 1 9 3 10 11 11 12 12 13 13
REMARK SMILES IDX 14 14 15 15 16 16 17 17 18 18 19 19 20 20
REMARK H PARENT
REMARK Flexibility Score: inf
ROOT
ATOM      1  C   UNL     1      -9.367   5.686   7.048  1.00  0.00     0.000 C 
ENDROOT
BRANCH   1   2
ATOM      2  C   UNL     1      -9.959   5.279   8.409  1.00  0.00     0.000 C 
BRANCH   2   3
ATOM      3  C   UNL     1      -8.951   4.521   9.288  1.00  0.00     0.000 C 
BRANCH   3   4
ATOM      4  C   UNL     1      -7.953   5.459   9.989  1.00  0.00     0.000 C 
BRANCH   4   5
ATOM      5  C   UNL     1      -6.504   5.242   9.500  1.00  0.00     0.000 C 
BRANCH   5   6
ATOM      6  C   UNL     1      -5.528   6.341   9.963  1.00  0.00     0.006 C 
BRANCH   6   7
ATOM      7  C   UNL     1      -4.829   7.080   8.813  1.00  0.00     0.053 C 
BRANCH   7   8
ATOM      8  C   UNL     1      -5.042   8.562   8.890  1.00  0.00     0.041 C 
ATOM      9  O   UNL     1      -4.386   9.335   8.145  1.00  0.00    -0.550 OA
ATOM     10  O   UNL     1      -5.948   9.091   9.801  1.00  0.00    -0.550 OA
ENDBRANCH   7   8
ENDBRANCH   6   7
ENDBRANCH   5   6
ENDBRANCH   4   5
ENDBRANCH   3   4
ENDBRANCH   2   3
ENDBRANCH   1   2
BRANCH   1  11
ATOM     11  C   UNL     1      -9.755   7.116   6.636  1.00  0.00     0.000 C 
BRANCH  11  12
ATOM     12  C   UNL     1      -8.929   8.186   7.371  1.00  0.00     0.000 C 
BRANCH  12  13
ATOM     13  C   UNL     1      -7.707   8.648   6.560  1.00  0.00     0.000 C 
BRANCH  13  14
ATOM     14  C   UNL     1      -8.086   9.606   5.417  1.00  0.00     0.000 C 
BRANCH  14  15
ATOM     15  C   UNL     1      -6.988   9.712   4.346  1.00  0.00     0.000 C 
BRANCH  15  16
ATOM     16  C   UNL     1      -7.531   9.529   2.921  1.00  0.00     0.006 C 
BRANCH  16  17
ATOM     17  C   UNL     1      -9.061   9.608   2.904  1.00  0.00     0.053 C 
BRANCH  17  18
ATOM     18  C   UNL     1      -9.645   8.335   2.378  1.00  0.00     0.041 C 
ATOM     19  O   UNL     1      -9.982   7.417   3.170  1.00  0.00    -0.550 OA
ATOM     20  O   UNL     1      -9.773   8.143   1.007  1.00  0.00    -0.550 OA
ENDBRANCH  17  18
ENDBRANCH  16  17
ENDBRANCH  15  16
ENDBRANCH  14  15
ENDBRANCH  13  14
ENDBRANCH  12  13
ENDBRANCH  11  12
ENDBRANCH   1  11
TORSDOF 15
ENDMDL
MODEL 3
REMARK VINA RESULT:    -3.288      1.079      8.811
REMARK INTER + INTRA:          -7.153
REMARK INTER:                  -6.053
REMARK INTRA:                  -1.100
REMARK UNBOUND:                -0.982
REMARK SMILES O=C([O-])CCCCCCCCCCCCCCC(=O)[O-]
REMARK SMILES IDX 10 1 9 2 8 3 7 4 6 5 5 6 4 7 2 8 1 9 3 10 11 11 12 12 13 13
REMARK SMILES IDX 14 14 15 15 16 16 17 17 18 18 19 19 20 20
REMARK H PARENT
REMARK Flexibility Score: inf
ROOT
ATOM      1  C   UNL     1      -9.506   6.936   6.260  1.00  0.00     0.000 C 
ENDROOT
BRANCH   1   2
ATOM      2  C   UNL     1      -8.642   7.115   5.000  1.00  0.00     0.000 C 
BRANCH   2   3
ATOM      3  C   UNL     1      -9.453   7.618   3.795  1.00  0.00     0.000 C 
BRANCH   3   4
ATOM      4  C   UNL     1      -9.044   9.035   3.355  1.00  0.00     0.000 C 
BRANCH   4   5
ATOM      5  C   UNL     1      -7.927   9.015   2.288  1.00  0.00     0.000 C 
BRANCH   5   6
ATOM      6  C   UNL     1      -8.326   9.702   0.968  1.00  0.00     0.006 C 
BRANCH   6   7
ATOM      7  C   UNL     1      -9.750   9.372   0.497  1.00  0.00     0.053 C 
BRANCH   7   8
ATOM      8  C   UNL     1      -9.770   8.879  -0.918  1.00  0.00     0.041 C 
ATOM      9  O   UNL     1      -9.800   9.699  -1.873  1.00  0.00    -0.550 OA
ATOM     10  O   UNL     1      -9.778   7.516  -1.184  1.00  0.00    -0.550 OA
ENDBRANCH   7   8
ENDBRANCH   6   7
ENDBRANCH   5   6
ENDBRANCH   4   5
ENDBRANCH   3   4
ENDBRANCH   2   3
ENDBRANCH   1   2
BRANCH   1  11
ATOM     11  C   UNL     1      -9.168   5.650   7.033  1.00  0.00     0.000 C 
BRANCH  11  12
ATOM     12  C   UNL     1     -10.124   5.402   8.213  1.00  0.00     0.000 C 
BRANCH  12  13
ATOM     13  C   UNL     1      -9.422   5.515   9.576  1.00  0.00     0.000 C 
BRANCH  13  14
ATOM     14  C   UNL     1      -9.145   6.974   9.978  1.00  0.00     0.000 C 
BRANCH  14  15
ATOM     15  C   UNL     1      -7.642   7.285  10.076  1.00  0.00     0.000 C 
BRANCH  15  16
ATOM     16  C   UNL     1      -6.766   6.034   9.917  1.00  0.00     0.006 C 
BRANCH  16  17
ATOM     17  C   UNL     1      -5.789   6.196   8.746  1.00  0.00     0.053 C 
BRANCH  17  18
ATOM     18  C   UNL     1      -4.762   7.236   9.061  1.00  0.00     0.041 C 
ATOM     19  O   UNL     1      -3.996   7.093  10.050  1.00  0.00    -0.550 OA
ATOM     20  O   UNL     1      -4.683   8.391   8.292  1.00  0.00    -0.550 OA
ENDBRANCH  17  18
ENDBRANCH  16  17
ENDBRANCH  15  16
ENDBRANCH  14  15
ENDBRANCH  13  14
ENDBRANCH  12  13
ENDBRANCH  11  12
ENDBRANCH   1  11
TORSDOF 15
ENDMDL
MODEL 4
REMARK VINA RESULT:    -3.030      4.350      6.618
REMARK INTER + INTRA:          -6.670
REMARK INTER:                  -5.001
REMARK INTRA:                  -1.669
REMARK UNBOUND:                -0.982
REMARK SMILES O=C([O-])CCCCCCCCCCCCCCC(=O)[O-]
REMARK SMILES IDX 10 1 9 2 8 3 7 4 6 5 5 6 4 7 2 8 1 9 3 10 11 11 12 12 13 13
REMARK SMILES IDX 14 14 15 15 16 16 17 17 18 18 19 19 20 20
REMARK H PARENT
REMARK Flexibility Score: inf
ROOT
ATOM      1  C   UNL     1      -7.962   8.818   4.091  1.00  0.00     0.000 C 
ENDROOT
BRANCH   1   2
ATOM      2  C   UNL     1      -7.694  10.058   4.961  1.00  0.00     0.000 C 
BRANCH   2   3
ATOM      3  C   UNL     1      -6.243  10.122   5.466  1.00  0.00     0.000 C 
BRANCH   3   4
ATOM      4  C   UNL     1      -6.149  10.116   7.002  1.00  0.00     0.000 C 
BRANCH   4   5
ATOM      5  C   UNL     1      -6.871   8.902   7.628  1.00  0.00     0.000 C 
BRANCH   5   6
ATOM      6  C   UNL     1      -7.056   9.017   9.153  1.00  0.00     0.006 C 
BRANCH   6   7
ATOM      7  C   UNL     1      -6.302   7.947   9.957  1.00  0.00     0.053 C 
BRANCH   7   8
ATOM      8  C   UNL     1      -4.867   7.842   9.537  1.00  0.00     0.041 C 
ATOM      9  O   UNL     1      -4.063   8.774   9.800  1.00  0.00    -0.550 OA
ATOM     10  O   UNL     1      -4.423   6.728   8.837  1.00  0.00    -0.550 OA
ENDBRANCH   7   8
ENDBRANCH   6   7
ENDBRANCH   5   6
ENDBRANCH   4   5
ENDBRANCH   3   4
ENDBRANCH   2   3
ENDBRANCH   1   2
BRANCH   1  11
ATOM     11  C   UNL     1      -9.457   8.473   3.994  1.00  0.00     0.000 C 
BRANCH  11  12
ATOM     12  C   UNL     1      -9.710   6.956   3.943  1.00  0.00     0.000 C 
BRANCH  12  13
ATOM     13  C   UNL     1      -9.754   6.319   5.342  1.00  0.00     0.000 C 
BRANCH  13  14
ATOM     14  C   UNL     1      -9.936   7.360   6.459  1.00  0.00     0.000 C 
BRANCH  14  15
ATOM     15  C   UNL     1      -9.970   6.725   7.859  1.00  0.00     0.000 C 
BRANCH  15  16
ATOM     16  C   UNL     1      -8.801   5.758   8.100  1.00  0.00     0.006 C 
BRANCH  16  17
ATOM     17  C   UNL     1      -9.106   4.813   9.268  1.00  0.00     0.053 C 
BRANCH  17  18
ATOM     18  C   UNL     1      -7.915   3.963   9.578  1.00  0.00     0.041 C 
ATOM     19  O   UNL     1      -8.065   2.757   9.906  1.00  0.00    -0.550 OA
ATOM     20  O   UNL     1      -6.640   4.516   9.553  1.00  0.00    -0.550 OA
ENDBRANCH  17  18
ENDBRANCH  16  17
ENDBRANCH  15  16
ENDBRANCH  14  15
ENDBRANCH  13  14
ENDBRANCH  12  13
ENDBRANCH  11  12
ENDBRANCH   1  11
TORSDOF 15
ENDMDL
MODEL 5
REMARK VINA RESULT:    -2.753      1.691      2.235
REMARK INTER + INTRA:          -6.149
REMARK INTER:                  -5.020
REMARK INTRA:                  -1.129
REMARK UNBOUND:                -0.982
REMARK SMILES O=C([O-])CCCCCCCCCCCCCCC(=O)[O-]
REMARK SMILES IDX 10 1 9 2 8 3 7 4 6 5 5 6 4 7 2 8 1 9 3 10 11 11 12 12 13 13
REMARK SMILES IDX 14 14 15 15 16 16 17 17 18 18 19 19 20 20
REMARK H PARENT
REMARK Flexibility Score: inf
ROOT
ATOM      1  C   UNL     1      -9.530   5.253   6.943  1.00  0.00     0.000 C 
ENDROOT
BRANCH   1   2
ATOM      2  C   UNL     1     -10.109   5.255   8.369  1.00  0.00     0.000 C 
BRANCH   2   3
ATOM      3  C   UNL     1      -9.289   4.391   9.340  1.00  0.00     0.000 C 
BRANCH   3   4
ATOM      4  C   UNL     1      -7.798   4.775   9.359  1.00  0.00     0.000 C 
BRANCH   4   5
ATOM      5  C   UNL     1      -7.544   6.094  10.120  1.00  0.00     0.000 C 
BRANCH   5   6
ATOM      6  C   UNL     1      -6.074   6.555  10.077  1.00  0.00     0.006 C 
BRANCH   6   7
ATOM      7  C   UNL     1      -5.168   5.671   9.207  1.00  0.00     0.053 C 
BRANCH   7   8
ATOM      8  C   UNL     1      -3.719   6.014   9.382  1.00  0.00     0.041 C 
ATOM      9  O   UNL     1      -3.384   6.994  10.097  1.00  0.00    -0.550 OA
ATOM     10  O   UNL     1      -2.741   5.267   8.738  1.00  0.00    -0.550 OA
ENDBRANCH   7   8
ENDBRANCH   6   7
ENDBRANCH   5   6
ENDBRANCH   4   5
ENDBRANCH   3   4
ENDBRANCH   2   3
ENDBRANCH   1   2
BRANCH   1  11
ATOM     11  C   UNL     1      -9.647   6.623   6.253  1.00  0.00     0.000 C 
BRANCH  11  12
ATOM     12  C   UNL     1      -8.654   7.654   6.817  1.00  0.00     0.000 C 
BRANCH  12  13
ATOM     13  C   UNL     1      -7.557   8.029   5.807  1.00  0.00     0.000 C 
BRANCH  13  14
ATOM     14  C   UNL     1      -8.088   8.898   4.654  1.00  0.00     0.000 C 
BRANCH  14  15
ATOM     15  C   UNL     1      -6.994   9.776   4.024  1.00  0.00     0.000 C 
BRANCH  15  16
ATOM     16  C   UNL     1      -7.157   9.927   2.504  1.00  0.00     0.006 C 
BRANCH  16  17
ATOM     17  C   UNL     1      -8.635  10.068   2.124  1.00  0.00     0.053 C 
BRANCH  17  18
ATOM     18  C   UNL     1      -8.890   9.461   0.781  1.00  0.00     0.041 C 
ATOM     19  O   UNL     1      -8.644  10.114  -0.267  1.00  0.00    -0.550 OA
ATOM     20  O   UNL     1      -9.446   8.191   0.686  1.00  0.00    -0.550 OA
ENDBRANCH  17  18
ENDBRANCH  16  17
ENDBRANCH  15  16
ENDBRANCH  14  15
ENDBRANCH  13  14
ENDBRANCH  12  13
ENDBRANCH  11  12
ENDBRANCH   1  11
TORSDOF 15
ENDMDL
MODEL 6
REMARK VINA RESULT:    -2.669      1.554      9.109
REMARK INTER + INTRA:          -5.992
REMARK INTER:                  -4.873
REMARK INTRA:                  -1.119
REMARK UNBOUND:                -0.982
REMARK SMILES O=C([O-])CCCCCCCCCCCCCCC(=O)[O-]
REMARK SMILES IDX 10 1 9 2 8 3 7 4 6 5 5 6 4 7 2 8 1 9 3 10 11 11 12 12 13 13
REMARK SMILES IDX 14 14 15 15 16 16 17 17 18 18 19 19 20 20
REMARK H PARENT
REMARK Flexibility Score: inf
ROOT
ATOM      1  C   UNL     1      -8.370   7.625   3.715  1.00  0.00     0.000 C 
ENDROOT
BRANCH   1   2
ATOM      2  C   UNL     1      -7.549   8.923   3.826  1.00  0.00     0.000 C 
BRANCH   2   3
ATOM      3  C   UNL     1      -7.907   9.942   2.733  1.00  0.00     0.000 C 
BRANCH   3   4
ATOM      4  C   UNL     1      -9.426  10.092   2.537  1.00  0.00     0.000 C 
BRANCH   4   5
ATOM      5  C   UNL     1      -9.842   9.944   1.057  1.00  0.00     0.000 C 
BRANCH   5   6
ATOM      6  C   UNL     1      -8.673  10.125   0.069  1.00  0.00     0.006 C 
BRANCH   6   7
ATOM      7  C   UNL     1      -8.392   8.889  -0.799  1.00  0.00     0.053 C 
BRANCH   7   8
ATOM      8  C   UNL     1      -9.498   8.630  -1.776  1.00  0.00     0.041 C 
ATOM      9  O   UNL     1     -10.125   7.539  -1.747  1.00  0.00    -0.550 OA
ATOM     10  O   UNL     1      -9.823   9.583  -2.734  1.00  0.00    -0.550 OA
ENDBRANCH   7   8
ENDBRANCH   6   7
ENDBRANCH   5   6
ENDBRANCH   4   5
ENDBRANCH   3   4
ENDBRANCH   2   3
ENDBRANCH   1   2
BRANCH   1  11
ATOM     11  C   UNL     1      -9.058   7.244   5.036  1.00  0.00     0.000 C 
BRANCH  11  12
ATOM     12  C   UNL     1      -8.213   6.276   5.883  1.00  0.00     0.000 C 
BRANCH  12  13
ATOM     13  C   UNL     1      -7.905   6.832   7.283  1.00  0.00     0.000 C 
BRANCH  13  14
ATOM     14  C   UNL     1      -8.095   8.356   7.368  1.00  0.00     0.000 C 
BRANCH  14  15
ATOM     15  C   UNL     1      -7.472   8.960   8.637  1.00  0.00     0.000 C 
BRANCH  15  16
ATOM     16  C   UNL     1      -5.951   8.755   8.706  1.00  0.00     0.006 C 
BRANCH  16  17
ATOM     17  C   UNL     1      -5.564   7.947   9.950  1.00  0.00     0.053 C 
BRANCH  17  18
ATOM     18  C   UNL     1      -5.212   6.543   9.573  1.00  0.00     0.041 C 
ATOM     19  O   UNL     1      -4.127   6.296   8.986  1.00  0.00    -0.550 OA
ATOM     20  O   UNL     1      -6.107   5.509   9.827  1.00  0.00    -0.550 OA
ENDBRANCH  17  18
ENDBRANCH  16  17
ENDBRANCH  15  16
ENDBRANCH  14  15
ENDBRANCH  13  14
ENDBRANCH  12  13
ENDBRANCH  11  12
ENDBRANCH   1  11
TORSDOF 15
ENDMDL
MODEL 7
REMARK VINA RESULT:    -2.490      2.198      7.604
REMARK INTER + INTRA:          -5.656
REMARK INTER:                  -5.337
REMARK INTRA:                  -0.320
REMARK UNBOUND:                -0.982
REMARK SMILES O=C([O-])CCCCCCCCCCCCCCC(=O)[O-]
REMARK SMILES IDX 10 1 9 2 8 3 7 4 6 5 5 6 4 7 2 8 1 9 3 10 11 11 12 12 13 13
REMARK SMILES IDX 14 14 15 15 16 16 17 17 18 18 19 19 20 20
REMARK H PARENT
REMARK Flexibility Score: inf
ROOT
ATOM      1  C   UNL     1      -8.775   5.657   7.809  1.00  0.00     0.000 C 
ENDROOT
BRANCH   1   2
ATOM      2  C   UNL     1      -8.239   6.269   6.502  1.00  0.00     0.000 C 
BRANCH   2   3
ATOM      3  C   UNL     1      -9.348   6.913   5.655  1.00  0.00     0.000 C 
BRANCH   3   4
ATOM      4  C   UNL     1      -9.922   8.188   6.298  1.00  0.00     0.000 C 
BRANCH   4   5
ATOM      5  C   UNL     1      -9.384   9.472   5.630  1.00  0.00     0.000 C 
BRANCH   5   6
ATOM      6  C   UNL     1      -9.670   9.544   4.117  1.00  0.00     0.006 C 
BRANCH   6   7
ATOM      7  C   UNL     1      -9.037   8.403   3.307  1.00  0.00     0.053 C 
BRANCH   7   8
ATOM      8  C   UNL     1      -7.813   8.855   2.569  1.00  0.00     0.041 C 
ATOM      9  O   UNL     1      -7.908   9.722   1.661  1.00  0.00    -0.550 OA
ATOM     10  O   UNL     1      -6.574   8.303   2.866  1.00  0.00    -0.550 OA
ENDBRANCH   7   8
ENDBRANCH   6   7
ENDBRANCH   5   6
ENDBRANCH   4   5
ENDBRANCH   3   4
ENDBRANCH   2   3
ENDBRANCH   1   2
BRANCH   1  11
ATOM     11  C   UNL     1      -8.060   6.203   9.056  1.00  0.00     0.000 C 
BRANCH  11  12
ATOM     12  C   UNL     1      -8.876   7.291   9.775  1.00  0.00     0.000 C 
BRANCH  12  13
ATOM     13  C   UNL     1      -8.041   8.544  10.088  1.00  0.00     0.000 C 
BRANCH  13  14
ATOM     14  C   UNL     1      -7.641   9.317   8.820  1.00  0.00     0.000 C 
BRANCH  14  15
ATOM     15  C   UNL     1      -6.188   9.045   8.396  1.00  0.00     0.000 C 
BRANCH  15  16
ATOM     16  C   UNL     1      -5.491   8.012   9.294  1.00  0.00     0.006 C 
BRANCH  16  17
ATOM     17  C   UNL     1      -5.035   6.798   8.478  1.00  0.00     0.053 C 
BRANCH  17  18
ATOM     18  C   UNL     1      -3.824   6.176   9.097  1.00  0.00     0.041 C 
ATOM     19  O   UNL     1      -3.284   6.705  10.104  1.00  0.00    -0.550 OA
ATOM     20  O   UNL     1      -3.261   5.038   8.533  1.00  0.00    -0.550 OA
ENDBRANCH  17  18
ENDBRANCH  16  17
ENDBRANCH  15  16
ENDBRANCH  14  15
ENDBRANCH  13  14
ENDBRANCH  12  13
ENDBRANCH  11  12
ENDBRANCH   1  11
TORSDOF 15
ENDMDL
MODEL 8
REMARK VINA RESULT:    -2.469      2.159      3.149
REMARK INTER + INTRA:          -5.616
REMARK INTER:                  -4.604
REMARK INTRA:                  -1.013
REMARK UNBOUND:                -0.982
REMARK SMILES O=C([O-])CCCCCCCCCCCCCCC(=O)[O-]
REMARK SMILES IDX 10 1 9 2 8 3 7 4 6 5 5 6 4 7 2 8 1 9 3 10 11 11 12 12 13 13
REMARK SMILES IDX 14 14 15 15 16 16 17 17 18 18 19 19 20 20
REMARK H PARENT
REMARK Flexibility Score: inf
ROOT
ATOM      1  C   UNL     1      -7.442   8.479   5.976  1.00  0.00     0.000 C 
ENDROOT
BRANCH   1   2
ATOM      2  C   UNL     1      -6.885   9.204   7.214  1.00  0.00     0.000 C 
BRANCH   2   3
ATOM      3  C   UNL     1      -6.319   8.232   8.261  1.00  0.00     0.000 C 
BRANCH   3   4
ATOM      4  C   UNL     1      -7.150   8.204   9.556  1.00  0.00     0.000 C 
BRANCH   4   5
ATOM      5  C   UNL     1      -8.612   7.773   9.302  1.00  0.00     0.000 C 
BRANCH   5   6
ATOM      6  C   UNL     1      -8.913   6.330   9.749  1.00  0.00     0.006 C 
BRANCH   6   7
ATOM      7  C   UNL     1      -8.400   5.255   8.779  1.00  0.00     0.053 C 
BRANCH   7   8
ATOM      8  C   UNL     1      -7.492   4.276   9.460  1.00  0.00     0.041 C 
ATOM      9  O   UNL     1      -7.903   3.118   9.733  1.00  0.00    -0.550 OA
ATOM     10  O   UNL     1      -6.201   4.649   9.814  1.00  0.00    -0.550 OA
ENDBRANCH   7   8
ENDBRANCH   6   7
ENDBRANCH   5   6
ENDBRANCH   4   5
ENDBRANCH   3   4
ENDBRANCH   2   3
ENDBRANCH   1   2
BRANCH   1  11
ATOM     11  C   UNL     1      -8.948   8.715   5.777  1.00  0.00     0.000 C 
BRANCH  11  12
ATOM     12  C   UNL     1      -9.246  10.032   5.038  1.00  0.00     0.000 C 
BRANCH  12  13
ATOM     13  C   UNL     1     -10.123   9.824   3.793  1.00  0.00     0.000 C 
BRANCH  13  14
ATOM     14  C   UNL     1      -9.842   8.484   3.090  1.00  0.00     0.000 C 
BRANCH  14  15
ATOM     15  C   UNL     1     -10.107   8.544   1.576  1.00  0.00     0.000 C 
BRANCH  15  16
ATOM     16  C   UNL     1      -8.970   9.227   0.802  1.00  0.00     0.006 C 
BRANCH  16  17
ATOM     17  C   UNL     1      -9.520  10.020  -0.389  1.00  0.00     0.053 C 
BRANCH  17  18
ATOM     18  C   UNL     1      -9.386   9.229  -1.652  1.00  0.00     0.041 C 
ATOM     19  O   UNL     1      -8.995   9.786  -2.711  1.00  0.00    -0.550 OA
ATOM     20  O   UNL     1      -9.739   7.885  -1.671  1.00  0.00    -0.550 OA
ENDBRANCH  17  18
ENDBRANCH  16  17
ENDBRANCH  15  16
ENDBRANCH  14  15
ENDBRANCH  13  14
ENDBRANCH  12  13
ENDBRANCH  11  12
ENDBRANCH   1  11
TORSDOF 15
ENDMDL
MODEL 9
REMARK VINA RESULT:    -2.192      2.223      7.238
REMARK INTER + INTRA:          -5.097
REMARK INTER:                  -4.795
REMARK INTRA:                  -0.301
REMARK UNBOUND:                -0.982
REMARK SMILES O=C([O-])CCCCCCCCCCCCCCC(=O)[O-]
REMARK SMILES IDX 10 1 9 2 8 3 7 4 6 5 5 6 4 7 2 8 1 9 3 10 11 11 12 12 13 13
REMARK SMILES IDX 14 14 15 15 16 16 17 17 18 18 19 19 20 20
REMARK H PARENT
REMARK Flexibility Score: inf
ROOT
ATOM      1  C   UNL     1      -7.923   5.554   7.917  1.00  0.00     0.000 C 
ENDROOT
BRANCH   1   2
ATOM      2  C   UNL     1      -7.984   6.446   6.664  1.00  0.00     0.000 C 
BRANCH   2   3
ATOM      3  C   UNL     1      -9.356   6.402   5.974  1.00  0.00     0.000 C 
BRANCH   3   4
ATOM      4  C   UNL     1     -10.125   7.729   6.097  1.00  0.00     0.000 C 
BRANCH   4   5
ATOM      5  C   UNL     1     -10.058   8.566   4.800  1.00  0.00     0.000 C 
BRANCH   5   6
ATOM      6  C   UNL     1      -9.571   7.765   3.577  1.00  0.00     0.006 C 
BRANCH   6   7
ATOM      7  C   UNL     1      -8.068   7.908   3.295  1.00  0.00     0.053 C 
BRANCH   7   8
ATOM      8  C   UNL     1      -7.780   9.055   2.373  1.00  0.00     0.041 C 
ATOM      9  O   UNL     1      -6.990   9.967   2.728  1.00  0.00    -0.550 OA
ATOM     10  O   UNL     1      -8.401   9.128   1.133  1.00  0.00    -0.550 OA
ENDBRANCH   7   8
ENDBRANCH   6   7
ENDBRANCH   5   6
ENDBRANCH   4   5
ENDBRANCH   3   4
ENDBRANCH   2   3
ENDBRANCH   1   2
BRANCH   1  11
ATOM     11  C   UNL     1      -6.483   5.229   8.345  1.00  0.00     0.000 C 
BRANCH  11  12
ATOM     12  C   UNL     1      -5.944   6.215   9.396  1.00  0.00     0.000 C 
BRANCH  12  13
ATOM     13  C   UNL     1      -4.432   6.060   9.630  1.00  0.00     0.000 C 
BRANCH  13  14
ATOM     14  C   UNL     1      -3.762   7.379  10.052  1.00  0.00     0.000 C 
BRANCH  14  15
ATOM     15  C   UNL     1      -4.756   8.550  10.123  1.00  0.00     0.000 C 
BRANCH  15  16
ATOM     16  C   UNL     1      -5.360   8.900   8.754  1.00  0.00     0.006 C 
BRANCH  16  17
ATOM     17  C   UNL     1      -6.507   9.905   8.904  1.00  0.00     0.053 C 
BRANCH  17  18
ATOM     18  C   UNL     1      -7.321   9.961   7.650  1.00  0.00     0.041 C 
ATOM     19  O   UNL     1      -8.579   9.962   7.710  1.00  0.00    -0.550 OA
ATOM     20  O   UNL     1      -6.691   9.962   6.411  1.00  0.00    -0.550 OA
ENDBRANCH  17  18
ENDBRANCH  16  17
ENDBRANCH  15  16
ENDBRANCH  14  15
ENDBRANCH  13  14
ENDBRANCH  12  13
ENDBRANCH  11  12
ENDBRANCH   1  11
TORSDOF 15
ENDMDL
