MODEL 1
REMARK VINA RESULT:    -4.881      0.000      0.000
REMARK INTER + INTRA:          -8.340
REMARK INTER:                  -7.449
REMARK INTRA:                  -0.891
REMARK UNBOUND:                -0.891
REMARK SMILES CCCCCCCCCCC(=O)[O-]
REMARK SMILES IDX 7 1 8 2 9 3 10 4 11 5 12 6 13 7 6 8 5 9 4 10 3 11 2 12 1 13
REMARK H PARENT
REMARK Flexibility Score: inf
ROOT
ATOM      1  C   UNL     1     105.536  24.714 196.057  1.00  0.00     0.000 C 
ENDROOT
BRANCH   1   2
ATOM      2  C   UNL     1     104.814  24.444 194.728  1.00  0.00     0.000 C 
BRANCH   2   3
ATOM      3  C   UNL     1     104.802  22.943 194.404  1.00  0.00     0.006 C 
BRANCH   3   4
ATOM      4  C   UNL     1     103.699  22.572 193.403  1.00  0.00     0.053 C 
BRANCH   4   5
ATOM      5  C   UNL     1     102.387  22.331 194.085  1.00  0.00     0.041 C 
ATOM      6  O   UNL     1     101.307  22.557 193.478  1.00  0.00    -0.550 OA
ATOM      7  O   UNL     1     102.357  21.826 195.379  1.00  0.00    -0.550 OA
ENDBRANCH   4   5
ENDBRANCH   3   4
ENDBRANCH   2   3
ENDBRANCH   1   2
BRANCH   1   8
ATOM      8  C   UNL     1     104.636  25.398 197.101  1.00  0.00     0.000 C 
BRANCH   8   9
ATOM      9  C   UNL     1     103.139  25.053 196.998  1.00  0.00    -0.000 C 
BRANCH   9  10
ATOM     10  C   UNL     1     102.620  24.261 198.207  1.00  0.00    -0.000 C 
BRANCH  10  11
ATOM     11  C   UNL     1     103.550  23.086 198.533  1.00  0.00    -0.000 C 
BRANCH  11  12
ATOM     12  C   UNL     1     104.067  23.178 199.974  1.00  0.00    -0.003 C 
ATOM     13  C   UNL     1     105.589  23.282 200.008  1.00  0.00     0.004 C 
ENDBRANCH  11  12
ENDBRANCH  10  11
ENDBRANCH   9  10
ENDBRANCH   8   9
ENDBRANCH   1   8
TORSDOF 9
ENDMDL
MODEL 2
REMARK VINA RESULT:    -4.844      2.656      5.041
REMARK INTER + INTRA:          -8.284
REMARK INTER:                  -7.284
REMARK INTRA:                  -1.000
REMARK UNBOUND:                -0.891
REMARK SMILES CCCCCCCCCCC(=O)[O-]
REMARK SMILES IDX 7 1 8 2 9 3 10 4 11 5 12 6 13 7 6 8 5 9 4 10 3 11 2 12 1 13
REMARK H PARENT
REMARK Flexibility Score: inf
ROOT
ATOM      1  C   UNL     1     104.621  25.633 197.108  1.00  0.00     0.000 C 
ENDROOT
BRANCH   1   2
ATOM      2  C   UNL     1     103.163  25.152 197.151  1.00  0.00     0.000 C 
BRANCH   2   3
ATOM      3  C   UNL     1     103.049  23.809 197.886  1.00  0.00     0.006 C 
BRANCH   3   4
ATOM      4  C   UNL     1     104.418  23.263 198.314  1.00  0.00     0.053 C 
BRANCH   4   5
ATOM      5  C   UNL     1     104.564  23.232 199.805  1.00  0.00     0.041 C 
ATOM      6  O   UNL     1     105.709  23.241 200.330  1.00  0.00    -0.550 OA
ATOM      7  O   UNL     1     103.435  23.227 200.615  1.00  0.00    -0.550 OA
ENDBRANCH   4   5
ENDBRANCH   3   4
ENDBRANCH   2   3
ENDBRANCH   1   2
BRANCH   1   8
ATOM      8  C   UNL     1     105.156  25.803 195.675  1.00  0.00     0.000 C 
BRANCH   8   9
ATOM      9  C   UNL     1     104.693  24.727 194.675  1.00  0.00    -0.000 C 
BRANCH   9  10
ATOM     10  C   UNL     1     105.413  23.383 194.863  1.00  0.00    -0.000 C 
BRANCH  10  11
ATOM     11  C   UNL     1     104.460  22.209 194.607  1.00  0.00    -0.000 C 
BRANCH  11  12
ATOM     12  C   UNL     1     103.522  22.509 193.432  1.00  0.00    -0.003 C 
ATOM     13  C   UNL     1     102.059  22.407 193.854  1.00  0.00     0.004 C 
ENDBRANCH  11  12
ENDBRANCH  10  11
ENDBRANCH   9  10
ENDBRANCH   8   9
ENDBRANCH   1   8
TORSDOF 9
ENDMDL
MODEL 3
REMARK VINA RESULT:    -4.771      2.718      5.137
REMARK INTER + INTRA:          -8.172
REMARK INTER:                  -7.485
REMARK INTRA:                  -0.687
REMARK UNBOUND:                -0.891
REMARK SMILES CCCCCCCCCCC(=O)[O-]
REMARK SMILES IDX 7 1 8 2 9 3 10 4 11 5 12 6 13 7 6 8 5 9 4 10 3 11 2 12 1 13
REMARK H PARENT
REMARK Flexibility Score: inf
ROOT
ATOM      1  C   UNL     1     104.536  25.391 197.059  1.00  0.00     0.000 C 
ENDROOT
BRANCH   1   2
ATOM      2  C   UNL     1     103.009  25.247 197.153  1.00  0.00     0.000 C 
BRANCH   2   3
ATOM      3  C   UNL     1     102.625  24.014 197.983  1.00  0.00     0.006 C 
BRANCH   3   4
ATOM      4  C   UNL     1     103.846  23.164 198.362  1.00  0.00     0.053 C 
BRANCH   4   5
ATOM      5  C   UNL     1     104.153  23.255 199.826  1.00  0.00     0.041 C 
ATOM      6  O   UNL     1     103.229  23.152 200.675  1.00  0.00    -0.550 OA
ATOM      7  O   UNL     1     105.465  23.421 200.253  1.00  0.00    -0.550 OA
ENDBRANCH   4   5
ENDBRANCH   3   4
ENDBRANCH   2   3
ENDBRANCH   1   2
BRANCH   1   8
ATOM      8  C   UNL     1     105.047  25.436 195.608  1.00  0.00     0.000 C 
BRANCH   8   9
ATOM      9  C   UNL     1     105.301  24.060 194.964  1.00  0.00    -0.000 C 
BRANCH   9  10
ATOM     10  C   UNL     1     104.196  23.644 193.981  1.00  0.00    -0.000 C 
BRANCH  10  11
ATOM     11  C   UNL     1     104.352  22.176 193.569  1.00  0.00    -0.000 C 
BRANCH  11  12
ATOM     12  C   UNL     1     105.731  21.637 193.968  1.00  0.00    -0.003 C 
ATOM     13  C   UNL     1     106.488  21.109 192.752  1.00  0.00     0.004 C 
ENDBRANCH  11  12
ENDBRANCH  10  11
ENDBRANCH   9  10
ENDBRANCH   8   9
ENDBRANCH   1   8
TORSDOF 9
ENDMDL
MODEL 4
REMARK VINA RESULT:    -4.727      2.862      5.089
REMARK INTER + INTRA:          -8.105
REMARK INTER:                  -7.563
REMARK INTRA:                  -0.541
REMARK UNBOUND:                -0.891
REMARK SMILES CCCCCCCCCCC(=O)[O-]
REMARK SMILES IDX 7 1 8 2 9 3 10 4 11 5 12 6 13 7 6 8 5 9 4 10 3 11 2 12 1 13
REMARK H PARENT
REMARK Flexibility Score: inf
ROOT
ATOM      1  C   UNL     1     104.610  25.405 197.003  1.00  0.00     0.000 C 
ENDROOT
BRANCH   1   2
ATOM      2  C   UNL     1     103.116  25.176 197.280  1.00  0.00     0.000 C 
BRANCH   2   3
ATOM      3  C   UNL     1     102.876  23.780 197.873  1.00  0.00     0.006 C 
BRANCH   3   4
ATOM      4  C   UNL     1     101.406  23.559 198.259  1.00  0.00     0.053 C 
BRANCH   4   5
ATOM      5  C   UNL     1     101.177  23.772 199.724  1.00  0.00     0.041 C 
ATOM      6  O   UNL     1     100.067  24.203 200.135  1.00  0.00    -0.550 OA
ATOM      7  O   UNL     1     102.178  23.465 200.637  1.00  0.00    -0.550 OA
ENDBRANCH   4   5
ENDBRANCH   3   4
ENDBRANCH   2   3
ENDBRANCH   1   2
BRANCH   1   8
ATOM      8  C   UNL     1     104.965  25.313 195.508  1.00  0.00     0.000 C 
BRANCH   8   9
ATOM      9  C   UNL     1     105.226  23.887 194.987  1.00  0.00    -0.000 C 
BRANCH   9  10
ATOM     10  C   UNL     1     104.105  23.366 194.075  1.00  0.00    -0.000 C 
BRANCH  10  11
ATOM     11  C   UNL     1     104.583  22.165 193.250  1.00  0.00    -0.000 C 
BRANCH  11  12
ATOM     12  C   UNL     1     105.841  21.541 193.866  1.00  0.00    -0.003 C 
ATOM     13  C   UNL     1     106.818  21.090 192.783  1.00  0.00     0.004 C 
ENDBRANCH  11  12
ENDBRANCH  10  11
ENDBRANCH   9  10
ENDBRANCH   8   9
ENDBRANCH   1   8
TORSDOF 9
ENDMDL
MODEL 5
REMARK VINA RESULT:    -4.726      2.443      3.603
REMARK INTER + INTRA:          -8.103
REMARK INTER:                  -7.131
REMARK INTRA:                  -0.972
REMARK UNBOUND:                -0.891
REMARK SMILES CCCCCCCCCCC(=O)[O-]
REMARK SMILES IDX 7 1 8 2 9 3 10 4 11 5 12 6 13 7 6 8 5 9 4 10 3 11 2 12 1 13
REMARK H PARENT
REMARK Flexibility Score: inf
ROOT
ATOM      1  C   UNL     1     102.439  22.228 195.420  1.00  0.00     0.000 C 
ENDROOT
BRANCH   1   2
ATOM      2  C   UNL     1     102.443  22.490 193.906  1.00  0.00     0.000 C 
BRANCH   2   3
ATOM      3  C   UNL     1     103.879  22.537 193.362  1.00  0.00     0.006 C 
BRANCH   3   4
ATOM      4  C   UNL     1     104.916  22.146 194.423  1.00  0.00     0.053 C 
BRANCH   4   5
ATOM      5  C   UNL     1     106.014  21.306 193.845  1.00  0.00     0.041 C 
ATOM      6  O   UNL     1     106.050  21.076 192.607  1.00  0.00    -0.550 OA
ATOM      7  O   UNL     1     107.015  20.806 194.667  1.00  0.00    -0.550 OA
ENDBRANCH   4   5
ENDBRANCH   3   4
ENDBRANCH   2   3
ENDBRANCH   1   2
BRANCH   1   8
ATOM      8  C   UNL     1     101.486  23.161 196.189  1.00  0.00     0.000 C 
BRANCH   8   9
ATOM      9  C   UNL     1     102.096  23.833 197.434  1.00  0.00    -0.000 C 
BRANCH   9  10
ATOM     10  C   UNL     1     102.968  25.051 197.093  1.00  0.00    -0.000 C 
BRANCH  10  11
ATOM     11  C   UNL     1     104.451  24.748 197.335  1.00  0.00    -0.000 C 
BRANCH  11  12
ATOM     12  C   UNL     1     105.342  25.818 196.693  1.00  0.00    -0.003 C 
ATOM     13  C   UNL     1     105.227  25.790 195.171  1.00  0.00     0.004 C 
ENDBRANCH  11  12
ENDBRANCH  10  11
ENDBRANCH   9  10
ENDBRANCH   8   9
ENDBRANCH   1   8
TORSDOF 9
ENDMDL
MODEL 6
REMARK VINA RESULT:    -4.679      2.276      4.864
REMARK INTER + INTRA:          -8.032
REMARK INTER:                  -7.160
REMARK INTRA:                  -0.871
REMARK UNBOUND:                -0.891
REMARK SMILES CCCCCCCCCCC(=O)[O-]
REMARK SMILES IDX 7 1 8 2 9 3 10 4 11 5 12 6 13 7 6 8 5 9 4 10 3 11 2 12 1 13
REMARK H PARENT
REMARK Flexibility Score: inf
ROOT
ATOM      1  C   UNL     1     104.748  24.849 197.426  1.00  0.00     0.000 C 
ENDROOT
BRANCH   1   2
ATOM      2  C   UNL     1     103.402  25.200 196.773  1.00  0.00     0.000 C 
BRANCH   2   3
ATOM      3  C   UNL     1     102.309  24.209 197.199  1.00  0.00     0.006 C 
BRANCH   3   4
ATOM      4  C   UNL     1     102.598  23.581 198.570  1.00  0.00     0.053 C 
BRANCH   4   5
ATOM      5  C   UNL     1     101.356  23.462 199.400  1.00  0.00     0.041 C 
ATOM      6  O   UNL     1     100.267  23.126 198.865  1.00  0.00    -0.550 OA
ATOM      7  O   UNL     1     101.409  23.692 200.769  1.00  0.00    -0.550 OA
ENDBRANCH   4   5
ENDBRANCH   3   4
ENDBRANCH   2   3
ENDBRANCH   1   2
BRANCH   1   8
ATOM      8  C   UNL     1     105.700  24.101 196.476  1.00  0.00     0.000 C 
BRANCH   8   9
ATOM      9  C   UNL     1     105.164  23.892 195.048  1.00  0.00    -0.000 C 
BRANCH   9  10
ATOM     10  C   UNL     1     105.437  22.481 194.505  1.00  0.00    -0.000 C 
BRANCH  10  11
ATOM     11  C   UNL     1     104.496  22.149 193.341  1.00  0.00    -0.000 C 
BRANCH  11  12
ATOM     12  C   UNL     1     103.210  22.979 193.421  1.00  0.00    -0.003 C 
ATOM     13  C   UNL     1     102.064  22.165 194.014  1.00  0.00     0.004 C 
ENDBRANCH  11  12
ENDBRANCH  10  11
ENDBRANCH   9  10
ENDBRANCH   8   9
ENDBRANCH   1   8
TORSDOF 9
ENDMDL
MODEL 7
REMARK VINA RESULT:    -4.670      2.526      5.286
REMARK INTER + INTRA:          -8.019
REMARK INTER:                  -7.114
REMARK INTRA:                  -0.904
REMARK UNBOUND:                -0.891
REMARK SMILES CCCCCCCCCCC(=O)[O-]
REMARK SMILES IDX 7 1 8 2 9 3 10 4 11 5 12 6 13 7 6 8 5 9 4 10 3 11 2 12 1 13
REMARK H PARENT
REMARK Flexibility Score: inf
ROOT
ATOM      1  C   UNL     1     103.229  24.519 196.889  1.00  0.00     0.000 C 
ENDROOT
BRANCH   1   2
ATOM      2  C   UNL     1     103.532  23.952 198.285  1.00  0.00     0.000 C 
BRANCH   2   3
ATOM      3  C   UNL     1     105.033  24.035 198.597  1.00  0.00     0.006 C 
BRANCH   3   4
ATOM      4  C   UNL     1     105.480  22.958 199.595  1.00  0.00     0.053 C 
BRANCH   4   5
ATOM      5  C   UNL     1     106.545  22.075 199.020  1.00  0.00     0.041 C 
ATOM      6  O   UNL     1     106.829  22.140 197.795  1.00  0.00    -0.550 OA
ATOM      7  O   UNL     1     107.248  21.204 199.844  1.00  0.00    -0.550 OA
ENDBRANCH   4   5
ENDBRANCH   3   4
ENDBRANCH   2   3
ENDBRANCH   1   2
BRANCH   1   8
ATOM      8  C   UNL     1     104.459  25.157 196.220  1.00  0.00     0.000 C 
BRANCH   8   9
ATOM      9  C   UNL     1     104.867  24.531 194.873  1.00  0.00    -0.000 C 
BRANCH   9  10
ATOM     10  C   UNL     1     104.987  23.001 194.935  1.00  0.00    -0.000 C 
BRANCH  10  11
ATOM     11  C   UNL     1     104.519  22.361 193.622  1.00  0.00    -0.000 C 
BRANCH  11  12
ATOM     12  C   UNL     1     103.126  22.868 193.230  1.00  0.00    -0.003 C 
ATOM     13  C   UNL     1     102.045  22.247 194.110  1.00  0.00     0.004 C 
ENDBRANCH  11  12
ENDBRANCH  10  11
ENDBRANCH   9  10
ENDBRANCH   8   9
ENDBRANCH   1   8
TORSDOF 9
ENDMDL
MODEL 8
REMARK VINA RESULT:    -4.656      2.690      4.966
REMARK INTER + INTRA:          -7.996
REMARK INTER:                  -6.860
REMARK INTRA:                  -1.136
REMARK UNBOUND:                -0.891
REMARK SMILES CCCCCCCCCCC(=O)[O-]
REMARK SMILES IDX 7 1 8 2 9 3 10 4 11 5 12 6 13 7 6 8 5 9 4 10 3 11 2 12 1 13
REMARK H PARENT
REMARK Flexibility Score: inf
ROOT
ATOM      1  C   UNL     1     101.949  21.912 195.209  1.00  0.00     0.000 C 
ENDROOT
BRANCH   1   2
ATOM      2  C   UNL     1     101.631  23.083 196.152  1.00  0.00     0.000 C 
BRANCH   2   3
ATOM      3  C   UNL     1     102.374  22.929 197.488  1.00  0.00     0.006 C 
BRANCH   3   4
ATOM      4  C   UNL     1     102.081  24.087 198.452  1.00  0.00     0.053 C 
BRANCH   4   5
ATOM      5  C   UNL     1     101.147  23.674 199.549  1.00  0.00     0.041 C 
ATOM      6  O   UNL     1      99.914  23.556 199.320  1.00  0.00    -0.550 OA
ATOM      7  O   UNL     1     101.643  23.387 200.815  1.00  0.00    -0.550 OA
ENDBRANCH   4   5
ENDBRANCH   3   4
ENDBRANCH   2   3
ENDBRANCH   1   2
BRANCH   1   8
ATOM      8  C   UNL     1     102.071  22.344 193.737  1.00  0.00     0.000 C 
BRANCH   8   9
ATOM      9  C   UNL     1     103.453  22.887 193.330  1.00  0.00    -0.000 C 
BRANCH   9  10
ATOM     10  C   UNL     1     104.610  22.204 194.073  1.00  0.00    -0.000 C 
BRANCH  10  11
ATOM     11  C   UNL     1     105.299  23.180 195.033  1.00  0.00    -0.000 C 
BRANCH  11  12
ATOM     12  C   UNL     1     104.844  24.620 194.772  1.00  0.00    -0.003 C 
ATOM     13  C   UNL     1     104.829  25.437 196.061  1.00  0.00     0.004 C 
ENDBRANCH  11  12
ENDBRANCH  10  11
ENDBRANCH   9  10
ENDBRANCH   8   9
ENDBRANCH   1   8
TORSDOF 9
ENDMDL
MODEL 9
REMARK VINA RESULT:    -4.571      1.690      4.292
REMARK INTER + INTRA:          -7.868
REMARK INTER:                  -6.845
REMARK INTRA:                  -1.023
REMARK UNBOUND:                -0.891
REMARK SMILES CCCCCCCCCCC(=O)[O-]
REMARK SMILES IDX 7 1 8 2 9 3 10 4 11 5 12 6 13 7 6 8 5 9 4 10 3 11 2 12 1 13
REMARK H PARENT
REMARK Flexibility Score: inf
ROOT
ATOM      1  C   UNL     1     105.065  24.347 198.252  1.00  0.00     0.000 C 
ENDROOT
BRANCH   1   2
ATOM      2  C   UNL     1     103.760  23.539 198.326  1.00  0.00     0.000 C 
BRANCH   2   3
ATOM      3  C   UNL     1     102.570  24.370 197.826  1.00  0.00     0.006 C 
BRANCH   3   4
ATOM      4  C   UNL     1     101.700  23.595 196.826  1.00  0.00     0.053 C 
BRANCH   4   5
ATOM      5  C   UNL     1     100.798  22.618 197.517  1.00  0.00     0.041 C 
ATOM      6  O   UNL     1     100.769  21.414 197.149  1.00  0.00    -0.550 OA
ATOM      7  O   UNL     1     100.013  23.030 198.587  1.00  0.00    -0.550 OA
ENDBRANCH   4   5
ENDBRANCH   3   4
ENDBRANCH   2   3
ENDBRANCH   1   2
BRANCH   1   8
ATOM      8  C   UNL     1     105.038  25.431 197.160  1.00  0.00     0.000 C 
BRANCH   8   9
ATOM      9  C   UNL     1     105.786  25.070 195.863  1.00  0.00    -0.000 C 
BRANCH   9  10
ATOM     10  C   UNL     1     104.850  24.579 194.748  1.00  0.00    -0.000 C 
BRANCH  10  11
ATOM     11  C   UNL     1     104.772  23.048 194.730  1.00  0.00    -0.000 C 
BRANCH  11  12
ATOM     12  C   UNL     1     104.179  22.544 193.410  1.00  0.00    -0.003 C 
ATOM     13  C   UNL     1     102.654  22.600 193.434  1.00  0.00     0.004 C 
ENDBRANCH  11  12
ENDBRANCH  10  11
ENDBRANCH   9  10
ENDBRANCH   8   9
ENDBRANCH   1   8
TORSDOF 9
ENDMDL
