MODEL 1
REMARK VINA RESULT:    -5.736      0.000      0.000
REMARK INTER + INTRA:          -6.974
REMARK INTER:                  -6.910
REMARK INTRA:                  -0.064
REMARK UNBOUND:                -0.064
REMARK SMILES OCCc1ccc(O)c(O)c1
REMARK SMILES IDX 3 1 4 2 5 3 6 4 7 5 11 6 9 7 8 8 10 10 2 12 1 13
REMARK H PARENT 8 9 10 11 1 14
REMARK Flexibility Score: inf
ROOT
ATOM      1  C   UNL     1      74.419  40.521  -5.636  1.00  0.00     0.064 C 
ENDROOT
BRANCH   1   2
ATOM      2  C   UNL     1      73.020  40.220  -6.104  1.00  0.00    -0.042 A 
ATOM      3  C   UNL     1      71.940  40.315  -5.214  1.00  0.00     0.008 A 
ATOM      4  C   UNL     1      70.638  40.066  -5.656  1.00  0.00     0.050 A 
ATOM      5  C   UNL     1      70.398  39.730  -6.992  1.00  0.00     0.157 A 
ATOM      6  C   UNL     1      72.778  39.895  -7.448  1.00  0.00     0.054 A 
ATOM      7  C   UNL     1      71.471  39.645  -7.896  1.00  0.00     0.157 A 
BRANCH   5   8
ATOM      8  O   UNL     1      69.088  39.486  -7.405  1.00  0.00    -0.504 OA
ATOM      9  H   UNL     1      68.731  39.826  -8.289  1.00  0.00     0.293 HD
ENDBRANCH   5   8
BRANCH   7  10
ATOM     10  O   UNL     1      71.238  39.316  -9.230  1.00  0.00    -0.504 OA
ATOM     11  H   UNL     1      70.477  38.705  -9.500  1.00  0.00     0.293 HD
ENDBRANCH   7  10
ENDBRANCH   1   2
BRANCH   1  12
ATOM     12  C   UNL     1      74.459  41.844  -4.868  1.00  0.00     0.161 C 
BRANCH  12  13
ATOM     13  O   UNL     1      74.037  42.896  -5.692  1.00  0.00    -0.396 OA
ATOM     14  H   UNL     1      73.222  42.579  -6.162  1.00  0.00     0.210 HD
ENDBRANCH  12  13
ENDBRANCH   1  12
TORSDOF 5
ENDMDL
MODEL 2
REMARK VINA RESULT:    -5.533      1.236      2.383
REMARK INTER + INTRA:          -6.729
REMARK INTER:                  -6.655
REMARK INTRA:                  -0.074
REMARK UNBOUND:                -0.064
REMARK SMILES OCCc1ccc(O)c(O)c1
REMARK SMILES IDX 3 1 4 2 5 3 6 4 7 5 11 6 9 7 8 8 10 10 2 12 1 13
REMARK H PARENT 8 9 10 11 1 14
REMARK Flexibility Score: inf
ROOT
ATOM      1  C   UNL     1      72.123  40.694  -3.728  1.00  0.00     0.064 C 
ENDROOT
BRANCH   1   2
ATOM      2  C   UNL     1      71.878  40.311  -5.163  1.00  0.00    -0.042 A 
ATOM      3  C   UNL     1      72.957  40.055  -6.021  1.00  0.00     0.008 A 
ATOM      4  C   UNL     1      72.729  39.669  -7.345  1.00  0.00     0.050 A 
ATOM      5  C   UNL     1      71.423  39.524  -7.823  1.00  0.00     0.157 A 
ATOM      6  C   UNL     1      70.566  40.153  -5.638  1.00  0.00     0.054 A 
ATOM      7  C   UNL     1      70.334  39.764  -6.967  1.00  0.00     0.157 A 
BRANCH   5   8
ATOM      8  O   UNL     1      71.225  39.138  -9.149  1.00  0.00    -0.504 OA
ATOM      9  H   UNL     1      71.354  39.781  -9.921  1.00  0.00     0.293 HD
ENDBRANCH   5   8
BRANCH   7  10
ATOM     10  O   UNL     1      69.030  39.616  -7.435  1.00  0.00    -0.504 OA
ATOM     11  H   UNL     1      68.310  40.298  -7.228  1.00  0.00     0.293 HD
ENDBRANCH   7  10
ENDBRANCH   1   2
BRANCH   1  12
ATOM     12  C   UNL     1      72.995  41.949  -3.645  1.00  0.00     0.161 C 
BRANCH  12  13
ATOM     13  O   UNL     1      73.975  41.794  -2.655  1.00  0.00    -0.396 OA
ATOM     14  H   UNL     1      73.523  41.391  -1.868  1.00  0.00     0.210 HD
ENDBRANCH  12  13
ENDBRANCH   1  12
TORSDOF 5
ENDMDL
MODEL 3
REMARK VINA RESULT:    -5.383      1.863      4.227
REMARK INTER + INTRA:          -6.548
REMARK INTER:                  -6.434
REMARK INTRA:                  -0.114
REMARK UNBOUND:                -0.064
REMARK SMILES OCCc1ccc(O)c(O)c1
REMARK SMILES IDX 3 1 4 2 5 3 6 4 7 5 11 6 9 7 8 8 10 10 2 12 1 13
REMARK H PARENT 8 9 10 11 1 14
REMARK Flexibility Score: inf
ROOT
ATOM      1  C   UNL     1      71.808  38.883  -7.968  1.00  0.00     0.064 C 
ENDROOT
BRANCH   1   2
ATOM      2  C   UNL     1      72.187  39.593  -6.696  1.00  0.00    -0.042 A 
ATOM      3  C   UNL     1      73.417  40.262  -6.599  1.00  0.00     0.008 A 
ATOM      4  C   UNL     1      73.755  40.948  -5.429  1.00  0.00     0.050 A 
ATOM      5  C   UNL     1      72.869  40.983  -4.349  1.00  0.00     0.157 A 
ATOM      6  C   UNL     1      71.291  39.639  -5.616  1.00  0.00     0.054 A 
ATOM      7  C   UNL     1      71.628  40.328  -4.441  1.00  0.00     0.157 A 
BRANCH   5   8
ATOM      8  O   UNL     1      73.234  41.675  -3.193  1.00  0.00    -0.504 OA
ATOM      9  H   UNL     1      73.637  41.207  -2.391  1.00  0.00     0.293 HD
ENDBRANCH   5   8
BRANCH   7  10
ATOM     10  O   UNL     1      70.737  40.364  -3.370  1.00  0.00    -0.504 OA
ATOM     11  H   UNL     1      69.740  40.469  -3.512  1.00  0.00     0.293 HD
ENDBRANCH   7  10
ENDBRANCH   1   2
BRANCH   1  12
ATOM     12  C   UNL     1      71.790  39.858  -9.147  1.00  0.00     0.161 C 
BRANCH  12  13
ATOM     13  O   UNL     1      70.647  40.667  -9.089  1.00  0.00    -0.396 OA
ATOM     14  H   UNL     1      70.949  41.598  -9.258  1.00  0.00     0.210 HD
ENDBRANCH  12  13
ENDBRANCH   1  12
TORSDOF 5
ENDMDL
MODEL 4
REMARK VINA RESULT:    -5.283      1.471      1.916
REMARK INTER + INTRA:          -6.428
REMARK INTER:                  -6.332
REMARK INTRA:                  -0.096
REMARK UNBOUND:                -0.064
REMARK SMILES OCCc1ccc(O)c(O)c1
REMARK SMILES IDX 3 1 4 2 5 3 6 4 7 5 11 6 9 7 8 8 10 10 2 12 1 13
REMARK H PARENT 8 9 10 11 1 14
REMARK Flexibility Score: inf
ROOT
ATOM      1  C   UNL     1      73.510  41.933  -3.719  1.00  0.00     0.064 C 
ENDROOT
BRANCH   1   2
ATOM      2  C   UNL     1      72.986  40.992  -4.770  1.00  0.00    -0.042 A 
ATOM      3  C   UNL     1      71.747  40.358  -4.596  1.00  0.00     0.008 A 
ATOM      4  C   UNL     1      71.245  39.507  -5.586  1.00  0.00     0.050 A 
ATOM      5  C   UNL     1      71.968  39.289  -6.762  1.00  0.00     0.157 A 
ATOM      6  C   UNL     1      73.706  40.783  -5.957  1.00  0.00     0.054 A 
ATOM      7  C   UNL     1      73.204  39.931  -6.953  1.00  0.00     0.157 A 
BRANCH   5   8
ATOM      8  O   UNL     1      71.443  38.435  -7.733  1.00  0.00    -0.504 OA
ATOM      9  H   UNL     1      71.919  37.588  -8.017  1.00  0.00     0.293 HD
ENDBRANCH   5   8
BRANCH   7  10
ATOM     10  O   UNL     1      73.928  39.722  -8.125  1.00  0.00    -0.504 OA
ATOM     11  H   UNL     1      73.722  38.948  -8.745  1.00  0.00     0.293 HD
ENDBRANCH   7  10
ENDBRANCH   1   2
BRANCH   1  12
ATOM     12  C   UNL     1      74.395  43.010  -4.351  1.00  0.00     0.161 C 
BRANCH  12  13
ATOM     13  O   UNL     1      73.635  44.149  -4.648  1.00  0.00    -0.396 OA
ATOM     14  H   UNL     1      74.280  44.877  -4.850  1.00  0.00     0.210 HD
ENDBRANCH  12  13
ENDBRANCH   1  12
TORSDOF 5
ENDMDL
MODEL 5
REMARK VINA RESULT:    -5.177      3.457      6.264
REMARK INTER + INTRA:          -6.300
REMARK INTER:                  -6.215
REMARK INTRA:                  -0.085
REMARK UNBOUND:                -0.064
REMARK SMILES OCCc1ccc(O)c(O)c1
REMARK SMILES IDX 3 1 4 2 5 3 6 4 7 5 11 6 9 7 8 8 10 10 2 12 1 13
REMARK H PARENT 8 9 10 11 1 14
REMARK Flexibility Score: inf
ROOT
ATOM      1  C   UNL     1      74.446  42.607  -5.296  1.00  0.00     0.064 C 
ENDROOT
BRANCH   1   2
ATOM      2  C   UNL     1      74.001  43.250  -4.009  1.00  0.00    -0.042 A 
ATOM      3  C   UNL     1      73.339  42.493  -3.032  1.00  0.00     0.008 A 
ATOM      4  C   UNL     1      72.954  43.083  -1.825  1.00  0.00     0.050 A 
ATOM      5  C   UNL     1      73.235  44.430  -1.575  1.00  0.00     0.157 A 
ATOM      6  C   UNL     1      74.296  44.599  -3.754  1.00  0.00     0.054 A 
ATOM      7  C   UNL     1      73.912  45.194  -2.542  1.00  0.00     0.157 A 
BRANCH   5   8
ATOM      8  O   UNL     1      72.839  44.992  -0.361  1.00  0.00    -0.504 OA
ATOM      9  H   UNL     1      72.637  45.980  -0.267  1.00  0.00     0.293 HD
ENDBRANCH   5   8
BRANCH   7  10
ATOM     10  O   UNL     1      74.200  46.535  -2.298  1.00  0.00    -0.504 OA
ATOM     11  H   UNL     1      74.193  46.917  -1.360  1.00  0.00     0.293 HD
ENDBRANCH   7  10
ENDBRANCH   1   2
BRANCH   1  12
ATOM     12  C   UNL     1      74.032  41.134  -5.335  1.00  0.00     0.161 C 
BRANCH  12  13
ATOM     13  O   UNL     1      72.902  40.970  -6.147  1.00  0.00    -0.396 OA
ATOM     14  H   UNL     1      72.903  40.023  -6.448  1.00  0.00     0.210 HD
ENDBRANCH  12  13
ENDBRANCH   1  12
TORSDOF 5
ENDMDL
MODEL 6
REMARK VINA RESULT:    -5.152      4.632      6.553
REMARK INTER + INTRA:          -6.271
REMARK INTER:                  -6.215
REMARK INTRA:                  -0.056
REMARK UNBOUND:                -0.064
REMARK SMILES OCCc1ccc(O)c(O)c1
REMARK SMILES IDX 3 1 4 2 5 3 6 4 7 5 11 6 9 7 8 8 10 10 2 12 1 13
REMARK H PARENT 8 9 10 11 1 14
REMARK Flexibility Score: inf
ROOT
ATOM      1  C   UNL     1      72.171  45.085  -0.505  1.00  0.00     0.064 C 
ENDROOT
BRANCH   1   2
ATOM      2  C   UNL     1      72.872  44.512  -1.708  1.00  0.00    -0.042 A 
ATOM      3  C   UNL     1      73.700  45.323  -2.498  1.00  0.00     0.008 A 
ATOM      4  C   UNL     1      74.375  44.783  -3.596  1.00  0.00     0.050 A 
ATOM      5  C   UNL     1      74.241  43.427  -3.911  1.00  0.00     0.157 A 
ATOM      6  C   UNL     1      72.747  43.148  -2.016  1.00  0.00     0.054 A 
ATOM      7  C   UNL     1      73.425  42.602  -3.117  1.00  0.00     0.157 A 
BRANCH   5   8
ATOM      8  O   UNL     1      74.926  42.916  -5.014  1.00  0.00    -0.504 OA
ATOM      9  H   UNL     1      75.935  42.832  -5.028  1.00  0.00     0.293 HD
ENDBRANCH   5   8
BRANCH   7  10
ATOM     10  O   UNL     1      73.291  41.249  -3.422  1.00  0.00    -0.504 OA
ATOM     11  H   UNL     1      74.061  40.711  -3.801  1.00  0.00     0.293 HD
ENDBRANCH   7  10
ENDBRANCH   1   2
BRANCH   1  12
ATOM     12  C   UNL     1      70.934  45.881  -0.929  1.00  0.00     0.161 C 
BRANCH  12  13
ATOM     13  O   UNL     1      69.837  45.530  -0.131  1.00  0.00    -0.396 OA
ATOM     14  H   UNL     1      70.152  44.825   0.493  1.00  0.00     0.210 HD
ENDBRANCH  12  13
ENDBRANCH   1  12
TORSDOF 5
ENDMDL
MODEL 7
REMARK VINA RESULT:    -5.125      1.506      4.316
REMARK INTER + INTRA:          -6.237
REMARK INTER:                  -6.162
REMARK INTRA:                  -0.075
REMARK UNBOUND:                -0.064
REMARK SMILES OCCc1ccc(O)c(O)c1
REMARK SMILES IDX 3 1 4 2 5 3 6 4 7 5 11 6 9 7 8 8 10 10 2 12 1 13
REMARK H PARENT 8 9 10 11 1 14
REMARK Flexibility Score: inf
ROOT
ATOM      1  C   UNL     1      71.696  39.268  -7.276  1.00  0.00     0.064 C 
ENDROOT
BRANCH   1   2
ATOM      2  C   UNL     1      72.157  40.020  -6.056  1.00  0.00    -0.042 A 
ATOM      3  C   UNL     1      71.348  40.074  -4.911  1.00  0.00     0.008 A 
ATOM      4  C   UNL     1      71.789  40.745  -3.767  1.00  0.00     0.050 A 
ATOM      5  C   UNL     1      73.045  41.360  -3.749  1.00  0.00     0.157 A 
ATOM      6  C   UNL     1      73.423  40.625  -6.034  1.00  0.00     0.054 A 
ATOM      7  C   UNL     1      73.870  41.299  -4.887  1.00  0.00     0.157 A 
BRANCH   5   8
ATOM      8  O   UNL     1      73.460  42.024  -2.594  1.00  0.00    -0.504 OA
ATOM      9  H   UNL     1      74.334  42.532  -2.550  1.00  0.00     0.293 HD
ENDBRANCH   5   8
BRANCH   7  10
ATOM     10  O   UNL     1      75.125  41.905  -4.874  1.00  0.00    -0.504 OA
ATOM     11  H   UNL     1      75.841  41.628  -4.213  1.00  0.00     0.293 HD
ENDBRANCH   7  10
ENDBRANCH   1   2
BRANCH   1  12
ATOM     12  C   UNL     1      70.404  39.875  -7.828  1.00  0.00     0.161 C 
BRANCH  12  13
ATOM     13  O   UNL     1      70.674  40.619  -8.985  1.00  0.00    -0.396 OA
ATOM     14  H   UNL     1      69.868  41.171  -9.163  1.00  0.00     0.210 HD
ENDBRANCH  12  13
ENDBRANCH   1  12
TORSDOF 5
ENDMDL
MODEL 8
REMARK VINA RESULT:    -5.035      1.464      4.619
REMARK INTER + INTRA:          -6.129
REMARK INTER:                  -6.035
REMARK INTRA:                  -0.094
REMARK UNBOUND:                -0.064
REMARK SMILES OCCc1ccc(O)c(O)c1
REMARK SMILES IDX 3 1 4 2 5 3 6 4 7 5 11 6 9 7 8 8 10 10 2 12 1 13
REMARK H PARENT 8 9 10 11 1 14
REMARK Flexibility Score: inf
ROOT
ATOM      1  C   UNL     1      72.410  39.151  -7.845  1.00  0.00     0.064 C 
ENDROOT
BRANCH   1   2
ATOM      2  C   UNL     1      73.102  40.006  -6.818  1.00  0.00    -0.042 A 
ATOM      3  C   UNL     1      74.342  40.595  -7.109  1.00  0.00     0.008 A 
ATOM      4  C   UNL     1      74.970  41.415  -6.167  1.00  0.00     0.050 A 
ATOM      5  C   UNL     1      74.365  41.664  -4.931  1.00  0.00     0.157 A 
ATOM      6  C   UNL     1      72.488  40.267  -5.583  1.00  0.00     0.054 A 
ATOM      7  C   UNL     1      73.116  41.090  -4.636  1.00  0.00     0.157 A 
BRANCH   5   8
ATOM      8  O   UNL     1      75.016  42.486  -4.011  1.00  0.00    -0.504 OA
ATOM      9  H   UNL     1      75.682  43.193  -4.298  1.00  0.00     0.293 HD
ENDBRANCH   5   8
BRANCH   7  10
ATOM     10  O   UNL     1      72.505  41.339  -3.409  1.00  0.00    -0.504 OA
ATOM     11  H   UNL     1      72.967  41.875  -2.684  1.00  0.00     0.293 HD
ENDBRANCH   7  10
ENDBRANCH   1   2
BRANCH   1  12
ATOM     12  C   UNL     1      70.934  39.539  -7.966  1.00  0.00     0.161 C 
BRANCH  12  13
ATOM     13  O   UNL     1      70.761  40.466  -9.002  1.00  0.00    -0.396 OA
ATOM     14  H   UNL     1      71.014  41.354  -8.635  1.00  0.00     0.210 HD
ENDBRANCH  12  13
ENDBRANCH   1  12
TORSDOF 5
ENDMDL
MODEL 9
REMARK VINA RESULT:    -4.838      3.366      5.056
REMARK INTER + INTRA:          -5.893
REMARK INTER:                  -5.848
REMARK INTRA:                  -0.044
REMARK UNBOUND:                -0.064
REMARK SMILES OCCc1ccc(O)c(O)c1
REMARK SMILES IDX 3 1 4 2 5 3 6 4 7 5 11 6 9 7 8 8 10 10 2 12 1 13
REMARK H PARENT 8 9 10 11 1 14
REMARK Flexibility Score: inf
ROOT
ATOM      1  C   UNL     1      73.632  45.120  -2.249  1.00  0.00     0.064 C 
ENDROOT
BRANCH   1   2
ATOM      2  C   UNL     1      73.667  43.847  -3.052  1.00  0.00    -0.042 A 
ATOM      3  C   UNL     1      72.934  42.727  -2.634  1.00  0.00     0.008 A 
ATOM      4  C   UNL     1      72.942  41.555  -3.396  1.00  0.00     0.050 A 
ATOM      5  C   UNL     1      73.672  41.492  -4.587  1.00  0.00     0.157 A 
ATOM      6  C   UNL     1      74.389  43.788  -4.254  1.00  0.00     0.054 A 
ATOM      7  C   UNL     1      74.399  42.614  -5.022  1.00  0.00     0.157 A 
BRANCH   5   8
ATOM      8  O   UNL     1      73.662  40.309  -5.327  1.00  0.00    -0.504 OA
ATOM      9  H   UNL     1      73.034  40.169  -6.108  1.00  0.00     0.293 HD
ENDBRANCH   5   8
BRANCH   7  10
ATOM     10  O   UNL     1      75.124  42.559  -6.211  1.00  0.00    -0.504 OA
ATOM     11  H   UNL     1      75.955  43.121  -6.352  1.00  0.00     0.293 HD
ENDBRANCH   7  10
ENDBRANCH   1   2
BRANCH   1  12
ATOM     12  C   UNL     1      72.473  45.097  -1.250  1.00  0.00     0.161 C 
BRANCH  12  13
ATOM     13  O   UNL     1      72.946  44.787   0.033  1.00  0.00    -0.396 OA
ATOM     14  H   UNL     1      72.647  43.860   0.229  1.00  0.00     0.210 HD
ENDBRANCH  12  13
ENDBRANCH   1  12
TORSDOF 5
ENDMDL
