MODEL 1
REMARK VINA RESULT:    -6.520      0.000      0.000
REMARK INTER + INTRA:         -11.513
REMARK INTER:                  -9.951
REMARK INTRA:                  -1.563
REMARK UNBOUND:                -1.563
REMARK SMILES OC[C@@H]1O[C@@H](O[C@]2(CO)O[C@H](CO)[C@H](O)[C@H]2O)[C@@H](O)[C@@H](O)[C@@H]1O
REMARK SMILES IDX 6 1 5 2 3 3 22 4 4 5 20 6 18 7 2 8 1 9 23 11 21 13 19 15
REMARK SMILES IDX 7 17 16 18 10 19 14 20 11 21 8 22 9 23 17 25 15 27 12 29
REMARK SMILES IDX 13 30
REMARK H PARENT 1 10 23 12 21 14 19 16 9 24 17 26 15 28 13 31
REMARK Flexibility Score: inf
ROOT
ATOM      1  O   UNL     1     -36.233  -6.050 -16.994  1.00  0.00    -0.313 OA
ENDROOT
BRANCH   1   2
ATOM      2  C   UNL     1     -36.891  -5.018 -17.733  1.00  0.00     0.285 C 
ATOM      3  C   UNL     1     -35.350  -5.249 -19.497  1.00  0.00     0.178 C 
ATOM      4  C   UNL     1     -34.719  -3.845 -19.285  1.00  0.00     0.177 C 
ATOM      5  O   UNL     1     -36.720  -5.257 -19.122  1.00  0.00    -0.341 OA
ATOM      6  C   UNL     1     -34.960  -3.331 -17.845  1.00  0.00     0.179 C 
ATOM      7  C   UNL     1     -36.415  -3.581 -17.395  1.00  0.00     0.202 C 
BRANCH   3   8
ATOM      8  C   UNL     1     -35.243  -5.704 -20.962  1.00  0.00     0.191 C 
BRANCH   8   9
ATOM      9  O   UNL     1     -34.066  -5.222 -21.555  1.00  0.00    -0.394 OA
ATOM     10  H   UNL     1     -33.908  -4.317 -21.181  1.00  0.00     0.210 HD
ENDBRANCH   8   9
ENDBRANCH   3   8
BRANCH   4  11
ATOM     11  O   UNL     1     -35.200  -2.913 -20.225  1.00  0.00    -0.387 OA
ATOM     12  H   UNL     1     -36.131  -3.164 -20.458  1.00  0.00     0.211 HD
ENDBRANCH   4  11
BRANCH   6  13
ATOM     13  O   UNL     1     -34.038  -3.875 -16.932  1.00  0.00    -0.387 OA
ATOM     14  H   UNL     1     -34.534  -4.428 -16.279  1.00  0.00     0.211 HD
ENDBRANCH   6  13
BRANCH   7  15
ATOM     15  O   UNL     1     -36.580  -3.292 -16.034  1.00  0.00    -0.385 OA
ATOM     16  H   UNL     1     -37.354  -2.673 -15.962  1.00  0.00     0.211 HD
ENDBRANCH   7  15
ENDBRANCH   1   2
BRANCH   1  17
ATOM     17  C   UNL     1     -36.931  -6.698 -15.925  1.00  0.00     0.224 C 
ATOM     18  C   UNL     1     -35.977  -7.800 -15.407  1.00  0.00     0.208 C 
ATOM     19  O   UNL     1     -37.114  -5.770 -14.868  1.00  0.00    -0.337 OA
ATOM     20  C   UNL     1     -36.182  -7.769 -13.913  1.00  0.00     0.180 C 
ATOM     21  C   UNL     1     -36.638  -6.328 -13.657  1.00  0.00     0.179 C 
BRANCH  17  22
ATOM     22  C   UNL     1     -38.327  -7.284 -16.312  1.00  0.00     0.225 C 
BRANCH  22  23
ATOM     23  O   UNL     1     -39.357  -6.659 -15.595  1.00  0.00    -0.391 OA
ATOM     24  H   UNL     1     -40.207  -7.022 -15.958  1.00  0.00     0.210 HD
ENDBRANCH  22  23
ENDBRANCH  17  22
BRANCH  18  25
ATOM     25  O   UNL     1     -36.259  -9.074 -15.928  1.00  0.00    -0.385 OA
ATOM     26  H   UNL     1     -36.549  -9.633 -15.159  1.00  0.00     0.211 HD
ENDBRANCH  18  25
BRANCH  20  27
ATOM     27  O   UNL     1     -35.049  -8.166 -13.172  1.00  0.00    -0.387 OA
ATOM     28  H   UNL     1     -34.379  -8.560 -13.785  1.00  0.00     0.211 HD
ENDBRANCH  20  27
BRANCH  21  29
ATOM     29  C   UNL     1     -35.563  -5.401 -13.066  1.00  0.00     0.191 C 
BRANCH  29  30
ATOM     30  O   UNL     1     -35.217  -4.397 -13.981  1.00  0.00    -0.394 OA
ATOM     31  H   UNL     1     -35.459  -4.746 -14.877  1.00  0.00     0.210 HD
ENDBRANCH  29  30
ENDBRANCH  21  29
ENDBRANCH   1  17
TORSDOF 13
ENDMDL
MODEL 2
REMARK VINA RESULT:    -6.313      1.405      3.062
REMARK INTER + INTRA:         -11.197
REMARK INTER:                 -10.079
REMARK INTRA:                  -1.118
REMARK UNBOUND:                -1.563
REMARK SMILES OC[C@@H]1O[C@@H](O[C@]2(CO)O[C@H](CO)[C@H](O)[C@H]2O)[C@@H](O)[C@@H](O)[C@@H]1O
REMARK SMILES IDX 6 1 5 2 3 3 22 4 4 5 20 6 18 7 2 8 1 9 23 11 21 13 19 15
REMARK SMILES IDX 7 17 16 18 10 19 14 20 11 21 8 22 9 23 17 25 15 27 12 29
REMARK SMILES IDX 13 30
REMARK H PARENT 1 10 23 12 21 14 19 16 9 24 17 26 15 28 13 31
REMARK Flexibility Score: inf
ROOT
ATOM      1  O   UNL     1     -36.000  -5.455 -16.316  1.00  0.00    -0.313 OA
ENDROOT
BRANCH   1   2
ATOM      2  C   UNL     1     -36.650  -4.404 -17.036  1.00  0.00     0.285 C 
ATOM      3  C   UNL     1     -35.672  -5.131 -19.049  1.00  0.00     0.178 C 
ATOM      4  C   UNL     1     -34.788  -3.863 -19.214  1.00  0.00     0.177 C 
ATOM      5  O   UNL     1     -36.882  -4.827 -18.371  1.00  0.00    -0.341 OA
ATOM      6  C   UNL     1     -34.565  -3.152 -17.857  1.00  0.00     0.179 C 
ATOM      7  C   UNL     1     -35.876  -3.060 -17.049  1.00  0.00     0.202 C 
BRANCH   3   8
ATOM      8  C   UNL     1     -36.019  -5.760 -20.408  1.00  0.00     0.191 C 
BRANCH   8   9
ATOM      9  O   UNL     1     -37.235  -5.262 -20.900  1.00  0.00    -0.394 OA
ATOM     10  H   UNL     1     -37.913  -5.973 -20.758  1.00  0.00     0.210 HD
ENDBRANCH   8   9
ENDBRANCH   3   8
BRANCH   4  11
ATOM     11  O   UNL     1     -35.336  -2.967 -20.153  1.00  0.00    -0.387 OA
ATOM     12  H   UNL     1     -36.167  -2.587 -19.765  1.00  0.00     0.211 HD
ENDBRANCH   4  11
BRANCH   6  13
ATOM     13  O   UNL     1     -33.540  -3.759 -17.108  1.00  0.00    -0.387 OA
ATOM     14  H   UNL     1     -32.944  -3.050 -16.762  1.00  0.00     0.211 HD
ENDBRANCH   6  13
BRANCH   7  15
ATOM     15  O   UNL     1     -35.638  -2.592 -15.750  1.00  0.00    -0.385 OA
ATOM     16  H   UNL     1     -36.408  -2.014 -15.504  1.00  0.00     0.211 HD
ENDBRANCH   7  15
ENDBRANCH   1   2
BRANCH   1  17
ATOM     17  C   UNL     1     -36.510  -5.843 -15.035  1.00  0.00     0.224 C 
ATOM     18  C   UNL     1     -37.954  -5.290 -14.973  1.00  0.00     0.208 C 
ATOM     19  O   UNL     1     -36.600  -7.257 -14.986  1.00  0.00    -0.337 OA
ATOM     20  C   UNL     1     -38.718  -6.381 -14.264  1.00  0.00     0.180 C 
ATOM     21  C   UNL     1     -37.903  -7.639 -14.588  1.00  0.00     0.179 C 
BRANCH  17  22
ATOM     22  C   UNL     1     -35.659  -5.361 -13.816  1.00  0.00     0.225 C 
BRANCH  22  23
ATOM     23  O   UNL     1     -35.202  -6.446 -13.056  1.00  0.00    -0.391 OA
ATOM     24  H   UNL     1     -35.744  -7.230 -13.335  1.00  0.00     0.210 HD
ENDBRANCH  22  23
ENDBRANCH  17  22
BRANCH  18  25
ATOM     25  O   UNL     1     -38.057  -4.072 -14.282  1.00  0.00    -0.385 OA
ATOM     26  H   UNL     1     -38.478  -4.281 -13.407  1.00  0.00     0.211 HD
ENDBRANCH  18  25
BRANCH  20  27
ATOM     27  O   UNL     1     -40.079  -6.454 -14.627  1.00  0.00    -0.387 OA
ATOM     28  H   UNL     1     -40.630  -6.565 -13.811  1.00  0.00     0.211 HD
ENDBRANCH  20  27
BRANCH  21  29
ATOM     29  C   UNL     1     -38.512  -8.548 -15.667  1.00  0.00     0.191 C 
BRANCH  29  30
ATOM     30  O   UNL     1     -39.705  -9.125 -15.213  1.00  0.00    -0.394 OA
ATOM     31  H   UNL     1     -39.802  -8.848 -14.265  1.00  0.00     0.210 HD
ENDBRANCH  29  30
ENDBRANCH  21  29
ENDBRANCH   1  17
TORSDOF 13
ENDMDL
MODEL 3
REMARK VINA RESULT:    -6.288      1.306      2.514
REMARK INTER + INTRA:         -11.159
REMARK INTER:                  -9.931
REMARK INTRA:                  -1.228
REMARK UNBOUND:                -1.563
REMARK SMILES OC[C@@H]1O[C@@H](O[C@]2(CO)O[C@H](CO)[C@H](O)[C@H]2O)[C@@H](O)[C@@H](O)[C@@H]1O
REMARK SMILES IDX 6 1 5 2 3 3 22 4 4 5 20 6 18 7 2 8 1 9 23 11 21 13 19 15
REMARK SMILES IDX 7 17 16 18 10 19 14 20 11 21 8 22 9 23 17 25 15 27 12 29
REMARK SMILES IDX 13 30
REMARK H PARENT 1 10 23 12 21 14 19 16 9 24 17 26 15 28 13 31
REMARK Flexibility Score: inf
ROOT
ATOM      1  O   UNL     1     -36.222  -5.181 -16.447  1.00  0.00    -0.313 OA
ENDROOT
BRANCH   1   2
ATOM      2  C   UNL     1     -36.652  -4.091 -17.266  1.00  0.00     0.285 C 
ATOM      3  C   UNL     1     -35.616  -5.049 -19.149  1.00  0.00     0.178 C 
ATOM      4  C   UNL     1     -34.551  -3.924 -19.282  1.00  0.00     0.177 C 
ATOM      5  O   UNL     1     -36.825  -4.548 -18.599  1.00  0.00    -0.341 OA
ATOM      6  C   UNL     1     -34.348  -3.180 -17.939  1.00  0.00     0.179 C 
ATOM      7  C   UNL     1     -35.699  -2.868 -17.260  1.00  0.00     0.202 C 
BRANCH   3   8
ATOM      8  C   UNL     1     -35.930  -5.696 -20.508  1.00  0.00     0.191 C 
BRANCH   8   9
ATOM      9  O   UNL     1     -36.714  -4.845 -21.303  1.00  0.00    -0.394 OA
ATOM     10  H   UNL     1     -37.226  -4.266 -20.681  1.00  0.00     0.210 HD
ENDBRANCH   8   9
ENDBRANCH   3   8
BRANCH   4  11
ATOM     11  O   UNL     1     -34.885  -3.013 -20.302  1.00  0.00    -0.387 OA
ATOM     12  H   UNL     1     -34.070  -2.497 -20.532  1.00  0.00     0.211 HD
ENDBRANCH   4  11
BRANCH   6  13
ATOM     13  O   UNL     1     -33.488  -3.882 -17.075  1.00  0.00    -0.387 OA
ATOM     14  H   UNL     1     -33.197  -4.711 -17.530  1.00  0.00     0.211 HD
ENDBRANCH   6  13
BRANCH   7  15
ATOM     15  O   UNL     1     -35.510  -2.369 -15.965  1.00  0.00    -0.385 OA
ATOM     16  H   UNL     1     -34.713  -2.829 -15.591  1.00  0.00     0.211 HD
ENDBRANCH   7  15
ENDBRANCH   1   2
BRANCH   1  17
ATOM     17  C   UNL     1     -37.028  -5.578 -15.332  1.00  0.00     0.224 C 
ATOM     18  C   UNL     1     -38.164  -6.448 -15.924  1.00  0.00     0.208 C 
ATOM     19  O   UNL     1     -36.259  -6.413 -14.483  1.00  0.00    -0.337 OA
ATOM     20  C   UNL     1     -38.341  -7.539 -14.897  1.00  0.00     0.180 C 
ATOM     21  C   UNL     1     -36.961  -7.616 -14.233  1.00  0.00     0.179 C 
BRANCH  17  22
ATOM     22  C   UNL     1     -37.596  -4.398 -14.479  1.00  0.00     0.225 C 
BRANCH  22  23
ATOM     23  O   UNL     1     -36.599  -3.824 -13.680  1.00  0.00    -0.391 OA
ATOM     24  H   UNL     1     -35.746  -3.933 -14.178  1.00  0.00     0.210 HD
ENDBRANCH  22  23
ENDBRANCH  17  22
BRANCH  18  25
ATOM     25  O   UNL     1     -39.362  -5.743 -16.123  1.00  0.00    -0.385 OA
ATOM     26  H   UNL     1     -39.228  -4.844 -15.722  1.00  0.00     0.211 HD
ENDBRANCH  18  25
BRANCH  20  27
ATOM     27  O   UNL     1     -38.802  -8.759 -15.434  1.00  0.00    -0.387 OA
ATOM     28  H   UNL     1     -38.229  -9.017 -16.200  1.00  0.00     0.211 HD
ENDBRANCH  20  27
BRANCH  21  29
ATOM     29  C   UNL     1     -36.093  -8.806 -14.673  1.00  0.00     0.191 C 
BRANCH  29  30
ATOM     30  O   UNL     1     -36.185  -9.000 -16.057  1.00  0.00    -0.394 OA
ATOM     31  H   UNL     1     -35.887  -9.931 -16.225  1.00  0.00     0.210 HD
ENDBRANCH  29  30
ENDBRANCH  21  29
ENDBRANCH   1  17
TORSDOF 13
ENDMDL
MODEL 4
REMARK VINA RESULT:    -6.099      1.763      3.466
REMARK INTER + INTRA:         -10.871
REMARK INTER:                  -9.737
REMARK INTRA:                  -1.134
REMARK UNBOUND:                -1.563
REMARK SMILES OC[C@@H]1O[C@@H](O[C@]2(CO)O[C@H](CO)[C@H](O)[C@H]2O)[C@@H](O)[C@@H](O)[C@@H]1O
REMARK SMILES IDX 6 1 5 2 3 3 22 4 4 5 20 6 18 7 2 8 1 9 23 11 21 13 19 15
REMARK SMILES IDX 7 17 16 18 10 19 14 20 11 21 8 22 9 23 17 25 15 27 12 29
REMARK SMILES IDX 13 30
REMARK H PARENT 1 10 23 12 21 14 19 16 9 24 17 26 15 28 13 31
REMARK Flexibility Score: inf
ROOT
ATOM      1  O   UNL     1     -36.455  -4.675 -15.900  1.00  0.00    -0.313 OA
ENDROOT
BRANCH   1   2
ATOM      2  C   UNL     1     -36.402  -5.334 -17.167  1.00  0.00     0.285 C 
ATOM      3  C   UNL     1     -34.891  -3.724 -17.981  1.00  0.00     0.178 C 
ATOM      4  C   UNL     1     -35.890  -3.139 -19.018  1.00  0.00     0.177 C 
ATOM      5  O   UNL     1     -35.132  -5.106 -17.759  1.00  0.00    -0.341 OA
ATOM      6  C   UNL     1     -37.355  -3.447 -18.624  1.00  0.00     0.179 C 
ATOM      7  C   UNL     1     -37.516  -4.910 -18.160  1.00  0.00     0.202 C 
BRANCH   3   8
ATOM      8  C   UNL     1     -33.433  -3.551 -18.437  1.00  0.00     0.191 C 
BRANCH   8   9
ATOM      9  O   UNL     1     -33.009  -4.650 -19.199  1.00  0.00    -0.394 OA
ATOM     10  H   UNL     1     -32.546  -5.268 -18.576  1.00  0.00     0.210 HD
ENDBRANCH   8   9
ENDBRANCH   3   8
BRANCH   4  11
ATOM     11  O   UNL     1     -35.622  -3.611 -20.318  1.00  0.00    -0.387 OA
ATOM     12  H   UNL     1     -35.691  -4.601 -20.306  1.00  0.00     0.211 HD
ENDBRANCH   4  11
BRANCH   6  13
ATOM     13  O   UNL     1     -37.840  -2.545 -17.660  1.00  0.00    -0.387 OA
ATOM     14  H   UNL     1     -37.378  -1.678 -17.783  1.00  0.00     0.211 HD
ENDBRANCH   6  13
BRANCH   7  15
ATOM     15  O   UNL     1     -38.792  -5.134 -17.625  1.00  0.00    -0.385 OA
ATOM     16  H   UNL     1     -39.298  -5.664 -18.297  1.00  0.00     0.211 HD
ENDBRANCH   7  15
ENDBRANCH   1   2
BRANCH   1  17
ATOM     17  C   UNL     1     -36.777  -5.437 -14.730  1.00  0.00     0.224 C 
ATOM     18  C   UNL     1     -38.284  -5.194 -14.473  1.00  0.00     0.208 C 
ATOM     19  O   UNL     1     -36.617  -6.815 -15.021  1.00  0.00    -0.337 OA
ATOM     20  C   UNL     1     -38.784  -6.543 -14.016  1.00  0.00     0.180 C 
ATOM     21  C   UNL     1     -37.795  -7.516 -14.670  1.00  0.00     0.179 C 
BRANCH  17  22
ATOM     22  C   UNL     1     -35.919  -5.096 -13.469  1.00  0.00     0.225 C 
BRANCH  22  23
ATOM     23  O   UNL     1     -35.205  -6.217 -13.023  1.00  0.00    -0.391 OA
ATOM     24  H   UNL     1     -34.345  -5.873 -12.663  1.00  0.00     0.210 HD
ENDBRANCH  22  23
ENDBRANCH  17  22
BRANCH  18  25
ATOM     25  O   UNL     1     -38.535  -4.209 -13.503  1.00  0.00    -0.385 OA
ATOM     26  H   UNL     1     -37.697  -4.116 -12.977  1.00  0.00     0.211 HD
ENDBRANCH  18  25
BRANCH  20  27
ATOM     27  O   UNL     1     -40.138  -6.786 -14.326  1.00  0.00    -0.387 OA
ATOM     28  H   UNL     1     -40.706  -6.132 -13.845  1.00  0.00     0.211 HD
ENDBRANCH  20  27
BRANCH  21  29
ATOM     29  C   UNL     1     -38.330  -8.251 -15.909  1.00  0.00     0.191 C 
BRANCH  29  30
ATOM     30  O   UNL     1     -39.367  -9.125 -15.558  1.00  0.00    -0.394 OA
ATOM     31  H   UNL     1     -39.641  -9.579 -16.396  1.00  0.00     0.210 HD
ENDBRANCH  29  30
ENDBRANCH  21  29
ENDBRANCH   1  17
TORSDOF 13
ENDMDL
MODEL 5
REMARK VINA RESULT:    -6.064      1.435      5.741
REMARK INTER + INTRA:         -10.816
REMARK INTER:                  -9.110
REMARK INTRA:                  -1.707
REMARK UNBOUND:                -1.563
REMARK SMILES OC[C@@H]1O[C@@H](O[C@]2(CO)O[C@H](CO)[C@H](O)[C@H]2O)[C@@H](O)[C@@H](O)[C@@H]1O
REMARK SMILES IDX 6 1 5 2 3 3 22 4 4 5 20 6 18 7 2 8 1 9 23 11 21 13 19 15
REMARK SMILES IDX 7 17 16 18 10 19 14 20 11 21 8 22 9 23 17 25 15 27 12 29
REMARK SMILES IDX 13 30
REMARK H PARENT 1 10 23 12 21 14 19 16 9 24 17 26 15 28 13 31
REMARK Flexibility Score: inf
ROOT
ATOM      1  O   UNL     1     -36.876  -4.867 -16.841  1.00  0.00    -0.313 OA
ENDROOT
BRANCH   1   2
ATOM      2  C   UNL     1     -36.053  -5.740 -16.063  1.00  0.00     0.285 C 
ATOM      3  C   UNL     1     -37.834  -7.260 -15.821  1.00  0.00     0.178 C 
ATOM      4  C   UNL     1     -37.975  -7.031 -14.290  1.00  0.00     0.177 C 
ATOM      5  O   UNL     1     -36.490  -7.079 -16.244  1.00  0.00    -0.341 OA
ATOM      6  C   UNL     1     -37.381  -5.665 -13.867  1.00  0.00     0.179 C 
ATOM      7  C   UNL     1     -36.020  -5.410 -14.548  1.00  0.00     0.202 C 
BRANCH   3   8
ATOM      8  C   UNL     1     -38.287  -8.671 -16.228  1.00  0.00     0.191 C 
BRANCH   8   9
ATOM      9  O   UNL     1     -39.427  -9.062 -15.508  1.00  0.00    -0.394 OA
ATOM     10  H   UNL     1     -39.161  -9.842 -14.955  1.00  0.00     0.210 HD
ENDBRANCH   8   9
ENDBRANCH   3   8
BRANCH   4  11
ATOM     11  O   UNL     1     -37.380  -8.074 -13.553  1.00  0.00    -0.387 OA
ATOM     12  H   UNL     1     -37.262  -7.761 -12.619  1.00  0.00     0.211 HD
ENDBRANCH   4  11
BRANCH   6  13
ATOM     13  O   UNL     1     -38.280  -4.608 -14.100  1.00  0.00    -0.387 OA
ATOM     14  H   UNL     1     -38.895  -4.545 -13.328  1.00  0.00     0.211 HD
ENDBRANCH   6  13
BRANCH   7  15
ATOM     15  O   UNL     1     -35.576  -4.101 -14.317  1.00  0.00    -0.385 OA
ATOM     16  H   UNL     1     -35.190  -4.084 -13.401  1.00  0.00     0.211 HD
ENDBRANCH   7  15
ENDBRANCH   1   2
BRANCH   1  17
ATOM     17  C   UNL     1     -36.254  -3.893 -17.688  1.00  0.00     0.224 C 
ATOM     18  C   UNL     1     -34.747  -4.245 -17.697  1.00  0.00     0.208 C 
ATOM     19  O   UNL     1     -36.733  -4.063 -19.011  1.00  0.00    -0.337 OA
ATOM     20  C   UNL     1     -34.333  -3.982 -19.124  1.00  0.00     0.180 C 
ATOM     21  C   UNL     1     -35.640  -4.176 -19.903  1.00  0.00     0.179 C 
BRANCH  17  22
ATOM     22  C   UNL     1     -36.493  -2.408 -17.264  1.00  0.00     0.225 C 
BRANCH  22  23
ATOM     23  O   UNL     1     -37.214  -2.331 -16.065  1.00  0.00    -0.391 OA
ATOM     24  H   UNL     1     -36.779  -2.968 -15.438  1.00  0.00     0.210 HD
ENDBRANCH  22  23
ENDBRANCH  17  22
BRANCH  18  25
ATOM     25  O   UNL     1     -33.988  -3.475 -16.802  1.00  0.00    -0.385 OA
ATOM     26  H   UNL     1     -34.350  -3.660 -15.895  1.00  0.00     0.211 HD
ENDBRANCH  18  25
BRANCH  20  27
ATOM     27  O   UNL     1     -33.262  -4.785 -19.566  1.00  0.00    -0.387 OA
ATOM     28  H   UNL     1     -32.510  -4.709 -18.925  1.00  0.00     0.211 HD
ENDBRANCH  20  27
BRANCH  21  29
ATOM     29  C   UNL     1     -35.750  -5.506 -20.666  1.00  0.00     0.191 C 
BRANCH  29  30
ATOM     30  O   UNL     1     -34.891  -5.515 -21.773  1.00  0.00    -0.394 OA
ATOM     31  H   UNL     1     -34.035  -5.902 -21.455  1.00  0.00     0.210 HD
ENDBRANCH  29  30
ENDBRANCH  21  29
ENDBRANCH   1  17
TORSDOF 13
ENDMDL
MODEL 6
REMARK VINA RESULT:    -6.020      1.634      5.949
REMARK INTER + INTRA:         -10.750
REMARK INTER:                  -9.272
REMARK INTRA:                  -1.478
REMARK UNBOUND:                -1.563
REMARK SMILES OC[C@@H]1O[C@@H](O[C@]2(CO)O[C@H](CO)[C@H](O)[C@H]2O)[C@@H](O)[C@@H](O)[C@@H]1O
REMARK SMILES IDX 6 1 5 2 3 3 22 4 4 5 20 6 18 7 2 8 1 9 23 11 21 13 19 15
REMARK SMILES IDX 7 17 16 18 10 19 14 20 11 21 8 22 9 23 17 25 15 27 12 29
REMARK SMILES IDX 13 30
REMARK H PARENT 1 10 23 12 21 14 19 16 9 24 17 26 15 28 13 31
REMARK Flexibility Score: inf
ROOT
ATOM      1  O   UNL     1     -36.124  -5.209 -16.338  1.00  0.00    -0.313 OA
ENDROOT
BRANCH   1   2
ATOM      2  C   UNL     1     -36.579  -5.298 -14.985  1.00  0.00     0.285 C 
ATOM      3  C   UNL     1     -36.432  -7.645 -15.054  1.00  0.00     0.178 C 
ATOM      4  C   UNL     1     -37.967  -7.862 -14.935  1.00  0.00     0.177 C 
ATOM      5  O   UNL     1     -36.029  -6.460 -14.383  1.00  0.00    -0.341 OA
ATOM      6  C   UNL     1     -38.749  -6.607 -15.393  1.00  0.00     0.179 C 
ATOM      7  C   UNL     1     -38.121  -5.316 -14.825  1.00  0.00     0.202 C 
BRANCH   3   8
ATOM      8  C   UNL     1     -35.646  -8.829 -14.467  1.00  0.00     0.191 C 
BRANCH   8   9
ATOM      9  O   UNL     1     -35.325  -8.604 -13.119  1.00  0.00    -0.394 OA
ATOM     10  H   UNL     1     -34.697  -7.835 -13.100  1.00  0.00     0.210 HD
ENDBRANCH   8   9
ENDBRANCH   3   8
BRANCH   4  11
ATOM     11  O   UNL     1     -38.340  -8.223 -13.626  1.00  0.00    -0.387 OA
ATOM     12  H   UNL     1     -37.960  -9.118 -13.434  1.00  0.00     0.211 HD
ENDBRANCH   4  11
BRANCH   6  13
ATOM     13  O   UNL     1     -38.873  -6.547 -16.793  1.00  0.00    -0.387 OA
ATOM     14  H   UNL     1     -39.200  -7.423 -17.115  1.00  0.00     0.211 HD
ENDBRANCH   6  13
BRANCH   7  15
ATOM     15  O   UNL     1     -38.710  -4.177 -15.390  1.00  0.00    -0.385 OA
ATOM     16  H   UNL     1     -38.679  -4.293 -16.376  1.00  0.00     0.211 HD
ENDBRANCH   7  15
ENDBRANCH   1   2
BRANCH   1  17
ATOM     17  C   UNL     1     -35.931  -3.917 -16.926  1.00  0.00     0.224 C 
ATOM     18  C   UNL     1     -34.759  -4.080 -17.922  1.00  0.00     0.208 C 
ATOM     19  O   UNL     1     -37.082  -3.581 -17.683  1.00  0.00    -0.337 OA
ATOM     20  C   UNL     1     -35.168  -3.218 -19.091  1.00  0.00     0.180 C 
ATOM     21  C   UNL     1     -36.699  -3.210 -18.994  1.00  0.00     0.179 C 
BRANCH  17  22
ATOM     22  C   UNL     1     -35.660  -2.765 -15.905  1.00  0.00     0.225 C 
BRANCH  22  23
ATOM     23  O   UNL     1     -36.759  -1.901 -15.810  1.00  0.00    -0.391 OA
ATOM     24  H   UNL     1     -36.558  -1.129 -16.401  1.00  0.00     0.210 HD
ENDBRANCH  22  23
ENDBRANCH  17  22
BRANCH  18  25
ATOM     25  O   UNL     1     -33.521  -3.668 -17.402  1.00  0.00    -0.385 OA
ATOM     26  H   UNL     1     -32.864  -3.751 -18.143  1.00  0.00     0.211 HD
ENDBRANCH  18  25
BRANCH  20  27
ATOM     27  O   UNL     1     -34.662  -3.659 -20.331  1.00  0.00    -0.387 OA
ATOM     28  H   UNL     1     -33.989  -4.369 -20.176  1.00  0.00     0.211 HD
ENDBRANCH  20  27
BRANCH  21  29
ATOM     29  C   UNL     1     -37.419  -4.118 -20.003  1.00  0.00     0.191 C 
BRANCH  29  30
ATOM     30  O   UNL     1     -37.442  -3.526 -21.273  1.00  0.00    -0.394 OA
ATOM     31  H   UNL     1     -36.849  -2.733 -21.218  1.00  0.00     0.210 HD
ENDBRANCH  29  30
ENDBRANCH  21  29
ENDBRANCH   1  17
TORSDOF 13
ENDMDL
MODEL 7
REMARK VINA RESULT:    -5.992      1.582      2.293
REMARK INTER + INTRA:         -10.708
REMARK INTER:                  -9.085
REMARK INTRA:                  -1.623
REMARK UNBOUND:                -1.563
REMARK SMILES OC[C@@H]1O[C@@H](O[C@]2(CO)O[C@H](CO)[C@H](O)[C@H]2O)[C@@H](O)[C@@H](O)[C@@H]1O
REMARK SMILES IDX 6 1 5 2 3 3 22 4 4 5 20 6 18 7 2 8 1 9 23 11 21 13 19 15
REMARK SMILES IDX 7 17 16 18 10 19 14 20 11 21 8 22 9 23 17 25 15 27 12 29
REMARK SMILES IDX 13 30
REMARK H PARENT 1 10 23 12 21 14 19 16 9 24 17 26 15 28 13 31
REMARK Flexibility Score: inf
ROOT
ATOM      1  O   UNL     1     -36.182  -5.306 -16.712  1.00  0.00    -0.313 OA
ENDROOT
BRANCH   1   2
ATOM      2  C   UNL     1     -36.599  -4.210 -17.529  1.00  0.00     0.285 C 
ATOM      3  C   UNL     1     -35.401  -5.074 -19.361  1.00  0.00     0.178 C 
ATOM      4  C   UNL     1     -34.375  -3.907 -19.392  1.00  0.00     0.177 C 
ATOM      5  O   UNL     1     -36.664  -4.634 -18.882  1.00  0.00    -0.341 OA
ATOM      6  C   UNL     1     -34.292  -3.195 -18.019  1.00  0.00     0.179 C 
ATOM      7  C   UNL     1     -35.696  -2.952 -17.427  1.00  0.00     0.202 C 
BRANCH   3   8
ATOM      8  C   UNL     1     -35.597  -5.693 -20.755  1.00  0.00     0.191 C 
BRANCH   8   9
ATOM      9  O   UNL     1     -36.511  -4.947 -21.515  1.00  0.00    -0.394 OA
ATOM     10  H   UNL     1     -36.855  -5.552 -22.222  1.00  0.00     0.210 HD
ENDBRANCH   8   9
ENDBRANCH   3   8
BRANCH   4  11
ATOM     11  O   UNL     1     -34.675  -2.980 -20.408  1.00  0.00    -0.387 OA
ATOM     12  H   UNL     1     -35.229  -2.259 -20.012  1.00  0.00     0.211 HD
ENDBRANCH   4  11
BRANCH   6  13
ATOM     13  O   UNL     1     -33.465  -3.889 -17.117  1.00  0.00    -0.387 OA
ATOM     14  H   UNL     1     -33.987  -4.632 -16.724  1.00  0.00     0.211 HD
ENDBRANCH   6  13
BRANCH   7  15
ATOM     15  O   UNL     1     -35.615  -2.484 -16.108  1.00  0.00    -0.385 OA
ATOM     16  H   UNL     1     -36.141  -3.112 -15.545  1.00  0.00     0.211 HD
ENDBRANCH   7  15
ENDBRANCH   1   2
BRANCH   1  17
ATOM     17  C   UNL     1     -37.146  -5.964 -15.881  1.00  0.00     0.224 C 
ATOM     18  C   UNL     1     -36.744  -5.628 -14.425  1.00  0.00     0.208 C 
ATOM     19  O   UNL     1     -38.420  -5.385 -16.109  1.00  0.00    -0.337 OA
ATOM     20  C   UNL     1     -38.069  -5.427 -13.732  1.00  0.00     0.180 C 
ATOM     21  C   UNL     1     -38.994  -4.996 -14.876  1.00  0.00     0.179 C 
BRANCH  17  22
ATOM     22  C   UNL     1     -37.260  -7.507 -16.102  1.00  0.00     0.225 C 
BRANCH  22  23
ATOM     23  O   UNL     1     -35.997  -8.115 -16.096  1.00  0.00    -0.391 OA
ATOM     24  H   UNL     1     -36.144  -9.064 -16.350  1.00  0.00     0.210 HD
ENDBRANCH  22  23
ENDBRANCH  17  22
BRANCH  18  25
ATOM     25  O   UNL     1     -35.998  -6.642 -13.803  1.00  0.00    -0.385 OA
ATOM     26  H   UNL     1     -36.345  -7.503 -14.157  1.00  0.00     0.211 HD
ENDBRANCH  18  25
BRANCH  20  27
ATOM     27  O   UNL     1     -38.017  -4.526 -12.648  1.00  0.00    -0.387 OA
ATOM     28  H   UNL     1     -38.858  -4.590 -12.129  1.00  0.00     0.211 HD
ENDBRANCH  20  27
BRANCH  21  29
ATOM     29  C   UNL     1     -39.314  -3.493 -14.922  1.00  0.00     0.191 C 
BRANCH  29  30
ATOM     30  O   UNL     1     -38.147  -2.734 -14.766  1.00  0.00    -0.394 OA
ATOM     31  H   UNL     1     -37.507  -3.310 -14.274  1.00  0.00     0.210 HD
ENDBRANCH  29  30
ENDBRANCH  21  29
ENDBRANCH   1  17
TORSDOF 13
ENDMDL
MODEL 8
REMARK VINA RESULT:    -5.979      1.970      3.457
REMARK INTER + INTRA:         -10.687
REMARK INTER:                  -8.734
REMARK INTRA:                  -1.953
REMARK UNBOUND:                -1.563
REMARK SMILES OC[C@@H]1O[C@@H](O[C@]2(CO)O[C@H](CO)[C@H](O)[C@H]2O)[C@@H](O)[C@@H](O)[C@@H]1O
REMARK SMILES IDX 6 1 5 2 3 3 22 4 4 5 20 6 18 7 2 8 1 9 23 11 21 13 19 15
REMARK SMILES IDX 7 17 16 18 10 19 14 20 11 21 8 22 9 23 17 25 15 27 12 29
REMARK SMILES IDX 13 30
REMARK H PARENT 1 10 23 12 21 14 19 16 9 24 17 26 15 28 13 31
REMARK Flexibility Score: inf
ROOT
ATOM      1  O   UNL     1     -36.721  -4.551 -15.477  1.00  0.00    -0.313 OA
ENDROOT
BRANCH   1   2
ATOM      2  C   UNL     1     -37.939  -3.959 -15.932  1.00  0.00     0.285 C 
ATOM      3  C   UNL     1     -37.063  -3.741 -18.105  1.00  0.00     0.178 C 
ATOM      4  C   UNL     1     -37.041  -2.187 -18.068  1.00  0.00     0.177 C 
ATOM      5  O   UNL     1     -38.119  -4.258 -17.308  1.00  0.00    -0.341 OA
ATOM      6  C   UNL     1     -37.021  -1.660 -16.612  1.00  0.00     0.179 C 
ATOM      7  C   UNL     1     -38.025  -2.424 -15.724  1.00  0.00     0.202 C 
BRANCH   3   8
ATOM      8  C   UNL     1     -37.230  -4.271 -19.539  1.00  0.00     0.191 C 
BRANCH   8   9
ATOM      9  O   UNL     1     -36.588  -3.435 -20.464  1.00  0.00    -0.394 OA
ATOM     10  H   UNL     1     -36.330  -2.611 -19.974  1.00  0.00     0.210 HD
ENDBRANCH   8   9
ENDBRANCH   3   8
BRANCH   4  11
ATOM     11  O   UNL     1     -38.128  -1.637 -18.774  1.00  0.00    -0.387 OA
ATOM     12  H   UNL     1     -37.852  -1.518 -19.719  1.00  0.00     0.211 HD
ENDBRANCH   4  11
BRANCH   6  13
ATOM     13  O   UNL     1     -35.726  -1.684 -16.063  1.00  0.00    -0.387 OA
ATOM     14  H   UNL     1     -35.652  -0.948 -15.405  1.00  0.00     0.211 HD
ENDBRANCH   6  13
BRANCH   7  15
ATOM     15  O   UNL     1     -37.872  -2.080 -14.375  1.00  0.00    -0.385 OA
ATOM     16  H   UNL     1     -38.685  -1.573 -14.111  1.00  0.00     0.211 HD
ENDBRANCH   7  15
ENDBRANCH   1   2
BRANCH   1  17
ATOM     17  C   UNL     1     -36.766  -5.522 -14.425  1.00  0.00     0.224 C 
ATOM     18  C   UNL     1     -38.245  -5.581 -13.972  1.00  0.00     0.208 C 
ATOM     19  O   UNL     1     -36.439  -6.794 -14.959  1.00  0.00    -0.337 OA
ATOM     20  C   UNL     1     -38.471  -7.048 -13.699  1.00  0.00     0.180 C 
ATOM     21  C   UNL     1     -37.441  -7.730 -14.608  1.00  0.00     0.179 C 
BRANCH  17  22
ATOM     22  C   UNL     1     -35.811  -5.232 -13.222  1.00  0.00     0.225 C 
BRANCH  22  23
ATOM     23  O   UNL     1     -35.802  -3.869 -12.898  1.00  0.00    -0.391 OA
ATOM     24  H   UNL     1     -34.861  -3.566 -12.997  1.00  0.00     0.210 HD
ENDBRANCH  22  23
ENDBRANCH  17  22
BRANCH  18  25
ATOM     25  O   UNL     1     -38.512  -4.809 -12.830  1.00  0.00    -0.385 OA
ATOM     26  H   UNL     1     -38.709  -5.452 -12.098  1.00  0.00     0.211 HD
ENDBRANCH  18  25
BRANCH  20  27
ATOM     27  O   UNL     1     -39.801  -7.469 -13.901  1.00  0.00    -0.387 OA
ATOM     28  H   UNL     1     -40.017  -8.190 -13.256  1.00  0.00     0.211 HD
ENDBRANCH  20  27
BRANCH  21  29
ATOM     29  C   UNL     1     -38.017  -8.352 -15.890  1.00  0.00     0.191 C 
BRANCH  29  30
ATOM     30  O   UNL     1     -38.552  -7.362 -16.725  1.00  0.00    -0.394 OA
ATOM     31  H   UNL     1     -38.010  -6.546 -16.566  1.00  0.00     0.210 HD
ENDBRANCH  29  30
ENDBRANCH  21  29
ENDBRANCH   1  17
TORSDOF 13
ENDMDL
MODEL 9
REMARK VINA RESULT:    -5.802      3.418      6.081
REMARK INTER + INTRA:         -10.417
REMARK INTER:                  -8.961
REMARK INTRA:                  -1.455
REMARK UNBOUND:                -1.563
REMARK SMILES OC[C@@H]1O[C@@H](O[C@]2(CO)O[C@H](CO)[C@H](O)[C@H]2O)[C@@H](O)[C@@H](O)[C@@H]1O
REMARK SMILES IDX 6 1 5 2 3 3 22 4 4 5 20 6 18 7 2 8 1 9 23 11 21 13 19 15
REMARK SMILES IDX 7 17 16 18 10 19 14 20 11 21 8 22 9 23 17 25 15 27 12 29
REMARK SMILES IDX 13 30
REMARK H PARENT 1 10 23 12 21 14 19 16 9 24 17 26 15 28 13 31
REMARK Flexibility Score: inf
ROOT
ATOM      1  O   UNL     1     -38.324  -5.284 -12.991  1.00  0.00    -0.313 OA
ENDROOT
BRANCH   1   2
ATOM      2  C   UNL     1     -38.735  -5.462 -14.349  1.00  0.00     0.285 C 
ATOM      3  C   UNL     1     -39.303  -7.705 -13.920  1.00  0.00     0.178 C 
ATOM      4  C   UNL     1     -38.183  -8.285 -14.829  1.00  0.00     0.177 C 
ATOM      5  O   UNL     1     -39.755  -6.449 -14.402  1.00  0.00    -0.341 OA
ATOM      6  C   UNL     1     -37.039  -7.263 -15.034  1.00  0.00     0.179 C 
ATOM      7  C   UNL     1     -37.592  -5.851 -15.322  1.00  0.00     0.202 C 
BRANCH   3   8
ATOM      8  C   UNL     1     -40.508  -8.656 -13.829  1.00  0.00     0.191 C 
BRANCH   8   9
ATOM      9  O   UNL     1     -41.694  -8.003 -14.200  1.00  0.00    -0.394 OA
ATOM     10  H   UNL     1     -42.440  -8.616 -13.971  1.00  0.00     0.210 HD
ENDBRANCH   8   9
ENDBRANCH   3   8
BRANCH   4  11
ATOM     11  O   UNL     1     -38.692  -8.707 -16.073  1.00  0.00    -0.387 OA
ATOM     12  H   UNL     1     -39.478  -9.288 -15.902  1.00  0.00     0.211 HD
ENDBRANCH   4  11
BRANCH   6  13
ATOM     13  O   UNL     1     -36.143  -7.253 -13.949  1.00  0.00    -0.387 OA
ATOM     14  H   UNL     1     -36.500  -7.849 -13.244  1.00  0.00     0.211 HD
ENDBRANCH   6  13
BRANCH   7  15
ATOM     15  O   UNL     1     -36.567  -4.895 -15.317  1.00  0.00    -0.385 OA
ATOM     16  H   UNL     1     -36.950  -4.061 -14.937  1.00  0.00     0.211 HD
ENDBRANCH   7  15
ENDBRANCH   1   2
BRANCH   1  17
ATOM     17  C   UNL     1     -38.836  -4.172 -12.247  1.00  0.00     0.224 C 
ATOM     18  C   UNL     1     -37.610  -3.532 -11.552  1.00  0.00     0.208 C 
ATOM     19  O   UNL     1     -39.354  -3.213 -13.153  1.00  0.00    -0.337 OA
ATOM     20  C   UNL     1     -37.889  -2.052 -11.642  1.00  0.00     0.180 C 
ATOM     21  C   UNL     1     -38.788  -1.945 -12.879  1.00  0.00     0.179 C 
BRANCH  17  22
ATOM     22  C   UNL     1     -39.955  -4.531 -11.217  1.00  0.00     0.225 C 
BRANCH  22  23
ATOM     23  O   UNL     1     -40.204  -5.910 -11.198  1.00  0.00    -0.391 OA
ATOM     24  H   UNL     1     -41.128  -6.021 -10.849  1.00  0.00     0.210 HD
ENDBRANCH  22  23
ENDBRANCH  17  22
BRANCH  18  25
ATOM     25  O   UNL     1     -37.451  -3.935 -10.217  1.00  0.00    -0.385 OA
ATOM     26  H   UNL     1     -37.858  -3.221  -9.658  1.00  0.00     0.211 HD
ENDBRANCH  18  25
BRANCH  20  27
ATOM     27  O   UNL     1     -36.727  -1.253 -11.690  1.00  0.00    -0.387 OA
ATOM     28  H   UNL     1     -36.241  -1.434 -12.534  1.00  0.00     0.211 HD
ENDBRANCH  20  27
BRANCH  21  29
ATOM     29  C   UNL     1     -38.091  -1.422 -14.146  1.00  0.00     0.191 C 
BRANCH  29  30
ATOM     30  O   UNL     1     -36.980  -2.215 -14.462  1.00  0.00    -0.394 OA
ATOM     31  H   UNL     1     -37.236  -3.148 -14.246  1.00  0.00     0.210 HD
ENDBRANCH  29  30
ENDBRANCH  21  29
ENDBRANCH   1  17
TORSDOF 13
ENDMDL
