MODEL 1
REMARK VINA RESULT:    -3.419      0.000      0.000
REMARK INTER + INTRA:          -4.308
REMARK INTER:                  -4.219
REMARK INTRA:                  -0.089
REMARK UNBOUND:                -0.089
REMARK SMILES CCCCCC(=O)[O-]
REMARK SMILES IDX 4 1 5 2 6 3 7 4 8 5 3 6 2 7 1 8
REMARK H PARENT
REMARK Flexibility Score: inf
ROOT
ATOM      1  C   UNL     1       0.530   3.526   5.205  1.00  0.00     0.006 C 
ENDROOT
BRANCH   1   2
ATOM      2  C   UNL     1      -0.434   4.370   4.361  1.00  0.00     0.053 C 
BRANCH   2   3
ATOM      3  C   UNL     1      -0.266   4.057   2.907  1.00  0.00     0.041 C 
ATOM      4  O   UNL     1      -0.818   3.041   2.410  1.00  0.00    -0.550 OA
ATOM      5  O   UNL     1       0.461   4.915   2.091  1.00  0.00    -0.550 OA
ENDBRANCH   2   3
ENDBRANCH   1   2
BRANCH   1   6
ATOM      6  C   UNL     1      -0.173   2.810   6.367  1.00  0.00     0.000 C 
BRANCH   6   7
ATOM      7  C   UNL     1      -0.400   1.316   6.090  1.00  0.00    -0.003 C 
ATOM      8  C   UNL     1      -0.736   0.564   7.376  1.00  0.00     0.004 C 
ENDBRANCH   6   7
ENDBRANCH   1   6
TORSDOF 4
ENDMDL
MODEL 2
REMARK VINA RESULT:    -3.328      2.374      4.161
REMARK INTER + INTRA:          -4.196
REMARK INTER:                  -4.036
REMARK INTRA:                  -0.160
REMARK UNBOUND:                -0.089
REMARK SMILES CCCCCC(=O)[O-]
REMARK SMILES IDX 4 1 5 2 6 3 7 4 8 5 3 6 2 7 1 8
REMARK H PARENT
REMARK Flexibility Score: inf
ROOT
ATOM      1  C   UNL     1       0.555   3.578   5.361  1.00  0.00     0.006 C 
ENDROOT
BRANCH   1   2
ATOM      2  C   UNL     1      -0.251   3.057   6.557  1.00  0.00     0.053 C 
BRANCH   2   3
ATOM      3  C   UNL     1      -0.419   1.573   6.467  1.00  0.00     0.041 C 
ATOM      4  O   UNL     1      -0.470   0.875   7.513  1.00  0.00    -0.550 OA
ATOM      5  O   UNL     1      -0.568   0.965   5.226  1.00  0.00    -0.550 OA
ENDBRANCH   2   3
ENDBRANCH   1   2
BRANCH   1   6
ATOM      6  C   UNL     1      -0.143   4.740   4.639  1.00  0.00     0.000 C 
BRANCH   6   7
ATOM      7  C   UNL     1      -0.138   4.577   3.112  1.00  0.00    -0.003 C 
ATOM      8  C   UNL     1      -0.857   3.296   2.694  1.00  0.00     0.004 C 
ENDBRANCH   6   7
ENDBRANCH   1   6
TORSDOF 4
ENDMDL
MODEL 3
REMARK VINA RESULT:    -3.243      8.263      9.214
REMARK INTER + INTRA:          -4.091
REMARK INTER:                  -4.016
REMARK INTRA:                  -0.075
REMARK UNBOUND:                -0.089
REMARK SMILES CCCCCC(=O)[O-]
REMARK SMILES IDX 4 1 5 2 6 3 7 4 8 5 3 6 2 7 1 8
REMARK H PARENT
REMARK Flexibility Score: inf
ROOT
ATOM      1  C   UNL     1       1.423   6.526  -2.747  1.00  0.00     0.006 C 
ENDROOT
BRANCH   1   2
ATOM      2  C   UNL     1       2.517   6.486  -3.822  1.00  0.00     0.053 C 
BRANCH   2   3
ATOM      3  C   UNL     1       3.867   6.367  -3.187  1.00  0.00     0.041 C 
ATOM      4  O   UNL     1       4.000   6.523  -1.945  1.00  0.00    -0.550 OA
ATOM      5  O   UNL     1       4.973   6.035  -3.961  1.00  0.00    -0.550 OA
ENDBRANCH   2   3
ENDBRANCH   1   2
BRANCH   1   6
ATOM      6  C   UNL     1       0.810   7.924  -2.580  1.00  0.00     0.000 C 
BRANCH   6   7
ATOM      7  C   UNL     1      -0.009   8.061  -1.288  1.00  0.00    -0.003 C 
ATOM      8  C   UNL     1      -1.361   8.715  -1.561  1.00  0.00     0.004 C 
ENDBRANCH   6   7
ENDBRANCH   1   6
TORSDOF 4
ENDMDL
MODEL 4
REMARK VINA RESULT:    -3.211      8.153      9.051
REMARK INTER + INTRA:          -4.051
REMARK INTER:                  -3.873
REMARK INTRA:                  -0.178
REMARK UNBOUND:                -0.089
REMARK SMILES CCCCCC(=O)[O-]
REMARK SMILES IDX 4 1 5 2 6 3 7 4 8 5 3 6 2 7 1 8
REMARK H PARENT
REMARK Flexibility Score: inf
ROOT
ATOM      1  C   UNL     1       2.081   6.424  -3.803  1.00  0.00     0.006 C 
ENDROOT
BRANCH   1   2
ATOM      2  C   UNL     1       1.580   7.710  -3.132  1.00  0.00     0.053 C 
BRANCH   2   3
ATOM      3  C   UNL     1       0.577   7.386  -2.069  1.00  0.00     0.041 C 
ATOM      4  O   UNL     1       0.755   6.399  -1.309  1.00  0.00    -0.550 OA
ATOM      5  O   UNL     1      -0.532   8.204  -1.887  1.00  0.00    -0.550 OA
ENDBRANCH   2   3
ENDBRANCH   1   2
BRANCH   1   6
ATOM      6  C   UNL     1       3.614   6.321  -3.809  1.00  0.00     0.000 C 
BRANCH   6   7
ATOM      7  C   UNL     1       4.252   6.908  -2.541  1.00  0.00    -0.003 C 
ATOM      8  C   UNL     1       4.946   5.822  -1.722  1.00  0.00     0.004 C 
ENDBRANCH   6   7
ENDBRANCH   1   6
TORSDOF 4
ENDMDL
MODEL 5
REMARK VINA RESULT:    -3.188      1.273      2.307
REMARK INTER + INTRA:          -4.022
REMARK INTER:                  -3.909
REMARK INTRA:                  -0.114
REMARK UNBOUND:                -0.089
REMARK SMILES CCCCCC(=O)[O-]
REMARK SMILES IDX 4 1 5 2 6 3 7 4 8 5 3 6 2 7 1 8
REMARK H PARENT
REMARK Flexibility Score: inf
ROOT
ATOM      1  C   UNL     1      -0.151   2.889   5.125  1.00  0.00     0.006 C 
ENDROOT
BRANCH   1   2
ATOM      2  C   UNL     1       0.092   4.222   4.405  1.00  0.00     0.053 C 
BRANCH   2   3
ATOM      3  C   UNL     1      -0.112   4.062   2.930  1.00  0.00     0.041 C 
ATOM      4  O   UNL     1       0.413   4.875   2.126  1.00  0.00    -0.550 OA
ATOM      5  O   UNL     1      -0.844   2.985   2.442  1.00  0.00    -0.550 OA
ENDBRANCH   2   3
ENDBRANCH   1   2
BRANCH   1   6
ATOM      6  C   UNL     1      -0.247   3.052   6.650  1.00  0.00     0.000 C 
BRANCH   6   7
ATOM      7  C   UNL     1      -0.349   4.522   7.083  1.00  0.00    -0.003 C 
ATOM      8  C   UNL     1      -1.753   4.851   7.584  1.00  0.00     0.004 C 
ENDBRANCH   6   7
ENDBRANCH   1   6
TORSDOF 4
ENDMDL
MODEL 6
REMARK VINA RESULT:    -3.184      8.606      9.382
REMARK INTER + INTRA:          -4.017
REMARK INTER:                  -3.899
REMARK INTRA:                  -0.119
REMARK UNBOUND:                -0.089
REMARK SMILES CCCCCC(=O)[O-]
REMARK SMILES IDX 4 1 5 2 6 3 7 4 8 5 3 6 2 7 1 8
REMARK H PARENT
REMARK Flexibility Score: inf
ROOT
ATOM      1  C   UNL     1       1.347   8.908  -3.385  1.00  0.00     0.006 C 
ENDROOT
BRANCH   1   2
ATOM      2  C   UNL     1       2.128   7.858  -2.585  1.00  0.00     0.053 C 
BRANCH   2   3
ATOM      3  C   UNL     1       2.060   6.527  -3.266  1.00  0.00     0.041 C 
ATOM      4  O   UNL     1       2.782   6.290  -4.268  1.00  0.00    -0.550 OA
ATOM      5  O   UNL     1       1.231   5.530  -2.763  1.00  0.00    -0.550 OA
ENDBRANCH   2   3
ENDBRANCH   1   2
BRANCH   1   6
ATOM      6  C   UNL     1       0.233   9.571  -2.560  1.00  0.00     0.000 C 
BRANCH   6   7
ATOM      7  C   UNL     1      -0.575   8.558  -1.736  1.00  0.00    -0.003 C 
ATOM      8  C   UNL     1      -1.992   9.065  -1.479  1.00  0.00     0.004 C 
ENDBRANCH   6   7
ENDBRANCH   1   6
TORSDOF 4
ENDMDL
MODEL 7
REMARK VINA RESULT:    -3.091      2.862      4.451
REMARK INTER + INTRA:          -3.903
REMARK INTER:                  -3.696
REMARK INTRA:                  -0.207
REMARK UNBOUND:                -0.089
REMARK SMILES CCCCCC(=O)[O-]
REMARK SMILES IDX 4 1 5 2 6 3 7 4 8 5 3 6 2 7 1 8
REMARK H PARENT
REMARK Flexibility Score: inf
ROOT
ATOM      1  C   UNL     1      -0.032   3.349   4.467  1.00  0.00     0.006 C 
ENDROOT
BRANCH   1   2
ATOM      2  C   UNL     1      -0.517   4.102   5.712  1.00  0.00     0.053 C 
BRANCH   2   3
ATOM      3  C   UNL     1       0.649   4.595   6.511  1.00  0.00     0.041 C 
ATOM      4  O   UNL     1       0.611   4.571   7.768  1.00  0.00    -0.550 OA
ATOM      5  O   UNL     1       1.797   5.036   5.864  1.00  0.00    -0.550 OA
ENDBRANCH   2   3
ENDBRANCH   1   2
BRANCH   1   6
ATOM      6  C   UNL     1      -0.610   3.926   3.165  1.00  0.00     0.000 C 
BRANCH   6   7
ATOM      7  C   UNL     1       0.293   5.001   2.543  1.00  0.00    -0.003 C 
ATOM      8  C   UNL     1      -0.172   6.402   2.933  1.00  0.00     0.004 C 
ENDBRANCH   6   7
ENDBRANCH   1   6
TORSDOF 4
ENDMDL
MODEL 8
REMARK VINA RESULT:    -3.058      3.416      4.278
REMARK INTER + INTRA:          -3.863
REMARK INTER:                  -3.723
REMARK INTRA:                  -0.140
REMARK UNBOUND:                -0.089
REMARK SMILES CCCCCC(=O)[O-]
REMARK SMILES IDX 4 1 5 2 6 3 7 4 8 5 3 6 2 7 1 8
REMARK H PARENT
REMARK Flexibility Score: inf
ROOT
ATOM      1  C   UNL     1      -0.120   3.899   6.539  1.00  0.00     0.006 C 
ENDROOT
BRANCH   1   2
ATOM      2  C   UNL     1      -0.553   5.347   6.280  1.00  0.00     0.053 C 
BRANCH   2   3
ATOM      3  C   UNL     1      -1.648   5.740   7.222  1.00  0.00     0.041 C 
ATOM      4  O   UNL     1      -2.335   4.857   7.799  1.00  0.00    -0.550 OA
ATOM      5  O   UNL     1      -1.878   7.082   7.500  1.00  0.00    -0.550 OA
ENDBRANCH   2   3
ENDBRANCH   1   2
BRANCH   1   6
ATOM      6  C   UNL     1      -0.115   3.047   5.261  1.00  0.00     0.000 C 
BRANCH   6   7
ATOM      7  C   UNL     1       0.248   3.860   4.009  1.00  0.00    -0.003 C 
ATOM      8  C   UNL     1      -0.751   3.608   2.882  1.00  0.00     0.004 C 
ENDBRANCH   6   7
ENDBRANCH   1   6
TORSDOF 4
ENDMDL
MODEL 9
REMARK VINA RESULT:    -3.023      8.000      8.937
REMARK INTER + INTRA:          -3.820
REMARK INTER:                  -3.733
REMARK INTRA:                  -0.086
REMARK UNBOUND:                -0.089
REMARK SMILES CCCCCC(=O)[O-]
REMARK SMILES IDX 4 1 5 2 6 3 7 4 8 5 3 6 2 7 1 8
REMARK H PARENT
REMARK Flexibility Score: inf
ROOT
ATOM      1  C   UNL     1       0.937   7.172  -1.577  1.00  0.00     0.006 C 
ENDROOT
BRANCH   1   2
ATOM      2  C   UNL     1       0.236   8.403  -2.168  1.00  0.00     0.053 C 
BRANCH   2   3
ATOM      3  C   UNL     1      -0.883   8.844  -1.277  1.00  0.00     0.041 C 
ATOM      4  O   UNL     1      -2.078   8.702  -1.643  1.00  0.00    -0.550 OA
ATOM      5  O   UNL     1      -0.606   9.368  -0.020  1.00  0.00    -0.550 OA
ENDBRANCH   2   3
ENDBRANCH   1   2
BRANCH   1   6
ATOM      6  C   UNL     1       1.400   6.182  -2.655  1.00  0.00     0.000 C 
BRANCH   6   7
ATOM      7  C   UNL     1       2.271   6.845  -3.732  1.00  0.00    -0.003 C 
ATOM      8  C   UNL     1       3.738   6.451  -3.572  1.00  0.00     0.004 C 
ENDBRANCH   6   7
ENDBRANCH   1   6
TORSDOF 4
ENDMDL
