MODEL 1
REMARK VINA RESULT:    -4.703      0.000      0.000
REMARK INTER + INTRA:          -4.703
REMARK INTER:                  -4.703
REMARK INTRA:                   0.000
REMARK UNBOUND:                 0.000
REMARK SMILES CC(C)=C1CC[C@H](C)CC1=O
REMARK SMILES IDX 8 1 7 2 6 3 5 4 4 5 2 6 1 7 3 8 10 9 11 10 9 11
REMARK H PARENT
REMARK Flexibility Score: inf
ROOT
ATOM      1  C   UNL     1     -12.130  14.643 -31.865  1.00  0.00     0.008 C 
ATOM      2  C   UNL     1     -13.444  13.855 -31.916  1.00  0.00    -0.006 C 
ATOM      3  C   UNL     1     -13.566  12.927 -30.697  1.00  0.00     0.008 C 
ATOM      4  C   UNL     1     -14.827  12.056 -30.784  1.00  0.00     0.039 C 
ATOM      5  C   UNL     1     -16.087  12.875 -31.024  1.00  0.00    -0.006 C 
ATOM      6  C   UNL     1     -17.296  12.480 -30.525  1.00  0.00    -0.070 C 
ATOM      7  C   UNL     1     -17.436  11.203 -29.728  1.00  0.00     0.039 C 
ATOM      8  C   UNL     1     -18.543  13.314 -30.708  1.00  0.00     0.039 C 
ATOM      9  C   UNL     1     -15.940  14.056 -31.926  1.00  0.00     0.159 C 
ATOM     10  O   UNL     1     -16.887  14.436 -32.666  1.00  0.00    -0.295 OA
ATOM     11  C   UNL     1     -14.644  14.812 -31.970  1.00  0.00     0.084 C 
ENDROOT
TORSDOF 0
ENDMDL
MODEL 2
REMARK VINA RESULT:    -4.686      1.343      4.287
REMARK INTER + INTRA:          -4.686
REMARK INTER:                  -4.686
REMARK INTRA:                   0.000
REMARK UNBOUND:                 0.000
REMARK SMILES CC(C)=C1CC[C@H](C)CC1=O
REMARK SMILES IDX 8 1 7 2 6 3 5 4 4 5 2 6 1 7 3 8 10 9 11 10 9 11
REMARK H PARENT
REMARK Flexibility Score: inf
ROOT
ATOM      1  C   UNL     1     -19.810  12.290 -29.402  1.00  0.00     0.008 C 
ATOM      2  C   UNL     1     -18.587  13.148 -29.745  1.00  0.00    -0.006 C 
ATOM      3  C   UNL     1     -17.357  12.678 -28.952  1.00  0.00     0.008 C 
ATOM      4  C   UNL     1     -16.148  13.588 -29.206  1.00  0.00     0.039 C 
ATOM      5  C   UNL     1     -15.854  13.768 -30.689  1.00  0.00    -0.006 C 
ATOM      6  C   UNL     1     -14.579  13.951 -31.143  1.00  0.00    -0.070 C 
ATOM      7  C   UNL     1     -13.407  14.001 -30.189  1.00  0.00     0.039 C 
ATOM      8  C   UNL     1     -14.268  14.073 -32.616  1.00  0.00     0.039 C 
ATOM      9  C   UNL     1     -17.044  13.848 -31.588  1.00  0.00     0.159 C 
ATOM     10  O   UNL     1     -17.027  14.551 -32.635  1.00  0.00    -0.295 OA
ATOM     11  C   UNL     1     -18.294  13.089 -31.251  1.00  0.00     0.084 C 
ENDROOT
TORSDOF 0
ENDMDL
MODEL 3
REMARK VINA RESULT:    -4.626      1.837      4.630
REMARK INTER + INTRA:          -4.626
REMARK INTER:                  -4.626
REMARK INTRA:                   0.000
REMARK UNBOUND:                 0.000
REMARK SMILES CC(C)=C1CC[C@H](C)CC1=O
REMARK SMILES IDX 8 1 7 2 6 3 5 4 4 5 2 6 1 7 3 8 10 9 11 10 9 11
REMARK H PARENT
REMARK Flexibility Score: inf
ROOT
ATOM      1  C   UNL     1     -18.149  11.444 -28.695  1.00  0.00     0.008 C 
ATOM      2  C   UNL     1     -17.276  12.271 -29.645  1.00  0.00    -0.006 C 
ATOM      3  C   UNL     1     -17.268  13.750 -29.224  1.00  0.00     0.008 C 
ATOM      4  C   UNL     1     -16.481  14.610 -30.222  1.00  0.00     0.039 C 
ATOM      5  C   UNL     1     -15.082  14.069 -30.483  1.00  0.00    -0.006 C 
ATOM      6  C   UNL     1     -14.040  14.904 -30.769  1.00  0.00    -0.070 C 
ATOM      7  C   UNL     1     -14.237  16.400 -30.857  1.00  0.00     0.039 C 
ATOM      8  C   UNL     1     -12.636  14.384 -30.974  1.00  0.00     0.039 C 
ATOM      9  C   UNL     1     -14.951  12.582 -30.522  1.00  0.00     0.159 C 
ATOM     10  O   UNL     1     -14.105  12.019 -31.268  1.00  0.00    -0.295 OA
ATOM     11  C   UNL     1     -15.841  11.725 -29.669  1.00  0.00     0.084 C 
ENDROOT
TORSDOF 0
ENDMDL
MODEL 4
REMARK VINA RESULT:    -4.585      1.522      1.868
REMARK INTER + INTRA:          -4.585
REMARK INTER:                  -4.585
REMARK INTRA:                   0.000
REMARK UNBOUND:                 0.000
REMARK SMILES CC(C)=C1CC[C@H](C)CC1=O
REMARK SMILES IDX 8 1 7 2 6 3 5 4 4 5 2 6 1 7 3 8 10 9 11 10 9 11
REMARK H PARENT
REMARK Flexibility Score: inf
ROOT
ATOM      1  C   UNL     1     -10.876  14.632 -30.512  1.00  0.00     0.008 C 
ATOM      2  C   UNL     1     -12.256  13.989 -30.693  1.00  0.00    -0.006 C 
ATOM      3  C   UNL     1     -13.123  14.207 -29.443  1.00  0.00     0.008 C 
ATOM      4  C   UNL     1     -14.471  13.484 -29.566  1.00  0.00     0.039 C 
ATOM      5  C   UNL     1     -15.205  13.832 -30.853  1.00  0.00    -0.006 C 
ATOM      6  C   UNL     1     -16.569  13.862 -30.906  1.00  0.00    -0.070 C 
ATOM      7  C   UNL     1     -17.408  13.533 -29.693  1.00  0.00     0.039 C 
ATOM      8  C   UNL     1     -17.308  14.261 -32.163  1.00  0.00     0.039 C 
ATOM      9  C   UNL     1     -14.351  14.018 -32.064  1.00  0.00     0.159 C 
ATOM     10  O   UNL     1     -14.771  13.715 -33.214  1.00  0.00    -0.295 OA
ATOM     11  C   UNL     1     -12.962  14.569 -31.928  1.00  0.00     0.084 C 
ENDROOT
TORSDOF 0
ENDMDL
MODEL 5
REMARK VINA RESULT:    -4.522     10.841     13.602
REMARK INTER + INTRA:          -4.522
REMARK INTER:                  -4.522
REMARK INTRA:                   0.000
REMARK UNBOUND:                 0.000
REMARK SMILES CC(C)=C1CC[C@H](C)CC1=O
REMARK SMILES IDX 8 1 7 2 6 3 5 4 4 5 2 6 1 7 3 8 10 9 11 10 9 11
REMARK H PARENT
REMARK Flexibility Score: inf
ROOT
ATOM      1  C   UNL     1     -30.195  19.915 -33.796  1.00  0.00     0.008 C 
ATOM      2  C   UNL     1     -28.708  19.538 -33.800  1.00  0.00    -0.006 C 
ATOM      3  C   UNL     1     -27.856  20.705 -34.325  1.00  0.00     0.008 C 
ATOM      4  C   UNL     1     -26.377  20.311 -34.431  1.00  0.00     0.039 C 
ATOM      5  C   UNL     1     -25.834  19.727 -33.134  1.00  0.00    -0.006 C 
ATOM      6  C   UNL     1     -24.529  19.900 -32.770  1.00  0.00    -0.070 C 
ATOM      7  C   UNL     1     -23.564  20.663 -33.648  1.00  0.00     0.039 C 
ATOM      8  C   UNL     1     -23.992  19.375 -31.458  1.00  0.00     0.039 C 
ATOM      9  C   UNL     1     -26.775  18.867 -32.357  1.00  0.00     0.159 C 
ATOM     10  O   UNL     1     -26.359  17.894 -31.671  1.00  0.00    -0.295 OA
ATOM     11  C   UNL     1     -28.250  19.147 -32.387  1.00  0.00     0.084 C 
ENDROOT
TORSDOF 0
ENDMDL
MODEL 6
REMARK VINA RESULT:    -4.491      1.979      4.624
REMARK INTER + INTRA:          -4.491
REMARK INTER:                  -4.491
REMARK INTRA:                   0.000
REMARK UNBOUND:                 0.000
REMARK SMILES CC(C)=C1CC[C@H](C)CC1=O
REMARK SMILES IDX 8 1 7 2 6 3 5 4 4 5 2 6 1 7 3 8 10 9 11 10 9 11
REMARK H PARENT
REMARK Flexibility Score: inf
ROOT
ATOM      1  C   UNL     1     -18.757  13.113 -30.529  1.00  0.00     0.008 C 
ATOM      2  C   UNL     1     -17.233  12.998 -30.650  1.00  0.00    -0.006 C 
ATOM      3  C   UNL     1     -16.717  13.850 -31.821  1.00  0.00     0.008 C 
ATOM      4  C   UNL     1     -15.207  13.667 -32.021  1.00  0.00     0.039 C 
ATOM      5  C   UNL     1     -14.417  13.895 -30.739  1.00  0.00    -0.006 C 
ATOM      6  C   UNL     1     -13.151  14.407 -30.767  1.00  0.00    -0.070 C 
ATOM      7  C   UNL     1     -12.475  14.753 -32.074  1.00  0.00     0.039 C 
ATOM      8  C   UNL     1     -12.379  14.690 -29.500  1.00  0.00     0.039 C 
ATOM      9  C   UNL     1     -15.061  13.418 -29.479  1.00  0.00     0.159 C 
ATOM     10  O   UNL     1     -14.372  12.989 -28.514  1.00  0.00    -0.295 OA
ATOM     11  C   UNL     1     -16.555  13.436 -29.344  1.00  0.00     0.084 C 
ENDROOT
TORSDOF 0
ENDMDL
MODEL 7
REMARK VINA RESULT:    -4.487      1.964      2.818
REMARK INTER + INTRA:          -4.487
REMARK INTER:                  -4.487
REMARK INTRA:                   0.000
REMARK UNBOUND:                 0.000
REMARK SMILES CC(C)=C1CC[C@H](C)CC1=O
REMARK SMILES IDX 8 1 7 2 6 3 5 4 4 5 2 6 1 7 3 8 10 9 11 10 9 11
REMARK H PARENT
REMARK Flexibility Score: inf
ROOT
ATOM      1  C   UNL     1     -10.989  14.613 -30.128  1.00  0.00     0.008 C 
ATOM      2  C   UNL     1     -12.517  14.671 -30.029  1.00  0.00    -0.006 C 
ATOM      3  C   UNL     1     -13.139  14.952 -31.406  1.00  0.00     0.008 C 
ATOM      4  C   UNL     1     -14.661  15.114 -31.309  1.00  0.00     0.039 C 
ATOM      5  C   UNL     1     -15.328  13.948 -30.593  1.00  0.00    -0.006 C 
ATOM      6  C   UNL     1     -16.590  13.542 -30.922  1.00  0.00    -0.070 C 
ATOM      7  C   UNL     1     -17.385  14.246 -31.998  1.00  0.00     0.039 C 
ATOM      8  C   UNL     1     -17.241  12.350 -30.258  1.00  0.00     0.039 C 
ATOM      9  C   UNL     1     -14.571  13.362 -29.447  1.00  0.00     0.159 C 
ATOM     10  O   UNL     1     -15.168  12.872 -28.450  1.00  0.00    -0.295 OA
ATOM     11  C   UNL     1     -13.070  13.355 -29.462  1.00  0.00     0.084 C 
ENDROOT
TORSDOF 0
ENDMDL
MODEL 8
REMARK VINA RESULT:    -4.399      2.243      4.168
REMARK INTER + INTRA:          -4.399
REMARK INTER:                  -4.399
REMARK INTRA:                   0.000
REMARK UNBOUND:                 0.000
REMARK SMILES CC(C)=C1CC[C@H](C)CC1=O
REMARK SMILES IDX 8 1 7 2 6 3 5 4 4 5 2 6 1 7 3 8 10 9 11 10 9 11
REMARK H PARENT
REMARK Flexibility Score: inf
ROOT
ATOM      1  C   UNL     1     -15.587  11.340 -26.359  1.00  0.00     0.008 C 
ATOM      2  C   UNL     1     -15.851  11.506 -27.860  1.00  0.00    -0.006 C 
ATOM      3  C   UNL     1     -16.893  12.609 -28.107  1.00  0.00     0.008 C 
ATOM      4  C   UNL     1     -17.245  12.720 -29.597  1.00  0.00     0.039 C 
ATOM      5  C   UNL     1     -16.013  12.871 -30.478  1.00  0.00    -0.006 C 
ATOM      6  C   UNL     1     -16.055  13.589 -31.639  1.00  0.00    -0.070 C 
ATOM      7  C   UNL     1     -17.332  14.249 -32.107  1.00  0.00     0.039 C 
ATOM      8  C   UNL     1     -14.825  13.794 -32.494  1.00  0.00     0.039 C 
ATOM      9  C   UNL     1     -14.807  12.097 -30.058  1.00  0.00     0.159 C 
ATOM     10  O   UNL     1     -13.992  11.643 -30.907  1.00  0.00    -0.295 OA
ATOM     11  C   UNL     1     -14.549  11.839 -28.602  1.00  0.00     0.084 C 
ENDROOT
TORSDOF 0
ENDMDL
MODEL 9
REMARK VINA RESULT:    -4.329      1.464      4.172
REMARK INTER + INTRA:          -4.329
REMARK INTER:                  -4.329
REMARK INTRA:                   0.000
REMARK UNBOUND:                 0.000
REMARK SMILES CC(C)=C1CC[C@H](C)CC1=O
REMARK SMILES IDX 8 1 7 2 6 3 5 4 4 5 2 6 1 7 3 8 10 9 11 10 9 11
REMARK H PARENT
REMARK Flexibility Score: inf
ROOT
ATOM      1  C   UNL     1     -18.487  12.416 -30.520  1.00  0.00     0.008 C 
ATOM      2  C   UNL     1     -17.210  13.221 -30.252  1.00  0.00    -0.006 C 
ATOM      3  C   UNL     1     -16.221  12.402 -29.406  1.00  0.00     0.008 C 
ATOM      4  C   UNL     1     -14.980  13.229 -29.043  1.00  0.00     0.039 C 
ATOM      5  C   UNL     1     -14.323  13.862 -30.262  1.00  0.00    -0.006 C 
ATOM      6  C   UNL     1     -12.974  14.065 -30.314  1.00  0.00    -0.070 C 
ATOM      7  C   UNL     1     -12.078  13.687 -29.157  1.00  0.00     0.039 C 
ATOM      8  C   UNL     1     -12.303  14.640 -31.540  1.00  0.00     0.039 C 
ATOM      9  C   UNL     1     -15.249  14.345 -31.329  1.00  0.00     0.159 C 
ATOM     10  O   UNL     1     -14.965  15.351 -32.035  1.00  0.00    -0.295 OA
ATOM     11  C   UNL     1     -16.550  13.637 -31.574  1.00  0.00     0.084 C 
ENDROOT
TORSDOF 0
ENDMDL
