MODEL 1
REMARK VINA RESULT:    -4.536      0.000      0.000
REMARK INTER + INTRA:          -6.481
REMARK INTER:                  -6.127
REMARK INTRA:                  -0.354
REMARK UNBOUND:                -0.354
REMARK SMILES C=C1CCC=C(C)CC[C@H]2[C@@H]1CC2(C)C
REMARK SMILES IDX 11 1 12 2 13 3 10 4 14 5 15 6 9 7 8 8 6 9 7 10 5 11 2 13
REMARK SMILES IDX 1 14 3 15 4 16
REMARK H PARENT
REMARK Flexibility Score: 70.00
ROOT
ATOM      1  C   UNL     1       2.605  14.470   3.152  1.00  0.00     0.018 C 
ATOM      2  C   UNL     1       2.876  14.560   1.640  1.00  0.00     0.015 C 
ATOM      3  C   UNL     1       1.362  14.641   1.370  1.00  0.00    -0.031 C 
ATOM      4  C   UNL     1       1.090  14.548   2.895  1.00  0.00     0.002 C 
ATOM      5  C   UNL     1       0.939  16.000   0.782  1.00  0.00     0.011 C 
ATOM      6  C   UNL     1       0.850  13.479   0.494  1.00  0.00     0.011 C 
ENDROOT
BRANCH   4   7
ATOM      7  C   UNL     1       0.209  13.372   3.399  1.00  0.00     0.009 C 
BRANCH   7   8
ATOM      8  C   UNL     1      -0.610  13.671   4.676  1.00  0.00     0.030 C 
BRANCH   8   9
ATOM      9  C   UNL     1      -0.204  12.837   5.872  1.00  0.00    -0.077 C 
ATOM     10  C   UNL     1      -1.234  11.875   6.415  1.00  0.00     0.039 C 
ATOM     11  C   UNL     1       0.973  12.933   6.551  1.00  0.00    -0.028 CG0
ATOM     12  G   UNL     1       2.237  13.756   6.315  1.00  0.00     0.000 G0
ENDBRANCH   8   9
ENDBRANCH   7   8
ENDBRANCH   4   7
BRANCH   1  13
ATOM     13  C   UNL     1       3.099  13.231   3.904  1.00  0.00    -0.074 C 
ATOM     14  C   UNL     1       3.231  12.029   3.310  1.00  0.00     0.008 C 
BRANCH  13  15
ATOM     15  C   UNL     1       3.386  13.291   5.398  1.00  0.00     0.035 C 
BRANCH  15  16
ATOM     16  C   UNL     1       2.245  13.758   6.322  1.00  0.00     0.032 CG0
ATOM     17  G   UNL     1       0.982  12.929   6.547  1.00  0.00     0.000 G0
ENDBRANCH  15  16
ENDBRANCH  13  15
ENDBRANCH   1  13
TORSDOF 0
ENDMDL
MODEL 2
REMARK VINA RESULT:    -4.285      2.293      4.399
REMARK INTER + INTRA:          -6.142
REMARK INTER:                  -5.835
REMARK INTRA:                  -0.307
REMARK UNBOUND:                -0.354
REMARK SMILES C=C1CCC=C(C)CC[C@H]2[C@@H]1CC2(C)C
REMARK SMILES IDX 11 1 12 2 13 3 10 4 14 5 15 6 9 7 8 8 6 9 7 10 5 11 2 13
REMARK SMILES IDX 1 14 3 15 4 16
REMARK H PARENT
REMARK Flexibility Score: 70.00
ROOT
ATOM      1  C   UNL     1       0.644  13.817   5.699  1.00  0.00     0.018 C 
ATOM      2  C   UNL     1       1.892  12.995   6.062  1.00  0.00     0.015 C 
ATOM      3  C   UNL     1       2.455  13.217   4.646  1.00  0.00    -0.031 C 
ATOM      4  C   UNL     1       1.195  14.045   4.280  1.00  0.00     0.002 C 
ATOM      5  C   UNL     1       3.737  14.071   4.648  1.00  0.00     0.011 C 
ATOM      6  C   UNL     1       2.674  11.897   3.877  1.00  0.00     0.011 C 
ENDROOT
BRANCH   4   7
ATOM      7  C   UNL     1       0.335  13.557   3.082  1.00  0.00     0.009 C 
BRANCH   7   8
ATOM      8  C   UNL     1      -0.236  14.681   2.187  1.00  0.00     0.030 C 
BRANCH   8   9
ATOM      9  C   UNL     1      -1.740  14.825   2.271  1.00  0.00    -0.077 C 
ATOM     10  C   UNL     1      -2.505  14.777   0.970  1.00  0.00     0.039 C 
ATOM     11  C   UNL     1      -2.457  15.075   3.402  1.00  0.00    -0.028 CG0
ATOM     12  G   UNL     1      -2.063  15.182   4.873  1.00  0.00     0.000 G0
ENDBRANCH   8   9
ENDBRANCH   7   8
ENDBRANCH   4   7
BRANCH   1  13
ATOM     13  C   UNL     1      -0.725  13.137   5.790  1.00  0.00    -0.074 C 
ATOM     14  C   UNL     1      -0.868  11.797   5.782  1.00  0.00     0.008 C 
BRANCH  13  15
ATOM     15  C   UNL     1      -2.004  13.962   5.808  1.00  0.00     0.035 C 
BRANCH  15  16
ATOM     16  C   UNL     1      -2.075  15.185   4.874  1.00  0.00     0.032 CG0
ATOM     17  G   UNL     1      -2.457  15.068   3.400  1.00  0.00     0.000 G0
ENDBRANCH  15  16
ENDBRANCH  13  15
ENDBRANCH   1  13
TORSDOF 0
ENDMDL
MODEL 3
REMARK VINA RESULT:    -4.205      1.774      4.612
REMARK INTER + INTRA:          -6.035
REMARK INTER:                  -6.059
REMARK INTRA:                   0.025
REMARK UNBOUND:                -0.354
REMARK SMILES C=C1CCC=C(C)CC[C@H]2[C@@H]1CC2(C)C
REMARK SMILES IDX 11 1 12 2 13 3 10 4 14 5 15 6 9 7 8 8 6 9 7 10 5 11 2 13
REMARK SMILES IDX 1 14 3 15 4 16
REMARK H PARENT
REMARK Flexibility Score: 70.00
ROOT
ATOM      1  C   UNL     1       1.760  12.502   5.365  1.00  0.00     0.018 C 
ATOM      2  C   UNL     1       1.012  12.607   6.705  1.00  0.00     0.015 C 
ATOM      3  C   UNL     1      -0.274  13.010   5.960  1.00  0.00    -0.031 C 
ATOM      4  C   UNL     1       0.481  12.904   4.609  1.00  0.00     0.002 C 
ATOM      5  C   UNL     1      -1.387  11.954   6.093  1.00  0.00     0.011 C 
ATOM      6  C   UNL     1      -0.788  14.406   6.370  1.00  0.00     0.011 C 
ENDROOT
BRANCH   4   7
ATOM      7  C   UNL     1       0.538  14.174   3.715  1.00  0.00     0.009 C 
BRANCH   7   8
ATOM      8  C   UNL     1       0.943  13.919   2.245  1.00  0.00     0.030 C 
BRANCH   8   9
ATOM      9  C   UNL     1       1.820  15.004   1.656  1.00  0.00    -0.077 C 
ATOM     10  C   UNL     1       1.250  15.788   0.497  1.00  0.00     0.039 C 
ATOM     11  C   UNL     1       3.102  15.282   2.022  1.00  0.00    -0.028 CG0
ATOM     12  G   UNL     1       4.004  14.734   3.125  1.00  0.00     0.000 G0
ENDBRANCH   8   9
ENDBRANCH   7   8
ENDBRANCH   4   7
BRANCH   1  13
ATOM     13  C   UNL     1       2.984  13.395   5.144  1.00  0.00    -0.074 C 
ATOM     14  C   UNL     1       3.403  14.287   6.063  1.00  0.00     0.008 C 
BRANCH  13  15
ATOM     15  C   UNL     1       3.737  13.370   3.822  1.00  0.00     0.035 C 
BRANCH  15  16
ATOM     16  C   UNL     1       4.010  14.722   3.134  1.00  0.00     0.032 CG0
ATOM     17  G   UNL     1       3.112  15.273   2.028  1.00  0.00     0.000 G0
ENDBRANCH  15  16
ENDBRANCH  13  15
ENDBRANCH   1  13
TORSDOF 0
ENDMDL
MODEL 4
REMARK VINA RESULT:    -3.866      2.641      4.278
REMARK INTER + INTRA:          -5.577
REMARK INTER:                  -5.214
REMARK INTRA:                  -0.363
REMARK UNBOUND:                -0.354
REMARK SMILES C=C1CCC=C(C)CC[C@H]2[C@@H]1CC2(C)C
REMARK SMILES IDX 11 1 12 2 13 3 10 4 14 5 15 6 9 7 8 8 6 9 7 10 5 11 2 13
REMARK SMILES IDX 1 14 3 15 4 16
REMARK H PARENT
REMARK Flexibility Score: 70.00
ROOT
ATOM      1  C   UNL     1       0.603  16.061   0.489  1.00  0.00     0.018 C 
ATOM      2  C   UNL     1      -0.616  15.883  -0.432  1.00  0.00     0.015 C 
ATOM      3  C   UNL     1      -1.201  14.840   0.537  1.00  0.00    -0.031 C 
ATOM      4  C   UNL     1       0.029  15.019   1.466  1.00  0.00     0.002 C 
ATOM      5  C   UNL     1      -2.508  15.317   1.199  1.00  0.00     0.011 C 
ATOM      6  C   UNL     1      -1.390  13.456  -0.118  1.00  0.00     0.011 C 
ENDROOT
BRANCH   4   7
ATOM      7  C   UNL     1       0.890  13.763   1.771  1.00  0.00     0.009 C 
BRANCH   7   8
ATOM      8  C   UNL     1       1.534  13.738   3.176  1.00  0.00     0.030 C 
BRANCH   8   9
ATOM      9  C   UNL     1       3.045  13.831   3.158  1.00  0.00    -0.077 C 
ATOM     10  C   UNL     1       3.807  12.667   3.747  1.00  0.00     0.039 C 
ATOM     11  C   UNL     1       3.775  14.899   2.735  1.00  0.00    -0.028 CG0
ATOM     12  G   UNL     1       3.386  16.225   2.084  1.00  0.00     0.000 G0
ENDBRANCH   8   9
ENDBRANCH   7   8
ENDBRANCH   4   7
BRANCH   1  13
ATOM     13  C   UNL     1       1.992  15.760  -0.080  1.00  0.00    -0.074 C 
ATOM     14  C   UNL     1       2.185  14.903  -1.101  1.00  0.00     0.008 C 
BRANCH  13  15
ATOM     15  C   UNL     1       3.239  16.364   0.551  1.00  0.00     0.035 C 
BRANCH  15  16
ATOM     16  C   UNL     1       3.401  16.225   2.077  1.00  0.00     0.032 CG0
ATOM     17  G   UNL     1       3.776  14.903   2.744  1.00  0.00     0.000 G0
ENDBRANCH  15  16
ENDBRANCH  13  15
ENDBRANCH   1  13
TORSDOF 0
ENDMDL
MODEL 5
REMARK VINA RESULT:    -3.860      2.844      5.695
REMARK INTER + INTRA:          -5.569
REMARK INTER:                  -5.556
REMARK INTRA:                  -0.013
REMARK UNBOUND:                -0.354
REMARK SMILES C=C1CCC=C(C)CC[C@H]2[C@@H]1CC2(C)C
REMARK SMILES IDX 11 1 12 2 13 3 10 4 14 5 15 6 9 7 8 8 6 9 7 10 5 11 2 13
REMARK SMILES IDX 1 14 3 15 4 16
REMARK H PARENT
REMARK Flexibility Score: 70.00
ROOT
ATOM      1  C   UNL     1       1.035  13.880   2.871  1.00  0.00     0.018 C 
ATOM      2  C   UNL     1       1.491  12.643   3.664  1.00  0.00     0.015 C 
ATOM      3  C   UNL     1       2.800  13.362   4.040  1.00  0.00    -0.031 C 
ATOM      4  C   UNL     1       2.340  14.609   3.238  1.00  0.00     0.002 C 
ATOM      5  C   UNL     1       2.906  13.643   5.550  1.00  0.00     0.011 C 
ATOM      6  C   UNL     1       4.054  12.623   3.528  1.00  0.00     0.011 C 
ENDROOT
BRANCH   4   7
ATOM      7  C   UNL     1       3.250  15.093   2.076  1.00  0.00     0.009 C 
BRANCH   7   8
ATOM      8  C   UNL     1       2.962  16.528   1.578  1.00  0.00     0.030 C 
BRANCH   8   9
ATOM      9  C   UNL     1       2.533  16.597   0.128  1.00  0.00    -0.077 C 
ATOM     10  C   UNL     1       3.584  17.004  -0.877  1.00  0.00     0.039 C 
ATOM     11  C   UNL     1       1.268  16.406  -0.341  1.00  0.00    -0.028 CG0
ATOM     12  G   UNL     1      -0.033  15.984   0.338  1.00  0.00     0.000 G0
ENDBRANCH   8   9
ENDBRANCH   7   8
ENDBRANCH   4   7
BRANCH   1  13
ATOM     13  C   UNL     1       0.750  13.718   1.375  1.00  0.00    -0.074 C 
ATOM     14  C   UNL     1       1.492  12.923   0.580  1.00  0.00     0.008 C 
BRANCH  13  15
ATOM     15  C   UNL     1      -0.348  14.527   0.700  1.00  0.00     0.035 C 
BRANCH  15  16
ATOM     16  C   UNL     1      -0.034  15.993   0.343  1.00  0.00     0.032 CG0
ATOM     17  G   UNL     1       1.264  16.407  -0.346  1.00  0.00     0.000 G0
ENDBRANCH  15  16
ENDBRANCH  13  15
ENDBRANCH   1  13
TORSDOF 0
ENDMDL
MODEL 6
REMARK VINA RESULT:    -3.783      2.155      4.653
REMARK INTER + INTRA:          -5.464
REMARK INTER:                  -5.371
REMARK INTRA:                  -0.093
REMARK UNBOUND:                -0.354
REMARK SMILES C=C1CCC=C(C)CC[C@H]2[C@@H]1CC2(C)C
REMARK SMILES IDX 11 1 12 2 13 3 10 4 14 5 15 6 9 7 8 8 6 9 7 10 5 11 2 13
REMARK SMILES IDX 1 14 3 15 4 16
REMARK H PARENT
REMARK Flexibility Score: 70.00
ROOT
ATOM      1  C   UNL     1       1.495  14.118   4.452  1.00  0.00     0.018 C 
ATOM      2  C   UNL     1       2.634  13.431   5.223  1.00  0.00     0.015 C 
ATOM      3  C   UNL     1       3.397  13.205   3.904  1.00  0.00    -0.031 C 
ATOM      4  C   UNL     1       2.246  13.898   3.127  1.00  0.00     0.002 C 
ATOM      5  C   UNL     1       4.712  14.004   3.839  1.00  0.00     0.011 C 
ATOM      6  C   UNL     1       3.645  11.712   3.606  1.00  0.00     0.011 C 
ENDROOT
BRANCH   4   7
ATOM      7  C   UNL     1       1.531  13.078   2.017  1.00  0.00     0.009 C 
BRANCH   7   8
ATOM      8  C   UNL     1       1.352  13.819   0.672  1.00  0.00     0.030 C 
BRANCH   8   9
ATOM      9  C   UNL     1       0.525  15.083   0.777  1.00  0.00    -0.077 C 
ATOM     10  C   UNL     1       1.003  16.279  -0.013  1.00  0.00     0.039 C 
ATOM     11  C   UNL     1      -0.561  15.264   1.578  1.00  0.00    -0.028 CG0
ATOM     12  G   UNL     1      -1.338  14.321   2.494  1.00  0.00     0.000 G0
ENDBRANCH   8   9
ENDBRANCH   7   8
ENDBRANCH   4   7
BRANCH   1  13
ATOM     13  C   UNL     1       0.091  13.514   4.540  1.00  0.00    -0.074 C 
ATOM     14  C   UNL     1      -0.132  12.268   5.000  1.00  0.00     0.008 C 
BRANCH  13  15
ATOM     15  C   UNL     1      -1.120  14.280   4.025  1.00  0.00     0.035 C 
BRANCH  15  16
ATOM     16  C   UNL     1      -1.340  14.319   2.500  1.00  0.00     0.032 CG0
ATOM     17  G   UNL     1      -0.569  15.268   1.586  1.00  0.00     0.000 G0
ENDBRANCH  15  16
ENDBRANCH  13  15
ENDBRANCH   1  13
TORSDOF 0
ENDMDL
MODEL 7
REMARK VINA RESULT:    -3.647      1.920      2.675
REMARK INTER + INTRA:          -5.281
REMARK INTER:                  -5.397
REMARK INTRA:                   0.116
REMARK UNBOUND:                -0.354
REMARK SMILES C=C1CCC=C(C)CC[C@H]2[C@@H]1CC2(C)C
REMARK SMILES IDX 11 1 12 2 13 3 10 4 14 5 15 6 9 7 8 8 6 9 7 10 5 11 2 13
REMARK SMILES IDX 1 14 3 15 4 16
REMARK H PARENT
REMARK Flexibility Score: 70.00
ROOT
ATOM      1  C   UNL     1       1.871  14.476   3.479  1.00  0.00     0.018 C 
ATOM      2  C   UNL     1       2.889  14.198   2.360  1.00  0.00     0.015 C 
ATOM      3  C   UNL     1       1.839  14.585   1.303  1.00  0.00    -0.031 C 
ATOM      4  C   UNL     1       0.811  14.864   2.432  1.00  0.00     0.002 C 
ATOM      5  C   UNL     1       2.221  15.862   0.531  1.00  0.00     0.011 C 
ATOM      6  C   UNL     1       1.517  13.430   0.331  1.00  0.00     0.011 C 
ENDROOT
BRANCH   4   7
ATOM      7  C   UNL     1      -0.516  14.057   2.412  1.00  0.00     0.009 C 
BRANCH   7   8
ATOM      8  C   UNL     1      -1.801  14.916   2.447  1.00  0.00     0.030 C 
BRANCH   8   9
ATOM      9  C   UNL     1      -2.361  15.124   3.838  1.00  0.00    -0.077 C 
ATOM     10  C   UNL     1      -3.391  16.216   4.003  1.00  0.00     0.039 C 
ATOM     11  C   UNL     1      -1.962  14.473   4.965  1.00  0.00    -0.028 CG0
ATOM     12  G   UNL     1      -0.980  13.328   5.205  1.00  0.00     0.000 G0
ENDBRANCH   8   9
ENDBRANCH   7   8
ENDBRANCH   4   7
BRANCH   1  13
ATOM     13  C   UNL     1       1.499  13.329   4.423  1.00  0.00    -0.074 C 
ATOM     14  C   UNL     1       1.967  12.077   4.257  1.00  0.00     0.008 C 
BRANCH  13  15
ATOM     15  C   UNL     1       0.503  13.543   5.554  1.00  0.00     0.035 C 
BRANCH  15  16
ATOM     16  C   UNL     1      -0.989  13.317   5.240  1.00  0.00     0.032 CG0
ATOM     17  G   UNL     1      -1.955  14.471   4.981  1.00  0.00     0.000 G0
ENDBRANCH  15  16
ENDBRANCH  13  15
ENDBRANCH   1  13
TORSDOF 0
ENDMDL
MODEL 8
REMARK VINA RESULT:    -3.528      2.907      4.824
REMARK INTER + INTRA:          -5.120
REMARK INTER:                  -4.998
REMARK INTRA:                  -0.122
REMARK UNBOUND:                -0.354
REMARK SMILES C=C1CCC=C(C)CC[C@H]2[C@@H]1CC2(C)C
REMARK SMILES IDX 11 1 12 2 13 3 10 4 14 5 15 6 9 7 8 8 6 9 7 10 5 11 2 13
REMARK SMILES IDX 1 14 3 15 4 16
REMARK H PARENT
REMARK Flexibility Score: 70.00
ROOT
ATOM      1  C   UNL     1       3.249  14.295   2.027  1.00  0.00     0.018 C 
ATOM      2  C   UNL     1       4.195  13.807   3.137  1.00  0.00     0.015 C 
ATOM      3  C   UNL     1       3.012  13.126   3.851  1.00  0.00    -0.031 C 
ATOM      4  C   UNL     1       2.059  13.620   2.731  1.00  0.00     0.002 C 
ATOM      5  C   UNL     1       3.143  11.591   3.874  1.00  0.00     0.011 C 
ATOM      6  C   UNL     1       2.774  13.679   5.271  1.00  0.00     0.011 C 
ENDROOT
BRANCH   4   7
ATOM      7  C   UNL     1       0.861  14.517   3.150  1.00  0.00     0.009 C 
BRANCH   7   8
ATOM      8  C   UNL     1      -0.497  14.125   2.525  1.00  0.00     0.030 C 
BRANCH   8   9
ATOM      9  C   UNL     1      -0.985  15.091   1.466  1.00  0.00    -0.077 C 
ATOM     10  C   UNL     1      -2.443  15.482   1.518  1.00  0.00     0.039 C 
ATOM     11  C   UNL     1      -0.250  15.575   0.427  1.00  0.00    -0.028 CG0
ATOM     12  G   UNL     1       1.220  15.426   0.043  1.00  0.00     0.000 G0
ENDBRANCH   8   9
ENDBRANCH   7   8
ENDBRANCH   4   7
BRANCH   1  13
ATOM     13  C   UNL     1       3.126  15.803   1.791  1.00  0.00    -0.074 C 
ATOM     14  C   UNL     1       3.650  16.713   2.635  1.00  0.00     0.008 C 
BRANCH  13  15
ATOM     15  C   UNL     1       2.322  16.344   0.616  1.00  0.00     0.035 C 
BRANCH  15  16
ATOM     16  C   UNL     1       1.225  15.435   0.028  1.00  0.00     0.032 CG0
ATOM     17  G   UNL     1      -0.245  15.571   0.416  1.00  0.00     0.000 G0
ENDBRANCH  15  16
ENDBRANCH  13  15
ENDBRANCH   1  13
TORSDOF 0
ENDMDL
MODEL 9
REMARK VINA RESULT:    -3.427      3.014      5.270
REMARK INTER + INTRA:          -4.984
REMARK INTER:                  -6.004
REMARK INTRA:                   1.020
REMARK UNBOUND:                -0.354
REMARK SMILES C=C1CCC=C(C)CC[C@H]2[C@@H]1CC2(C)C
REMARK SMILES IDX 11 1 12 2 13 3 10 4 14 5 15 6 9 7 8 8 6 9 7 10 5 11 2 13
REMARK SMILES IDX 1 14 3 15 4 16
REMARK H PARENT
REMARK Flexibility Score: 70.00
ROOT
ATOM      1  C   UNL     1       3.254  14.491   2.130  1.00  0.00     0.018 C 
ATOM      2  C   UNL     1       3.648  14.118   3.569  1.00  0.00     0.015 C 
ATOM      3  C   UNL     1       2.336  13.327   3.727  1.00  0.00    -0.031 C 
ATOM      4  C   UNL     1       1.940  13.705   2.275  1.00  0.00     0.002 C 
ATOM      5  C   UNL     1       2.577  11.815   3.894  1.00  0.00     0.011 C 
ATOM      6  C   UNL     1       1.445  13.871   4.862  1.00  0.00     0.011 C 
ENDROOT
BRANCH   4   7
ATOM      7  C   UNL     1       0.607  14.478   2.071  1.00  0.00     0.009 C 
BRANCH   7   8
ATOM      8  C   UNL     1      -0.252  13.994   0.880  1.00  0.00     0.030 C 
BRANCH   8   9
ATOM      9  C   UNL     1       0.552  13.666  -0.360  1.00  0.00    -0.077 C 
ATOM     10  C   UNL     1       0.323  12.309  -0.983  1.00  0.00     0.039 C 
ATOM     11  C   UNL     1       1.519  14.448  -0.916  1.00  0.00    -0.028 CG0
ATOM     12  G   UNL     1       2.024  15.852  -0.594  1.00  0.00     0.000 G0
ENDBRANCH   8   9
ENDBRANCH   7   8
ENDBRANCH   4   7
BRANCH   1  13
ATOM     13  C   UNL     1       3.118  15.975   1.776  1.00  0.00    -0.074 C 
ATOM     14  C   UNL     1       3.886  16.926   2.341  1.00  0.00     0.008 C 
BRANCH  13  15
ATOM     15  C   UNL     1       2.034  16.450   0.819  1.00  0.00     0.035 C 
BRANCH  15  16
ATOM     16  C   UNL     1       2.037  15.863  -0.606  1.00  0.00     0.032 CG0
ATOM     17  G   UNL     1       1.513  14.462  -0.915  1.00  0.00     0.000 G0
ENDBRANCH  15  16
ENDBRANCH  13  15
ENDBRANCH   1  13
TORSDOF 0
ENDMDL
