MODEL 1
REMARK VINA RESULT:    12.579      0.000      0.000
REMARK INTER + INTRA:          14.560
REMARK INTER:                  14.049
REMARK INTRA:                   0.511
REMARK UNBOUND:                 0.511
REMARK SMILES CC1(C)CC[C@]2(C(=O)[O-])[C@@H](O)C[C@@]3(C)C(=CC[C@H]4[C@@]5(C)CC[C@@H](O)C(C)(C)[C@@H]5CC[C@]43C)[C@@H]2C1
REMARK SMILES IDX 6 1 5 2 33 3 10 4 4 5 34 6 15 7 12 8 2 9 16 10 13 11 1 12
REMARK SMILES IDX 3 13 17 14 31 15 14 16 18 17 30 18 32 19 19 20 29 21 21 22
REMARK SMILES IDX 20 23 28 24 22 25 25 26 23 27 26 28 27 29 7 30 8 31 9 32
REMARK SMILES IDX 11 33 24 35
REMARK H PARENT 11 34 24 36
REMARK Flexibility Score: inf
ROOT
ATOM      1  C   UNL     1       7.057 -53.293 578.054  1.00  0.00     0.042 C 
ATOM      2  C   UNL     1       7.281 -52.038 578.957  1.00  0.00     0.017 C 
ATOM      3  C   UNL     1       6.692 -52.833 576.608  1.00  0.00     0.030 C 
ATOM      4  C   UNL     1       8.342 -54.211 578.062  1.00  0.00     0.127 C 
ATOM      5  C   UNL     1       8.219 -50.973 578.361  1.00  0.00     0.007 C 
ATOM      6  C   UNL     1       7.639 -51.753 576.031  1.00  0.00     0.015 C 
ATOM      7  C   UNL     1       6.601 -54.015 575.645  1.00  0.00    -0.063 C 
ATOM      8  C   UNL     1       8.732 -54.855 576.699  1.00  0.00     0.044 C 
ATOM      9  C   UNL     1       7.801 -50.515 576.945  1.00  0.00    -0.035 C 
ATOM     10  C   UNL     1       5.692 -53.957 574.662  1.00  0.00    -0.027 C 
ATOM     11  C   UNL     1       7.564 -55.194 575.710  1.00  0.00    -0.003 C 
ATOM     12  C   UNL     1       8.917 -49.618 576.367  1.00  0.00     0.011 C 
ATOM     13  C   UNL     1       6.499 -49.678 576.992  1.00  0.00     0.011 C 
ATOM     14  C   UNL     1       5.605 -54.940 573.532  1.00  0.00     0.032 C 
ATOM     15  C   UNL     1       8.078 -55.532 574.212  1.00  0.00    -0.020 C 
ATOM     16  C   UNL     1       6.793 -56.406 576.317  1.00  0.00     0.017 C 
ATOM     17  C   UNL     1       6.826 -55.908 573.292  1.00  0.00     0.006 C 
ATOM     18  C   UNL     1       8.810 -54.307 573.563  1.00  0.00     0.008 C 
ATOM     19  C   UNL     1       9.104 -56.710 574.296  1.00  0.00     0.012 C 
ATOM     20  C   UNL     1       7.149 -56.093 571.730  1.00  0.00    -0.025 C 
ATOM     21  C   UNL     1       9.124 -54.457 572.061  1.00  0.00     0.005 C 
ATOM     22  C   UNL     1       5.831 -56.333 570.903  1.00  0.00     0.010 C 
ATOM     23  C   UNL     1       8.015 -57.382 571.517  1.00  0.00     0.012 C 
ATOM     24  C   UNL     1       7.858 -54.778 571.225  1.00  0.00     0.003 C 
ATOM     25  C   UNL     1       6.030 -56.247 569.378  1.00  0.00     0.033 C 
ATOM     26  C   UNL     1       8.040 -54.649 569.659  1.00  0.00    -0.006 C 
ATOM     27  C   UNL     1       6.669 -54.914 568.956  1.00  0.00     0.120 C 
ATOM     28  C   UNL     1       9.125 -55.596 569.080  1.00  0.00     0.014 C 
ATOM     29  C   UNL     1       8.485 -53.205 569.291  1.00  0.00     0.014 C 
ENDROOT
BRANCH   1  30
ATOM     30  C   UNL     1       5.862 -54.030 578.676  1.00  0.00     0.051 C 
ATOM     31  O   UNL     1       4.767 -53.446 578.897  1.00  0.00    -0.549 OA
ATOM     32  O   UNL     1       5.983 -55.368 579.039  1.00  0.00    -0.549 OA
ENDBRANCH   1  30
BRANCH   4  33
ATOM     33  O   UNL     1       8.239 -55.214 579.047  1.00  0.00    -0.392 OA
ATOM     34  H   UNL     1       7.837 -54.801 579.856  1.00  0.00     0.210 HD
ENDBRANCH   4  33
BRANCH  27  35
ATOM     35  O   UNL     1       5.771 -53.865 569.233  1.00  0.00    -0.393 OA
ATOM     36  H   UNL     1       5.874 -53.193 568.510  1.00  0.00     0.210 HD
ENDBRANCH  27  35
TORSDOF 3
ENDMDL
