MODEL 1
REMARK VINA RESULT:    -2.362      0.000      0.000
REMARK INTER + INTRA:          -1.102
REMARK INTER:                  -3.604
REMARK INTRA:                   2.502
REMARK UNBOUND:                 2.502
REMARK SMILES CC1=CCC[C@H](C)C(=O)C[C@H](C(C)C)C(=O)C1
REMARK SMILES IDX 8 1 9 2 6 3 7 4 5 5 4 6 3 7 2 8 1 9 10 11 11 12 15 13 16 14
REMARK SMILES IDX 17 15 12 17 13 18 14 19
REMARK H PARENT
REMARK Flexibility Score: 70.00
ROOT
ATOM      1  C   UNL     1      -3.407  -4.265 -17.385  1.00  0.00     0.136 C 
ATOM      2  O   UNL     1      -2.470  -3.997 -18.125  1.00  0.00    -0.299 OA
ENDROOT
BRANCH   1   3
ATOM      3  C   UNL     1      -4.210  -3.144 -16.745  1.00  0.00     0.053 C 
ATOM      4  C   UNL     1      -5.713  -3.267 -17.037  1.00  0.00     0.016 C 
BRANCH   3   5
ATOM      5  C   UNL     1      -3.927  -2.968 -15.232  1.00  0.00     0.015 C 
BRANCH   5   6
ATOM      6  C   UNL     1      -2.492  -3.218 -14.719  1.00  0.00     0.028 C 
BRANCH   6   7
ATOM      7  C   UNL     1      -2.198  -4.560 -14.087  1.00  0.00    -0.028 C 
ATOM      8  C   UNL     1      -1.421  -5.545 -14.599  1.00  0.00    -0.070 CG0
ATOM      9  C   UNL     1      -1.107  -6.722 -13.708  1.00  0.00     0.039 C 
ATOM     10  G   UNL     1      -0.920  -5.575 -16.030  1.00  0.00     0.000 G0
ENDBRANCH   6   7
ENDBRANCH   5   6
ENDBRANCH   3   5
ENDBRANCH   1   3
BRANCH   1  11
ATOM     11  C   UNL     1      -3.724  -5.723 -17.120  1.00  0.00     0.087 C 
BRANCH  11  12
ATOM     12  C   UNL     1      -2.652  -6.692 -17.681  1.00  0.00     0.066 C 
BRANCH  12  13
ATOM     13  C   UNL     1      -1.463  -6.806 -16.742  1.00  0.00     0.140 C 
ATOM     14  O   UNL     1      -0.980  -7.903 -16.506  1.00  0.00    -0.299 OA
BRANCH  13  15
ATOM     15  C   UNL     1      -0.911  -5.593 -16.024  1.00  0.00     0.106 CG0
ATOM     16  G   UNL     1      -1.459  -5.536 -14.612  1.00  0.00     0.000 G0
ENDBRANCH  13  15
ENDBRANCH  12  13
BRANCH  12  17
ATOM     17  C   UNL     1      -3.246  -8.067 -18.120  1.00  0.00    -0.006 C 
ATOM     18  C   UNL     1      -2.202  -9.188 -17.981  1.00  0.00     0.008 C 
ATOM     19  C   UNL     1      -4.548  -8.477 -17.404  1.00  0.00     0.008 C 
ENDBRANCH  12  17
ENDBRANCH  11  12
ENDBRANCH   1  11
TORSDOF 1
ENDMDL
MODEL 2
REMARK VINA RESULT:     0.549      1.936      3.175
REMARK INTER + INTRA:           3.339
REMARK INTER:                   0.935
REMARK INTRA:                   2.405
REMARK UNBOUND:                 2.502
REMARK SMILES CC1=CCC[C@H](C)C(=O)C[C@H](C(C)C)C(=O)C1
REMARK SMILES IDX 8 1 9 2 6 3 7 4 5 5 4 6 3 7 2 8 1 9 10 11 11 12 15 13 16 14
REMARK SMILES IDX 17 15 12 17 13 18 14 19
REMARK H PARENT
REMARK Flexibility Score: 70.00
ROOT
ATOM      1  C   UNL     1      -3.753  -4.035 -15.120  1.00  0.00     0.136 C 
ATOM      2  O   UNL     1      -3.114  -2.995 -15.211  1.00  0.00    -0.299 OA
ENDROOT
BRANCH   1   3
ATOM      3  C   UNL     1      -5.225  -4.053 -15.498  1.00  0.00     0.053 C 
ATOM      4  C   UNL     1      -6.141  -3.926 -14.271  1.00  0.00     0.016 C 
BRANCH   3   5
ATOM      5  C   UNL     1      -5.592  -3.030 -16.603  1.00  0.00     0.015 C 
BRANCH   5   6
ATOM      6  C   UNL     1      -4.799  -3.063 -17.927  1.00  0.00     0.028 C 
BRANCH   6   7
ATOM      7  C   UNL     1      -3.299  -2.884 -17.849  1.00  0.00    -0.028 C 
ATOM      8  C   UNL     1      -2.357  -3.840 -18.034  1.00  0.00    -0.070 CG0
ATOM      9  C   UNL     1      -0.916  -3.397 -18.104  1.00  0.00     0.039 C 
ATOM     10  G   UNL     1      -2.654  -5.325 -18.092  1.00  0.00     0.000 G0
ENDBRANCH   6   7
ENDBRANCH   5   6
ENDBRANCH   3   5
ENDBRANCH   1   3
BRANCH   1  11
ATOM     11  C   UNL     1      -3.045  -5.275 -14.612  1.00  0.00     0.087 C 
BRANCH  11  12
ATOM     12  C   UNL     1      -2.963  -6.407 -15.667  1.00  0.00     0.066 C 
BRANCH  12  13
ATOM     13  C   UNL     1      -2.084  -6.007 -16.840  1.00  0.00     0.140 C 
ATOM     14  O   UNL     1      -0.875  -6.167 -16.773  1.00  0.00    -0.299 OA
BRANCH  13  15
ATOM     15  C   UNL     1      -2.667  -5.336 -18.065  1.00  0.00     0.106 CG0
ATOM     16  G   UNL     1      -2.346  -3.854 -18.043  1.00  0.00     0.000 G0
ENDBRANCH  13  15
ENDBRANCH  12  13
BRANCH  12  17
ATOM     17  C   UNL     1      -2.600  -7.792 -15.046  1.00  0.00    -0.006 C 
ATOM     18  C   UNL     1      -2.429  -8.859 -16.140  1.00  0.00     0.008 C 
ATOM     19  C   UNL     1      -1.366  -7.792 -14.122  1.00  0.00     0.008 C 
ENDBRANCH  12  17
ENDBRANCH  11  12
ENDBRANCH   1  11
TORSDOF 1
ENDMDL
