MODEL 1
REMARK VINA RESULT:     1.335      0.000      0.000
REMARK INTER + INTRA:           1.683
REMARK INTER:                   2.895
REMARK INTRA:                  -1.212
REMARK UNBOUND:                -1.212
REMARK SMILES CCCCCCCCCCCCCCCCCCCCCC(=O)[O-]
REMARK SMILES IDX 12 1 11 2 10 3 9 4 8 5 7 6 6 7 5 8 4 9 3 10 2 11 1 12 13 13
REMARK SMILES IDX 14 14 15 15 16 16 17 17 18 18 19 19 20 20 21 21 22 22 23 23
REMARK SMILES IDX 24 24
REMARK H PARENT
REMARK Flexibility Score: inf
ROOT
ATOM      1  C   UNL     1       9.007  -8.111   8.261  1.00  0.00     0.000 C 
ENDROOT
BRANCH   1   2
ATOM      2  C   UNL     1       9.370  -9.552   7.846  1.00  0.00     0.000 C 
BRANCH   2   3
ATOM      3  C   UNL     1       9.989  -9.692   6.442  1.00  0.00     0.000 C 
BRANCH   3   4
ATOM      4  C   UNL     1       8.998 -10.064   5.323  1.00  0.00    -0.000 C 
BRANCH   4   5
ATOM      5  C   UNL     1       7.521 -10.125   5.752  1.00  0.00    -0.000 C 
BRANCH   5   6
ATOM      6  C   UNL     1       6.609  -9.234   4.891  1.00  0.00    -0.000 C 
BRANCH   6   7
ATOM      7  C   UNL     1       5.335  -8.809   5.642  1.00  0.00    -0.000 C 
BRANCH   7   8
ATOM      8  C   UNL     1       4.513 -10.017   6.124  1.00  0.00    -0.000 C 
BRANCH   8   9
ATOM      9  C   UNL     1       3.659  -9.699   7.366  1.00  0.00    -0.000 C 
BRANCH   9  10
ATOM     10  C   UNL     1       4.442  -9.064   8.535  1.00  0.00    -0.000 C 
BRANCH  10  11
ATOM     11  C   UNL     1       3.886  -9.394   9.932  1.00  0.00    -0.003 C 
ATOM     12  C   UNL     1       2.366  -9.564   9.941  1.00  0.00     0.004 C 
ENDBRANCH  10  11
ENDBRANCH   9  10
ENDBRANCH   8   9
ENDBRANCH   7   8
ENDBRANCH   6   7
ENDBRANCH   5   6
ENDBRANCH   4   5
ENDBRANCH   3   4
ENDBRANCH   2   3
ENDBRANCH   1   2
BRANCH   1  13
ATOM     13  C   UNL     1       7.508  -7.863   8.502  1.00  0.00     0.000 C 
BRANCH  13  14
ATOM     14  C   UNL     1       7.122  -6.377   8.403  1.00  0.00     0.000 C 
BRANCH  14  15
ATOM     15  C   UNL     1       5.787  -6.159   7.669  1.00  0.00     0.000 C 
BRANCH  15  16
ATOM     16  C   UNL     1       5.909  -5.998   6.140  1.00  0.00     0.000 C 
BRANCH  16  17
ATOM     17  C   UNL     1       5.639  -4.577   5.611  1.00  0.00     0.000 C 
BRANCH  17  18
ATOM     18  C   UNL     1       5.629  -4.448   4.076  1.00  0.00     0.000 C 
BRANCH  18  19
ATOM     19  C   UNL     1       5.033  -3.115   3.596  1.00  0.00     0.000 C 
BRANCH  19  20
ATOM     20  C   UNL     1       3.540  -3.019   3.941  1.00  0.00     0.006 C 
BRANCH  20  21
ATOM     21  C   UNL     1       2.674  -3.898   3.028  1.00  0.00     0.053 C 
BRANCH  21  22
ATOM     22  C   UNL     1       2.066  -3.108   1.909  1.00  0.00     0.041 C 
ATOM     23  O   UNL     1       0.819  -2.948   1.850  1.00  0.00    -0.550 OA
ATOM     24  O   UNL     1       2.883  -2.508   0.958  1.00  0.00    -0.550 OA
ENDBRANCH  21  22
ENDBRANCH  20  21
ENDBRANCH  19  20
ENDBRANCH  18  19
ENDBRANCH  17  18
ENDBRANCH  16  17
ENDBRANCH  15  16
ENDBRANCH  14  15
ENDBRANCH  13  14
ENDBRANCH   1  13
TORSDOF 20
ENDMDL
MODEL 2
REMARK VINA RESULT:     2.895      1.619      4.678
REMARK INTER + INTRA:           5.067
REMARK INTER:                   3.827
REMARK INTRA:                   1.240
REMARK UNBOUND:                -1.212
REMARK SMILES CCCCCCCCCCCCCCCCCCCCCC(=O)[O-]
REMARK SMILES IDX 12 1 11 2 10 3 9 4 8 5 7 6 6 7 5 8 4 9 3 10 2 11 1 12 13 13
REMARK SMILES IDX 14 14 15 15 16 16 17 17 18 18 19 19 20 20 21 21 22 22 23 23
REMARK SMILES IDX 24 24
REMARK H PARENT
REMARK Flexibility Score: inf
ROOT
ATOM      1  C   UNL     1       5.178  -9.178   9.964  1.00  0.00     0.000 C 
ENDROOT
BRANCH   1   2
ATOM      2  C   UNL     1       3.909  -9.997   9.654  1.00  0.00     0.000 C 
BRANCH   2   3
ATOM      3  C   UNL     1       2.783  -9.216   8.949  1.00  0.00     0.000 C 
BRANCH   3   4
ATOM      4  C   UNL     1       2.535  -9.609   7.480  1.00  0.00    -0.000 C 
BRANCH   4   5
ATOM      5  C   UNL     1       3.553  -9.046   6.473  1.00  0.00    -0.000 C 
BRANCH   5   6
ATOM      6  C   UNL     1       4.486 -10.125   5.895  1.00  0.00    -0.000 C 
BRANCH   6   7
ATOM      7  C   UNL     1       5.958  -9.883   6.271  1.00  0.00    -0.000 C 
BRANCH   7   8
ATOM      8  C   UNL     1       6.820  -9.520   5.049  1.00  0.00    -0.000 C 
BRANCH   8   9
ATOM      9  C   UNL     1       8.250 -10.085   5.139  1.00  0.00    -0.000 C 
BRANCH   9  10
ATOM     10  C   UNL     1       9.252  -9.172   5.877  1.00  0.00    -0.000 C 
BRANCH  10  11
ATOM     11  C   UNL     1      10.075  -9.878   6.970  1.00  0.00    -0.003 C 
ATOM     12  C   UNL     1      10.104  -9.100   8.287  1.00  0.00     0.004 C 
ENDBRANCH  10  11
ENDBRANCH   9  10
ENDBRANCH   8   9
ENDBRANCH   7   8
ENDBRANCH   6   7
ENDBRANCH   5   6
ENDBRANCH   4   5
ENDBRANCH   3   4
ENDBRANCH   2   3
ENDBRANCH   1   2
BRANCH   1  13
ATOM     13  C   UNL     1       6.386  -9.487   9.063  1.00  0.00     0.000 C 
BRANCH  13  14
ATOM     14  C   UNL     1       7.725  -9.446   9.819  1.00  0.00     0.000 C 
BRANCH  14  15
ATOM     15  C   UNL     1       8.190  -8.011  10.124  1.00  0.00     0.000 C 
BRANCH  15  16
ATOM     16  C   UNL     1       7.813  -6.968   9.052  1.00  0.00     0.000 C 
BRANCH  16  17
ATOM     17  C   UNL     1       6.300  -6.750   8.859  1.00  0.00     0.000 C 
BRANCH  17  18
ATOM     18  C   UNL     1       5.803  -6.909   7.410  1.00  0.00     0.000 C 
BRANCH  18  19
ATOM     19  C   UNL     1       6.224  -5.741   6.506  1.00  0.00     0.000 C 
BRANCH  19  20
ATOM     20  C   UNL     1       5.772  -5.971   5.056  1.00  0.00     0.006 C 
BRANCH  20  21
ATOM     21  C   UNL     1       4.520  -5.158   4.700  1.00  0.00     0.053 C 
BRANCH  21  22
ATOM     22  C   UNL     1       4.866  -3.885   3.990  1.00  0.00     0.041 C 
ATOM     23  O   UNL     1       6.029  -3.705   3.542  1.00  0.00    -0.550 OA
ATOM     24  O   UNL     1       3.890  -2.918   3.780  1.00  0.00    -0.550 OA
ENDBRANCH  21  22
ENDBRANCH  20  21
ENDBRANCH  19  20
ENDBRANCH  18  19
ENDBRANCH  17  18
ENDBRANCH  16  17
ENDBRANCH  15  16
ENDBRANCH  14  15
ENDBRANCH  13  14
ENDBRANCH   1  13
TORSDOF 20
ENDMDL
MODEL 3
REMARK VINA RESULT:     2.970      1.175      1.771
REMARK INTER + INTRA:           5.231
REMARK INTER:                   6.277
REMARK INTRA:                  -1.046
REMARK UNBOUND:                -1.212
REMARK SMILES CCCCCCCCCCCCCCCCCCCCCC(=O)[O-]
REMARK SMILES IDX 12 1 11 2 10 3 9 4 8 5 7 6 6 7 5 8 4 9 3 10 2 11 1 12 13 13
REMARK SMILES IDX 14 14 15 15 16 16 17 17 18 18 19 19 20 20 21 21 22 22 23 23
REMARK SMILES IDX 24 24
REMARK H PARENT
REMARK Flexibility Score: inf
ROOT
ATOM      1  C   UNL     1       8.196  -8.689   8.290  1.00  0.00     0.000 C 
ENDROOT
BRANCH   1   2
ATOM      2  C   UNL     1       9.091  -8.429   7.061  1.00  0.00     0.000 C 
BRANCH   2   3
ATOM      3  C   UNL     1       8.969  -9.471   5.932  1.00  0.00     0.000 C 
BRANCH   3   4
ATOM      4  C   UNL     1       7.580 -10.124   5.791  1.00  0.00    -0.000 C 
BRANCH   4   5
ATOM      5  C   UNL     1       6.426  -9.148   5.502  1.00  0.00    -0.000 C 
BRANCH   5   6
ATOM      6  C   UNL     1       5.046  -9.727   5.861  1.00  0.00    -0.000 C 
BRANCH   6   7
ATOM      7  C   UNL     1       4.937 -10.088   7.353  1.00  0.00    -0.000 C 
BRANCH   7   8
ATOM      8  C   UNL     1       3.878  -9.242   8.081  1.00  0.00    -0.000 C 
BRANCH   8   9
ATOM      9  C   UNL     1       2.646 -10.065   8.504  1.00  0.00    -0.000 C 
BRANCH   9  10
ATOM     10  C   UNL     1       1.782  -9.405   9.600  1.00  0.00    -0.000 C 
BRANCH  10  11
ATOM     11  C   UNL     1       0.447 -10.121   9.879  1.00  0.00    -0.003 C 
ATOM     12  C   UNL     1      -0.746  -9.428   9.220  1.00  0.00     0.004 C 
ENDBRANCH  10  11
ENDBRANCH   9  10
ENDBRANCH   8   9
ENDBRANCH   7   8
ENDBRANCH   6   7
ENDBRANCH   5   6
ENDBRANCH   4   5
ENDBRANCH   3   4
ENDBRANCH   2   3
ENDBRANCH   1   2
BRANCH   1  13
ATOM     13  C   UNL     1       7.809  -7.432   9.089  1.00  0.00     0.000 C 
BRANCH  13  14
ATOM     14  C   UNL     1       6.531  -6.756   8.560  1.00  0.00     0.000 C 
BRANCH  14  15
ATOM     15  C   UNL     1       6.573  -6.518   7.040  1.00  0.00     0.000 C 
BRANCH  15  16
ATOM     16  C   UNL     1       6.013  -5.156   6.583  1.00  0.00     0.000 C 
BRANCH  16  17
ATOM     17  C   UNL     1       5.784  -5.022   5.065  1.00  0.00     0.000 C 
BRANCH  17  18
ATOM     18  C   UNL     1       5.344  -3.623   4.598  1.00  0.00     0.000 C 
BRANCH  18  19
ATOM     19  C   UNL     1       4.548  -3.658   3.284  1.00  0.00     0.000 C 
BRANCH  19  20
ATOM     20  C   UNL     1       3.053  -3.408   3.535  1.00  0.00     0.006 C 
BRANCH  20  21
ATOM     21  C   UNL     1       2.525  -2.203   2.743  1.00  0.00     0.053 C 
BRANCH  21  22
ATOM     22  C   UNL     1       1.697  -2.628   1.569  1.00  0.00     0.041 C 
ATOM     23  O   UNL     1       1.983  -2.222   0.412  1.00  0.00    -0.550 OA
ATOM     24  O   UNL     1       0.640  -3.512   1.747  1.00  0.00    -0.550 OA
ENDBRANCH  21  22
ENDBRANCH  20  21
ENDBRANCH  19  20
ENDBRANCH  18  19
ENDBRANCH  17  18
ENDBRANCH  16  17
ENDBRANCH  15  16
ENDBRANCH  14  15
ENDBRANCH  13  14
ENDBRANCH   1  13
TORSDOF 20
ENDMDL
MODEL 4
REMARK VINA RESULT:     3.170      1.787      4.457
REMARK INTER + INTRA:           5.665
REMARK INTER:                   5.774
REMARK INTRA:                  -0.110
REMARK UNBOUND:                -1.212
REMARK SMILES CCCCCCCCCCCCCCCCCCCCCC(=O)[O-]
REMARK SMILES IDX 12 1 11 2 10 3 9 4 8 5 7 6 6 7 5 8 4 9 3 10 2 11 1 12 13 13
REMARK SMILES IDX 14 14 15 15 16 16 17 17 18 18 19 19 20 20 21 21 22 22 23 23
REMARK SMILES IDX 24 24
REMARK H PARENT
REMARK Flexibility Score: inf
ROOT
ATOM      1  C   UNL     1       5.058  -8.984   9.806  1.00  0.00     0.000 C 
ENDROOT
BRANCH   1   2
ATOM      2  C   UNL     1       3.988 -10.082   9.636  1.00  0.00     0.000 C 
BRANCH   2   3
ATOM      3  C   UNL     1       2.785  -9.693   8.755  1.00  0.00     0.000 C 
BRANCH   3   4
ATOM      4  C   UNL     1       2.905 -10.089   7.271  1.00  0.00    -0.000 C 
BRANCH   4   5
ATOM      5  C   UNL     1       3.793  -9.166   6.418  1.00  0.00    -0.000 C 
BRANCH   5   6
ATOM      6  C   UNL     1       4.980  -9.903   5.774  1.00  0.00    -0.000 C 
BRANCH   6   7
ATOM      7  C   UNL     1       6.237  -9.021   5.691  1.00  0.00    -0.000 C 
BRANCH   7   8
ATOM      8  C   UNL     1       7.015  -9.236   4.381  1.00  0.00    -0.000 C 
BRANCH   8   9
ATOM      9  C   UNL     1       6.256 -10.125   3.377  1.00  0.00    -0.000 C 
BRANCH   9  10
ATOM     10  C   UNL     1       6.796 -10.061   1.932  1.00  0.00    -0.000 C 
BRANCH  10  11
ATOM     11  C   UNL     1       5.710  -9.916   0.850  1.00  0.00    -0.003 C 
ATOM     12  C   UNL     1       6.251 -10.121  -0.565  1.00  0.00     0.004 C 
ENDBRANCH  10  11
ENDBRANCH   9  10
ENDBRANCH   8   9
ENDBRANCH   7   8
ENDBRANCH   6   7
ENDBRANCH   5   6
ENDBRANCH   4   5
ENDBRANCH   3   4
ENDBRANCH   2   3
ENDBRANCH   1   2
BRANCH   1  13
ATOM     13  C   UNL     1       6.090  -8.902   8.667  1.00  0.00     0.000 C 
BRANCH  13  14
ATOM     14  C   UNL     1       7.118  -7.775   8.870  1.00  0.00     0.000 C 
BRANCH  14  15
ATOM     15  C   UNL     1       6.653  -6.435   8.270  1.00  0.00     0.000 C 
BRANCH  15  16
ATOM     16  C   UNL     1       6.241  -6.500   6.785  1.00  0.00     0.000 C 
BRANCH  16  17
ATOM     17  C   UNL     1       5.543  -5.236   6.247  1.00  0.00     0.000 C 
BRANCH  17  18
ATOM     18  C   UNL     1       5.476  -5.137   4.712  1.00  0.00     0.000 C 
BRANCH  18  19
ATOM     19  C   UNL     1       5.154  -3.717   4.222  1.00  0.00     0.000 C 
BRANCH  19  20
ATOM     20  C   UNL     1       4.365  -3.751   2.904  1.00  0.00     0.006 C 
BRANCH  20  21
ATOM     21  C   UNL     1       2.862  -3.525   3.120  1.00  0.00     0.053 C 
BRANCH  21  22
ATOM     22  C   UNL     1       2.241  -2.782   1.976  1.00  0.00     0.041 C 
ATOM     23  O   UNL     1       0.993  -2.629   1.923  1.00  0.00    -0.550 OA
ATOM     24  O   UNL     1       3.047  -2.215   0.996  1.00  0.00    -0.550 OA
ENDBRANCH  21  22
ENDBRANCH  20  21
ENDBRANCH  19  20
ENDBRANCH  18  19
ENDBRANCH  17  18
ENDBRANCH  16  17
ENDBRANCH  15  16
ENDBRANCH  14  15
ENDBRANCH  13  14
ENDBRANCH   1  13
TORSDOF 20
ENDMDL
MODEL 5
REMARK VINA RESULT:     3.615      1.276      3.782
REMARK INTER + INTRA:           6.630
REMARK INTER:                   8.411
REMARK INTRA:                  -1.782
REMARK UNBOUND:                -1.212
REMARK SMILES CCCCCCCCCCCCCCCCCCCCCC(=O)[O-]
REMARK SMILES IDX 12 1 11 2 10 3 9 4 8 5 7 6 6 7 5 8 4 9 3 10 2 11 1 12 13 13
REMARK SMILES IDX 14 14 15 15 16 16 17 17 18 18 19 19 20 20 21 21 22 22 23 23
REMARK SMILES IDX 24 24
REMARK H PARENT
REMARK Flexibility Score: inf
ROOT
ATOM      1  C   UNL     1       6.819  -8.828   5.770  1.00  0.00     0.000 C 
ENDROOT
BRANCH   1   2
ATOM      2  C   UNL     1       6.068 -10.124   6.140  1.00  0.00     0.000 C 
BRANCH   2   3
ATOM      3  C   UNL     1       4.536 -10.057   5.993  1.00  0.00     0.000 C 
BRANCH   3   4
ATOM      4  C   UNL     1       3.751 -10.037   7.319  1.00  0.00    -0.000 C 
BRANCH   4   5
ATOM      5  C   UNL     1       3.726  -8.679   8.042  1.00  0.00    -0.000 C 
BRANCH   5   6
ATOM      6  C   UNL     1       4.135  -8.779   9.522  1.00  0.00    -0.000 C 
BRANCH   6   7
ATOM      7  C   UNL     1       4.863 -10.098   9.837  1.00  0.00    -0.000 C 
BRANCH   7   8
ATOM      8  C   UNL     1       6.360  -9.883  10.124  1.00  0.00    -0.000 C 
BRANCH   8   9
ATOM      9  C   UNL     1       6.766  -8.398  10.084  1.00  0.00    -0.000 C 
BRANCH   9  10
ATOM     10  C   UNL     1       7.693  -8.021   8.908  1.00  0.00    -0.000 C 
BRANCH  10  11
ATOM     11  C   UNL     1       9.153  -8.482   9.072  1.00  0.00    -0.003 C 
ATOM     12  C   UNL     1       9.866  -8.681   7.734  1.00  0.00     0.004 C 
ENDBRANCH  10  11
ENDBRANCH   9  10
ENDBRANCH   8   9
ENDBRANCH   7   8
ENDBRANCH   6   7
ENDBRANCH   5   6
ENDBRANCH   4   5
ENDBRANCH   3   4
ENDBRANCH   2   3
ENDBRANCH   1   2
BRANCH   1  13
ATOM     13  C   UNL     1       6.013  -7.832   4.920  1.00  0.00     0.000 C 
BRANCH  13  14
ATOM     14  C   UNL     1       4.980  -7.040   5.741  1.00  0.00     0.000 C 
BRANCH  14  15
ATOM     15  C   UNL     1       5.635  -6.064   6.733  1.00  0.00     0.000 C 
BRANCH  15  16
ATOM     16  C   UNL     1       5.658  -4.592   6.273  1.00  0.00     0.000 C 
BRANCH  16  17
ATOM     17  C   UNL     1       6.356  -4.342   4.922  1.00  0.00     0.000 C 
BRANCH  17  18
ATOM     18  C   UNL     1       5.502  -3.596   3.881  1.00  0.00     0.000 C 
BRANCH  18  19
ATOM     19  C   UNL     1       4.007  -3.938   3.983  1.00  0.00     0.000 C 
BRANCH  19  20
ATOM     20  C   UNL     1       3.137  -2.785   3.460  1.00  0.00     0.006 C 
BRANCH  20  21
ATOM     21  C   UNL     1       2.626  -3.043   2.035  1.00  0.00     0.053 C 
BRANCH  21  22
ATOM     22  C   UNL     1       1.163  -2.748   1.907  1.00  0.00     0.041 C 
ATOM     23  O   UNL     1       0.391  -3.588   1.374  1.00  0.00    -0.550 OA
ATOM     24  O   UNL     1       0.645  -1.565   2.420  1.00  0.00    -0.550 OA
ENDBRANCH  21  22
ENDBRANCH  20  21
ENDBRANCH  19  20
ENDBRANCH  18  19
ENDBRANCH  17  18
ENDBRANCH  16  17
ENDBRANCH  15  16
ENDBRANCH  14  15
ENDBRANCH  13  14
ENDBRANCH   1  13
TORSDOF 20
ENDMDL
MODEL 6
REMARK VINA RESULT:     3.731      1.135      3.271
REMARK INTER + INTRA:           6.881
REMARK INTER:                   7.530
REMARK INTRA:                  -0.648
REMARK UNBOUND:                -1.212
REMARK SMILES CCCCCCCCCCCCCCCCCCCCCC(=O)[O-]
REMARK SMILES IDX 12 1 11 2 10 3 9 4 8 5 7 6 6 7 5 8 4 9 3 10 2 11 1 12 13 13
REMARK SMILES IDX 14 14 15 15 16 16 17 17 18 18 19 19 20 20 21 21 22 22 23 23
REMARK SMILES IDX 24 24
REMARK H PARENT
REMARK Flexibility Score: inf
ROOT
ATOM      1  C   UNL     1       8.020  -7.693   9.142  1.00  0.00     0.000 C 
ENDROOT
BRANCH   1   2
ATOM      2  C   UNL     1       7.534  -8.794  10.107  1.00  0.00     0.000 C 
BRANCH   2   3
ATOM      3  C   UNL     1       6.446  -9.726   9.541  1.00  0.00     0.000 C 
BRANCH   3   4
ATOM      4  C   UNL     1       4.996  -9.272   9.800  1.00  0.00    -0.000 C 
BRANCH   4   5
ATOM      5  C   UNL     1       3.917 -10.073   9.049  1.00  0.00    -0.000 C 
BRANCH   5   6
ATOM      6  C   UNL     1       3.133  -9.220   8.036  1.00  0.00    -0.000 C 
BRANCH   6   7
ATOM      7  C   UNL     1       3.972  -8.873   6.795  1.00  0.00    -0.000 C 
BRANCH   7   8
ATOM      8  C   UNL     1       4.215 -10.097   5.894  1.00  0.00    -0.000 C 
BRANCH   8   9
ATOM      9  C   UNL     1       5.634 -10.125   5.296  1.00  0.00    -0.000 C 
BRANCH   9  10
ATOM     10  C   UNL     1       6.761  -9.828   6.309  1.00  0.00    -0.000 C 
BRANCH  10  11
ATOM     11  C   UNL     1       8.156  -9.653   5.681  1.00  0.00    -0.003 C 
ATOM     12  C   UNL     1       9.277  -9.642   6.721  1.00  0.00     0.004 C 
ENDBRANCH  10  11
ENDBRANCH   9  10
ENDBRANCH   8   9
ENDBRANCH   7   8
ENDBRANCH   6   7
ENDBRANCH   5   6
ENDBRANCH   4   5
ENDBRANCH   3   4
ENDBRANCH   2   3
ENDBRANCH   1   2
BRANCH   1  13
ATOM     13  C   UNL     1       6.956  -6.647   8.764  1.00  0.00     0.000 C 
BRANCH  13  14
ATOM     14  C   UNL     1       6.028  -7.118   7.631  1.00  0.00     0.000 C 
BRANCH  14  15
ATOM     15  C   UNL     1       6.221  -6.312   6.334  1.00  0.00     0.000 C 
BRANCH  15  16
ATOM     16  C   UNL     1       5.591  -4.905   6.347  1.00  0.00     0.000 C 
BRANCH  16  17
ATOM     17  C   UNL     1       6.067  -3.967   5.220  1.00  0.00     0.000 C 
BRANCH  17  18
ATOM     18  C   UNL     1       4.938  -3.338   4.383  1.00  0.00     0.000 C 
BRANCH  18  19
ATOM     19  C   UNL     1       4.874  -3.901   2.954  1.00  0.00     0.000 C 
BRANCH  19  20
ATOM     20  C   UNL     1       3.668  -3.335   2.189  1.00  0.00     0.006 C 
BRANCH  20  21
ATOM     21  C   UNL     1       2.456  -3.105   3.102  1.00  0.00     0.053 C 
BRANCH  21  22
ATOM     22  C   UNL     1       1.291  -2.539   2.349  1.00  0.00     0.041 C 
ATOM     23  O   UNL     1       0.785  -1.439   2.696  1.00  0.00    -0.550 OA
ATOM     24  O   UNL     1       0.795  -3.203   1.234  1.00  0.00    -0.550 OA
ENDBRANCH  21  22
ENDBRANCH  20  21
ENDBRANCH  19  20
ENDBRANCH  18  19
ENDBRANCH  17  18
ENDBRANCH  16  17
ENDBRANCH  15  16
ENDBRANCH  14  15
ENDBRANCH  13  14
ENDBRANCH   1  13
TORSDOF 20
ENDMDL
MODEL 7
REMARK VINA RESULT:     3.897      1.179      2.990
REMARK INTER + INTRA:           7.241
REMARK INTER:                   8.792
REMARK INTRA:                  -1.551
REMARK UNBOUND:                -1.212
REMARK SMILES CCCCCCCCCCCCCCCCCCCCCC(=O)[O-]
REMARK SMILES IDX 12 1 11 2 10 3 9 4 8 5 7 6 6 7 5 8 4 9 3 10 2 11 1 12 13 13
REMARK SMILES IDX 14 14 15 15 16 16 17 17 18 18 19 19 20 20 21 21 22 22 23 23
REMARK SMILES IDX 24 24
REMARK H PARENT
REMARK Flexibility Score: inf
ROOT
ATOM      1  C   UNL     1       5.576  -8.109   6.049  1.00  0.00     0.000 C 
ENDROOT
BRANCH   1   2
ATOM      2  C   UNL     1       6.314  -9.178   5.216  1.00  0.00     0.000 C 
BRANCH   2   3
ATOM      3  C   UNL     1       7.224 -10.123   6.025  1.00  0.00     0.000 C 
BRANCH   3   4
ATOM      4  C   UNL     1       8.706 -10.122   5.604  1.00  0.00    -0.000 C 
BRANCH   4   5
ATOM      5  C   UNL     1       9.656  -9.380   6.560  1.00  0.00    -0.000 C 
BRANCH   5   6
ATOM      6  C   UNL     1       9.258  -9.532   8.039  1.00  0.00    -0.000 C 
BRANCH   6   7
ATOM      7  C   UNL     1       8.328  -8.400   8.510  1.00  0.00    -0.000 C 
BRANCH   7   8
ATOM      8  C   UNL     1       7.836  -8.614   9.953  1.00  0.00    -0.000 C 
BRANCH   8   9
ATOM      9  C   UNL     1       7.046  -9.925  10.124  1.00  0.00    -0.000 C 
BRANCH   9  10
ATOM     10  C   UNL     1       5.836 -10.072   9.176  1.00  0.00    -0.000 C 
BRANCH  10  11
ATOM     11  C   UNL     1       4.620  -9.207   9.555  1.00  0.00    -0.003 C 
ATOM     12  C   UNL     1       3.440  -9.394   8.601  1.00  0.00     0.004 C 
ENDBRANCH  10  11
ENDBRANCH   9  10
ENDBRANCH   8   9
ENDBRANCH   7   8
ENDBRANCH   6   7
ENDBRANCH   5   6
ENDBRANCH   4   5
ENDBRANCH   3   4
ENDBRANCH   2   3
ENDBRANCH   1   2
BRANCH   1  13
ATOM     13  C   UNL     1       6.462  -6.959   6.560  1.00  0.00     0.000 C 
BRANCH  13  14
ATOM     14  C   UNL     1       5.839  -5.572   6.321  1.00  0.00     0.000 C 
BRANCH  14  15
ATOM     15  C   UNL     1       5.454  -5.342   4.849  1.00  0.00     0.000 C 
BRANCH  15  16
ATOM     16  C   UNL     1       5.585  -3.883   4.366  1.00  0.00     0.000 C 
BRANCH  16  17
ATOM     17  C   UNL     1       4.489  -3.419   3.388  1.00  0.00     0.000 C 
BRANCH  17  18
ATOM     18  C   UNL     1       3.080  -3.311   3.999  1.00  0.00     0.000 C 
BRANCH  18  19
ATOM     19  C   UNL     1       2.107  -4.361   3.438  1.00  0.00     0.000 C 
BRANCH  19  20
ATOM     20  C   UNL     1       1.358  -3.822   2.211  1.00  0.00     0.006 C 
BRANCH  20  21
ATOM     21  C   UNL     1       1.451  -2.294   2.097  1.00  0.00     0.053 C 
BRANCH  21  22
ATOM     22  C   UNL     1       2.217  -1.872   0.880  1.00  0.00     0.041 C 
ATOM     23  O   UNL     1       2.057  -0.720   0.398  1.00  0.00    -0.550 OA
ATOM     24  O   UNL     1       3.144  -2.735   0.309  1.00  0.00    -0.550 OA
ENDBRANCH  21  22
ENDBRANCH  20  21
ENDBRANCH  19  20
ENDBRANCH  18  19
ENDBRANCH  17  18
ENDBRANCH  16  17
ENDBRANCH  15  16
ENDBRANCH  14  15
ENDBRANCH  13  14
ENDBRANCH   1  13
TORSDOF 20
ENDMDL
MODEL 8
REMARK VINA RESULT:     4.074      3.782      8.264
REMARK INTER + INTRA:           7.626
REMARK INTER:                   9.443
REMARK INTRA:                  -1.817
REMARK UNBOUND:                -1.212
REMARK SMILES CCCCCCCCCCCCCCCCCCCCCC(=O)[O-]
REMARK SMILES IDX 12 1 11 2 10 3 9 4 8 5 7 6 6 7 5 8 4 9 3 10 2 11 1 12 13 13
REMARK SMILES IDX 14 14 15 15 16 16 17 17 18 18 19 19 20 20 21 21 22 22 23 23
REMARK SMILES IDX 24 24
REMARK H PARENT
REMARK Flexibility Score: inf
ROOT
ATOM      1  C   UNL     1       5.330  -7.627   5.469  1.00  0.00     0.000 C 
ENDROOT
BRANCH   1   2
ATOM      2  C   UNL     1       6.023  -6.511   6.279  1.00  0.00     0.000 C 
BRANCH   2   3
ATOM      3  C   UNL     1       5.333  -5.134   6.217  1.00  0.00     0.000 C 
BRANCH   3   4
ATOM      4  C   UNL     1       5.971  -4.126   5.242  1.00  0.00    -0.000 C 
BRANCH   4   5
ATOM      5  C   UNL     1       5.364  -4.112   3.828  1.00  0.00    -0.000 C 
BRANCH   5   6
ATOM      6  C   UNL     1       4.308  -3.009   3.639  1.00  0.00    -0.000 C 
BRANCH   6   7
ATOM      7  C   UNL     1       2.908  -3.585   3.366  1.00  0.00    -0.000 C 
BRANCH   7   8
ATOM      8  C   UNL     1       2.539  -3.536   1.872  1.00  0.00    -0.000 C 
BRANCH   8   9
ATOM      9  C   UNL     1       1.473  -2.470   1.557  1.00  0.00    -0.000 C 
BRANCH   9  10
ATOM     10  C   UNL     1       0.809  -1.842   2.801  1.00  0.00    -0.000 C 
BRANCH  10  11
ATOM     11  C   UNL     1       0.716  -0.305   2.769  1.00  0.00    -0.003 C 
ATOM     12  C   UNL     1      -0.583   0.223   3.379  1.00  0.00     0.004 C 
ENDBRANCH  10  11
ENDBRANCH   9  10
ENDBRANCH   8   9
ENDBRANCH   7   8
ENDBRANCH   6   7
ENDBRANCH   5   6
ENDBRANCH   4   5
ENDBRANCH   3   4
ENDBRANCH   2   3
ENDBRANCH   1   2
BRANCH   1  13
ATOM     13  C   UNL     1       6.068  -8.977   5.463  1.00  0.00     0.000 C 
BRANCH  13  14
ATOM     14  C   UNL     1       5.350 -10.056   6.292  1.00  0.00     0.000 C 
BRANCH  14  15
ATOM     15  C   UNL     1       3.907  -9.662   6.654  1.00  0.00     0.000 C 
BRANCH  15  16
ATOM     16  C   UNL     1       3.479 -10.024   8.091  1.00  0.00     0.000 C 
BRANCH  16  17
ATOM     17  C   UNL     1       4.625 -10.069   9.120  1.00  0.00     0.000 C 
BRANCH  17  18
ATOM     18  C   UNL     1       5.183  -8.694   9.528  1.00  0.00     0.000 C 
BRANCH  18  19
ATOM     19  C   UNL     1       6.688  -8.732   9.839  1.00  0.00     0.000 C 
BRANCH  19  20
ATOM     20  C   UNL     1       7.457  -7.715   8.983  1.00  0.00     0.006 C 
BRANCH  20  21
ATOM     21  C   UNL     1       8.974  -7.943   9.033  1.00  0.00     0.053 C 
BRANCH  21  22
ATOM     22  C   UNL     1       9.372  -9.200   8.322  1.00  0.00     0.041 C 
ATOM     23  O   UNL     1       9.957 -10.124   8.947  1.00  0.00    -0.550 OA
ATOM     24  O   UNL     1       9.052  -9.372   6.981  1.00  0.00    -0.550 OA
ENDBRANCH  21  22
ENDBRANCH  20  21
ENDBRANCH  19  20
ENDBRANCH  18  19
ENDBRANCH  17  18
ENDBRANCH  16  17
ENDBRANCH  15  16
ENDBRANCH  14  15
ENDBRANCH  13  14
ENDBRANCH   1  13
TORSDOF 20
ENDMDL
