MODEL 1
REMARK VINA RESULT:    -4.347      0.000      0.000
REMARK INTER + INTRA:          -7.464
REMARK INTER:                  -6.634
REMARK INTRA:                  -0.830
REMARK UNBOUND:                -0.830
REMARK SMILES O=C([O-])CCCCCCCCC(=O)[O-]
REMARK SMILES IDX 7 1 6 2 5 3 4 4 2 5 1 6 3 7 8 8 9 9 10 10 11 11 12 12 13 13
REMARK SMILES IDX 14 14
REMARK H PARENT
REMARK Flexibility Score: inf
ROOT
ATOM      1  C   UNL     1     -37.981  22.945 -29.146  1.00  0.00     0.000 C 
ENDROOT
BRANCH   1   2
ATOM      2  C   UNL     1     -37.528  21.885 -30.163  1.00  0.00     0.000 C 
BRANCH   2   3
ATOM      3  C   UNL     1     -38.591  20.802 -30.403  1.00  0.00     0.006 C 
BRANCH   3   4
ATOM      4  C   UNL     1     -38.205  19.494 -29.705  1.00  0.00     0.053 C 
BRANCH   4   5
ATOM      5  C   UNL     1     -39.291  18.476 -29.864  1.00  0.00     0.041 C 
ATOM      6  O   UNL     1     -40.341  18.762 -30.496  1.00  0.00    -0.550 OA
ATOM      7  O   UNL     1     -39.121  17.194 -29.354  1.00  0.00    -0.550 OA
ENDBRANCH   4   5
ENDBRANCH   3   4
ENDBRANCH   2   3
ENDBRANCH   1   2
BRANCH   1   8
ATOM      8  C   UNL     1     -39.134  23.814 -29.671  1.00  0.00     0.000 C 
BRANCH   8   9
ATOM      9  C   UNL     1     -40.041  24.275 -28.519  1.00  0.00     0.000 C 
BRANCH   9  10
ATOM     10  C   UNL     1     -41.491  23.790 -28.678  1.00  0.00     0.006 C 
BRANCH  10  11
ATOM     11  C   UNL     1     -41.581  22.380 -29.275  1.00  0.00     0.053 C 
BRANCH  11  12
ATOM     12  C   UNL     1     -41.784  21.366 -28.194  1.00  0.00     0.041 C 
ATOM     13  O   UNL     1     -42.948  21.051 -27.831  1.00  0.00    -0.550 OA
ATOM     14  O   UNL     1     -40.688  20.806 -27.551  1.00  0.00    -0.550 OA
ENDBRANCH  11  12
ENDBRANCH  10  11
ENDBRANCH   9  10
ENDBRANCH   8   9
ENDBRANCH   1   8
TORSDOF 9
ENDMDL
MODEL 2
REMARK VINA RESULT:    -4.293      1.495      2.452
REMARK INTER + INTRA:          -7.382
REMARK INTER:                  -6.536
REMARK INTRA:                  -0.846
REMARK UNBOUND:                -0.830
REMARK SMILES O=C([O-])CCCCCCCCC(=O)[O-]
REMARK SMILES IDX 7 1 6 2 5 3 4 4 2 5 1 6 3 7 8 8 9 9 10 10 11 11 12 12 13 13
REMARK SMILES IDX 14 14
REMARK H PARENT
REMARK Flexibility Score: inf
ROOT
ATOM      1  C   UNL     1     -37.189  20.984 -29.736  1.00  0.00     0.000 C 
ENDROOT
BRANCH   1   2
ATOM      2  C   UNL     1     -36.899  19.475 -29.683  1.00  0.00     0.000 C 
BRANCH   2   3
ATOM      3  C   UNL     1     -38.121  18.623 -30.058  1.00  0.00     0.006 C 
BRANCH   3   4
ATOM      4  C   UNL     1     -39.416  19.280 -29.570  1.00  0.00     0.053 C 
BRANCH   4   5
ATOM      5  C   UNL     1     -40.365  19.478 -30.710  1.00  0.00     0.041 C 
ATOM      6  O   UNL     1     -40.402  20.579 -31.320  1.00  0.00    -0.550 OA
ATOM      7  O   UNL     1     -41.174  18.430 -31.131  1.00  0.00    -0.550 OA
ENDBRANCH   4   5
ENDBRANCH   3   4
ENDBRANCH   2   3
ENDBRANCH   1   2
BRANCH   1   8
ATOM      8  C   UNL     1     -36.853  21.698 -28.418  1.00  0.00     0.000 C 
BRANCH   8   9
ATOM      9  C   UNL     1     -37.998  22.630 -27.993  1.00  0.00     0.000 C 
BRANCH   9  10
ATOM     10  C   UNL     1     -39.014  22.873 -29.121  1.00  0.00     0.006 C 
BRANCH  10  11
ATOM     11  C   UNL     1     -40.199  23.738 -28.673  1.00  0.00     0.053 C 
BRANCH  11  12
ATOM     12  C   UNL     1     -41.484  22.991 -28.841  1.00  0.00     0.041 C 
ATOM     13  O   UNL     1     -41.602  21.823 -28.386  1.00  0.00    -0.550 OA
ATOM     14  O   UNL     1     -42.536  23.564 -29.544  1.00  0.00    -0.550 OA
ENDBRANCH  11  12
ENDBRANCH  10  11
ENDBRANCH   9  10
ENDBRANCH   8   9
ENDBRANCH   1   8
TORSDOF 9
ENDMDL
MODEL 3
REMARK VINA RESULT:    -4.274      0.939      4.278
REMARK INTER + INTRA:          -7.353
REMARK INTER:                  -6.554
REMARK INTRA:                  -0.799
REMARK UNBOUND:                -0.830
REMARK SMILES O=C([O-])CCCCCCCCC(=O)[O-]
REMARK SMILES IDX 7 1 6 2 5 3 4 4 2 5 1 6 3 7 8 8 9 9 10 10 11 11 12 12 13 13
REMARK SMILES IDX 14 14
REMARK H PARENT
REMARK Flexibility Score: inf
ROOT
ATOM      1  C   UNL     1     -38.623  22.345 -31.128  1.00  0.00     0.000 C 
ENDROOT
BRANCH   1   2
ATOM      2  C   UNL     1     -40.102  22.590 -30.788  1.00  0.00     0.000 C 
BRANCH   2   3
ATOM      3  C   UNL     1     -40.325  22.902 -29.300  1.00  0.00     0.006 C 
BRANCH   3   4
ATOM      4  C   UNL     1     -41.791  22.692 -28.912  1.00  0.00     0.053 C 
BRANCH   4   5
ATOM      5  C   UNL     1     -41.941  21.460 -28.076  1.00  0.00     0.041 C 
ATOM      6  O   UNL     1     -43.084  20.990 -27.837  1.00  0.00    -0.550 OA
ATOM      7  O   UNL     1     -40.813  20.801 -27.601  1.00  0.00    -0.550 OA
ENDBRANCH   4   5
ENDBRANCH   3   4
ENDBRANCH   2   3
ENDBRANCH   1   2
BRANCH   1   8
ATOM      8  C   UNL     1     -37.796  21.929 -29.903  1.00  0.00     0.000 C 
BRANCH   8   9
ATOM      9  C   UNL     1     -36.646  20.993 -30.310  1.00  0.00     0.000 C 
BRANCH   9  10
ATOM     10  C   UNL     1     -36.929  19.523 -29.963  1.00  0.00     0.006 C 
BRANCH  10  11
ATOM     11  C   UNL     1     -38.132  19.357 -29.026  1.00  0.00     0.053 C 
BRANCH  11  12
ATOM     12  C   UNL     1     -39.163  18.471 -29.650  1.00  0.00     0.041 C 
ATOM     13  O   UNL     1     -39.147  17.231 -29.434  1.00  0.00    -0.550 OA
ATOM     14  O   UNL     1     -40.112  19.007 -30.512  1.00  0.00    -0.550 OA
ENDBRANCH  11  12
ENDBRANCH  10  11
ENDBRANCH   9  10
ENDBRANCH   8   9
ENDBRANCH   1   8
TORSDOF 9
ENDMDL
MODEL 4
REMARK VINA RESULT:    -4.273      1.874      4.907
REMARK INTER + INTRA:          -7.352
REMARK INTER:                  -6.444
REMARK INTRA:                  -0.908
REMARK UNBOUND:                -0.830
REMARK SMILES O=C([O-])CCCCCCCCC(=O)[O-]
REMARK SMILES IDX 7 1 6 2 5 3 4 4 2 5 1 6 3 7 8 8 9 9 10 10 11 11 12 12 13 13
REMARK SMILES IDX 14 14
REMARK H PARENT
REMARK Flexibility Score: inf
ROOT
ATOM      1  C   UNL     1     -38.990  21.253 -27.754  1.00  0.00     0.000 C 
ENDROOT
BRANCH   1   2
ATOM      2  C   UNL     1     -40.315  20.520 -27.492  1.00  0.00     0.000 C 
BRANCH   2   3
ATOM      3  C   UNL     1     -41.464  21.040 -28.370  1.00  0.00     0.006 C 
BRANCH   3   4
ATOM      4  C   UNL     1     -40.960  22.092 -29.362  1.00  0.00     0.053 C 
BRANCH   4   5
ATOM      5  C   UNL     1     -41.593  23.420 -29.085  1.00  0.00     0.041 C 
ATOM      6  O   UNL     1     -42.757  23.665 -29.498  1.00  0.00    -0.550 OA
ATOM      7  O   UNL     1     -40.915  24.368 -28.329  1.00  0.00    -0.550 OA
ENDBRANCH   4   5
ENDBRANCH   3   4
ENDBRANCH   2   3
ENDBRANCH   1   2
BRANCH   1   8
ATOM      8  C   UNL     1     -37.779  20.519 -27.158  1.00  0.00     0.000 C 
BRANCH   8   9
ATOM      9  C   UNL     1     -36.711  20.264 -28.233  1.00  0.00     0.000 C 
BRANCH   9  10
ATOM     10  C   UNL     1     -37.301  20.191 -29.650  1.00  0.00     0.006 C 
BRANCH  10  11
ATOM     11  C   UNL     1     -37.438  18.751 -30.161  1.00  0.00     0.053 C 
BRANCH  11  12
ATOM     12  C   UNL     1     -38.841  18.264 -29.982  1.00  0.00     0.041 C 
ATOM     13  O   UNL     1     -39.794  18.856 -30.552  1.00  0.00    -0.550 OA
ATOM     14  O   UNL     1     -39.103  17.187 -29.145  1.00  0.00    -0.550 OA
ENDBRANCH  11  12
ENDBRANCH  10  11
ENDBRANCH   9  10
ENDBRANCH   8   9
ENDBRANCH   1   8
TORSDOF 9
ENDMDL
MODEL 5
REMARK VINA RESULT:    -4.203      2.383      3.817
REMARK INTER + INTRA:          -7.244
REMARK INTER:                  -6.307
REMARK INTRA:                  -0.938
REMARK UNBOUND:                -0.830
REMARK SMILES O=C([O-])CCCCCCCCC(=O)[O-]
REMARK SMILES IDX 7 1 6 2 5 3 4 4 2 5 1 6 3 7 8 8 9 9 10 10 11 11 12 12 13 13
REMARK SMILES IDX 14 14
REMARK H PARENT
REMARK Flexibility Score: inf
ROOT
ATOM      1  C   UNL     1     -37.332  18.785 -30.020  1.00  0.00     0.000 C 
ENDROOT
BRANCH   1   2
ATOM      2  C   UNL     1     -36.470  20.030 -29.763  1.00  0.00     0.000 C 
BRANCH   2   3
ATOM      3  C   UNL     1     -37.309  21.276 -29.439  1.00  0.00     0.006 C 
BRANCH   3   4
ATOM      4  C   UNL     1     -37.335  22.241 -30.628  1.00  0.00     0.053 C 
BRANCH   4   5
ATOM      5  C   UNL     1     -38.677  22.893 -30.744  1.00  0.00     0.041 C 
ATOM      6  O   UNL     1     -39.488  22.523 -31.634  1.00  0.00    -0.550 OA
ATOM      7  O   UNL     1     -39.051  23.878 -29.838  1.00  0.00    -0.550 OA
ENDBRANCH   4   5
ENDBRANCH   3   4
ENDBRANCH   2   3
ENDBRANCH   1   2
BRANCH   1   8
ATOM      8  C   UNL     1     -38.702  18.860 -29.329  1.00  0.00     0.000 C 
BRANCH   8   9
ATOM      9  C   UNL     1     -39.838  18.856 -30.364  1.00  0.00     0.000 C 
BRANCH   9  10
ATOM     10  C   UNL     1     -40.935  19.884 -30.044  1.00  0.00     0.006 C 
BRANCH  10  11
ATOM     11  C   UNL     1     -40.780  20.497 -28.646  1.00  0.00     0.053 C 
BRANCH  11  12
ATOM     12  C   UNL     1     -41.900  21.448 -28.366  1.00  0.00     0.041 C 
ATOM     13  O   UNL     1     -42.816  21.130 -27.563  1.00  0.00    -0.550 OA
ATOM     14  O   UNL     1     -41.959  22.667 -29.029  1.00  0.00    -0.550 OA
ENDBRANCH  11  12
ENDBRANCH  10  11
ENDBRANCH   9  10
ENDBRANCH   8   9
ENDBRANCH   1   8
TORSDOF 9
ENDMDL
MODEL 6
REMARK VINA RESULT:    -4.191      2.540      4.884
REMARK INTER + INTRA:          -7.227
REMARK INTER:                  -6.057
REMARK INTRA:                  -1.170
REMARK UNBOUND:                -0.830
REMARK SMILES O=C([O-])CCCCCCCCC(=O)[O-]
REMARK SMILES IDX 7 1 6 2 5 3 4 4 2 5 1 6 3 7 8 8 9 9 10 10 11 11 12 12 13 13
REMARK SMILES IDX 14 14
REMARK H PARENT
REMARK Flexibility Score: inf
ROOT
ATOM      1  C   UNL     1     -40.462  20.036 -30.090  1.00  0.00     0.000 C 
ENDROOT
BRANCH   1   2
ATOM      2  C   UNL     1     -40.001  21.077 -31.123  1.00  0.00     0.000 C 
BRANCH   2   3
ATOM      3  C   UNL     1     -40.343  22.516 -30.707  1.00  0.00     0.006 C 
BRANCH   3   4
ATOM      4  C   UNL     1     -39.072  23.314 -30.404  1.00  0.00     0.053 C 
BRANCH   4   5
ATOM      5  C   UNL     1     -39.114  23.855 -29.009  1.00  0.00     0.041 C 
ATOM      6  O   UNL     1     -38.066  23.895 -28.312  1.00  0.00    -0.550 OA
ATOM      7  O   UNL     1     -40.303  24.361 -28.496  1.00  0.00    -0.550 OA
ENDBRANCH   4   5
ENDBRANCH   3   4
ENDBRANCH   2   3
ENDBRANCH   1   2
BRANCH   1   8
ATOM      8  C   UNL     1     -41.117  20.675 -28.857  1.00  0.00     0.000 C 
BRANCH   8   9
ATOM      9  C   UNL     1     -40.169  20.630 -27.648  1.00  0.00     0.000 C 
BRANCH   9  10
ATOM     10  C   UNL     1     -39.000  19.653 -27.848  1.00  0.00     0.006 C 
BRANCH  10  11
ATOM     11  C   UNL     1     -37.632  20.340 -27.752  1.00  0.00     0.053 C 
BRANCH  11  12
ATOM     12  C   UNL     1     -36.917  20.266 -29.065  1.00  0.00     0.041 C 
ATOM     13  O   UNL     1     -36.262  21.256 -29.486  1.00  0.00    -0.550 OA
ATOM     14  O   UNL     1     -37.016  19.123 -29.847  1.00  0.00    -0.550 OA
ENDBRANCH  11  12
ENDBRANCH  10  11
ENDBRANCH   9  10
ENDBRANCH   8   9
ENDBRANCH   1   8
TORSDOF 9
ENDMDL
MODEL 7
REMARK VINA RESULT:    -4.188      1.406      4.268
REMARK INTER + INTRA:          -7.222
REMARK INTER:                  -6.278
REMARK INTRA:                  -0.944
REMARK UNBOUND:                -0.830
REMARK SMILES O=C([O-])CCCCCCCCC(=O)[O-]
REMARK SMILES IDX 7 1 6 2 5 3 4 4 2 5 1 6 3 7 8 8 9 9 10 10 11 11 12 12 13 13
REMARK SMILES IDX 14 14
REMARK H PARENT
REMARK Flexibility Score: inf
ROOT
ATOM      1  C   UNL     1     -37.370  22.079 -29.437  1.00  0.00     0.000 C 
ENDROOT
BRANCH   1   2
ATOM      2  C   UNL     1     -38.004  23.089 -30.407  1.00  0.00     0.000 C 
BRANCH   2   3
ATOM      3  C   UNL     1     -39.463  23.415 -30.052  1.00  0.00     0.006 C 
BRANCH   3   4
ATOM      4  C   UNL     1     -39.865  22.753 -28.730  1.00  0.00     0.053 C 
BRANCH   4   5
ATOM      5  C   UNL     1     -41.322  22.408 -28.739  1.00  0.00     0.041 C 
ATOM      6  O   UNL     1     -41.724  21.341 -28.206  1.00  0.00    -0.550 OA
ATOM      7  O   UNL     1     -42.241  23.290 -29.295  1.00  0.00    -0.550 OA
ENDBRANCH   4   5
ENDBRANCH   3   4
ENDBRANCH   2   3
ENDBRANCH   1   2
BRANCH   1   8
ATOM      8  C   UNL     1     -36.782  20.857 -30.157  1.00  0.00     0.000 C 
BRANCH   8   9
ATOM      9  C   UNL     1     -37.102  19.563 -29.390  1.00  0.00     0.000 C 
BRANCH   9  10
ATOM     10  C   UNL     1     -38.595  19.429 -29.054  1.00  0.00     0.006 C 
BRANCH  10  11
ATOM     11  C   UNL     1     -39.299  18.360 -29.901  1.00  0.00     0.053 C 
BRANCH  11  12
ATOM     12  C   UNL     1     -40.351  18.984 -30.761  1.00  0.00     0.041 C 
ATOM     13  O   UNL     1     -40.241  20.184 -31.127  1.00  0.00    -0.550 OA
ATOM     14  O   UNL     1     -41.480  18.258 -31.118  1.00  0.00    -0.550 OA
ENDBRANCH  11  12
ENDBRANCH  10  11
ENDBRANCH   9  10
ENDBRANCH   8   9
ENDBRANCH   1   8
TORSDOF 9
ENDMDL
MODEL 8
REMARK VINA RESULT:    -4.180      2.349      4.656
REMARK INTER + INTRA:          -7.210
REMARK INTER:                  -6.244
REMARK INTRA:                  -0.966
REMARK UNBOUND:                -0.830
REMARK SMILES O=C([O-])CCCCCCCCC(=O)[O-]
REMARK SMILES IDX 7 1 6 2 5 3 4 4 2 5 1 6 3 7 8 8 9 9 10 10 11 11 12 12 13 13
REMARK SMILES IDX 14 14
REMARK H PARENT
REMARK Flexibility Score: inf
ROOT
ATOM      1  C   UNL     1     -39.035  18.541 -29.618  1.00  0.00     0.000 C 
ENDROOT
BRANCH   1   2
ATOM      2  C   UNL     1     -40.103  18.905 -30.661  1.00  0.00     0.000 C 
BRANCH   2   3
ATOM      3  C   UNL     1     -41.288  19.670 -30.053  1.00  0.00     0.006 C 
BRANCH   3   4
ATOM      4  C   UNL     1     -40.856  20.448 -28.807  1.00  0.00     0.053 C 
BRANCH   4   5
ATOM      5  C   UNL     1     -41.900  21.450 -28.426  1.00  0.00     0.041 C 
ATOM      6  O   UNL     1     -42.914  21.092 -27.772  1.00  0.00    -0.550 OA
ATOM      7  O   UNL     1     -41.728  22.790 -28.752  1.00  0.00    -0.550 OA
ENDBRANCH   4   5
ENDBRANCH   3   4
ENDBRANCH   2   3
ENDBRANCH   1   2
BRANCH   1   8
ATOM      8  C   UNL     1     -37.617  18.930 -30.061  1.00  0.00     0.000 C 
BRANCH   8   9
ATOM      9  C   UNL     1     -37.130  20.176 -29.304  1.00  0.00     0.000 C 
BRANCH   9  10
ATOM     10  C   UNL     1     -37.044  21.419 -30.204  1.00  0.00     0.006 C 
BRANCH  10  11
ATOM     11  C   UNL     1     -38.252  22.351 -30.042  1.00  0.00     0.053 C 
BRANCH  11  12
ATOM     12  C   UNL     1     -38.814  22.715 -31.379  1.00  0.00     0.041 C 
ATOM     13  O   UNL     1     -40.015  22.454 -31.653  1.00  0.00    -0.550 OA
ATOM     14  O   UNL     1     -38.000  23.296 -32.342  1.00  0.00    -0.550 OA
ENDBRANCH  11  12
ENDBRANCH  10  11
ENDBRANCH   9  10
ENDBRANCH   8   9
ENDBRANCH   1   8
TORSDOF 9
ENDMDL
MODEL 9
REMARK VINA RESULT:    -4.179      2.618      3.785
REMARK INTER + INTRA:          -7.207
REMARK INTER:                  -6.193
REMARK INTRA:                  -1.014
REMARK UNBOUND:                -0.830
REMARK SMILES O=C([O-])CCCCCCCCC(=O)[O-]
REMARK SMILES IDX 7 1 6 2 5 3 4 4 2 5 1 6 3 7 8 8 9 9 10 10 11 11 12 12 13 13
REMARK SMILES IDX 14 14
REMARK H PARENT
REMARK Flexibility Score: inf
ROOT
ATOM      1  C   UNL     1     -41.402  21.537 -28.394  1.00  0.00     0.000 C 
ENDROOT
BRANCH   1   2
ATOM      2  C   UNL     1     -40.828  20.479 -29.350  1.00  0.00     0.000 C 
BRANCH   2   3
ATOM      3  C   UNL     1     -39.465  19.941 -28.889  1.00  0.00     0.006 C 
BRANCH   3   4
ATOM      4  C   UNL     1     -39.272  20.158 -27.385  1.00  0.00     0.053 C 
BRANCH   4   5
ATOM      5  C   UNL     1     -37.826  20.386 -27.070  1.00  0.00     0.041 C 
ATOM      6  O   UNL     1     -37.467  20.646 -25.892  1.00  0.00    -0.550 OA
ATOM      7  O   UNL     1     -36.870  20.262 -28.071  1.00  0.00    -0.550 OA
ENDBRANCH   4   5
ENDBRANCH   3   4
ENDBRANCH   2   3
ENDBRANCH   1   2
BRANCH   1   8
ATOM      8  C   UNL     1     -41.770  22.845 -29.110  1.00  0.00     0.000 C 
BRANCH   8   9
ATOM      9  C   UNL     1     -40.910  24.011 -28.596  1.00  0.00     0.000 C 
BRANCH   9  10
ATOM     10  C   UNL     1     -39.405  23.703 -28.643  1.00  0.00     0.006 C 
BRANCH  10  11
ATOM     11  C   UNL     1     -38.744  24.187 -29.941  1.00  0.00     0.053 C 
BRANCH  11  12
ATOM     12  C   UNL     1     -38.570  23.047 -30.894  1.00  0.00     0.041 C 
ATOM     13  O   UNL     1     -39.448  22.810 -31.765  1.00  0.00    -0.550 OA
ATOM     14  O   UNL     1     -37.463  22.215 -30.790  1.00  0.00    -0.550 OA
ENDBRANCH  11  12
ENDBRANCH  10  11
ENDBRANCH   9  10
ENDBRANCH   8   9
ENDBRANCH   1   8
TORSDOF 9
ENDMDL
