MODEL 1
REMARK VINA RESULT:    -3.879      0.000      0.000
REMARK INTER + INTRA:          -3.992
REMARK INTER:                  -3.992
REMARK INTRA:                   0.000
REMARK UNBOUND:                 0.000
REMARK SMILES Cc1cccc(O)c1C
REMARK SMILES IDX 1 1 2 2 8 3 6 4 5 5 4 6 3 7 9 8 7 9
REMARK H PARENT 7 10
REMARK Flexibility Score: inf
ROOT
ATOM      1  C   UNL     1     160.091 162.633 189.133  1.00  0.00     0.045 C 
ATOM      2  C   UNL     1     160.057 162.477 187.635  1.00  0.00    -0.045 A 
ATOM      3  C   UNL     1     159.946 163.601 186.775  1.00  0.00    -0.006 A 
ATOM      4  C   UNL     1     159.941 163.402 185.377  1.00  0.00     0.118 A 
ATOM      5  C   UNL     1     160.002 162.105 184.852  1.00  0.00     0.046 A 
ATOM      6  C   UNL     1     160.079 161.004 185.701  1.00  0.00     0.004 A 
ATOM      7  C   UNL     1     160.106 161.187 187.083  1.00  0.00     0.004 A 
ATOM      8  C   UNL     1     159.891 165.000 187.340  1.00  0.00     0.048 C 
ENDROOT
BRANCH   4   9
ATOM      9  O   UNL     1     159.875 164.492 184.509  1.00  0.00    -0.508 OA
ATOM     10  H   UNL     1     159.670 165.427 184.842  1.00  0.00     0.293 HD
ENDBRANCH   4   9
TORSDOF 1
ENDMDL
MODEL 2
REMARK VINA RESULT:    -3.719      2.560      3.093
REMARK INTER + INTRA:          -3.827
REMARK INTER:                  -3.827
REMARK INTRA:                   0.000
REMARK UNBOUND:                 0.000
REMARK SMILES Cc1cccc(O)c1C
REMARK SMILES IDX 1 1 2 2 8 3 6 4 5 5 4 6 3 7 9 8 7 9
REMARK H PARENT 7 10
REMARK Flexibility Score: inf
ROOT
ATOM      1  C   UNL     1     160.440 162.316 189.080  1.00  0.00     0.045 C 
ATOM      2  C   UNL     1     160.839 161.845 187.706  1.00  0.00    -0.045 A 
ATOM      3  C   UNL     1     162.170 161.446 187.416  1.00  0.00    -0.006 A 
ATOM      4  C   UNL     1     162.487 160.992 186.117  1.00  0.00     0.118 A 
ATOM      5  C   UNL     1     161.505 160.978 185.119  1.00  0.00     0.046 A 
ATOM      6  C   UNL     1     160.207 161.400 185.400  1.00  0.00     0.004 A 
ATOM      7  C   UNL     1     159.875 161.832 186.684  1.00  0.00     0.004 A 
ATOM      8  C   UNL     1     163.227 161.450 188.494  1.00  0.00     0.048 C 
ENDROOT
BRANCH   4   9
ATOM      9  O   UNL     1     163.777 160.554 185.817  1.00  0.00    -0.508 OA
ATOM     10  H   UNL     1     164.410 160.228 186.538  1.00  0.00     0.293 HD
ENDBRANCH   4   9
TORSDOF 1
ENDMDL
MODEL 3
REMARK VINA RESULT:    -3.700     17.144     17.325
REMARK INTER + INTRA:          -3.808
REMARK INTER:                  -3.808
REMARK INTRA:                   0.000
REMARK UNBOUND:                 0.000
REMARK SMILES Cc1cccc(O)c1C
REMARK SMILES IDX 1 1 2 2 8 3 6 4 5 5 4 6 3 7 9 8 7 9
REMARK H PARENT 7 10
REMARK Flexibility Score: inf
ROOT
ATOM      1  C   UNL     1     176.910 163.874 190.335  1.00  0.00     0.045 C 
ATOM      2  C   UNL     1     177.086 163.867 188.839  1.00  0.00    -0.045 A 
ATOM      3  C   UNL     1     176.875 162.690 188.073  1.00  0.00    -0.006 A 
ATOM      4  C   UNL     1     177.030 162.743 186.670  1.00  0.00     0.118 A 
ATOM      5  C   UNL     1     177.430 163.934 186.053  1.00  0.00     0.046 A 
ATOM      6  C   UNL     1     177.666 165.078 186.812  1.00  0.00     0.004 A 
ATOM      7  C   UNL     1     177.496 165.046 188.196  1.00  0.00     0.004 A 
ATOM      8  C   UNL     1     176.433 161.408 188.737  1.00  0.00     0.048 C 
ENDROOT
BRANCH   4   9
ATOM      9  O   UNL     1     176.788 161.612 185.890  1.00  0.00    -0.508 OA
ATOM     10  H   UNL     1     175.860 161.216 185.799  1.00  0.00     0.293 HD
ENDBRANCH   4   9
TORSDOF 1
ENDMDL
MODEL 4
REMARK VINA RESULT:    -3.691     21.032     21.518
REMARK INTER + INTRA:          -3.799
REMARK INTER:                  -3.799
REMARK INTRA:                   0.000
REMARK UNBOUND:                 0.000
REMARK SMILES Cc1cccc(O)c1C
REMARK SMILES IDX 1 1 2 2 8 3 6 4 5 5 4 6 3 7 9 8 7 9
REMARK H PARENT 7 10
REMARK Flexibility Score: inf
ROOT
ATOM      1  C   UNL     1     177.138 174.865 190.349  1.00  0.00     0.045 C 
ATOM      2  C   UNL     1     177.225 174.987 188.850  1.00  0.00    -0.045 A 
ATOM      3  C   UNL     1     178.284 174.389 188.117  1.00  0.00    -0.006 A 
ATOM      4  C   UNL     1     178.307 174.515 186.710  1.00  0.00     0.118 A 
ATOM      5  C   UNL     1     177.318 175.258 186.056  1.00  0.00     0.046 A 
ATOM      6  C   UNL     1     176.298 175.869 186.782  1.00  0.00     0.004 A 
ATOM      7  C   UNL     1     176.251 175.736 188.169  1.00  0.00     0.004 A 
ATOM      8  C   UNL     1     179.346 173.579 188.822  1.00  0.00     0.048 C 
ENDROOT
BRANCH   4   9
ATOM      9  O   UNL     1     179.314 173.902 185.964  1.00  0.00    -0.508 OA
ATOM     10  H   UNL     1     179.414 174.066 184.969  1.00  0.00     0.293 HD
ENDBRANCH   4   9
TORSDOF 1
ENDMDL
MODEL 5
REMARK VINA RESULT:    -3.689      1.581      2.905
REMARK INTER + INTRA:          -3.797
REMARK INTER:                  -3.797
REMARK INTRA:                   0.000
REMARK UNBOUND:                 0.000
REMARK SMILES Cc1cccc(O)c1C
REMARK SMILES IDX 1 1 2 2 8 3 6 4 5 5 4 6 3 7 9 8 7 9
REMARK H PARENT 7 10
REMARK Flexibility Score: inf
ROOT
ATOM      1  C   UNL     1     160.143 165.432 187.180  1.00  0.00     0.045 C 
ATOM      2  C   UNL     1     160.048 163.956 187.463  1.00  0.00    -0.045 A 
ATOM      3  C   UNL     1     159.988 163.002 186.413  1.00  0.00    -0.006 A 
ATOM      4  C   UNL     1     159.923 161.627 186.732  1.00  0.00     0.118 A 
ATOM      5  C   UNL     1     159.875 161.219 188.071  1.00  0.00     0.046 A 
ATOM      6  C   UNL     1     159.903 162.161 189.097  1.00  0.00     0.004 A 
ATOM      7  C   UNL     1     159.988 163.520 188.797  1.00  0.00     0.004 A 
ATOM      8  C   UNL     1     160.051 163.441 184.970  1.00  0.00     0.048 C 
ENDROOT
BRANCH   4   9
ATOM      9  O   UNL     1     159.906 160.668 185.720  1.00  0.00    -0.508 OA
ATOM     10  H   UNL     1     159.266 160.731 184.937  1.00  0.00     0.293 HD
ENDBRANCH   4   9
TORSDOF 1
ENDMDL
MODEL 6
REMARK VINA RESULT:    -3.662     20.471     21.489
REMARK INTER + INTRA:          -3.769
REMARK INTER:                  -3.769
REMARK INTRA:                   0.000
REMARK UNBOUND:                 0.000
REMARK SMILES Cc1cccc(O)c1C
REMARK SMILES IDX 1 1 2 2 8 3 6 4 5 5 4 6 3 7 9 8 7 9
REMARK H PARENT 7 10
REMARK Flexibility Score: inf
ROOT
ATOM      1  C   UNL     1     170.375 180.125 187.621  1.00  0.00     0.045 C 
ATOM      2  C   UNL     1     171.865 179.987 187.454  1.00  0.00    -0.045 A 
ATOM      3  C   UNL     1     172.461 179.883 186.169  1.00  0.00    -0.006 A 
ATOM      4  C   UNL     1     173.866 179.779 186.067  1.00  0.00     0.118 A 
ATOM      5  C   UNL     1     174.653 179.736 187.224  1.00  0.00     0.046 A 
ATOM      6  C   UNL     1     174.061 179.807 188.483  1.00  0.00     0.004 A 
ATOM      7  C   UNL     1     172.677 179.931 188.599  1.00  0.00     0.004 A 
ATOM      8  C   UNL     1     171.614 179.941 184.921  1.00  0.00     0.048 C 
ENDROOT
BRANCH   4   9
ATOM      9  O   UNL     1     174.480 179.718 184.815  1.00  0.00    -0.508 OA
ATOM     10  H   UNL     1     174.861 180.543 184.368  1.00  0.00     0.293 HD
ENDBRANCH   4   9
TORSDOF 1
ENDMDL
MODEL 7
REMARK VINA RESULT:    -3.623      1.116      2.735
REMARK INTER + INTRA:          -3.729
REMARK INTER:                  -3.729
REMARK INTRA:                   0.000
REMARK UNBOUND:                 0.000
REMARK SMILES Cc1cccc(O)c1C
REMARK SMILES IDX 1 1 2 2 8 3 6 4 5 5 4 6 3 7 9 8 7 9
REMARK H PARENT 7 10
REMARK Flexibility Score: inf
ROOT
ATOM      1  C   UNL     1     160.050 160.635 185.738  1.00  0.00     0.045 C 
ATOM      2  C   UNL     1     159.991 161.815 186.673  1.00  0.00    -0.045 A 
ATOM      3  C   UNL     1     160.010 163.148 186.185  1.00  0.00    -0.006 A 
ATOM      4  C   UNL     1     159.930 164.220 187.102  1.00  0.00     0.118 A 
ATOM      5  C   UNL     1     159.875 163.964 188.478  1.00  0.00     0.046 A 
ATOM      6  C   UNL     1     159.888 162.654 188.953  1.00  0.00     0.004 A 
ATOM      7  C   UNL     1     159.946 161.586 188.058  1.00  0.00     0.004 A 
ATOM      8  C   UNL     1     160.058 163.425 184.702  1.00  0.00     0.048 C 
ENDROOT
BRANCH   4   9
ATOM      9  O   UNL     1     159.905 165.538 186.647  1.00  0.00    -0.508 OA
ATOM     10  H   UNL     1     159.040 165.995 186.384  1.00  0.00     0.293 HD
ENDBRANCH   4   9
TORSDOF 1
ENDMDL
MODEL 8
REMARK VINA RESULT:    -3.583     11.018     13.159
REMARK INTER + INTRA:          -3.688
REMARK INTER:                  -3.688
REMARK INTRA:                   0.000
REMARK UNBOUND:                 0.000
REMARK SMILES Cc1cccc(O)c1C
REMARK SMILES IDX 1 1 2 2 8 3 6 4 5 5 4 6 3 7 9 8 7 9
REMARK H PARENT 7 10
REMARK Flexibility Score: inf
ROOT
ATOM      1  C   UNL     1     159.975 173.231 187.557  1.00  0.00     0.045 C 
ATOM      2  C   UNL     1     160.337 174.693 187.552  1.00  0.00    -0.045 A 
ATOM      3  C   UNL     1     160.670 175.370 186.349  1.00  0.00    -0.006 A 
ATOM      4  C   UNL     1     160.980 176.748 186.396  1.00  0.00     0.118 A 
ATOM      5  C   UNL     1     160.998 177.422 187.623  1.00  0.00     0.046 A 
ATOM      6  C   UNL     1     160.700 176.745 188.804  1.00  0.00     0.004 A 
ATOM      7  C   UNL     1     160.372 175.391 188.770  1.00  0.00     0.004 A 
ATOM      8  C   UNL     1     160.640 174.646 185.025  1.00  0.00     0.048 C 
ENDROOT
BRANCH   4   9
ATOM      9  O   UNL     1     161.270 177.446 185.224  1.00  0.00    -0.508 OA
ATOM     10  H   UNL     1     161.959 178.189 185.203  1.00  0.00     0.293 HD
ENDBRANCH   4   9
TORSDOF 1
ENDMDL
MODEL 9
REMARK VINA RESULT:    -3.566      2.652      3.397
REMARK INTER + INTRA:          -3.670
REMARK INTER:                  -3.670
REMARK INTRA:                   0.000
REMARK UNBOUND:                 0.000
REMARK SMILES Cc1cccc(O)c1C
REMARK SMILES IDX 1 1 2 2 8 3 6 4 5 5 4 6 3 7 9 8 7 9
REMARK H PARENT 7 10
REMARK Flexibility Score: inf
ROOT
ATOM      1  C   UNL     1     159.988 162.377 188.762  1.00  0.00     0.045 C 
ATOM      2  C   UNL     1     161.226 161.881 188.061  1.00  0.00    -0.045 A 
ATOM      3  C   UNL     1     161.176 161.378 186.735  1.00  0.00    -0.006 A 
ATOM      4  C   UNL     1     162.370 160.946 186.115  1.00  0.00     0.118 A 
ATOM      5  C   UNL     1     163.578 160.976 186.822  1.00  0.00     0.046 A 
ATOM      6  C   UNL     1     163.616 161.442 188.134  1.00  0.00     0.004 A 
ATOM      7  C   UNL     1     162.449 161.891 188.751  1.00  0.00     0.004 A 
ATOM      8  C   UNL     1     159.875 161.355 185.969  1.00  0.00     0.048 C 
ENDROOT
BRANCH   4   9
ATOM      9  O   UNL     1     162.355 160.486 184.798  1.00  0.00    -0.508 OA
ATOM     10  H   UNL     1     162.280 159.499 184.579  1.00  0.00     0.293 HD
ENDBRANCH   4   9
TORSDOF 1
ENDMDL
