MODEL 1
REMARK VINA RESULT:    -5.762      0.000      0.000
REMARK INTER + INTRA:          -7.546
REMARK INTER:                  -7.109
REMARK INTRA:                  -0.437
REMARK UNBOUND:                -0.437
REMARK SMILES CC(C)=CCC[C@H](C)c1ccc(C)cc1
REMARK SMILES IDX 6 1 7 2 8 3 9 4 13 5 12 6 11 7 14 8 10 9 15 10 5 11 4 12
REMARK SMILES IDX 2 13 1 14 3 15
REMARK H PARENT
REMARK Flexibility Score: inf
ROOT
ATOM      1  C   UNL     1       1.456 -26.197  -5.566  1.00  0.00     0.012 C 
ENDROOT
BRANCH   1   2
ATOM      2  C   UNL     1       1.192 -25.802  -7.037  1.00  0.00     0.016 C 
ATOM      3  C   UNL     1       1.940 -24.522  -7.442  1.00  0.00     0.013 C 
BRANCH   2   4
ATOM      4  C   UNL     1      -0.298 -25.645  -7.284  1.00  0.00    -0.045 A 
ATOM      5  C   UNL     1      -4.542 -25.203  -7.950  1.00  0.00     0.044 C 
ATOM      6  C   UNL     1      -3.064 -25.327  -7.728  1.00  0.00    -0.051 A 
ATOM      7  C   UNL     1      -2.512 -25.046  -6.470  1.00  0.00     0.004 A 
ATOM      8  C   UNL     1      -2.232 -25.791  -8.757  1.00  0.00     0.004 A 
ATOM      9  C   UNL     1      -1.140 -25.197  -6.252  1.00  0.00     0.004 A 
ATOM     10  C   UNL     1      -0.859 -25.942  -8.540  1.00  0.00     0.004 A 
ENDBRANCH   2   4
ENDBRANCH   1   2
BRANCH   1  11
ATOM     11  C   UNL     1       2.626 -27.181  -5.419  1.00  0.00     0.028 C 
BRANCH  11  12
ATOM     12  C   UNL     1       2.813 -27.575  -3.974  1.00  0.00    -0.028 C 
ATOM     13  C   UNL     1       3.512 -28.656  -3.562  1.00  0.00    -0.080 C 
ATOM     14  C   UNL     1       3.577 -28.949  -2.085  1.00  0.00     0.039 C 
ATOM     15  C   UNL     1       4.236 -29.559  -4.533  1.00  0.00     0.039 C 
ENDBRANCH  11  12
ENDBRANCH   1  11
TORSDOF 4
ENDMDL
MODEL 2
REMARK VINA RESULT:    -5.749      0.972      2.029
REMARK INTER + INTRA:          -7.530
REMARK INTER:                  -7.042
REMARK INTRA:                  -0.488
REMARK UNBOUND:                -0.437
REMARK SMILES CC(C)=CCC[C@H](C)c1ccc(C)cc1
REMARK SMILES IDX 6 1 7 2 8 3 9 4 13 5 12 6 11 7 14 8 10 9 15 10 5 11 4 12
REMARK SMILES IDX 2 13 1 14 3 15
REMARK H PARENT
REMARK Flexibility Score: inf
ROOT
ATOM      1  C   UNL     1       2.062 -26.705  -5.596  1.00  0.00     0.012 C 
ENDROOT
BRANCH   1   2
ATOM      2  C   UNL     1       1.331 -25.352  -5.435  1.00  0.00     0.016 C 
ATOM      3  C   UNL     1       1.085 -24.993  -3.962  1.00  0.00     0.013 C 
BRANCH   2   4
ATOM      4  C   UNL     1       0.021 -25.364  -6.202  1.00  0.00    -0.045 A 
ATOM      5  C   UNL     1      -3.689 -25.397  -8.414  1.00  0.00     0.044 C 
ATOM      6  C   UNL     1      -2.407 -25.414  -7.636  1.00  0.00    -0.051 A 
ATOM      7  C   UNL     1      -1.216 -25.835  -8.245  1.00  0.00     0.004 A 
ATOM      8  C   UNL     1      -2.376 -24.945  -6.315  1.00  0.00     0.004 A 
ATOM      9  C   UNL     1      -0.014 -25.817  -7.532  1.00  0.00     0.004 A 
ATOM     10  C   UNL     1      -1.175 -24.926  -5.601  1.00  0.00     0.004 A 
ENDBRANCH   2   4
ENDBRANCH   1   2
BRANCH   1  11
ATOM     11  C   UNL     1       2.474 -27.319  -4.250  1.00  0.00     0.028 C 
BRANCH  11  12
ATOM     12  C   UNL     1       3.675 -28.216  -4.418  1.00  0.00    -0.028 C 
ATOM     13  C   UNL     1       4.232 -28.941  -3.423  1.00  0.00    -0.080 C 
ATOM     14  C   UNL     1       5.458 -29.761  -3.730  1.00  0.00     0.039 C 
ATOM     15  C   UNL     1       3.651 -28.964  -2.028  1.00  0.00     0.039 C 
ENDBRANCH  11  12
ENDBRANCH   1  11
TORSDOF 4
ENDMDL
MODEL 3
REMARK VINA RESULT:    -5.663      0.740      1.781
REMARK INTER + INTRA:          -7.424
REMARK INTER:                  -6.781
REMARK INTRA:                  -0.643
REMARK UNBOUND:                -0.437
REMARK SMILES CC(C)=CCC[C@H](C)c1ccc(C)cc1
REMARK SMILES IDX 6 1 7 2 8 3 9 4 13 5 12 6 11 7 14 8 10 9 15 10 5 11 4 12
REMARK SMILES IDX 2 13 1 14 3 15
REMARK H PARENT
REMARK Flexibility Score: inf
ROOT
ATOM      1  C   UNL     1       1.114 -25.248  -4.957  1.00  0.00     0.012 C 
ENDROOT
BRANCH   1   2
ATOM      2  C   UNL     1       1.088 -25.530  -6.476  1.00  0.00     0.016 C 
ATOM      3  C   UNL     1       1.973 -24.553  -7.266  1.00  0.00     0.013 C 
BRANCH   2   4
ATOM      4  C   UNL     1      -0.338 -25.491  -6.997  1.00  0.00    -0.045 A 
ATOM      5  C   UNL     1      -4.382 -25.375  -8.510  1.00  0.00     0.044 C 
ATOM      6  C   UNL     1      -2.982 -25.444  -7.976  1.00  0.00    -0.051 A 
ATOM      7  C   UNL     1      -1.923 -25.824  -8.814  1.00  0.00     0.004 A 
ATOM      8  C   UNL     1      -2.711 -25.065  -6.653  1.00  0.00     0.004 A 
ATOM      9  C   UNL     1      -0.614 -25.854  -8.327  1.00  0.00     0.004 A 
ATOM     10  C   UNL     1      -1.402 -25.094  -6.165  1.00  0.00     0.004 A 
ENDBRANCH   2   4
ENDBRANCH   1   2
BRANCH   1  11
ATOM     11  C   UNL     1       2.106 -26.150  -4.205  1.00  0.00     0.028 C 
BRANCH  11  12
ATOM     12  C   UNL     1       2.579 -27.277  -5.091  1.00  0.00    -0.028 C 
ATOM     13  C   UNL     1       3.166 -28.407  -4.640  1.00  0.00    -0.080 C 
ATOM     14  C   UNL     1       3.626 -29.429  -5.647  1.00  0.00     0.039 C 
ATOM     15  C   UNL     1       3.356 -28.676  -3.165  1.00  0.00     0.039 C 
ENDBRANCH  11  12
ENDBRANCH   1  11
TORSDOF 4
ENDMDL
MODEL 4
REMARK VINA RESULT:    -5.467      1.704      2.530
REMARK INTER + INTRA:          -7.183
REMARK INTER:                  -6.228
REMARK INTRA:                  -0.954
REMARK UNBOUND:                -0.437
REMARK SMILES CC(C)=CCC[C@H](C)c1ccc(C)cc1
REMARK SMILES IDX 6 1 7 2 8 3 9 4 13 5 12 6 11 7 14 8 10 9 15 10 5 11 4 12
REMARK SMILES IDX 2 13 1 14 3 15
REMARK H PARENT
REMARK Flexibility Score: inf
ROOT
ATOM      1  C   UNL     1       1.983 -26.425  -4.353  1.00  0.00     0.012 C 
ENDROOT
BRANCH   1   2
ATOM      2  C   UNL     1       1.620 -25.064  -4.990  1.00  0.00     0.016 C 
ATOM      3  C   UNL     1       1.635 -23.918  -3.967  1.00  0.00     0.013 C 
BRANCH   2   4
ATOM      4  C   UNL     1       0.266 -25.144  -5.674  1.00  0.00    -0.045 A 
ATOM      5  C   UNL     1      -3.599 -25.376  -7.589  1.00  0.00     0.044 C 
ATOM      6  C   UNL     1      -2.253 -25.267  -6.935  1.00  0.00    -0.051 A 
ATOM      7  C   UNL     1      -2.145 -24.818  -5.610  1.00  0.00     0.004 A 
ATOM      8  C   UNL     1      -1.099 -25.676  -7.619  1.00  0.00     0.004 A 
ATOM      9  C   UNL     1      -0.896 -24.751  -4.988  1.00  0.00     0.004 A 
ATOM     10  C   UNL     1       0.151 -25.609  -6.998  1.00  0.00     0.004 A 
ENDBRANCH   2   4
ENDBRANCH   1   2
BRANCH   1  11
ATOM     11  C   UNL     1       3.178 -27.100  -5.042  1.00  0.00     0.028 C 
BRANCH  11  12
ATOM     12  C   UNL     1       2.790 -28.458  -5.574  1.00  0.00    -0.028 C 
ATOM     13  C   UNL     1       2.667 -28.758  -6.886  1.00  0.00    -0.080 C 
ATOM     14  C   UNL     1       2.230 -30.149  -7.267  1.00  0.00     0.039 C 
ATOM     15  C   UNL     1       2.972 -27.749  -7.969  1.00  0.00     0.039 C 
ENDBRANCH  11  12
ENDBRANCH   1  11
TORSDOF 4
ENDMDL
MODEL 5
REMARK VINA RESULT:    -5.385      9.258     10.088
REMARK INTER + INTRA:          -7.081
REMARK INTER:                  -6.255
REMARK INTRA:                  -0.826
REMARK UNBOUND:                -0.437
REMARK SMILES CC(C)=CCC[C@H](C)c1ccc(C)cc1
REMARK SMILES IDX 6 1 7 2 8 3 9 4 13 5 12 6 11 7 14 8 10 9 15 10 5 11 4 12
REMARK SMILES IDX 2 13 1 14 3 15
REMARK H PARENT
REMARK Flexibility Score: inf
ROOT
ATOM      1  C   UNL     1       1.401 -19.891  -1.294  1.00  0.00     0.012 C 
ENDROOT
BRANCH   1   2
ATOM      2  C   UNL     1       0.644 -19.672   0.036  1.00  0.00     0.016 C 
ATOM      3  C   UNL     1       0.077 -20.980   0.608  1.00  0.00     0.013 C 
BRANCH   2   4
ATOM      4  C   UNL     1      -0.465 -18.651  -0.148  1.00  0.00    -0.045 A 
ATOM      5  C   UNL     1      -3.619 -15.740  -0.636  1.00  0.00     0.044 C 
ATOM      6  C   UNL     1      -2.505 -16.734  -0.484  1.00  0.00    -0.051 A 
ATOM      7  C   UNL     1      -1.628 -16.651   0.607  1.00  0.00     0.004 A 
ATOM      8  C   UNL     1      -2.373 -17.793  -1.394  1.00  0.00     0.004 A 
ATOM      9  C   UNL     1      -0.612 -17.597   0.770  1.00  0.00     0.004 A 
ATOM     10  C   UNL     1      -1.358 -18.740  -1.232  1.00  0.00     0.004 A 
ENDBRANCH   2   4
ENDBRANCH   1   2
BRANCH   1  11
ATOM     11  C   UNL     1       2.877 -19.477  -1.210  1.00  0.00     0.028 C 
BRANCH  11  12
ATOM     12  C   UNL     1       3.629 -20.371  -0.254  1.00  0.00    -0.028 C 
ATOM     13  C   UNL     1       4.155 -19.962   0.921  1.00  0.00    -0.080 C 
ATOM     14  C   UNL     1       4.918 -20.960   1.753  1.00  0.00     0.039 C 
ATOM     15  C   UNL     1       3.986 -18.547   1.424  1.00  0.00     0.039 C 
ENDBRANCH  11  12
ENDBRANCH   1  11
TORSDOF 4
ENDMDL
MODEL 6
REMARK VINA RESULT:    -5.371      9.342     11.408
REMARK INTER + INTRA:          -7.064
REMARK INTER:                  -5.576
REMARK INTRA:                  -1.487
REMARK UNBOUND:                -0.437
REMARK SMILES CC(C)=CCC[C@H](C)c1ccc(C)cc1
REMARK SMILES IDX 6 1 7 2 8 3 9 4 13 5 12 6 11 7 14 8 10 9 15 10 5 11 4 12
REMARK SMILES IDX 2 13 1 14 3 15
REMARK H PARENT
REMARK Flexibility Score: inf
ROOT
ATOM      1  C   UNL     1       2.728 -21.368   1.003  1.00  0.00     0.012 C 
ENDROOT
BRANCH   1   2
ATOM      2  C   UNL     1       4.219 -21.054   0.739  1.00  0.00     0.016 C 
ATOM      3  C   UNL     1       5.102 -21.343   1.962  1.00  0.00     0.013 C 
BRANCH   2   4
ATOM      4  C   UNL     1       4.385 -19.611   0.295  1.00  0.00    -0.045 A 
ATOM      5  C   UNL     1       4.883 -15.517  -0.988  1.00  0.00     0.044 C 
ATOM      6  C   UNL     1       4.681 -16.938  -0.554  1.00  0.00    -0.051 A 
ATOM      7  C   UNL     1       5.061 -17.995  -1.395  1.00  0.00     0.004 A 
ATOM      8  C   UNL     1       4.175 -17.222   0.722  1.00  0.00     0.004 A 
ATOM      9  C   UNL     1       4.908 -19.320  -0.977  1.00  0.00     0.004 A 
ATOM     10  C   UNL     1       4.021 -18.547   1.142  1.00  0.00     0.004 A 
ENDBRANCH   2   4
ENDBRANCH   1   2
BRANCH   1  11
ATOM     11  C   UNL     1       1.828 -21.009  -0.189  1.00  0.00     0.028 C 
BRANCH  11  12
ATOM     12  C   UNL     1       0.740 -20.052   0.233  1.00  0.00    -0.028 C 
ATOM     13  C   UNL     1       0.521 -18.846  -0.335  1.00  0.00    -0.080 C 
ATOM     14  C   UNL     1      -0.578 -17.978   0.221  1.00  0.00     0.039 C 
ATOM     15  C   UNL     1       1.332 -18.358  -1.514  1.00  0.00     0.039 C 
ENDBRANCH  11  12
ENDBRANCH   1  11
TORSDOF 4
ENDMDL
MODEL 7
REMARK VINA RESULT:    -5.290      8.853     10.499
REMARK INTER + INTRA:          -6.963
REMARK INTER:                  -5.576
REMARK INTRA:                  -1.387
REMARK UNBOUND:                -0.437
REMARK SMILES CC(C)=CCC[C@H](C)c1ccc(C)cc1
REMARK SMILES IDX 6 1 7 2 8 3 9 4 13 5 12 6 11 7 14 8 10 9 15 10 5 11 4 12
REMARK SMILES IDX 2 13 1 14 3 15
REMARK H PARENT
REMARK Flexibility Score: inf
ROOT
ATOM      1  C   UNL     1       5.668 -19.441  -0.032  1.00  0.00     0.012 C 
ENDROOT
BRANCH   1   2
ATOM      2  C   UNL     1       4.677 -19.854   1.080  1.00  0.00     0.016 C 
ATOM      3  C   UNL     1       4.753 -21.354   1.402  1.00  0.00     0.013 C 
BRANCH   2   4
ATOM      4  C   UNL     1       3.260 -19.467   0.697  1.00  0.00    -0.045 A 
ATOM      5  C   UNL     1      -0.769 -18.334  -0.372  1.00  0.00     0.044 C 
ATOM      6  C   UNL     1       0.638 -18.726  -0.031  1.00  0.00    -0.051 A 
ATOM      7  C   UNL     1       1.576 -17.747   0.332  1.00  0.00     0.004 A 
ATOM      8  C   UNL     1       1.009 -20.078  -0.005  1.00  0.00     0.004 A 
ATOM      9  C   UNL     1       2.877 -18.114   0.686  1.00  0.00     0.004 A 
ATOM     10  C   UNL     1       2.310 -20.446   0.349  1.00  0.00     0.004 A 
ENDBRANCH   2   4
ENDBRANCH   1   2
BRANCH   1  11
ATOM     11  C   UNL     1       5.170 -19.815  -1.436  1.00  0.00     0.028 C 
BRANCH  11  12
ATOM     12  C   UNL     1       5.063 -18.588  -2.309  1.00  0.00    -0.028 C 
ATOM     13  C   UNL     1       3.998 -18.296  -3.088  1.00  0.00    -0.080 C 
ATOM     14  C   UNL     1       4.051 -17.054  -3.940  1.00  0.00     0.039 C 
ATOM     15  C   UNL     1       2.763 -19.165  -3.114  1.00  0.00     0.039 C 
ENDBRANCH  11  12
ENDBRANCH   1  11
TORSDOF 4
ENDMDL
MODEL 8
REMARK VINA RESULT:    -5.246      9.610     10.407
REMARK INTER + INTRA:          -6.910
REMARK INTER:                  -6.145
REMARK INTRA:                  -0.765
REMARK UNBOUND:                -0.437
REMARK SMILES CC(C)=CCC[C@H](C)c1ccc(C)cc1
REMARK SMILES IDX 6 1 7 2 8 3 9 4 13 5 12 6 11 7 14 8 10 9 15 10 5 11 4 12
REMARK SMILES IDX 2 13 1 14 3 15
REMARK H PARENT
REMARK Flexibility Score: inf
ROOT
ATOM      1  C   UNL     1       2.612 -17.813  -0.436  1.00  0.00     0.012 C 
ENDROOT
BRANCH   1   2
ATOM      2  C   UNL     1       1.497 -18.835  -0.117  1.00  0.00     0.016 C 
ATOM      3  C   UNL     1       1.593 -20.096  -0.989  1.00  0.00     0.013 C 
BRANCH   2   4
ATOM      4  C   UNL     1       0.130 -18.190  -0.268  1.00  0.00    -0.045 A 
ATOM      5  C   UNL     1      -3.753 -16.357  -0.734  1.00  0.00     0.044 C 
ATOM      6  C   UNL     1      -2.418 -17.018  -0.558  1.00  0.00    -0.051 A 
ATOM      7  C   UNL     1      -1.893 -17.831  -1.574  1.00  0.00     0.004 A 
ATOM      8  C   UNL     1      -1.654 -16.773   0.592  1.00  0.00     0.004 A 
ATOM      9  C   UNL     1      -0.633 -18.418  -1.427  1.00  0.00     0.004 A 
ATOM     10  C   UNL     1      -0.394 -17.359   0.740  1.00  0.00     0.004 A 
ENDBRANCH   2   4
ENDBRANCH   1   2
BRANCH   1  11
ATOM     11  C   UNL     1       3.590 -17.621   0.733  1.00  0.00     0.028 C 
BRANCH  11  12
ATOM     12  C   UNL     1       3.884 -18.940   1.405  1.00  0.00    -0.028 C 
ATOM     13  C   UNL     1       4.842 -19.805   1.004  1.00  0.00    -0.080 C 
ATOM     14  C   UNL     1       4.992 -21.105   1.749  1.00  0.00     0.039 C 
ATOM     15  C   UNL     1       5.767 -19.495  -0.150  1.00  0.00     0.039 C 
ENDBRANCH  11  12
ENDBRANCH   1  11
TORSDOF 4
ENDMDL
MODEL 9
REMARK VINA RESULT:    -5.183      8.998     10.908
REMARK INTER + INTRA:          -6.832
REMARK INTER:                  -5.306
REMARK INTRA:                  -1.526
REMARK UNBOUND:                -0.437
REMARK SMILES CC(C)=CCC[C@H](C)c1ccc(C)cc1
REMARK SMILES IDX 6 1 7 2 8 3 9 4 13 5 12 6 11 7 14 8 10 9 15 10 5 11 4 12
REMARK SMILES IDX 2 13 1 14 3 15
REMARK H PARENT
REMARK Flexibility Score: inf
ROOT
ATOM      1  C   UNL     1       1.853 -17.610  -1.716  1.00  0.00     0.012 C 
ENDROOT
BRANCH   1   2
ATOM      2  C   UNL     1       1.242 -18.536  -0.639  1.00  0.00     0.016 C 
ATOM      3  C   UNL     1       0.349 -17.771   0.349  1.00  0.00     0.013 C 
BRANCH   2   4
ATOM      4  C   UNL     1       2.339 -19.278   0.104  1.00  0.00    -0.045 A 
ATOM      5  C   UNL     1       5.480 -21.363   2.212  1.00  0.00     0.044 C 
ATOM      6  C   UNL     1       4.372 -20.639   1.506  1.00  0.00    -0.051 A 
ATOM      7  C   UNL     1       4.378 -19.238   1.433  1.00  0.00     0.004 A 
ATOM      8  C   UNL     1       3.359 -21.358   0.855  1.00  0.00     0.004 A 
ATOM      9  C   UNL     1       3.366 -18.563   0.744  1.00  0.00     0.004 A 
ATOM     10  C   UNL     1       2.347 -20.685   0.166  1.00  0.00     0.004 A 
ENDBRANCH   2   4
ENDBRANCH   1   2
BRANCH   1  11
ATOM     11  C   UNL     1       2.642 -18.384  -2.783  1.00  0.00     0.028 C 
BRANCH  11  12
ATOM     12  C   UNL     1       4.090 -17.957  -2.790  1.00  0.00    -0.028 C 
ATOM     13  C   UNL     1       5.133 -18.791  -2.580  1.00  0.00    -0.080 C 
ATOM     14  C   UNL     1       6.524 -18.213  -2.575  1.00  0.00     0.039 C 
ATOM     15  C   UNL     1       4.941 -20.275  -2.368  1.00  0.00     0.039 C 
ENDBRANCH  11  12
ENDBRANCH   1  11
TORSDOF 4
ENDMDL
