MODEL 1
REMARK VINA RESULT:    -5.583      0.000      0.000
REMARK INTER + INTRA:          -6.108
REMARK INTER:                  -6.072
REMARK INTRA:                  -0.036
REMARK UNBOUND:                -0.036
REMARK SMILES O=C([O-])c1ccc(O)cc1
REMARK SMILES IDX 4 1 5 2 10 3 6 4 9 5 7 6 2 7 1 8 3 9 8 10
REMARK H PARENT 8 11
REMARK Flexibility Score: inf
ROOT
ATOM      1  C   UNL     1      12.446  50.060  -4.975  1.00  0.00    -0.003 A 
ATOM      2  C   UNL     1      11.768  48.987  -5.582  1.00  0.00     0.014 A 
ATOM      3  C   UNL     1      12.514  50.115  -3.570  1.00  0.00     0.014 A 
ATOM      4  C   UNL     1      11.172  47.993  -4.801  1.00  0.00     0.047 A 
ATOM      5  C   UNL     1      11.916  49.118  -2.793  1.00  0.00     0.047 A 
ATOM      6  C   UNL     1      11.243  48.054  -3.407  1.00  0.00     0.115 A 
ENDROOT
BRANCH   1   7
ATOM      7  C   UNL     1      13.076  51.111  -5.803  1.00  0.00     0.071 C 
ATOM      8  O   UNL     1      12.843  51.177  -7.040  1.00  0.00    -0.545 OA
ATOM      9  O   UNL     1      13.935  52.040  -5.228  1.00  0.00    -0.545 OA
ENDBRANCH   1   7
BRANCH   6  10
ATOM     10  O   UNL     1      10.645  47.056  -2.642  1.00  0.00    -0.508 OA
ATOM     11  H   UNL     1       9.639  47.004  -2.532  1.00  0.00     0.293 HD
ENDBRANCH   6  10
TORSDOF 2
ENDMDL
MODEL 2
REMARK VINA RESULT:    -5.564     11.511     12.765
REMARK INTER + INTRA:          -6.087
REMARK INTER:                  -6.055
REMARK INTRA:                  -0.032
REMARK UNBOUND:                -0.036
REMARK SMILES O=C([O-])c1ccc(O)cc1
REMARK SMILES IDX 4 1 5 2 10 3 6 4 9 5 7 6 2 7 1 8 3 9 8 10
REMARK H PARENT 8 11
REMARK Flexibility Score: inf
ROOT
ATOM      1  C   UNL     1      11.031  55.388   6.872  1.00  0.00    -0.003 A 
ATOM      2  C   UNL     1      11.926  55.739   5.845  1.00  0.00     0.014 A 
ATOM      3  C   UNL     1       9.863  54.675   6.543  1.00  0.00     0.014 A 
ATOM      4  C   UNL     1      11.657  55.387   4.519  1.00  0.00     0.047 A 
ATOM      5  C   UNL     1       9.598  54.324   5.215  1.00  0.00     0.047 A 
ATOM      6  C   UNL     1      10.494  54.679   4.200  1.00  0.00     0.115 A 
ENDROOT
BRANCH   1   7
ATOM      7  C   UNL     1      11.319  55.762   8.274  1.00  0.00     0.071 C 
ATOM      8  O   UNL     1      12.499  55.737   8.714  1.00  0.00    -0.545 OA
ATOM      9  O   UNL     1      10.289  56.146   9.125  1.00  0.00    -0.545 OA
ENDBRANCH   1   7
BRANCH   6  10
ATOM     10  O   UNL     1      10.240  54.334   2.875  1.00  0.00    -0.508 OA
ATOM     11  H   UNL     1      10.438  53.404   2.523  1.00  0.00     0.293 HD
ENDBRANCH   6  10
TORSDOF 2
ENDMDL
MODEL 3
REMARK VINA RESULT:    -5.534     11.495     12.729
REMARK INTER + INTRA:          -6.055
REMARK INTER:                  -6.023
REMARK INTRA:                  -0.032
REMARK UNBOUND:                -0.036
REMARK SMILES O=C([O-])c1ccc(O)cc1
REMARK SMILES IDX 4 1 5 2 10 3 6 4 9 5 7 6 2 7 1 8 3 9 8 10
REMARK H PARENT 8 11
REMARK Flexibility Score: inf
ROOT
ATOM      1  C   UNL     1      11.047  55.376   6.863  1.00  0.00    -0.003 A 
ATOM      2  C   UNL     1       9.883  54.658   6.533  1.00  0.00     0.014 A 
ATOM      3  C   UNL     1      11.942  55.732   5.836  1.00  0.00     0.014 A 
ATOM      4  C   UNL     1       9.621  54.303   5.207  1.00  0.00     0.047 A 
ATOM      5  C   UNL     1      11.676  55.375   4.510  1.00  0.00     0.047 A 
ATOM      6  C   UNL     1      10.515  54.659   4.192  1.00  0.00     0.115 A 
ENDROOT
BRANCH   1   7
ATOM      7  C   UNL     1      11.322  55.750   8.267  1.00  0.00     0.071 C 
ATOM      8  O   UNL     1      12.500  55.733   8.716  1.00  0.00    -0.545 OA
ATOM      9  O   UNL     1      10.285  56.125   9.112  1.00  0.00    -0.545 OA
ENDBRANCH   1   7
BRANCH   6  10
ATOM     10  O   UNL     1      10.239  54.300   2.875  1.00  0.00    -0.508 OA
ATOM     11  H   UNL     1       9.961  53.357   2.631  1.00  0.00     0.293 HD
ENDBRANCH   6  10
TORSDOF 2
ENDMDL
MODEL 4
REMARK VINA RESULT:    -5.467      1.486      1.941
REMARK INTER + INTRA:          -5.982
REMARK INTER:                  -5.955
REMARK INTRA:                  -0.027
REMARK UNBOUND:                -0.036
REMARK SMILES O=C([O-])c1ccc(O)cc1
REMARK SMILES IDX 4 1 5 2 10 3 6 4 9 5 7 6 2 7 1 8 3 9 8 10
REMARK H PARENT 8 11
REMARK Flexibility Score: inf
ROOT
ATOM      1  C   UNL     1      13.193  51.447  -5.492  1.00  0.00    -0.003 A 
ATOM      2  C   UNL     1      12.576  50.236  -5.853  1.00  0.00     0.014 A 
ATOM      3  C   UNL     1      13.311  51.772  -4.127  1.00  0.00     0.014 A 
ATOM      4  C   UNL     1      12.086  49.370  -4.870  1.00  0.00     0.047 A 
ATOM      5  C   UNL     1      12.820  50.903  -3.148  1.00  0.00     0.047 A 
ATOM      6  C   UNL     1      12.206  49.699  -3.517  1.00  0.00     0.115 A 
ENDROOT
BRANCH   1   7
ATOM      7  C   UNL     1      13.710  52.362  -6.533  1.00  0.00     0.071 C 
ATOM      8  O   UNL     1      14.900  52.263  -6.939  1.00  0.00    -0.545 OA
ATOM      9  O   UNL     1      12.892  53.344  -7.077  1.00  0.00    -0.545 OA
ENDBRANCH   1   7
BRANCH   6  10
ATOM     10  O   UNL     1      11.715  48.826  -2.550  1.00  0.00    -0.508 OA
ATOM     11  H   UNL     1      10.720  48.722  -2.387  1.00  0.00     0.293 HD
ENDBRANCH   6  10
TORSDOF 2
ENDMDL
MODEL 5
REMARK VINA RESULT:    -5.413     12.396     13.552
REMARK INTER + INTRA:          -5.923
REMARK INTER:                  -5.896
REMARK INTRA:                  -0.027
REMARK UNBOUND:                -0.036
REMARK SMILES O=C([O-])c1ccc(O)cc1
REMARK SMILES IDX 4 1 5 2 10 3 6 4 9 5 7 6 2 7 1 8 3 9 8 10
REMARK H PARENT 8 11
REMARK Flexibility Score: inf
ROOT
ATOM      1  C   UNL     1      11.893  56.083   7.442  1.00  0.00    -0.003 A 
ATOM      2  C   UNL     1      10.687  55.877   8.136  1.00  0.00     0.014 A 
ATOM      3  C   UNL     1      12.008  55.615   6.120  1.00  0.00     0.014 A 
ATOM      4  C   UNL     1       9.620  55.216   7.520  1.00  0.00     0.047 A 
ATOM      5  C   UNL     1      10.938  54.954   5.508  1.00  0.00     0.047 A 
ATOM      6  C   UNL     1       9.741  54.753   6.206  1.00  0.00     0.115 A 
ENDROOT
BRANCH   1   7
ATOM      7  C   UNL     1      13.021  56.783   8.096  1.00  0.00     0.071 C 
ATOM      8  O   UNL     1      13.800  56.160   8.867  1.00  0.00    -0.545 OA
ATOM      9  O   UNL     1      13.236  58.137   7.869  1.00  0.00    -0.545 OA
ENDBRANCH   1   7
BRANCH   6  10
ATOM     10  O   UNL     1       8.669  54.098   5.606  1.00  0.00    -0.508 OA
ATOM     11  H   UNL     1       7.858  54.605   5.272  1.00  0.00     0.293 HD
ENDBRANCH   6  10
TORSDOF 2
ENDMDL
MODEL 6
REMARK VINA RESULT:    -5.402      1.811      2.214
REMARK INTER + INTRA:          -5.911
REMARK INTER:                  -5.884
REMARK INTRA:                  -0.027
REMARK UNBOUND:                -0.036
REMARK SMILES O=C([O-])c1ccc(O)cc1
REMARK SMILES IDX 4 1 5 2 10 3 6 4 9 5 7 6 2 7 1 8 3 9 8 10
REMARK H PARENT 8 11
REMARK Flexibility Score: inf
ROOT
ATOM      1  C   UNL     1      13.034  51.116  -4.166  1.00  0.00    -0.003 A 
ATOM      2  C   UNL     1      12.848  50.772  -5.517  1.00  0.00     0.014 A 
ATOM      3  C   UNL     1      12.523  50.265  -3.169  1.00  0.00     0.014 A 
ATOM      4  C   UNL     1      12.163  49.603  -5.863  1.00  0.00     0.047 A 
ATOM      5  C   UNL     1      11.839  49.096  -3.519  1.00  0.00     0.047 A 
ATOM      6  C   UNL     1      11.658  48.762  -4.867  1.00  0.00     0.115 A 
ENDROOT
BRANCH   1   7
ATOM      7  C   UNL     1      13.759  52.354  -3.803  1.00  0.00     0.071 C 
ATOM      8  O   UNL     1      13.125  53.401  -3.498  1.00  0.00    -0.545 OA
ATOM      9  O   UNL     1      15.148  52.380  -3.795  1.00  0.00    -0.545 OA
ENDBRANCH   1   7
BRANCH   6  10
ATOM     10  O   UNL     1      10.979  47.600  -5.226  1.00  0.00    -0.508 OA
ATOM     11  H   UNL     1      11.041  47.219  -6.163  1.00  0.00     0.293 HD
ENDBRANCH   6  10
TORSDOF 2
ENDMDL
MODEL 7
REMARK VINA RESULT:    -5.314      1.192      4.261
REMARK INTER + INTRA:          -5.816
REMARK INTER:                  -5.780
REMARK INTRA:                  -0.036
REMARK UNBOUND:                -0.036
REMARK SMILES O=C([O-])c1ccc(O)cc1
REMARK SMILES IDX 4 1 5 2 10 3 6 4 9 5 7 6 2 7 1 8 3 9 8 10
REMARK H PARENT 8 11
REMARK Flexibility Score: inf
ROOT
ATOM      1  C   UNL     1      12.077  49.552  -4.084  1.00  0.00    -0.003 A 
ATOM      2  C   UNL     1      12.211  49.734  -5.472  1.00  0.00     0.014 A 
ATOM      3  C   UNL     1      12.662  50.492  -3.214  1.00  0.00     0.014 A 
ATOM      4  C   UNL     1      12.915  50.831  -5.978  1.00  0.00     0.047 A 
ATOM      5  C   UNL     1      13.365  51.588  -3.725  1.00  0.00     0.047 A 
ATOM      6  C   UNL     1      13.493  51.760  -5.108  1.00  0.00     0.115 A 
ENDROOT
BRANCH   1   7
ATOM      7  C   UNL     1      11.332  48.391  -3.551  1.00  0.00     0.071 C 
ATOM      8  O   UNL     1      11.243  48.203  -2.307  1.00  0.00    -0.545 OA
ATOM      9  O   UNL     1      10.720  47.490  -4.414  1.00  0.00    -0.545 OA
ENDBRANCH   1   7
BRANCH   6  10
ATOM     10  O   UNL     1      14.191  52.848  -5.627  1.00  0.00    -0.508 OA
ATOM     11  H   UNL     1      15.050  53.177  -5.203  1.00  0.00     0.293 HD
ENDBRANCH   6  10
TORSDOF 2
ENDMDL
MODEL 8
REMARK VINA RESULT:    -5.313     11.196     12.332
REMARK INTER + INTRA:          -5.815
REMARK INTER:                  -5.781
REMARK INTRA:                  -0.034
REMARK UNBOUND:                -0.036
REMARK SMILES O=C([O-])c1ccc(O)cc1
REMARK SMILES IDX 4 1 5 2 10 3 6 4 9 5 7 6 2 7 1 8 3 9 8 10
REMARK H PARENT 8 11
REMARK Flexibility Score: inf
ROOT
ATOM      1  C   UNL     1      10.178  55.302   5.223  1.00  0.00    -0.003 A 
ATOM      2  C   UNL     1      11.495  55.660   4.881  1.00  0.00     0.014 A 
ATOM      3  C   UNL     1       9.848  55.134   6.581  1.00  0.00     0.014 A 
ATOM      4  C   UNL     1      12.459  55.845   5.876  1.00  0.00     0.047 A 
ATOM      5  C   UNL     1      10.816  55.320   7.573  1.00  0.00     0.047 A 
ATOM      6  C   UNL     1      12.124  55.676   7.223  1.00  0.00     0.115 A 
ENDROOT
BRANCH   1   7
ATOM      7  C   UNL     1       9.159  55.106   4.168  1.00  0.00     0.071 C 
ATOM      8  O   UNL     1       9.494  54.709   3.020  1.00  0.00    -0.545 OA
ATOM      9  O   UNL     1       7.818  55.359   4.430  1.00  0.00    -0.545 OA
ENDBRANCH   1   7
BRANCH   6  10
ATOM     10  O   UNL     1      13.096  55.865   8.203  1.00  0.00    -0.508 OA
ATOM     11  H   UNL     1      13.606  56.737   8.281  1.00  0.00     0.293 HD
ENDBRANCH   6  10
TORSDOF 2
ENDMDL
MODEL 9
REMARK VINA RESULT:    -5.240     10.285     11.663
REMARK INTER + INTRA:          -5.735
REMARK INTER:                  -5.699
REMARK INTRA:                  -0.036
REMARK UNBOUND:                -0.036
REMARK SMILES O=C([O-])c1ccc(O)cc1
REMARK SMILES IDX 4 1 5 2 10 3 6 4 9 5 7 6 2 7 1 8 3 9 8 10
REMARK H PARENT 8 11
REMARK Flexibility Score: inf
ROOT
ATOM      1  C   UNL     1      10.714  55.404   5.240  1.00  0.00    -0.003 A 
ATOM      2  C   UNL     1       9.518  55.415   4.500  1.00  0.00     0.014 A 
ATOM      3  C   UNL     1      11.936  55.563   4.560  1.00  0.00     0.014 A 
ATOM      4  C   UNL     1       9.544  55.581   3.112  1.00  0.00     0.047 A 
ATOM      5  C   UNL     1      11.958  55.729   3.172  1.00  0.00     0.047 A 
ATOM      6  C   UNL     1      10.761  55.739   2.445  1.00  0.00     0.115 A 
ENDROOT
BRANCH   1   7
ATOM      7  C   UNL     1      10.684  55.228   6.708  1.00  0.00     0.071 C 
ATOM      8  O   UNL     1      11.750  55.265   7.380  1.00  0.00    -0.545 OA
ATOM      9  O   UNL     1       9.478  55.017   7.367  1.00  0.00    -0.545 OA
ENDBRANCH   1   7
BRANCH   6  10
ATOM     10  O   UNL     1      10.772  55.904   1.062  1.00  0.00    -0.508 OA
ATOM     11  H   UNL     1      10.064  55.481   0.472  1.00  0.00     0.293 HD
ENDBRANCH   6  10
TORSDOF 2
ENDMDL
