MODEL 1
REMARK VINA RESULT:    -4.625      0.000      0.000
REMARK INTER + INTRA:          -8.843
REMARK INTER:                  -7.329
REMARK INTRA:                  -1.514
REMARK UNBOUND:                -1.514
REMARK SMILES CCCCCCCCCCCC(=O)[O-]
REMARK SMILES IDX 7 1 8 2 9 3 10 4 11 5 12 6 13 7 14 8 6 9 5 10 4 11 3 12 2 13
REMARK SMILES IDX 1 14
REMARK H PARENT
REMARK Flexibility Score: inf
ROOT
ATOM      1  C   UNL     1       3.807   2.837  14.391  1.00  0.00     0.000 C 
ENDROOT
BRANCH   1   2
ATOM      2  C   UNL     1       4.502   3.038  15.746  1.00  0.00     0.000 C 
BRANCH   2   3
ATOM      3  C   UNL     1       4.326   1.832  16.686  1.00  0.00     0.000 C 
BRANCH   3   4
ATOM      4  C   UNL     1       5.631   1.044  16.885  1.00  0.00     0.006 C 
BRANCH   4   5
ATOM      5  C   UNL     1       5.385  -0.410  17.306  1.00  0.00     0.053 C 
BRANCH   5   6
ATOM      6  C   UNL     1       5.549  -0.559  18.787  1.00  0.00     0.041 C 
ATOM      7  O   UNL     1       6.494  -1.246  19.253  1.00  0.00    -0.550 OA
ATOM      8  O   UNL     1       4.628   0.021  19.649  1.00  0.00    -0.550 OA
ENDBRANCH   5   6
ENDBRANCH   4   5
ENDBRANCH   3   4
ENDBRANCH   2   3
ENDBRANCH   1   2
BRANCH   1   9
ATOM      9  C   UNL     1       4.784   2.430  13.277  1.00  0.00     0.000 C 
BRANCH   9  10
ATOM     10  C   UNL     1       4.911   0.903  13.189  1.00  0.00    -0.000 C 
BRANCH  10  11
ATOM     11  C   UNL     1       3.536   0.230  13.303  1.00  0.00    -0.000 C 
BRANCH  11  12
ATOM     12  C   UNL     1       3.538  -0.982  14.254  1.00  0.00    -0.000 C 
BRANCH  12  13
ATOM     13  C   UNL     1       2.241  -1.174  15.059  1.00  0.00    -0.003 C 
ATOM     14  C   UNL     1       1.384   0.090  15.122  1.00  0.00     0.004 C 
ENDBRANCH  12  13
ENDBRANCH  11  12
ENDBRANCH  10  11
ENDBRANCH   9  10
ENDBRANCH   1   9
TORSDOF 10
ENDMDL
MODEL 2
REMARK VINA RESULT:    -4.560      1.187      2.320
REMARK INTER + INTRA:          -8.740
REMARK INTER:                  -7.196
REMARK INTRA:                  -1.544
REMARK UNBOUND:                -1.514
REMARK SMILES CCCCCCCCCCCC(=O)[O-]
REMARK SMILES IDX 7 1 8 2 9 3 10 4 11 5 12 6 13 7 14 8 6 9 5 10 4 11 3 12 2 13
REMARK SMILES IDX 1 14
REMARK H PARENT
REMARK Flexibility Score: inf
ROOT
ATOM      1  C   UNL     1       5.918   1.093  13.367  1.00  0.00     0.000 C 
ENDROOT
BRANCH   1   2
ATOM      2  C   UNL     1       6.211   0.630  14.802  1.00  0.00     0.000 C 
BRANCH   2   3
ATOM      3  C   UNL     1       5.890  -0.859  15.020  1.00  0.00     0.000 C 
BRANCH   3   4
ATOM      4  C   UNL     1       5.380  -1.152  16.441  1.00  0.00     0.006 C 
BRANCH   4   5
ATOM      5  C   UNL     1       5.625   0.012  17.409  1.00  0.00     0.053 C 
BRANCH   5   6
ATOM      6  C   UNL     1       5.549  -0.464  18.826  1.00  0.00     0.041 C 
ATOM      7  O   UNL     1       4.641  -0.041  19.587  1.00  0.00    -0.550 OA
ATOM      8  O   UNL     1       6.511  -1.336  19.319  1.00  0.00    -0.550 OA
ENDBRANCH   5   6
ENDBRANCH   4   5
ENDBRANCH   3   4
ENDBRANCH   2   3
ENDBRANCH   1   2
BRANCH   1   9
ATOM      9  C   UNL     1       4.822   2.169  13.301  1.00  0.00     0.000 C 
BRANCH   9  10
ATOM     10  C   UNL     1       4.533   2.744  14.694  1.00  0.00    -0.000 C 
BRANCH  10  11
ATOM     11  C   UNL     1       3.038   2.644  15.031  1.00  0.00    -0.000 C 
BRANCH  11  12
ATOM     12  C   UNL     1       2.687   1.377  15.832  1.00  0.00    -0.000 C 
BRANCH  12  13
ATOM     13  C   UNL     1       1.675   0.440  15.149  1.00  0.00    -0.003 C 
ATOM     14  C   UNL     1       2.314  -0.461  14.092  1.00  0.00     0.004 C 
ENDBRANCH  12  13
ENDBRANCH  11  12
ENDBRANCH  10  11
ENDBRANCH   9  10
ENDBRANCH   1   9
TORSDOF 10
ENDMDL
MODEL 3
REMARK VINA RESULT:    -4.546      2.316      4.527
REMARK INTER + INTRA:          -8.717
REMARK INTER:                  -7.543
REMARK INTRA:                  -1.174
REMARK UNBOUND:                -1.514
REMARK SMILES CCCCCCCCCCCC(=O)[O-]
REMARK SMILES IDX 7 1 8 2 9 3 10 4 11 5 12 6 13 7 14 8 6 9 5 10 4 11 3 12 2 13
REMARK SMILES IDX 1 14
REMARK H PARENT
REMARK Flexibility Score: inf
ROOT
ATOM      1  C   UNL     1       4.173   2.764  14.355  1.00  0.00     0.000 C 
ENDROOT
BRANCH   1   2
ATOM      2  C   UNL     1       4.728   1.396  13.930  1.00  0.00     0.000 C 
BRANCH   2   3
ATOM      3  C   UNL     1       3.635   0.455  13.393  1.00  0.00     0.000 C 
BRANCH   3   4
ATOM      4  C   UNL     1       3.672  -0.932  14.056  1.00  0.00     0.006 C 
BRANCH   4   5
ATOM      5  C   UNL     1       2.917  -0.969  15.391  1.00  0.00     0.053 C 
BRANCH   5   6
ATOM      6  C   UNL     1       1.645  -0.187  15.292  1.00  0.00     0.041 C 
ATOM      7  O   UNL     1       1.464   0.821  16.023  1.00  0.00    -0.550 OA
ATOM      8  O   UNL     1       0.639  -0.602  14.429  1.00  0.00    -0.550 OA
ENDBRANCH   5   6
ENDBRANCH   4   5
ENDBRANCH   3   4
ENDBRANCH   2   3
ENDBRANCH   1   2
BRANCH   1   9
ATOM      9  C   UNL     1       4.373   3.046  15.853  1.00  0.00     0.000 C 
BRANCH   9  10
ATOM     10  C   UNL     1       4.857   1.790  16.589  1.00  0.00    -0.000 C 
BRANCH  10  11
ATOM     11  C   UNL     1       4.292   1.736  18.015  1.00  0.00    -0.000 C 
BRANCH  11  12
ATOM     12  C   UNL     1       4.813   0.531  18.822  1.00  0.00    -0.000 C 
BRANCH  12  13
ATOM     13  C   UNL     1       5.547  -0.535  17.989  1.00  0.00    -0.003 C 
ATOM     14  C   UNL     1       6.362  -1.504  18.845  1.00  0.00     0.004 C 
ENDBRANCH  12  13
ENDBRANCH  11  12
ENDBRANCH  10  11
ENDBRANCH   9  10
ENDBRANCH   1   9
TORSDOF 10
ENDMDL
MODEL 4
REMARK VINA RESULT:    -4.496      1.248      2.298
REMARK INTER + INTRA:          -8.638
REMARK INTER:                  -7.106
REMARK INTRA:                  -1.532
REMARK UNBOUND:                -1.514
REMARK SMILES CCCCCCCCCCCC(=O)[O-]
REMARK SMILES IDX 7 1 8 2 9 3 10 4 11 5 12 6 13 7 14 8 6 9 5 10 4 11 3 12 2 13
REMARK SMILES IDX 1 14
REMARK H PARENT
REMARK Flexibility Score: inf
ROOT
ATOM      1  C   UNL     1       2.861   2.157  14.944  1.00  0.00     0.000 C 
ENDROOT
BRANCH   1   2
ATOM      2  C   UNL     1       3.202   1.411  16.243  1.00  0.00     0.000 C 
BRANCH   2   3
ATOM      3  C   UNL     1       4.484   1.940  16.911  1.00  0.00     0.000 C 
BRANCH   3   4
ATOM      4  C   UNL     1       5.644   0.934  16.843  1.00  0.00     0.006 C 
BRANCH   4   5
ATOM      5  C   UNL     1       5.234  -0.473  17.296  1.00  0.00     0.053 C 
BRANCH   5   6
ATOM      6  C   UNL     1       5.461  -0.633  18.767  1.00  0.00     0.041 C 
ATOM      7  O   UNL     1       4.736  -0.016  19.590  1.00  0.00    -0.550 OA
ATOM      8  O   UNL     1       6.505  -1.425  19.227  1.00  0.00    -0.550 OA
ENDBRANCH   5   6
ENDBRANCH   4   5
ENDBRANCH   3   4
ENDBRANCH   2   3
ENDBRANCH   1   2
BRANCH   1   9
ATOM      9  C   UNL     1       3.730   3.407  14.731  1.00  0.00     0.000 C 
BRANCH   9  10
ATOM     10  C   UNL     1       4.523   3.308  13.422  1.00  0.00    -0.000 C 
BRANCH  10  11
ATOM     11  C   UNL     1       4.599   1.854  12.933  1.00  0.00    -0.000 C 
BRANCH  11  12
ATOM     12  C   UNL     1       5.976   1.210  13.176  1.00  0.00    -0.000 C 
BRANCH  12  13
ATOM     13  C   UNL     1       5.961  -0.324  13.298  1.00  0.00    -0.003 C 
ATOM     14  C   UNL     1       4.573  -0.884  13.609  1.00  0.00     0.004 C 
ENDBRANCH  12  13
ENDBRANCH  11  12
ENDBRANCH  10  11
ENDBRANCH   9  10
ENDBRANCH   1   9
TORSDOF 10
ENDMDL
MODEL 5
REMARK VINA RESULT:    -4.393      1.350      2.788
REMARK INTER + INTRA:          -8.476
REMARK INTER:                  -7.019
REMARK INTRA:                  -1.457
REMARK UNBOUND:                -1.514
REMARK SMILES CCCCCCCCCCCC(=O)[O-]
REMARK SMILES IDX 7 1 8 2 9 3 10 4 11 5 12 6 13 7 14 8 6 9 5 10 4 11 3 12 2 13
REMARK SMILES IDX 1 14
REMARK H PARENT
REMARK Flexibility Score: inf
ROOT
ATOM      1  C   UNL     1       4.487   0.556  12.935  1.00  0.00     0.000 C 
ENDROOT
BRANCH   1   2
ATOM      2  C   UNL     1       4.795  -0.693  13.775  1.00  0.00     0.000 C 
BRANCH   2   3
ATOM      3  C   UNL     1       5.842  -0.426  14.870  1.00  0.00     0.000 C 
BRANCH   3   4
ATOM      4  C   UNL     1       5.859  -1.520  15.950  1.00  0.00     0.006 C 
BRANCH   4   5
ATOM      5  C   UNL     1       4.774  -1.318  17.014  1.00  0.00     0.053 C 
BRANCH   5   6
ATOM      6  C   UNL     1       5.394  -0.977  18.333  1.00  0.00     0.041 C 
ATOM      7  O   UNL     1       6.406  -1.606  18.738  1.00  0.00    -0.550 OA
ATOM      8  O   UNL     1       4.825   0.002  19.137  1.00  0.00    -0.550 OA
ENDBRANCH   5   6
ENDBRANCH   4   5
ENDBRANCH   3   4
ENDBRANCH   2   3
ENDBRANCH   1   2
BRANCH   1   9
ATOM      9  C   UNL     1       5.516   1.679  13.141  1.00  0.00     0.000 C 
BRANCH   9  10
ATOM     10  C   UNL     1       4.867   3.058  12.964  1.00  0.00    -0.000 C 
BRANCH  10  11
ATOM     11  C   UNL     1       3.859   3.340  14.087  1.00  0.00    -0.000 C 
BRANCH  11  12
ATOM     12  C   UNL     1       4.524   3.480  15.469  1.00  0.00    -0.000 C 
BRANCH  12  13
ATOM     13  C   UNL     1       4.143   2.386  16.483  1.00  0.00    -0.003 C 
ATOM     14  C   UNL     1       2.838   1.674  16.132  1.00  0.00     0.004 C 
ENDBRANCH  12  13
ENDBRANCH  11  12
ENDBRANCH  10  11
ENDBRANCH   9  10
ENDBRANCH   1   9
TORSDOF 10
ENDMDL
MODEL 6
REMARK VINA RESULT:    -4.392      2.565      4.425
REMARK INTER + INTRA:          -8.473
REMARK INTER:                  -7.271
REMARK INTRA:                  -1.203
REMARK UNBOUND:                -1.514
REMARK SMILES CCCCCCCCCCCC(=O)[O-]
REMARK SMILES IDX 7 1 8 2 9 3 10 4 11 5 12 6 13 7 14 8 6 9 5 10 4 11 3 12 2 13
REMARK SMILES IDX 1 14
REMARK H PARENT
REMARK Flexibility Score: inf
ROOT
ATOM      1  C   UNL     1       6.576   0.290  14.344  1.00  0.00     0.000 C 
ENDROOT
BRANCH   1   2
ATOM      2  C   UNL     1       5.641   1.298  13.657  1.00  0.00     0.000 C 
BRANCH   2   3
ATOM      3  C   UNL     1       4.797   2.102  14.663  1.00  0.00     0.000 C 
BRANCH   3   4
ATOM      4  C   UNL     1       3.286   1.930  14.436  1.00  0.00     0.006 C 
BRANCH   4   5
ATOM      5  C   UNL     1       2.864   0.458  14.356  1.00  0.00     0.053 C 
BRANCH   5   6
ATOM      6  C   UNL     1       1.614   0.231  15.147  1.00  0.00     0.041 C 
ATOM      7  O   UNL     1       1.447   0.817  16.249  1.00  0.00    -0.550 OA
ATOM      8  O   UNL     1       0.656  -0.666  14.693  1.00  0.00    -0.550 OA
ENDBRANCH   5   6
ENDBRANCH   4   5
ENDBRANCH   3   4
ENDBRANCH   2   3
ENDBRANCH   1   2
BRANCH   1   9
ATOM      9  C   UNL     1       6.188  -1.170  14.058  1.00  0.00     0.000 C 
BRANCH   9  10
ATOM     10  C   UNL     1       6.212  -2.006  15.344  1.00  0.00    -0.000 C 
BRANCH  10  11
ATOM     11  C   UNL     1       5.275  -1.411  16.405  1.00  0.00    -0.000 C 
BRANCH  11  12
ATOM     12  C   UNL     1       5.853  -1.494  17.830  1.00  0.00    -0.000 C 
BRANCH  12  13
ATOM     13  C   UNL     1       5.400  -0.368  18.778  1.00  0.00    -0.003 C 
ATOM     14  C   UNL     1       4.873   0.860  18.037  1.00  0.00     0.004 C 
ENDBRANCH  12  13
ENDBRANCH  11  12
ENDBRANCH  10  11
ENDBRANCH   9  10
ENDBRANCH   1   9
TORSDOF 10
ENDMDL
MODEL 7
REMARK VINA RESULT:    -4.323      2.389      4.649
REMARK INTER + INTRA:          -8.364
REMARK INTER:                  -6.974
REMARK INTRA:                  -1.390
REMARK UNBOUND:                -1.514
REMARK SMILES CCCCCCCCCCCC(=O)[O-]
REMARK SMILES IDX 7 1 8 2 9 3 10 4 11 5 12 6 13 7 14 8 6 9 5 10 4 11 3 12 2 13
REMARK SMILES IDX 1 14
REMARK H PARENT
REMARK Flexibility Score: inf
ROOT
ATOM      1  C   UNL     1       6.255   0.281  14.180  1.00  0.00     0.000 C 
ENDROOT
BRANCH   1   2
ATOM      2  C   UNL     1       5.308  -0.453  13.217  1.00  0.00     0.000 C 
BRANCH   2   3
ATOM      3  C   UNL     1       3.825  -0.194  13.533  1.00  0.00     0.000 C 
BRANCH   3   4
ATOM      4  C   UNL     1       3.091  -1.460  14.003  1.00  0.00     0.006 C 
BRANCH   4   5
ATOM      5  C   UNL     1       2.413  -1.280  15.367  1.00  0.00     0.053 C 
BRANCH   5   6
ATOM      6  C   UNL     1       1.404  -0.175  15.305  1.00  0.00     0.041 C 
ATOM      7  O   UNL     1       1.484   0.799  16.098  1.00  0.00    -0.550 OA
ATOM      8  O   UNL     1       0.349  -0.247  14.406  1.00  0.00    -0.550 OA
ENDBRANCH   5   6
ENDBRANCH   4   5
ENDBRANCH   3   4
ENDBRANCH   2   3
ENDBRANCH   1   2
BRANCH   1   9
ATOM      9  C   UNL     1       5.894   0.052  15.656  1.00  0.00     0.000 C 
BRANCH   9  10
ATOM     10  C   UNL     1       5.914   1.372  16.438  1.00  0.00    -0.000 C 
BRANCH  10  11
ATOM     11  C   UNL     1       4.520   2.015  16.467  1.00  0.00    -0.000 C 
BRANCH  11  12
ATOM     12  C   UNL     1       4.470   3.373  15.743  1.00  0.00    -0.000 C 
BRANCH  12  13
ATOM     13  C   UNL     1       3.612   3.394  14.466  1.00  0.00    -0.003 C 
ATOM     14  C   UNL     1       4.446   3.364  13.185  1.00  0.00     0.004 C 
ENDBRANCH  12  13
ENDBRANCH  11  12
ENDBRANCH  10  11
ENDBRANCH   9  10
ENDBRANCH   1   9
TORSDOF 10
ENDMDL
MODEL 8
REMARK VINA RESULT:    -4.301      2.008      3.811
REMARK INTER + INTRA:          -8.330
REMARK INTER:                  -7.094
REMARK INTRA:                  -1.236
REMARK UNBOUND:                -1.514
REMARK SMILES CCCCCCCCCCCC(=O)[O-]
REMARK SMILES IDX 7 1 8 2 9 3 10 4 11 5 12 6 13 7 14 8 6 9 5 10 4 11 3 12 2 13
REMARK SMILES IDX 1 14
REMARK H PARENT
REMARK Flexibility Score: inf
ROOT
ATOM      1  C   UNL     1       6.170   1.112  12.953  1.00  0.00     0.000 C 
ENDROOT
BRANCH   1   2
ATOM      2  C   UNL     1       4.757   1.712  12.881  1.00  0.00     0.000 C 
BRANCH   2   3
ATOM      3  C   UNL     1       4.716   3.185  13.325  1.00  0.00     0.000 C 
BRANCH   3   4
ATOM      4  C   UNL     1       3.781   3.415  14.523  1.00  0.00     0.006 C 
BRANCH   4   5
ATOM      5  C   UNL     1       4.329   2.816  15.824  1.00  0.00     0.053 C 
BRANCH   5   6
ATOM      6  C   UNL     1       3.276   2.000  16.506  1.00  0.00     0.041 C 
ATOM      7  O   UNL     1       3.407   1.682  17.717  1.00  0.00    -0.550 OA
ATOM      8  O   UNL     1       2.175   1.549  15.791  1.00  0.00    -0.550 OA
ENDBRANCH   5   6
ENDBRANCH   4   5
ENDBRANCH   3   4
ENDBRANCH   2   3
ENDBRANCH   1   2
BRANCH   1   9
ATOM      9  C   UNL     1       6.242  -0.129  13.857  1.00  0.00     0.000 C 
BRANCH   9  10
ATOM     10  C   UNL     1       4.904  -0.879  13.869  1.00  0.00    -0.000 C 
BRANCH  10  11
ATOM     11  C   UNL     1       4.464  -1.198  15.305  1.00  0.00    -0.000 C 
BRANCH  11  12
ATOM     12  C   UNL     1       5.556  -0.895  16.348  1.00  0.00    -0.000 C 
BRANCH  12  13
ATOM     13  C   UNL     1       5.273  -1.444  17.758  1.00  0.00    -0.003 C 
ATOM     14  C   UNL     1       5.997  -0.668  18.857  1.00  0.00     0.004 C 
ENDBRANCH  12  13
ENDBRANCH  11  12
ENDBRANCH  10  11
ENDBRANCH   9  10
ENDBRANCH   1   9
TORSDOF 10
ENDMDL
MODEL 9
REMARK VINA RESULT:    -4.190      1.058      3.370
REMARK INTER + INTRA:          -8.154
REMARK INTER:                  -6.881
REMARK INTRA:                  -1.273
REMARK UNBOUND:                -1.514
REMARK SMILES CCCCCCCCCCCC(=O)[O-]
REMARK SMILES IDX 7 1 8 2 9 3 10 4 11 5 12 6 13 7 14 8 6 9 5 10 4 11 3 12 2 13
REMARK SMILES IDX 1 14
REMARK H PARENT
REMARK Flexibility Score: inf
ROOT
ATOM      1  C   UNL     1       3.225  -1.534  15.031  1.00  0.00     0.000 C 
ENDROOT
BRANCH   1   2
ATOM      2  C   UNL     1       4.580  -1.639  14.313  1.00  0.00     0.000 C 
BRANCH   2   3
ATOM      3  C   UNL     1       5.766  -1.315  15.238  1.00  0.00     0.000 C 
BRANCH   3   4
ATOM      4  C   UNL     1       5.395  -1.400  16.727  1.00  0.00     0.006 C 
BRANCH   4   5
ATOM      5  C   UNL     1       5.731  -0.115  17.495  1.00  0.00     0.053 C 
BRANCH   5   6
ATOM      6  C   UNL     1       5.589  -0.336  18.968  1.00  0.00     0.041 C 
ATOM      7  O   UNL     1       6.476  -0.966  19.602  1.00  0.00    -0.550 OA
ATOM      8  O   UNL     1       4.454   0.110  19.632  1.00  0.00    -0.550 OA
ENDBRANCH   5   6
ENDBRANCH   4   5
ENDBRANCH   3   4
ENDBRANCH   2   3
ENDBRANCH   1   2
BRANCH   1   9
ATOM      9  C   UNL     1       2.231  -0.623  14.292  1.00  0.00     0.000 C 
BRANCH   9  10
ATOM     10  C   UNL     1       1.761   0.524  15.196  1.00  0.00    -0.000 C 
BRANCH  10  11
ATOM     11  C   UNL     1       2.950   1.370  15.674  1.00  0.00    -0.000 C 
BRANCH  11  12
ATOM     12  C   UNL     1       3.021   2.747  14.988  1.00  0.00    -0.000 C 
BRANCH  12  13
ATOM     13  C   UNL     1       4.370   3.068  14.321  1.00  0.00    -0.003 C 
ATOM     14  C   UNL     1       4.891   1.927  13.447  1.00  0.00     0.004 C 
ENDBRANCH  12  13
ENDBRANCH  11  12
ENDBRANCH  10  11
ENDBRANCH   9  10
ENDBRANCH   1   9
TORSDOF 10
ENDMDL
