MODEL 1
REMARK VINA RESULT:    -4.493      0.000      0.000
REMARK INTER + INTRA:          -4.624
REMARK INTER:                  -4.624
REMARK INTRA:                   0.000
REMARK UNBOUND:                 0.000
REMARK SMILES Cc1ccccc1O
REMARK SMILES IDX 1 1 2 2 3 3 4 4 5 5 6 6 7 7 8 8
REMARK H PARENT 8 9
REMARK Flexibility Score: inf
ROOT
ATOM      1  C   UNL     1     -13.453  81.673 -13.114  1.00  0.00     0.048 C 
ATOM      2  C   UNL     1     -12.772  82.129 -11.853  1.00  0.00    -0.009 A 
ATOM      3  C   UNL     1     -11.487  81.649 -11.546  1.00  0.00     0.007 A 
ATOM      4  C   UNL     1     -10.836  82.061 -10.380  1.00  0.00     0.001 A 
ATOM      5  C   UNL     1     -11.461  82.955  -9.510  1.00  0.00     0.004 A 
ATOM      6  C   UNL     1     -12.737  83.440  -9.803  1.00  0.00     0.046 A 
ATOM      7  C   UNL     1     -13.401  83.036 -10.968  1.00  0.00     0.118 A 
ENDROOT
BRANCH   7   8
ATOM      8  O   UNL     1     -14.675  83.549 -11.217  1.00  0.00    -0.508 OA
ATOM      9  H   UNL     1     -15.101  84.267 -10.646  1.00  0.00     0.293 HD
ENDBRANCH   7   8
TORSDOF 1
ENDMDL
MODEL 2
REMARK VINA RESULT:    -4.282      0.996      2.389
REMARK INTER + INTRA:          -4.407
REMARK INTER:                  -4.407
REMARK INTRA:                   0.000
REMARK UNBOUND:                 0.000
REMARK SMILES Cc1ccccc1O
REMARK SMILES IDX 1 1 2 2 3 3 4 4 5 5 6 6 7 7 8 8
REMARK H PARENT 8 9
REMARK Flexibility Score: inf
ROOT
ATOM      1  C   UNL     1     -14.202  83.887  -9.888  1.00  0.00     0.048 C 
ATOM      2  C   UNL     1     -13.233  83.067 -10.694  1.00  0.00    -0.009 A 
ATOM      3  C   UNL     1     -11.982  82.734 -10.147  1.00  0.00     0.007 A 
ATOM      4  C   UNL     1     -11.068  81.973 -10.880  1.00  0.00     0.001 A 
ATOM      5  C   UNL     1     -11.393  81.536 -12.165  1.00  0.00     0.004 A 
ATOM      6  C   UNL     1     -12.633  81.860 -12.721  1.00  0.00     0.046 A 
ATOM      7  C   UNL     1     -13.559  82.622 -11.997  1.00  0.00     0.118 A 
ENDROOT
BRANCH   7   8
ATOM      8  O   UNL     1     -14.785  82.919 -12.596  1.00  0.00    -0.508 OA
ATOM      9  H   UNL     1     -15.214  82.327 -13.295  1.00  0.00     0.293 HD
ENDBRANCH   7   8
TORSDOF 1
ENDMDL
MODEL 3
REMARK VINA RESULT:    -3.787      2.315      2.860
REMARK INTER + INTRA:          -3.898
REMARK INTER:                  -3.898
REMARK INTRA:                   0.000
REMARK UNBOUND:                 0.000
REMARK SMILES Cc1ccccc1O
REMARK SMILES IDX 1 1 2 2 3 3 4 4 5 5 6 6 7 7 8 8
REMARK H PARENT 8 9
REMARK Flexibility Score: inf
ROOT
ATOM      1  C   UNL     1     -11.535  81.758 -12.230  1.00  0.00     0.048 C 
ATOM      2  C   UNL     1     -11.821  81.871 -10.757  1.00  0.00    -0.009 A 
ATOM      3  C   UNL     1     -13.096  81.534 -10.270  1.00  0.00     0.007 A 
ATOM      4  C   UNL     1     -13.382  81.631  -8.906  1.00  0.00     0.001 A 
ATOM      5  C   UNL     1     -12.399  82.066  -8.015  1.00  0.00     0.004 A 
ATOM      6  C   UNL     1     -11.128  82.403  -8.486  1.00  0.00     0.046 A 
ATOM      7  C   UNL     1     -10.828  82.310  -9.851  1.00  0.00     0.118 A 
ENDROOT
BRANCH   7   8
ATOM      8  O   UNL     1      -9.544  82.659 -10.271  1.00  0.00    -0.508 OA
ATOM      9  H   UNL     1      -9.172  83.595 -10.187  1.00  0.00     0.293 HD
ENDBRANCH   7   8
TORSDOF 1
ENDMDL
MODEL 4
REMARK VINA RESULT:    -3.604      1.905      3.502
REMARK INTER + INTRA:          -3.709
REMARK INTER:                  -3.709
REMARK INTRA:                   0.000
REMARK UNBOUND:                 0.000
REMARK SMILES Cc1ccccc1O
REMARK SMILES IDX 1 1 2 2 3 3 4 4 5 5 6 6 7 7 8 8
REMARK H PARENT 8 9
REMARK Flexibility Score: inf
ROOT
ATOM      1  C   UNL     1     -12.279  83.528  -8.825  1.00  0.00     0.048 C 
ATOM      2  C   UNL     1     -12.378  82.902 -10.189  1.00  0.00    -0.009 A 
ATOM      3  C   UNL     1     -13.541  83.088 -10.956  1.00  0.00     0.007 A 
ATOM      4  C   UNL     1     -13.652  82.515 -12.225  1.00  0.00     0.001 A 
ATOM      5  C   UNL     1     -12.605  81.751 -12.742  1.00  0.00     0.004 A 
ATOM      6  C   UNL     1     -11.443  81.558 -11.990  1.00  0.00     0.046 A 
ATOM      7  C   UNL     1     -11.319  82.127 -10.717  1.00  0.00     0.118 A 
ENDROOT
BRANCH   7   8
ATOM      8  O   UNL     1     -10.138  81.905 -10.005  1.00  0.00    -0.508 OA
ATOM      9  H   UNL     1     -10.102  81.360  -9.153  1.00  0.00     0.293 HD
ENDBRANCH   7   8
TORSDOF 1
ENDMDL
MODEL 5
REMARK VINA RESULT:    -3.540      8.238      9.658
REMARK INTER + INTRA:          -3.644
REMARK INTER:                  -3.644
REMARK INTRA:                   0.000
REMARK UNBOUND:                 0.000
REMARK SMILES Cc1ccccc1O
REMARK SMILES IDX 1 1 2 2 3 3 4 4 5 5 6 6 7 7 8 8
REMARK H PARENT 8 9
REMARK Flexibility Score: inf
ROOT
ATOM      1  C   UNL     1      -2.809  86.281  -8.212  1.00  0.00     0.048 C 
ATOM      2  C   UNL     1      -3.657  85.206  -8.835  1.00  0.00    -0.009 A 
ATOM      3  C   UNL     1      -4.842  85.558  -9.504  1.00  0.00     0.007 A 
ATOM      4  C   UNL     1      -5.644  84.575 -10.090  1.00  0.00     0.001 A 
ATOM      5  C   UNL     1      -5.271  83.232 -10.013  1.00  0.00     0.004 A 
ATOM      6  C   UNL     1      -4.096  82.869  -9.352  1.00  0.00     0.046 A 
ATOM      7  C   UNL     1      -3.283  83.844  -8.760  1.00  0.00     0.118 A 
ENDROOT
BRANCH   7   8
ATOM      8  O   UNL     1      -2.119  83.431  -8.110  1.00  0.00    -0.508 OA
ATOM      9  H   UNL     1      -2.126  82.824  -7.301  1.00  0.00     0.293 HD
ENDBRANCH   7   8
TORSDOF 1
ENDMDL
MODEL 6
REMARK VINA RESULT:    -3.526      8.182      9.474
REMARK INTER + INTRA:          -3.629
REMARK INTER:                  -3.629
REMARK INTRA:                   0.000
REMARK UNBOUND:                 0.000
REMARK SMILES Cc1ccccc1O
REMARK SMILES IDX 1 1 2 2 3 3 4 4 5 5 6 6 7 7 8 8
REMARK H PARENT 8 9
REMARK Flexibility Score: inf
ROOT
ATOM      1  C   UNL     1      -2.613  82.114  -8.719  1.00  0.00     0.048 C 
ATOM      2  C   UNL     1      -3.530  83.244  -9.098  1.00  0.00    -0.009 A 
ATOM      3  C   UNL     1      -4.691  82.976  -9.844  1.00  0.00     0.007 A 
ATOM      4  C   UNL     1      -5.556  84.012 -10.206  1.00  0.00     0.001 A 
ATOM      5  C   UNL     1      -5.272  85.325  -9.827  1.00  0.00     0.004 A 
ATOM      6  C   UNL     1      -4.122  85.605  -9.085  1.00  0.00     0.046 A 
ATOM      7  C   UNL     1      -3.246  84.576  -8.716  1.00  0.00     0.118 A 
ENDROOT
BRANCH   7   8
ATOM      8  O   UNL     1      -2.111  84.908  -7.975  1.00  0.00    -0.508 OA
ATOM      9  H   UNL     1      -1.811  85.862  -7.824  1.00  0.00     0.293 HD
ENDBRANCH   7   8
TORSDOF 1
ENDMDL
MODEL 7
REMARK VINA RESULT:    -3.524      7.806      8.942
REMARK INTER + INTRA:          -3.627
REMARK INTER:                  -3.627
REMARK INTRA:                   0.000
REMARK UNBOUND:                 0.000
REMARK SMILES Cc1ccccc1O
REMARK SMILES IDX 1 1 2 2 3 3 4 4 5 5 6 6 7 7 8 8
REMARK H PARENT 8 9
REMARK Flexibility Score: inf
ROOT
ATOM      1  C   UNL     1      -3.248  82.204  -8.702  1.00  0.00     0.048 C 
ATOM      2  C   UNL     1      -3.800  83.568  -9.012  1.00  0.00    -0.009 A 
ATOM      3  C   UNL     1      -3.179  84.708  -8.471  1.00  0.00     0.007 A 
ATOM      4  C   UNL     1      -3.676  85.984  -8.747  1.00  0.00     0.001 A 
ATOM      5  C   UNL     1      -4.796  86.136  -9.566  1.00  0.00     0.004 A 
ATOM      6  C   UNL     1      -5.422  85.013 -10.110  1.00  0.00     0.046 A 
ATOM      7  C   UNL     1      -4.935  83.728  -9.842  1.00  0.00     0.118 A 
ENDROOT
BRANCH   7   8
ATOM      8  O   UNL     1      -5.595  82.637 -10.409  1.00  0.00    -0.508 OA
ATOM      9  H   UNL     1      -5.267  81.684 -10.317  1.00  0.00     0.293 HD
ENDBRANCH   7   8
TORSDOF 1
ENDMDL
MODEL 8
REMARK VINA RESULT:    -3.486      2.119      3.442
REMARK INTER + INTRA:          -3.588
REMARK INTER:                  -3.588
REMARK INTRA:                   0.000
REMARK UNBOUND:                 0.000
REMARK SMILES Cc1ccccc1O
REMARK SMILES IDX 1 1 2 2 3 3 4 4 5 5 6 6 7 7 8 8
REMARK H PARENT 8 9
REMARK Flexibility Score: inf
ROOT
ATOM      1  C   UNL     1      -9.341  82.855  -9.472  1.00  0.00     0.048 C 
ATOM      2  C   UNL     1     -10.770  82.386  -9.480  1.00  0.00    -0.009 A 
ATOM      3  C   UNL     1     -11.494  82.347  -8.276  1.00  0.00     0.007 A 
ATOM      4  C   UNL     1     -12.823  81.915  -8.262  1.00  0.00     0.001 A 
ATOM      5  C   UNL     1     -13.441  81.517  -9.448  1.00  0.00     0.004 A 
ATOM      6  C   UNL     1     -12.733  81.551 -10.652  1.00  0.00     0.046 A 
ATOM      7  C   UNL     1     -11.401  81.982 -10.680  1.00  0.00     0.118 A 
ENDROOT
BRANCH   7   8
ATOM      8  O   UNL     1     -10.736  81.998 -11.907  1.00  0.00    -0.508 OA
ATOM      9  H   UNL     1      -9.913  82.560 -12.081  1.00  0.00     0.293 HD
ENDBRANCH   7   8
TORSDOF 1
ENDMDL
MODEL 9
REMARK VINA RESULT:    -3.442      7.446      8.763
REMARK INTER + INTRA:          -3.542
REMARK INTER:                  -3.542
REMARK INTRA:                   0.000
REMARK UNBOUND:                 0.000
REMARK SMILES Cc1ccccc1O
REMARK SMILES IDX 1 1 2 2 3 3 4 4 5 5 6 6 7 7 8 8
REMARK H PARENT 8 9
REMARK Flexibility Score: inf
ROOT
ATOM      1  C   UNL     1      -2.775  81.565  -8.092  1.00  0.00     0.048 C 
ATOM      2  C   UNL     1      -4.004  82.381  -8.382  1.00  0.00    -0.009 A 
ATOM      3  C   UNL     1      -4.832  82.790  -7.321  1.00  0.00     0.007 A 
ATOM      4  C   UNL     1      -5.978  83.549  -7.569  1.00  0.00     0.001 A 
ATOM      5  C   UNL     1      -6.310  83.907  -8.877  1.00  0.00     0.004 A 
ATOM      6  C   UNL     1      -5.497  83.508  -9.939  1.00  0.00     0.046 A 
ATOM      7  C   UNL     1      -4.345  82.747  -9.705  1.00  0.00     0.118 A 
ENDROOT
BRANCH   7   8
ATOM      8  O   UNL     1      -3.564  82.373 -10.800  1.00  0.00    -0.508 OA
ATOM      9  H   UNL     1      -3.783  82.642 -11.750  1.00  0.00     0.293 HD
ENDBRANCH   7   8
TORSDOF 1
ENDMDL
