MODEL 1
REMARK VINA RESULT:    -5.093      0.000      0.000
REMARK INTER + INTRA:          -5.093
REMARK INTER:                  -5.093
REMARK INTRA:                   0.000
REMARK UNBOUND:                 0.000
REMARK SMILES CC1=CC(=O)[C@H]2C[C@@H]1C2(C)C
REMARK SMILES IDX 1 1 2 2 3 3 4 4 5 5 6 6 7 7 8 8 9 9 10 10 11 11
REMARK H PARENT
REMARK Flexibility Score: inf
ROOT
ATOM      1  C   UNL     1      -6.248   6.621  17.765  1.00  0.00     0.040 C 
ATOM      2  C   UNL     1      -6.220   5.431  16.860  1.00  0.00    -0.066 C 
ATOM      3  C   UNL     1      -5.046   4.939  16.372  1.00  0.00     0.047 C 
ATOM      4  C   UNL     1      -5.153   3.763  15.450  1.00  0.00     0.159 C 
ATOM      5  O   UNL     1      -4.146   3.242  14.905  1.00  0.00    -0.295 OA
ATOM      6  C   UNL     1      -6.571   3.241  15.218  1.00  0.00     0.067 C 
ATOM      7  C   UNL     1      -7.193   3.192  16.630  1.00  0.00     0.021 C 
ATOM      8  C   UNL     1      -7.511   4.694  16.448  1.00  0.00     0.022 C 
ATOM      9  C   UNL     1      -7.500   4.450  14.910  1.00  0.00    -0.019 C 
ATOM     10  C   UNL     1      -8.885   4.008  14.374  1.00  0.00     0.012 C 
ATOM     11  C   UNL     1      -6.960   5.582  13.991  1.00  0.00     0.012 C 
ENDROOT
TORSDOF 0
ENDMDL
MODEL 2
REMARK VINA RESULT:    -5.002      1.610      3.090
REMARK INTER + INTRA:          -5.002
REMARK INTER:                  -5.002
REMARK INTRA:                   0.000
REMARK UNBOUND:                 0.000
REMARK SMILES CC1=CC(=O)[C@H]2C[C@@H]1C2(C)C
REMARK SMILES IDX 1 1 2 2 3 3 4 4 5 5 6 6 7 7 8 8 9 9 10 10 11 11
REMARK H PARENT
REMARK Flexibility Score: inf
ROOT
ATOM      1  C   UNL     1      -9.244   3.889  14.537  1.00  0.00     0.040 C 
ATOM      2  C   UNL     1      -7.931   4.119  15.216  1.00  0.00    -0.066 C 
ATOM      3  C   UNL     1      -7.810   5.010  16.240  1.00  0.00     0.047 C 
ATOM      4  C   UNL     1      -6.437   5.174  16.817  1.00  0.00     0.159 C 
ATOM      5  O   UNL     1      -6.188   5.993  17.740  1.00  0.00    -0.295 OA
ATOM      6  C   UNL     1      -5.360   4.278  16.206  1.00  0.00     0.067 C 
ATOM      7  C   UNL     1      -6.022   2.884  16.135  1.00  0.00     0.021 C 
ATOM      8  C   UNL     1      -6.658   3.350  14.805  1.00  0.00     0.022 C 
ATOM      9  C   UNL     1      -5.474   4.350  14.657  1.00  0.00    -0.019 C 
ATOM     10  C   UNL     1      -4.253   3.716  13.944  1.00  0.00     0.012 C 
ATOM     11  C   UNL     1      -5.758   5.732  14.001  1.00  0.00     0.012 C 
ENDROOT
TORSDOF 0
ENDMDL
MODEL 3
REMARK VINA RESULT:    -4.793      9.162     10.645
REMARK INTER + INTRA:          -4.793
REMARK INTER:                  -4.793
REMARK INTRA:                   0.000
REMARK UNBOUND:                 0.000
REMARK SMILES CC1=CC(=O)[C@H]2C[C@@H]1C2(C)C
REMARK SMILES IDX 1 1 2 2 3 3 4 4 5 5 6 6 7 7 8 8 9 9 10 10 11 11
REMARK H PARENT
REMARK Flexibility Score: inf
ROOT
ATOM      1  C   UNL     1      -5.504  -4.882   9.687  1.00  0.00     0.040 C 
ATOM      2  C   UNL     1      -4.173  -4.252   9.948  1.00  0.00    -0.066 C 
ATOM      3  C   UNL     1      -3.620  -4.253  11.193  1.00  0.00     0.047 C 
ATOM      4  C   UNL     1      -2.297  -3.563  11.332  1.00  0.00     0.159 C 
ATOM      5  O   UNL     1      -1.704  -3.463  12.437  1.00  0.00    -0.295 OA
ATOM      6  C   UNL     1      -1.720  -2.989  10.038  1.00  0.00     0.067 C 
ATOM      7  C   UNL     1      -1.913  -4.119   9.003  1.00  0.00     0.021 C 
ATOM      8  C   UNL     1      -3.354  -3.588   8.821  1.00  0.00     0.022 C 
ATOM      9  C   UNL     1      -2.841  -2.200   9.303  1.00  0.00    -0.019 C 
ATOM     10  C   UNL     1      -2.289  -1.339   8.138  1.00  0.00     0.012 C 
ATOM     11  C   UNL     1      -3.799  -1.316  10.150  1.00  0.00     0.012 C 
ENDROOT
TORSDOF 0
ENDMDL
MODEL 4
REMARK VINA RESULT:    -4.706      1.810      2.966
REMARK INTER + INTRA:          -4.706
REMARK INTER:                  -4.706
REMARK INTRA:                   0.000
REMARK UNBOUND:                 0.000
REMARK SMILES CC1=CC(=O)[C@H]2C[C@@H]1C2(C)C
REMARK SMILES IDX 1 1 2 2 3 3 4 4 5 5 6 6 7 7 8 8 9 9 10 10 11 11
REMARK H PARENT
REMARK Flexibility Score: inf
ROOT
ATOM      1  C   UNL     1      -6.033   6.628  17.733  1.00  0.00     0.040 C 
ATOM      2  C   UNL     1      -6.533   5.763  16.620  1.00  0.00    -0.066 C 
ATOM      3  C   UNL     1      -7.715   5.092  16.720  1.00  0.00     0.047 C 
ATOM      4  C   UNL     1      -8.091   4.234  15.551  1.00  0.00     0.159 C 
ATOM      5  O   UNL     1      -9.138   3.536  15.538  1.00  0.00    -0.295 OA
ATOM      6  C   UNL     1      -7.113   4.265  14.376  1.00  0.00     0.067 C 
ATOM      7  C   UNL     1      -6.800   5.765  14.182  1.00  0.00     0.021 C 
ATOM      8  C   UNL     1      -5.747   5.601  15.302  1.00  0.00     0.022 C 
ATOM      9  C   UNL     1      -5.670   4.092  14.928  1.00  0.00    -0.019 C 
ATOM     10  C   UNL     1      -4.637   3.815  13.805  1.00  0.00     0.012 C 
ATOM     11  C   UNL     1      -5.434   3.063  16.070  1.00  0.00     0.012 C 
ENDROOT
TORSDOF 0
ENDMDL
MODEL 5
REMARK VINA RESULT:    -4.693      9.195     10.588
REMARK INTER + INTRA:          -4.693
REMARK INTER:                  -4.693
REMARK INTRA:                   0.000
REMARK UNBOUND:                 0.000
REMARK SMILES CC1=CC(=O)[C@H]2C[C@@H]1C2(C)C
REMARK SMILES IDX 1 1 2 2 3 3 4 4 5 5 6 6 7 7 8 8 9 9 10 10 11 11
REMARK H PARENT
REMARK Flexibility Score: inf
ROOT
ATOM      1  C   UNL     1      -1.387  -3.499  12.413  1.00  0.00     0.040 C 
ATOM      2  C   UNL     1      -2.316  -3.288  11.260  1.00  0.00    -0.066 C 
ATOM      3  C   UNL     1      -3.365  -4.128  11.032  1.00  0.00     0.047 C 
ATOM      4  C   UNL     1      -4.204  -3.829   9.828  1.00  0.00     0.159 C 
ATOM      5  O   UNL     1      -5.177  -4.552   9.490  1.00  0.00    -0.295 OA
ATOM      6  C   UNL     1      -3.795  -2.586   9.038  1.00  0.00     0.067 C 
ATOM      7  C   UNL     1      -3.561  -1.509  10.120  1.00  0.00     0.021 C 
ATOM      8  C   UNL     1      -2.144  -2.105  10.284  1.00  0.00     0.022 C 
ATOM      9  C   UNL     1      -2.255  -2.622   8.819  1.00  0.00    -0.019 C 
ATOM     10  C   UNL     1      -1.781  -1.569   7.786  1.00  0.00     0.012 C 
ATOM     11  C   UNL     1      -1.590  -3.983   8.468  1.00  0.00     0.012 C 
ENDROOT
TORSDOF 0
ENDMDL
MODEL 6
REMARK VINA RESULT:    -4.583      8.890     10.324
REMARK INTER + INTRA:          -4.583
REMARK INTER:                  -4.583
REMARK INTRA:                   0.000
REMARK UNBOUND:                 0.000
REMARK SMILES CC1=CC(=O)[C@H]2C[C@@H]1C2(C)C
REMARK SMILES IDX 1 1 2 2 3 3 4 4 5 5 6 6 7 7 8 8 9 9 10 10 11 11
REMARK H PARENT
REMARK Flexibility Score: inf
ROOT
ATOM      1  C   UNL     1      -0.847  -2.715   7.726  1.00  0.00     0.040 C 
ATOM      2  C   UNL     1      -1.877  -2.874   8.799  1.00  0.00    -0.066 C 
ATOM      3  C   UNL     1      -2.734  -3.933   8.806  1.00  0.00     0.047 C 
ATOM      4  C   UNL     1      -3.740  -3.964   9.916  1.00  0.00     0.159 C 
ATOM      5  O   UNL     1      -4.610  -4.868  10.010  1.00  0.00    -0.295 OA
ATOM      6  C   UNL     1      -3.637  -2.819  10.924  1.00  0.00     0.067 C 
ATOM      7  C   UNL     1      -2.128  -2.722  11.233  1.00  0.00     0.021 C 
ATOM      8  C   UNL     1      -2.009  -1.861   9.955  1.00  0.00     0.022 C 
ATOM      9  C   UNL     1      -3.507  -1.481  10.142  1.00  0.00    -0.019 C 
ATOM     10  C   UNL     1      -3.691  -0.243  11.056  1.00  0.00     0.012 C 
ATOM     11  C   UNL     1      -4.378  -1.280   8.869  1.00  0.00     0.012 C 
ENDROOT
TORSDOF 0
ENDMDL
MODEL 7
REMARK VINA RESULT:    -4.553      1.943      3.005
REMARK INTER + INTRA:          -4.553
REMARK INTER:                  -4.553
REMARK INTRA:                   0.000
REMARK UNBOUND:                 0.000
REMARK SMILES CC1=CC(=O)[C@H]2C[C@@H]1C2(C)C
REMARK SMILES IDX 1 1 2 2 3 3 4 4 5 5 6 6 7 7 8 8 9 9 10 10 11 11
REMARK H PARENT
REMARK Flexibility Score: inf
ROOT
ATOM      1  C   UNL     1      -2.300   3.247  16.099  1.00  0.00     0.040 C 
ATOM      2  C   UNL     1      -3.648   3.025  15.490  1.00  0.00    -0.066 C 
ATOM      3  C   UNL     1      -3.855   2.046  14.566  1.00  0.00     0.047 C 
ATOM      4  C   UNL     1      -5.242   1.944  14.007  1.00  0.00     0.159 C 
ATOM      5  O   UNL     1      -5.550   1.106  13.120  1.00  0.00    -0.295 OA
ATOM      6  C   UNL     1      -6.255   2.930  14.589  1.00  0.00     0.067 C 
ATOM      7  C   UNL     1      -6.014   2.865  16.113  1.00  0.00     0.021 C 
ATOM      8  C   UNL     1      -4.870   3.879  15.888  1.00  0.00     0.022 C 
ATOM      9  C   UNL     1      -5.615   4.347  14.604  1.00  0.00    -0.019 C 
ATOM     10  C   UNL     1      -6.653   5.461  14.898  1.00  0.00     0.012 C 
ATOM     11  C   UNL     1      -4.763   4.787  13.379  1.00  0.00     0.012 C 
ENDROOT
TORSDOF 0
ENDMDL
MODEL 8
REMARK VINA RESULT:    -4.528      8.821     10.300
REMARK INTER + INTRA:          -4.528
REMARK INTER:                  -4.528
REMARK INTRA:                   0.000
REMARK UNBOUND:                 0.000
REMARK SMILES CC1=CC(=O)[C@H]2C[C@@H]1C2(C)C
REMARK SMILES IDX 1 1 2 2 3 3 4 4 5 5 6 6 7 7 8 8 9 9 10 10 11 11
REMARK H PARENT
REMARK Flexibility Score: inf
ROOT
ATOM      1  C   UNL     1      -0.245  -3.848  10.451  1.00  0.00     0.040 C 
ATOM      2  C   UNL     1      -1.581  -3.207  10.250  1.00  0.00    -0.066 C 
ATOM      3  C   UNL     1      -1.872  -1.990  10.788  1.00  0.00     0.047 C 
ATOM      4  C   UNL     1      -3.254  -1.468  10.541  1.00  0.00     0.159 C 
ATOM      5  O   UNL     1      -3.656  -0.375  11.017  1.00  0.00    -0.295 OA
ATOM      6  C   UNL     1      -4.143  -2.358   9.672  1.00  0.00     0.067 C 
ATOM      7  C   UNL     1      -3.234  -2.766   8.492  1.00  0.00     0.021 C 
ATOM      8  C   UNL     1      -2.688  -3.882   9.411  1.00  0.00     0.022 C 
ATOM      9  C   UNL     1      -4.035  -3.822  10.188  1.00  0.00    -0.019 C 
ATOM     10  C   UNL     1      -5.114  -4.747   9.570  1.00  0.00     0.012 C 
ATOM     11  C   UNL     1      -4.009  -4.064  11.724  1.00  0.00     0.012 C 
ENDROOT
TORSDOF 0
ENDMDL
MODEL 9
REMARK VINA RESULT:    -4.429      1.118      3.149
REMARK INTER + INTRA:          -4.429
REMARK INTER:                  -4.429
REMARK INTRA:                   0.000
REMARK UNBOUND:                 0.000
REMARK SMILES CC1=CC(=O)[C@H]2C[C@@H]1C2(C)C
REMARK SMILES IDX 1 1 2 2 3 3 4 4 5 5 6 6 7 7 8 8 9 9 10 10 11 11
REMARK H PARENT
REMARK Flexibility Score: inf
ROOT
ATOM      1  C   UNL     1      -8.887   3.988  14.478  1.00  0.00     0.040 C 
ATOM      2  C   UNL     1      -7.448   4.302  14.736  1.00  0.00    -0.066 C 
ATOM      3  C   UNL     1      -6.591   3.357  15.217  1.00  0.00     0.047 C 
ATOM      4  C   UNL     1      -5.182   3.804  15.463  1.00  0.00     0.159 C 
ATOM      5  O   UNL     1      -4.308   3.036  15.942  1.00  0.00    -0.295 OA
ATOM      6  C   UNL     1      -4.883   5.257  15.093  1.00  0.00     0.067 C 
ATOM      7  C   UNL     1      -5.534   5.436  13.704  1.00  0.00     0.021 C 
ATOM      8  C   UNL     1      -6.859   5.700  14.455  1.00  0.00     0.022 C 
ATOM      9  C   UNL     1      -6.008   6.158  15.676  1.00  0.00    -0.019 C 
ATOM     10  C   UNL     1      -5.650   7.665  15.612  1.00  0.00     0.012 C 
ATOM     11  C   UNL     1      -6.542   5.845  17.102  1.00  0.00     0.012 C 
ENDROOT
TORSDOF 0
ENDMDL
