MODEL 1
REMARK VINA RESULT:    -6.567      0.000      0.000
REMARK INTER + INTRA:          -8.233
REMARK INTER:                  -7.911
REMARK INTRA:                  -0.322
REMARK UNBOUND:                -0.322
REMARK SMILES O=c1c(O)c(-c2ccc(O)c(O)c2)oc2cc(O)cc(O)c12
REMARK SMILES IDX 5 1 3 2 2 3 1 4 22 5 20 6 19 7 17 8 16 9 15 10 14 11 6 12
REMARK SMILES IDX 7 13 8 14 9 15 13 16 11 17 10 18 12 20 4 22 21 24 18 26
REMARK H PARENT 10 19 12 21 4 23 21 25 18 27
REMARK Flexibility Score: inf
ROOT
ATOM      1  C   UNL     1      49.056  -9.422  17.302  1.00  0.00     0.180 A 
ATOM      2  C   UNL     1      49.249 -10.677  16.697  1.00  0.00     0.208 A 
ATOM      3  C   UNL     1      48.127 -11.423  16.302  1.00  0.00     0.238 A 
ATOM      4  O   UNL     1      48.305 -12.576  15.831  1.00  0.00    -0.285 OA
ATOM      5  C   UNL     1      46.828 -10.882  16.464  1.00  0.00     0.111 A 
ATOM      6  C   UNL     1      45.622 -11.530  16.058  1.00  0.00     0.134 A 
ATOM      7  C   UNL     1      44.387 -10.946  16.366  1.00  0.00     0.093 A 
ATOM      8  C   UNL     1      44.314  -9.709  17.005  1.00  0.00     0.123 A 
ATOM      9  C   UNL     1      45.488  -9.041  17.358  1.00  0.00     0.094 A 
ATOM     10  C   UNL     1      46.734  -9.616  17.099  1.00  0.00     0.146 A 
ATOM     11  O   UNL     1      47.825  -8.956  17.470  1.00  0.00    -0.452 OA
ENDROOT
BRANCH   1  12
ATOM     12  C   UNL     1      50.188  -8.584  17.758  1.00  0.00     0.025 A 
ATOM     13  C   UNL     1      50.632  -7.526  16.950  1.00  0.00     0.016 A 
ATOM     14  C   UNL     1      51.684  -6.709  17.370  1.00  0.00     0.051 A 
ATOM     15  C   UNL     1      52.298  -6.927  18.611  1.00  0.00     0.157 A 
ATOM     16  C   UNL     1      50.791  -8.788  19.012  1.00  0.00     0.062 A 
ATOM     17  C   UNL     1      51.845  -7.969  19.437  1.00  0.00     0.158 A 
BRANCH  15  18
ATOM     18  O   UNL     1      53.349  -6.112  19.027  1.00  0.00    -0.504 OA
ATOM     19  H   UNL     1      53.204  -5.134  19.253  1.00  0.00     0.293 HD
ENDBRANCH  15  18
BRANCH  17  20
ATOM     20  O   UNL     1      52.425  -8.204  20.684  1.00  0.00    -0.504 OA
ATOM     21  H   UNL     1      52.125  -8.965  21.281  1.00  0.00     0.293 HD
ENDBRANCH  17  20
ENDBRANCH   1  12
BRANCH   2  22
ATOM     22  O   UNL     1      50.542 -11.160  16.476  1.00  0.00    -0.502 OA
ATOM     23  H   UNL     1      51.333 -10.875  17.040  1.00  0.00     0.293 HD
ENDBRANCH   2  22
BRANCH   6  24
ATOM     24  O   UNL     1      45.581 -12.726  15.335  1.00  0.00    -0.507 OA
ATOM     25  H   UNL     1      44.743 -13.149  14.965  1.00  0.00     0.293 HD
ENDBRANCH   6  24
BRANCH   8  26
ATOM     26  O   UNL     1      43.068  -9.149  17.280  1.00  0.00    -0.508 OA
ATOM     27  H   UNL     1      42.457  -9.539  17.987  1.00  0.00     0.293 HD
ENDBRANCH   8  26
TORSDOF 6
ENDMDL
MODEL 2
REMARK VINA RESULT:    -6.371     11.189     12.780
REMARK INTER + INTRA:          -7.997
REMARK INTER:                  -7.844
REMARK INTRA:                  -0.153
REMARK UNBOUND:                -0.322
REMARK SMILES O=c1c(O)c(-c2ccc(O)c(O)c2)oc2cc(O)cc(O)c12
REMARK SMILES IDX 5 1 3 2 2 3 1 4 22 5 20 6 19 7 17 8 16 9 15 10 14 11 6 12
REMARK SMILES IDX 7 13 8 14 9 15 13 16 11 17 10 18 12 20 4 22 21 24 18 26
REMARK H PARENT 10 19 12 21 4 23 21 25 18 27
REMARK Flexibility Score: inf
ROOT
ATOM      1  C   UNL     1      44.494  -4.504  26.970  1.00  0.00     0.180 A 
ATOM      2  C   UNL     1      45.468  -4.491  25.956  1.00  0.00     0.208 A 
ATOM      3  C   UNL     1      45.452  -3.457  25.008  1.00  0.00     0.238 A 
ATOM      4  O   UNL     1      46.280  -3.493  24.061  1.00  0.00    -0.285 OA
ATOM      5  C   UNL     1      44.498  -2.415  25.117  1.00  0.00     0.111 A 
ATOM      6  C   UNL     1      44.418  -1.292  24.238  1.00  0.00     0.134 A 
ATOM      7  C   UNL     1      43.365  -0.379  24.380  1.00  0.00     0.093 A 
ATOM      8  C   UNL     1      42.429  -0.511  25.404  1.00  0.00     0.123 A 
ATOM      9  C   UNL     1      42.529  -1.575  26.302  1.00  0.00     0.094 A 
ATOM     10  C   UNL     1      43.546  -2.523  26.164  1.00  0.00     0.146 A 
ATOM     11  O   UNL     1      43.592  -3.531  27.027  1.00  0.00    -0.452 OA
ENDROOT
BRANCH   1  12
ATOM     12  C   UNL     1      44.437  -5.569  27.996  1.00  0.00     0.025 A 
ATOM     13  C   UNL     1      45.487  -5.694  28.919  1.00  0.00     0.016 A 
ATOM     14  C   UNL     1      45.445  -6.678  29.910  1.00  0.00     0.051 A 
ATOM     15  C   UNL     1      44.345  -7.541  30.003  1.00  0.00     0.157 A 
ATOM     16  C   UNL     1      43.325  -6.423  28.105  1.00  0.00     0.062 A 
ATOM     17  C   UNL     1      43.278  -7.409  29.098  1.00  0.00     0.158 A 
BRANCH  15  18
ATOM     18  O   UNL     1      44.306  -8.523  30.991  1.00  0.00    -0.504 OA
ATOM     19  H   UNL     1      44.438  -8.296  31.971  1.00  0.00     0.293 HD
ENDBRANCH  15  18
BRANCH  17  20
ATOM     20  O   UNL     1      42.163  -8.243  29.173  1.00  0.00    -0.504 OA
ATOM     21  H   UNL     1      41.238  -7.929  28.905  1.00  0.00     0.293 HD
ENDBRANCH  17  20
ENDBRANCH   1  12
BRANCH   2  22
ATOM     22  O   UNL     1      46.449  -5.486  25.911  1.00  0.00    -0.502 OA
ATOM     23  H   UNL     1      47.291  -5.446  26.471  1.00  0.00     0.293 HD
ENDBRANCH   2  22
BRANCH   6  24
ATOM     24  O   UNL     1      45.351  -1.013  23.235  1.00  0.00    -0.507 OA
ATOM     25  H   UNL     1      46.172  -0.441  23.353  1.00  0.00     0.293 HD
ENDBRANCH   6  24
BRANCH   8  26
ATOM     26  O   UNL     1      41.405   0.426  25.525  1.00  0.00    -0.508 OA
ATOM     27  H   UNL     1      40.574   0.235  26.071  1.00  0.00     0.293 HD
ENDBRANCH   8  26
TORSDOF 6
ENDMDL
MODEL 3
REMARK VINA RESULT:    -5.964     14.621     18.122
REMARK INTER + INTRA:          -7.506
REMARK INTER:                  -7.391
REMARK INTRA:                  -0.115
REMARK UNBOUND:                -0.322
REMARK SMILES O=c1c(O)c(-c2ccc(O)c(O)c2)oc2cc(O)cc(O)c12
REMARK SMILES IDX 5 1 3 2 2 3 1 4 22 5 20 6 19 7 17 8 16 9 15 10 14 11 6 12
REMARK SMILES IDX 7 13 8 14 9 15 13 16 11 17 10 18 12 20 4 22 21 24 18 26
REMARK H PARENT 10 19 12 21 4 23 21 25 18 27
REMARK Flexibility Score: inf
ROOT
ATOM      1  C   UNL     1      54.568   0.865  29.497  1.00  0.00     0.180 A 
ATOM      2  C   UNL     1      53.241   1.214  29.805  1.00  0.00     0.208 A 
ATOM      3  C   UNL     1      52.779   1.043  31.119  1.00  0.00     0.238 A 
ATOM      4  O   UNL     1      51.570   1.286  31.370  1.00  0.00    -0.285 OA
ATOM      5  C   UNL     1      53.664   0.579  32.123  1.00  0.00     0.111 A 
ATOM      6  C   UNL     1      53.316   0.410  33.498  1.00  0.00     0.134 A 
ATOM      7  C   UNL     1      54.244  -0.157  34.380  1.00  0.00     0.093 A 
ATOM      8  C   UNL     1      55.526  -0.501  33.955  1.00  0.00     0.123 A 
ATOM      9  C   UNL     1      55.895  -0.290  32.625  1.00  0.00     0.094 A 
ATOM     10  C   UNL     1      54.979   0.238  31.713  1.00  0.00     0.146 A 
ATOM     11  O   UNL     1      55.364   0.402  30.452  1.00  0.00    -0.452 OA
ENDROOT
BRANCH   1  12
ATOM     12  C   UNL     1      55.123   1.004  28.132  1.00  0.00     0.025 A 
ATOM     13  C   UNL     1      56.286   1.764  27.934  1.00  0.00     0.016 A 
ATOM     14  C   UNL     1      56.840   1.891  26.658  1.00  0.00     0.051 A 
ATOM     15  C   UNL     1      56.249   1.247  25.563  1.00  0.00     0.157 A 
ATOM     16  C   UNL     1      54.544   0.341  27.035  1.00  0.00     0.062 A 
ATOM     17  C   UNL     1      55.098   0.464  25.754  1.00  0.00     0.158 A 
BRANCH  15  18
ATOM     18  O   UNL     1      56.802   1.376  24.291  1.00  0.00    -0.504 OA
ATOM     19  H   UNL     1      57.188   0.579  23.796  1.00  0.00     0.293 HD
ENDBRANCH  15  18
BRANCH  17  20
ATOM     20  O   UNL     1      54.494  -0.202  24.688  1.00  0.00    -0.504 OA
ATOM     21  H   UNL     1      53.662  -0.767  24.809  1.00  0.00     0.293 HD
ENDBRANCH  17  20
ENDBRANCH   1  12
BRANCH   2  22
ATOM     22  O   UNL     1      52.405   1.743  28.817  1.00  0.00    -0.502 OA
ATOM     23  H   UNL     1      52.561   2.653  28.403  1.00  0.00     0.293 HD
ENDBRANCH   2  22
BRANCH   6  24
ATOM     24  O   UNL     1      52.093   0.803  34.051  1.00  0.00    -0.507 OA
ATOM     25  H   UNL     1      51.798   1.758  34.180  1.00  0.00     0.293 HD
ENDBRANCH   6  24
BRANCH   8  26
ATOM     26  O   UNL     1      56.429  -1.047  34.864  1.00  0.00    -0.508 OA
ATOM     27  H   UNL     1      56.629  -0.596  35.749  1.00  0.00     0.293 HD
ENDBRANCH   8  26
TORSDOF 6
ENDMDL
MODEL 4
REMARK VINA RESULT:    -5.549      9.998     12.141
REMARK INTER + INTRA:          -7.007
REMARK INTER:                  -6.729
REMARK INTRA:                  -0.277
REMARK UNBOUND:                -0.322
REMARK SMILES O=c1c(O)c(-c2ccc(O)c(O)c2)oc2cc(O)cc(O)c12
REMARK SMILES IDX 5 1 3 2 2 3 1 4 22 5 20 6 19 7 17 8 16 9 15 10 14 11 6 12
REMARK SMILES IDX 7 13 8 14 9 15 13 16 11 17 10 18 12 20 4 22 21 24 18 26
REMARK H PARENT 10 19 12 21 4 23 21 25 18 27
REMARK Flexibility Score: inf
ROOT
ATOM      1  C   UNL     1      47.309  -6.660  28.178  1.00  0.00     0.180 A 
ATOM      2  C   UNL     1      46.257  -5.734  28.286  1.00  0.00     0.208 A 
ATOM      3  C   UNL     1      46.035  -4.829  27.235  1.00  0.00     0.238 A 
ATOM      4  O   UNL     1      45.140  -3.955  27.371  1.00  0.00    -0.285 OA
ATOM      5  C   UNL     1      46.829  -4.899  26.065  1.00  0.00     0.111 A 
ATOM      6  C   UNL     1      46.664  -4.062  24.920  1.00  0.00     0.134 A 
ATOM      7  C   UNL     1      47.578  -4.150  23.862  1.00  0.00     0.093 A 
ATOM      8  C   UNL     1      48.612  -5.086  23.879  1.00  0.00     0.123 A 
ATOM      9  C   UNL     1      48.750  -5.946  24.969  1.00  0.00     0.094 A 
ATOM     10  C   UNL     1      47.878  -5.856  26.056  1.00  0.00     0.146 A 
ATOM     11  O   UNL     1      48.058  -6.679  27.082  1.00  0.00    -0.452 OA
ENDROOT
BRANCH   1  12
ATOM     12  C   UNL     1      47.614  -7.635  29.249  1.00  0.00     0.025 A 
ATOM     13  C   UNL     1      48.669  -7.376  30.138  1.00  0.00     0.016 A 
ATOM     14  C   UNL     1      48.962  -8.272  31.169  1.00  0.00     0.051 A 
ATOM     15  C   UNL     1      48.194  -9.431  31.338  1.00  0.00     0.157 A 
ATOM     16  C   UNL     1      46.832  -8.789  29.434  1.00  0.00     0.062 A 
ATOM     17  C   UNL     1      47.121  -9.688  30.468  1.00  0.00     0.158 A 
BRANCH  15  18
ATOM     18  O   UNL     1      48.489 -10.324  32.366  1.00  0.00    -0.504 OA
ATOM     19  H   UNL     1      49.432 -10.663  32.521  1.00  0.00     0.293 HD
ENDBRANCH  15  18
BRANCH  17  20
ATOM     20  O   UNL     1      46.328 -10.826  30.618  1.00  0.00    -0.504 OA
ATOM     21  H   UNL     1      45.353 -10.770  30.885  1.00  0.00     0.293 HD
ENDBRANCH  17  20
ENDBRANCH   1  12
BRANCH   2  22
ATOM     22  O   UNL     1      45.435  -5.732  29.416  1.00  0.00    -0.502 OA
ATOM     23  H   UNL     1      45.391  -4.948  30.055  1.00  0.00     0.293 HD
ENDBRANCH   2  22
BRANCH   6  24
ATOM     24  O   UNL     1      45.613  -3.154  24.758  1.00  0.00    -0.507 OA
ATOM     25  H   UNL     1      44.809  -3.087  25.363  1.00  0.00     0.293 HD
ENDBRANCH   6  24
BRANCH   8  26
ATOM     26  O   UNL     1      49.492  -5.157  22.801  1.00  0.00    -0.508 OA
ATOM     27  H   UNL     1      50.454  -5.448  22.922  1.00  0.00     0.293 HD
ENDBRANCH   8  26
TORSDOF 6
ENDMDL
MODEL 5
REMARK VINA RESULT:    -5.465     11.200     14.053
REMARK INTER + INTRA:          -6.905
REMARK INTER:                  -6.692
REMARK INTRA:                  -0.214
REMARK UNBOUND:                -0.322
REMARK SMILES O=c1c(O)c(-c2ccc(O)c(O)c2)oc2cc(O)cc(O)c12
REMARK SMILES IDX 5 1 3 2 2 3 1 4 22 5 20 6 19 7 17 8 16 9 15 10 14 11 6 12
REMARK SMILES IDX 7 13 8 14 9 15 13 16 11 17 10 18 12 20 4 22 21 24 18 26
REMARK H PARENT 10 19 12 21 4 23 21 25 18 27
REMARK Flexibility Score: inf
ROOT
ATOM      1  C   UNL     1      45.766  -0.289  24.772  1.00  0.00     0.180 A 
ATOM      2  C   UNL     1      46.523  -0.924  23.773  1.00  0.00     0.208 A 
ATOM      3  C   UNL     1      47.695  -0.306  23.310  1.00  0.00     0.238 A 
ATOM      4  O   UNL     1      48.327  -0.843  22.364  1.00  0.00    -0.285 OA
ATOM      5  C   UNL     1      48.127   0.912  23.891  1.00  0.00     0.111 A 
ATOM      6  C   UNL     1      49.323   1.605  23.531  1.00  0.00     0.134 A 
ATOM      7  C   UNL     1      49.593   2.856  24.098  1.00  0.00     0.093 A 
ATOM      8  C   UNL     1      48.747   3.410  25.058  1.00  0.00     0.123 A 
ATOM      9  C   UNL     1      47.603   2.717  25.457  1.00  0.00     0.094 A 
ATOM     10  C   UNL     1      47.287   1.485  24.881  1.00  0.00     0.146 A 
ATOM     11  O   UNL     1      46.178   0.868  25.274  1.00  0.00    -0.452 OA
ENDROOT
BRANCH   1  12
ATOM     12  C   UNL     1      44.512  -0.872  25.301  1.00  0.00     0.025 A 
ATOM     13  C   UNL     1      44.571  -2.010  26.120  1.00  0.00     0.016 A 
ATOM     14  C   UNL     1      43.402  -2.564  26.648  1.00  0.00     0.051 A 
ATOM     15  C   UNL     1      42.158  -1.979  26.378  1.00  0.00     0.157 A 
ATOM     16  C   UNL     1      43.263  -0.274  25.049  1.00  0.00     0.062 A 
ATOM     17  C   UNL     1      42.090  -0.826  25.578  1.00  0.00     0.158 A 
BRANCH  15  18
ATOM     18  O   UNL     1      40.993  -2.535  26.904  1.00  0.00    -0.504 OA
ATOM     19  H   UNL     1      40.753  -3.508  26.750  1.00  0.00     0.293 HD
ENDBRANCH  15  18
BRANCH  17  20
ATOM     20  O   UNL     1      40.868  -0.212  25.302  1.00  0.00    -0.504 OA
ATOM     21  H   UNL     1      40.128  -0.687  24.800  1.00  0.00     0.293 HD
ENDBRANCH  17  20
ENDBRANCH   1  12
BRANCH   2  22
ATOM     22  O   UNL     1      46.122  -2.164  23.267  1.00  0.00    -0.502 OA
ATOM     23  H   UNL     1      46.113  -3.004  23.831  1.00  0.00     0.293 HD
ENDBRANCH   2  22
BRANCH   6  24
ATOM     24  O   UNL     1      50.284   1.102  22.648  1.00  0.00    -0.507 OA
ATOM     25  H   UNL     1      51.018   0.459  22.899  1.00  0.00     0.293 HD
ENDBRANCH   6  24
BRANCH   8  26
ATOM     26  O   UNL     1      49.056   4.650  25.614  1.00  0.00    -0.508 OA
ATOM     27  H   UNL     1      49.879   5.167  25.331  1.00  0.00     0.293 HD
ENDBRANCH   8  26
TORSDOF 6
ENDMDL
MODEL 6
REMARK VINA RESULT:    -5.426     11.200     13.314
REMARK INTER + INTRA:          -6.859
REMARK INTER:                  -6.560
REMARK INTRA:                  -0.299
REMARK UNBOUND:                -0.322
REMARK SMILES O=c1c(O)c(-c2ccc(O)c(O)c2)oc2cc(O)cc(O)c12
REMARK SMILES IDX 5 1 3 2 2 3 1 4 22 5 20 6 19 7 17 8 16 9 15 10 14 11 6 12
REMARK SMILES IDX 7 13 8 14 9 15 13 16 11 17 10 18 12 20 4 22 21 24 18 26
REMARK H PARENT 10 19 12 21 4 23 21 25 18 27
REMARK Flexibility Score: inf
ROOT
ATOM      1  C   UNL     1      46.521  -5.439  28.618  1.00  0.00     0.180 A 
ATOM      2  C   UNL     1      47.105  -4.417  29.387  1.00  0.00     0.208 A 
ATOM      3  C   UNL     1      47.173  -3.119  28.856  1.00  0.00     0.238 A 
ATOM      4  O   UNL     1      47.763  -2.227  29.518  1.00  0.00    -0.285 OA
ATOM      5  C   UNL     1      46.605  -2.846  27.587  1.00  0.00     0.111 A 
ATOM      6  C   UNL     1      46.577  -1.558  26.970  1.00  0.00     0.134 A 
ATOM      7  C   UNL     1      46.084  -1.428  25.666  1.00  0.00     0.093 A 
ATOM      8  C   UNL     1      45.560  -2.524  24.980  1.00  0.00     0.123 A 
ATOM      9  C   UNL     1      45.533  -3.777  25.594  1.00  0.00     0.094 A 
ATOM     10  C   UNL     1      46.053  -3.946  26.879  1.00  0.00     0.146 A 
ATOM     11  O   UNL     1      46.027  -5.159  27.418  1.00  0.00    -0.452 OA
ENDROOT
BRANCH   1  12
ATOM     12  C   UNL     1      46.426  -6.835  29.103  1.00  0.00     0.025 A 
ATOM     13  C   UNL     1      47.547  -7.674  29.016  1.00  0.00     0.016 A 
ATOM     14  C   UNL     1      47.486  -8.988  29.487  1.00  0.00     0.051 A 
ATOM     15  C   UNL     1      46.309  -9.477  30.068  1.00  0.00     0.157 A 
ATOM     16  C   UNL     1      45.252  -7.322  29.706  1.00  0.00     0.062 A 
ATOM     17  C   UNL     1      45.188  -8.638  30.181  1.00  0.00     0.158 A 
BRANCH  15  18
ATOM     18  O   UNL     1      46.250 -10.788  30.536  1.00  0.00    -0.504 OA
ATOM     19  H   UNL     1      45.491 -11.410  30.278  1.00  0.00     0.293 HD
ENDBRANCH  15  18
BRANCH  17  20
ATOM     20  O   UNL     1      44.006  -9.089  30.767  1.00  0.00    -0.504 OA
ATOM     21  H   UNL     1      43.377  -9.724  30.289  1.00  0.00     0.293 HD
ENDBRANCH  17  20
ENDBRANCH   1  12
BRANCH   2  22
ATOM     22  O   UNL     1      47.590  -4.691  30.668  1.00  0.00    -0.502 OA
ATOM     23  H   UNL     1      46.987  -4.982  31.428  1.00  0.00     0.293 HD
ENDBRANCH   2  22
BRANCH   6  24
ATOM     24  O   UNL     1      46.992  -0.380  27.598  1.00  0.00    -0.507 OA
ATOM     25  H   UNL     1      47.392   0.416  27.126  1.00  0.00     0.293 HD
ENDBRANCH   6  24
BRANCH   8  26
ATOM     26  O   UNL     1      45.062  -2.354  23.690  1.00  0.00    -0.508 OA
ATOM     27  H   UNL     1      44.071  -2.415  23.492  1.00  0.00     0.293 HD
ENDBRANCH   8  26
TORSDOF 6
ENDMDL
MODEL 7
REMARK VINA RESULT:    -5.423      9.777     12.615
REMARK INTER + INTRA:          -6.855
REMARK INTER:                  -6.649
REMARK INTRA:                  -0.206
REMARK UNBOUND:                -0.322
REMARK SMILES O=c1c(O)c(-c2ccc(O)c(O)c2)oc2cc(O)cc(O)c12
REMARK SMILES IDX 5 1 3 2 2 3 1 4 22 5 20 6 19 7 17 8 16 9 15 10 14 11 6 12
REMARK SMILES IDX 7 13 8 14 9 15 13 16 11 17 10 18 12 20 4 22 21 24 18 26
REMARK H PARENT 10 19 12 21 4 23 21 25 18 27
REMARK Flexibility Score: inf
ROOT
ATOM      1  C   UNL     1      46.182  -2.473  25.905  1.00  0.00     0.180 A 
ATOM      2  C   UNL     1      46.910  -2.453  27.107  1.00  0.00     0.208 A 
ATOM      3  C   UNL     1      48.176  -3.058  27.148  1.00  0.00     0.238 A 
ATOM      4  O   UNL     1      48.789  -3.101  28.246  1.00  0.00    -0.285 OA
ATOM      5  C   UNL     1      48.724  -3.626  25.972  1.00  0.00     0.111 A 
ATOM      6  C   UNL     1      50.017  -4.226  25.886  1.00  0.00     0.134 A 
ATOM      7  C   UNL     1      50.411  -4.851  24.695  1.00  0.00     0.093 A 
ATOM      8  C   UNL     1      49.588  -4.842  23.570  1.00  0.00     0.123 A 
ATOM      9  C   UNL     1      48.344  -4.211  23.627  1.00  0.00     0.094 A 
ATOM     10  C   UNL     1      47.908  -3.613  24.811  1.00  0.00     0.146 A 
ATOM     11  O   UNL     1      46.709  -3.042  24.827  1.00  0.00    -0.452 OA
ENDROOT
BRANCH   1  12
ATOM     12  C   UNL     1      44.836  -1.869  25.788  1.00  0.00     0.025 A 
ATOM     13  C   UNL     1      44.639  -0.783  24.920  1.00  0.00     0.016 A 
ATOM     14  C   UNL     1      43.373  -0.212  24.778  1.00  0.00     0.051 A 
ATOM     15  C   UNL     1      42.281  -0.726  25.488  1.00  0.00     0.157 A 
ATOM     16  C   UNL     1      43.733  -2.397  26.483  1.00  0.00     0.062 A 
ATOM     17  C   UNL     1      42.462  -1.827  26.341  1.00  0.00     0.158 A 
BRANCH  15  18
ATOM     18  O   UNL     1      41.018  -0.153  25.346  1.00  0.00    -0.504 OA
ATOM     19  H   UNL     1      40.684   0.561  25.985  1.00  0.00     0.293 HD
ENDBRANCH  15  18
BRANCH  17  20
ATOM     20  O   UNL     1      41.392  -2.373  27.052  1.00  0.00    -0.504 OA
ATOM     21  H   UNL     1      41.347  -3.358  27.282  1.00  0.00     0.293 HD
ENDBRANCH  17  20
ENDBRANCH   1  12
BRANCH   2  22
ATOM     22  O   UNL     1      46.385  -1.819  28.237  1.00  0.00    -0.502 OA
ATOM     23  H   UNL     1      45.565  -1.227  28.197  1.00  0.00     0.293 HD
ENDBRANCH   2  22
BRANCH   6  24
ATOM     24  O   UNL     1      50.957  -4.214  26.921  1.00  0.00    -0.507 OA
ATOM     25  H   UNL     1      51.084  -4.954  27.594  1.00  0.00     0.293 HD
ENDBRANCH   6  24
BRANCH   8  26
ATOM     26  O   UNL     1      50.019  -5.458  22.398  1.00  0.00    -0.508 OA
ATOM     27  H   UNL     1      50.785  -5.083  21.852  1.00  0.00     0.293 HD
ENDBRANCH   8  26
TORSDOF 6
ENDMDL
MODEL 8
REMARK VINA RESULT:    -5.423     11.980     13.842
REMARK INTER + INTRA:          -6.855
REMARK INTER:                  -6.601
REMARK INTRA:                  -0.254
REMARK UNBOUND:                -0.322
REMARK SMILES O=c1c(O)c(-c2ccc(O)c(O)c2)oc2cc(O)cc(O)c12
REMARK SMILES IDX 5 1 3 2 2 3 1 4 22 5 20 6 19 7 17 8 16 9 15 10 14 11 6 12
REMARK SMILES IDX 7 13 8 14 9 15 13 16 11 17 10 18 12 20 4 22 21 24 18 26
REMARK H PARENT 10 19 12 21 4 23 21 25 18 27
REMARK Flexibility Score: inf
ROOT
ATOM      1  C   UNL     1      43.827  -5.861  28.586  1.00  0.00     0.180 A 
ATOM      2  C   UNL     1      43.277  -4.745  29.240  1.00  0.00     0.208 A 
ATOM      3  C   UNL     1      43.332  -3.491  28.612  1.00  0.00     0.238 A 
ATOM      4  O   UNL     1      42.905  -2.485  29.235  1.00  0.00    -0.285 OA
ATOM      5  C   UNL     1      43.885  -3.377  27.313  1.00  0.00     0.111 A 
ATOM      6  C   UNL     1      43.952  -2.164  26.562  1.00  0.00     0.134 A 
ATOM      7  C   UNL     1      44.618  -2.151  25.329  1.00  0.00     0.093 A 
ATOM      8  C   UNL     1      45.162  -3.316  24.791  1.00  0.00     0.123 A 
ATOM      9  C   UNL     1      45.054  -4.519  25.491  1.00  0.00     0.094 A 
ATOM     10  C   UNL     1      44.430  -4.556  26.740  1.00  0.00     0.146 A 
ATOM     11  O   UNL     1      44.368  -5.717  27.383  1.00  0.00    -0.452 OA
ENDROOT
BRANCH   1  12
ATOM     12  C   UNL     1      43.820  -7.212  29.191  1.00  0.00     0.025 A 
ATOM     13  C   UNL     1      45.000  -7.723  29.753  1.00  0.00     0.016 A 
ATOM     14  C   UNL     1      45.011  -8.987  30.348  1.00  0.00     0.051 A 
ATOM     15  C   UNL     1      43.839  -9.752  30.404  1.00  0.00     0.157 A 
ATOM     16  C   UNL     1      42.640  -7.974  29.267  1.00  0.00     0.062 A 
ATOM     17  C   UNL     1      42.647  -9.240  29.865  1.00  0.00     0.158 A 
BRANCH  15  18
ATOM     18  O   UNL     1      43.853 -11.014  30.996  1.00  0.00    -0.504 OA
ATOM     19  H   UNL     1      43.758 -11.130  32.000  1.00  0.00     0.293 HD
ENDBRANCH  15  18
BRANCH  17  20
ATOM     20  O   UNL     1      41.460  -9.971  29.918  1.00  0.00    -0.504 OA
ATOM     21  H   UNL     1      40.562  -9.554  29.703  1.00  0.00     0.293 HD
ENDBRANCH  17  20
ENDBRANCH   1  12
BRANCH   2  22
ATOM     22  O   UNL     1      42.667  -4.891  30.489  1.00  0.00    -0.502 OA
ATOM     23  H   UNL     1      42.976  -5.575  31.169  1.00  0.00     0.293 HD
ENDBRANCH   2  22
BRANCH   6  24
ATOM     24  O   UNL     1      43.365  -0.960  26.963  1.00  0.00    -0.507 OA
ATOM     25  H   UNL     1      43.207  -0.686  27.920  1.00  0.00     0.293 HD
ENDBRANCH   6  24
BRANCH   8  26
ATOM     26  O   UNL     1      45.802  -3.269  23.554  1.00  0.00    -0.508 OA
ATOM     27  H   UNL     1      46.592  -2.658  23.390  1.00  0.00     0.293 HD
ENDBRANCH   8  26
TORSDOF 6
ENDMDL
MODEL 9
REMARK VINA RESULT:    -5.411     11.080     13.038
REMARK INTER + INTRA:          -6.841
REMARK INTER:                  -6.820
REMARK INTRA:                  -0.021
REMARK UNBOUND:                -0.322
REMARK SMILES O=c1c(O)c(-c2ccc(O)c(O)c2)oc2cc(O)cc(O)c12
REMARK SMILES IDX 5 1 3 2 2 3 1 4 22 5 20 6 19 7 17 8 16 9 15 10 14 11 6 12
REMARK SMILES IDX 7 13 8 14 9 15 13 16 11 17 10 18 12 20 4 22 21 24 18 26
REMARK H PARENT 10 19 12 21 4 23 21 25 18 27
REMARK Flexibility Score: inf
ROOT
ATOM      1  C   UNL     1      44.244  -4.426  27.182  1.00  0.00     0.180 A 
ATOM      2  C   UNL     1      43.214  -3.472  27.254  1.00  0.00     0.208 A 
ATOM      3  C   UNL     1      43.234  -2.380  26.372  1.00  0.00     0.238 A 
ATOM      4  O   UNL     1      42.351  -1.492  26.491  1.00  0.00    -0.285 OA
ATOM      5  C   UNL     1      44.251  -2.285  25.390  1.00  0.00     0.111 A 
ATOM      6  C   UNL     1      44.344  -1.246  24.415  1.00  0.00     0.134 A 
ATOM      7  C   UNL     1      45.454  -1.196  23.562  1.00  0.00     0.093 A 
ATOM      8  C   UNL     1      46.440  -2.181  23.605  1.00  0.00     0.123 A 
ATOM      9  C   UNL     1      46.331  -3.231  24.517  1.00  0.00     0.094 A 
ATOM     10  C   UNL     1      45.256  -3.287  25.407  1.00  0.00     0.146 A 
ATOM     11  O   UNL     1      45.202  -4.292  26.273  1.00  0.00    -0.452 OA
ENDROOT
BRANCH   1  12
ATOM     12  C   UNL     1      44.300  -5.596  28.088  1.00  0.00     0.025 A 
ATOM     13  C   UNL     1      45.452  -5.818  28.858  1.00  0.00     0.016 A 
ATOM     14  C   UNL     1      45.519  -6.903  29.735  1.00  0.00     0.051 A 
ATOM     15  C   UNL     1      44.429  -7.773  29.867  1.00  0.00     0.157 A 
ATOM     16  C   UNL     1      43.199  -6.458  28.238  1.00  0.00     0.062 A 
ATOM     17  C   UNL     1      43.262  -7.546  29.118  1.00  0.00     0.158 A 
BRANCH  15  18
ATOM     18  O   UNL     1      44.498  -8.857  30.741  1.00  0.00    -0.504 OA
ATOM     19  H   UNL     1      44.787  -9.776  30.425  1.00  0.00     0.293 HD
ENDBRANCH  15  18
BRANCH  17  20
ATOM     20  O   UNL     1      42.154  -8.385  29.238  1.00  0.00    -0.504 OA
ATOM     21  H   UNL     1      42.226  -9.389  29.130  1.00  0.00     0.293 HD
ENDBRANCH  17  20
ENDBRANCH   1  12
BRANCH   2  22
ATOM     22  O   UNL     1      42.177  -3.624  28.178  1.00  0.00    -0.502 OA
ATOM     23  H   UNL     1      41.493  -4.368  28.110  1.00  0.00     0.293 HD
ENDBRANCH   2  22
BRANCH   6  24
ATOM     24  O   UNL     1      43.370  -0.260  24.225  1.00  0.00    -0.507 OA
ATOM     25  H   UNL     1      43.530   0.633  23.786  1.00  0.00     0.293 HD
ENDBRANCH   6  24
BRANCH   8  26
ATOM     26  O   UNL     1      47.522  -2.109  22.730  1.00  0.00    -0.508 OA
ATOM     27  H   UNL     1      47.689  -2.826  22.034  1.00  0.00     0.293 HD
ENDBRANCH   8  26
TORSDOF 6
ENDMDL
