MODEL 1
REMARK VINA RESULT:    -5.446      0.000      0.000
REMARK INTER + INTRA:          -8.033
REMARK INTER:                  -7.674
REMARK INTRA:                  -0.359
REMARK UNBOUND:                -0.359
REMARK SMILES CCCCCCCCC(=O)[O-]
REMARK SMILES IDX 6 1 7 2 8 3 9 4 10 5 11 6 5 7 4 8 3 9 2 10 1 11
REMARK H PARENT
REMARK Flexibility Score: inf
ROOT
ATOM      1  C   UNL     1      -5.732 -16.418  -2.995  1.00  0.00     0.000 C 
ENDROOT
BRANCH   1   2
ATOM      2  C   UNL     1      -4.946 -16.092  -1.719  1.00  0.00     0.006 C 
BRANCH   2   3
ATOM      3  C   UNL     1      -3.476 -16.498  -1.860  1.00  0.00     0.053 C 
BRANCH   3   4
ATOM      4  C   UNL     1      -3.058 -17.361  -0.714  1.00  0.00     0.041 C 
ATOM      5  O   UNL     1      -3.575 -17.200   0.423  1.00  0.00    -0.550 OA
ATOM      6  O   UNL     1      -2.061 -18.313  -0.886  1.00  0.00    -0.550 OA
ENDBRANCH   3   4
ENDBRANCH   2   3
ENDBRANCH   1   2
BRANCH   1   7
ATOM      7  C   UNL     1      -6.865 -15.409  -3.216  1.00  0.00     0.000 C 
BRANCH   7   8
ATOM      8  C   UNL     1      -6.418 -13.989  -2.848  1.00  0.00    -0.000 C 
BRANCH   8   9
ATOM      9  C   UNL     1      -6.821 -12.986  -3.939  1.00  0.00    -0.000 C 
BRANCH   9  10
ATOM     10  C   UNL     1      -7.197 -13.671  -5.262  1.00  0.00    -0.003 C 
ATOM     11  C   UNL     1      -8.613 -13.325  -5.725  1.00  0.00     0.004 C 
ENDBRANCH   9  10
ENDBRANCH   8   9
ENDBRANCH   7   8
ENDBRANCH   1   7
TORSDOF 7
ENDMDL
MODEL 2
REMARK VINA RESULT:    -5.388      3.945      6.394
REMARK INTER + INTRA:          -7.952
REMARK INTER:                  -7.677
REMARK INTRA:                  -0.275
REMARK UNBOUND:                -0.359
REMARK SMILES CCCCCCCCC(=O)[O-]
REMARK SMILES IDX 6 1 7 2 8 3 9 4 10 5 11 6 5 7 4 8 3 9 2 10 1 11
REMARK H PARENT
REMARK Flexibility Score: inf
ROOT
ATOM      1  C   UNL     1      -6.472 -14.057  -2.890  1.00  0.00     0.000 C 
ENDROOT
BRANCH   1   2
ATOM      2  C   UNL     1      -6.808 -13.034  -3.982  1.00  0.00     0.006 C 
BRANCH   2   3
ATOM      3  C   UNL     1      -7.077 -13.728  -5.321  1.00  0.00     0.053 C 
BRANCH   3   4
ATOM      4  C   UNL     1      -8.523 -13.620  -5.686  1.00  0.00     0.041 C 
ATOM      5  O   UNL     1      -8.996 -12.524  -6.087  1.00  0.00    -0.550 OA
ATOM      6  O   UNL     1      -9.362 -14.718  -5.538  1.00  0.00    -0.550 OA
ENDBRANCH   3   4
ENDBRANCH   2   3
ENDBRANCH   1   2
BRANCH   1   7
ATOM      7  C   UNL     1      -6.472 -15.483  -3.453  1.00  0.00     0.000 C 
BRANCH   7   8
ATOM      8  C   UNL     1      -5.974 -16.488  -2.408  1.00  0.00    -0.000 C 
BRANCH   8   9
ATOM      9  C   UNL     1      -4.553 -16.136  -1.941  1.00  0.00    -0.000 C 
BRANCH   9  10
ATOM     10  C   UNL     1      -4.041 -17.081  -0.843  1.00  0.00    -0.003 C 
ATOM     11  C   UNL     1      -2.535 -17.329  -0.931  1.00  0.00     0.004 C 
ENDBRANCH   9  10
ENDBRANCH   8   9
ENDBRANCH   7   8
ENDBRANCH   1   7
TORSDOF 7
ENDMDL
MODEL 3
REMARK VINA RESULT:    -5.387      3.817      6.140
REMARK INTER + INTRA:          -7.950
REMARK INTER:                  -7.576
REMARK INTRA:                  -0.374
REMARK UNBOUND:                -0.359
REMARK SMILES CCCCCCCCC(=O)[O-]
REMARK SMILES IDX 6 1 7 2 8 3 9 4 10 5 11 6 5 7 4 8 3 9 2 10 1 11
REMARK H PARENT
REMARK Flexibility Score: inf
ROOT
ATOM      1  C   UNL     1      -6.714 -13.072  -3.839  1.00  0.00     0.000 C 
ENDROOT
BRANCH   1   2
ATOM      2  C   UNL     1      -6.931 -13.751  -5.197  1.00  0.00     0.006 C 
BRANCH   2   3
ATOM      3  C   UNL     1      -8.398 -13.660  -5.628  1.00  0.00     0.053 C 
BRANCH   3   4
ATOM      4  C   UNL     1      -8.936 -15.019  -5.942  1.00  0.00     0.041 C 
ATOM      5  O   UNL     1      -9.609 -15.649  -5.084  1.00  0.00    -0.550 OA
ATOM      6  O   UNL     1      -8.654 -15.614  -7.166  1.00  0.00    -0.550 OA
ENDBRANCH   3   4
ENDBRANCH   2   3
ENDBRANCH   1   2
BRANCH   1   7
ATOM      7  C   UNL     1      -6.520 -14.112  -2.729  1.00  0.00     0.000 C 
BRANCH   7   8
ATOM      8  C   UNL     1      -6.402 -15.525  -3.313  1.00  0.00    -0.000 C 
BRANCH   8   9
ATOM      9  C   UNL     1      -5.780 -16.491  -2.293  1.00  0.00    -0.000 C 
BRANCH   9  10
ATOM     10  C   UNL     1      -4.409 -16.015  -1.788  1.00  0.00    -0.003 C 
ATOM     11  C   UNL     1      -3.836 -16.918  -0.695  1.00  0.00     0.004 C 
ENDBRANCH   9  10
ENDBRANCH   8   9
ENDBRANCH   7   8
ENDBRANCH   1   7
TORSDOF 7
ENDMDL
MODEL 4
REMARK VINA RESULT:    -5.330      3.445      3.874
REMARK INTER + INTRA:          -7.870
REMARK INTER:                  -7.153
REMARK INTRA:                  -0.717
REMARK UNBOUND:                -0.359
REMARK SMILES CCCCCCCCC(=O)[O-]
REMARK SMILES IDX 6 1 7 2 8 3 9 4 10 5 11 6 5 7 4 8 3 9 2 10 1 11
REMARK H PARENT
REMARK Flexibility Score: inf
ROOT
ATOM      1  C   UNL     1      -6.062 -14.857  -2.753  1.00  0.00     0.000 C 
ENDROOT
BRANCH   1   2
ATOM      2  C   UNL     1      -6.871 -16.115  -3.089  1.00  0.00     0.006 C 
BRANCH   2   3
ATOM      3  C   UNL     1      -6.313 -16.811  -4.334  1.00  0.00     0.053 C 
BRANCH   3   4
ATOM      4  C   UNL     1      -7.269 -17.850  -4.826  1.00  0.00     0.041 C 
ATOM      5  O   UNL     1      -8.385 -18.003  -4.263  1.00  0.00    -0.550 OA
ATOM      6  O   UNL     1      -6.908 -18.686  -5.875  1.00  0.00    -0.550 OA
ENDBRANCH   3   4
ENDBRANCH   2   3
ENDBRANCH   1   2
BRANCH   1   7
ATOM      7  C   UNL     1      -6.888 -13.589  -3.000  1.00  0.00     0.000 C 
BRANCH   7   8
ATOM      8  C   UNL     1      -6.382 -12.834  -4.235  1.00  0.00    -0.000 C 
BRANCH   8   9
ATOM      9  C   UNL     1      -6.971 -13.429  -5.523  1.00  0.00    -0.000 C 
BRANCH   9  10
ATOM     10  C   UNL     1      -8.505 -13.353  -5.562  1.00  0.00    -0.003 C 
ATOM     11  C   UNL     1      -9.163 -14.727  -5.695  1.00  0.00     0.004 C 
ENDBRANCH   9  10
ENDBRANCH   8   9
ENDBRANCH   7   8
ENDBRANCH   1   7
TORSDOF 7
ENDMDL
MODEL 5
REMARK VINA RESULT:    -5.303      0.871      1.487
REMARK INTER + INTRA:          -7.832
REMARK INTER:                  -7.374
REMARK INTRA:                  -0.458
REMARK UNBOUND:                -0.359
REMARK SMILES CCCCCCCCC(=O)[O-]
REMARK SMILES IDX 6 1 7 2 8 3 9 4 10 5 11 6 5 7 4 8 3 9 2 10 1 11
REMARK H PARENT
REMARK Flexibility Score: inf
ROOT
ATOM      1  C   UNL     1      -5.671 -16.449  -3.183  1.00  0.00     0.000 C 
ENDROOT
BRANCH   1   2
ATOM      2  C   UNL     1      -5.026 -16.001  -1.865  1.00  0.00     0.006 C 
BRANCH   2   3
ATOM      3  C   UNL     1      -3.529 -16.322  -1.850  1.00  0.00     0.053 C 
BRANCH   3   4
ATOM      4  C   UNL     1      -3.213 -17.300  -0.764  1.00  0.00     0.041 C 
ATOM      5  O   UNL     1      -3.813 -17.236   0.342  1.00  0.00    -0.550 OA
ATOM      6  O   UNL     1      -2.221 -18.253  -0.952  1.00  0.00    -0.550 OA
ENDBRANCH   3   4
ENDBRANCH   2   3
ENDBRANCH   1   2
BRANCH   1   7
ATOM      7  C   UNL     1      -7.190 -16.595  -3.030  1.00  0.00     0.000 C 
BRANCH   7   8
ATOM      8  C   UNL     1      -7.906 -16.312  -4.356  1.00  0.00    -0.000 C 
BRANCH   8   9
ATOM      9  C   UNL     1      -7.078 -15.364  -5.237  1.00  0.00    -0.000 C 
BRANCH   9  10
ATOM     10  C   UNL     1      -7.649 -13.938  -5.268  1.00  0.00    -0.003 C 
ATOM     11  C   UNL     1      -6.861 -12.967  -4.389  1.00  0.00     0.004 C 
ENDBRANCH   9  10
ENDBRANCH   8   9
ENDBRANCH   7   8
ENDBRANCH   1   7
TORSDOF 7
ENDMDL
MODEL 6
REMARK VINA RESULT:    -5.288      3.375      5.135
REMARK INTER + INTRA:          -7.811
REMARK INTER:                  -7.246
REMARK INTRA:                  -0.565
REMARK UNBOUND:                -0.359
REMARK SMILES CCCCCCCCC(=O)[O-]
REMARK SMILES IDX 6 1 7 2 8 3 9 4 10 5 11 6 5 7 4 8 3 9 2 10 1 11
REMARK H PARENT
REMARK Flexibility Score: inf
ROOT
ATOM      1  C   UNL     1      -8.387 -14.102  -5.627  1.00  0.00     0.000 C 
ENDROOT
BRANCH   1   2
ATOM      2  C   UNL     1      -8.766 -15.572  -5.843  1.00  0.00     0.006 C 
BRANCH   2   3
ATOM      3  C   UNL     1      -7.538 -16.406  -6.223  1.00  0.00     0.053 C 
BRANCH   3   4
ATOM      4  C   UNL     1      -7.591 -17.747  -5.564  1.00  0.00     0.041 C 
ATOM      5  O   UNL     1      -6.741 -18.630  -5.854  1.00  0.00    -0.550 OA
ATOM      6  O   UNL     1      -8.608 -18.041  -4.664  1.00  0.00    -0.550 OA
ENDBRANCH   3   4
ENDBRANCH   2   3
ENDBRANCH   1   2
BRANCH   1   7
ATOM      7  C   UNL     1      -6.940 -13.973  -5.134  1.00  0.00     0.000 C 
BRANCH   7   8
ATOM      8  C   UNL     1      -6.849 -13.018  -3.938  1.00  0.00    -0.000 C 
BRANCH   8   9
ATOM      9  C   UNL     1      -6.548 -13.787  -2.643  1.00  0.00    -0.000 C 
BRANCH   9  10
ATOM     10  C   UNL     1      -6.436 -15.303  -2.867  1.00  0.00    -0.003 C 
ATOM     11  C   UNL     1      -5.255 -15.926  -2.122  1.00  0.00     0.004 C 
ENDBRANCH   9  10
ENDBRANCH   8   9
ENDBRANCH   7   8
ENDBRANCH   1   7
TORSDOF 7
ENDMDL
MODEL 7
REMARK VINA RESULT:    -5.199      4.406      5.130
REMARK INTER + INTRA:          -7.686
REMARK INTER:                  -6.972
REMARK INTRA:                  -0.713
REMARK UNBOUND:                -0.359
REMARK SMILES CCCCCCCCC(=O)[O-]
REMARK SMILES IDX 6 1 7 2 8 3 9 4 10 5 11 6 5 7 4 8 3 9 2 10 1 11
REMARK H PARENT
REMARK Flexibility Score: inf
ROOT
ATOM      1  C   UNL     1      -7.570 -16.758  -3.337  1.00  0.00     0.000 C 
ENDROOT
BRANCH   1   2
ATOM      2  C   UNL     1      -7.809 -17.802  -4.434  1.00  0.00     0.006 C 
BRANCH   2   3
ATOM      3  C   UNL     1      -7.284 -17.310  -5.786  1.00  0.00     0.053 C 
BRANCH   3   4
ATOM      4  C   UNL     1      -8.412 -16.839  -6.646  1.00  0.00     0.041 C 
ATOM      5  O   UNL     1      -9.605 -17.042  -6.297  1.00  0.00    -0.550 OA
ATOM      6  O   UNL     1      -8.148 -16.218  -7.861  1.00  0.00    -0.550 OA
ENDBRANCH   3   4
ENDBRANCH   2   3
ENDBRANCH   1   2
BRANCH   1   7
ATOM      7  C   UNL     1      -6.434 -15.803  -3.725  1.00  0.00     0.000 C 
BRANCH   7   8
ATOM      8  C   UNL     1      -6.474 -14.527  -2.875  1.00  0.00    -0.000 C 
BRANCH   8   9
ATOM      9  C   UNL     1      -6.788 -13.299  -3.743  1.00  0.00    -0.000 C 
BRANCH   9  10
ATOM     10  C   UNL     1      -7.064 -13.666  -5.209  1.00  0.00    -0.003 C 
ATOM     11  C   UNL     1      -8.478 -13.295  -5.656  1.00  0.00     0.004 C 
ENDBRANCH   9  10
ENDBRANCH   8   9
ENDBRANCH   7   8
ENDBRANCH   1   7
TORSDOF 7
ENDMDL
MODEL 8
REMARK VINA RESULT:    -5.120      1.521      2.310
REMARK INTER + INTRA:          -7.573
REMARK INTER:                  -7.013
REMARK INTRA:                  -0.560
REMARK UNBOUND:                -0.359
REMARK SMILES CCCCCCCCC(=O)[O-]
REMARK SMILES IDX 6 1 7 2 8 3 9 4 10 5 11 6 5 7 4 8 3 9 2 10 1 11
REMARK H PARENT
REMARK Flexibility Score: inf
ROOT
ATOM      1  C   UNL     1      -6.913 -16.704  -3.824  1.00  0.00     0.000 C 
ENDROOT
BRANCH   1   2
ATOM      2  C   UNL     1      -5.463 -16.422  -3.412  1.00  0.00     0.006 C 
BRANCH   2   3
ATOM      3  C   UNL     1      -5.367 -16.114  -1.915  1.00  0.00     0.053 C 
BRANCH   3   4
ATOM      4  C   UNL     1      -4.064 -16.596  -1.363  1.00  0.00     0.041 C 
ATOM      5  O   UNL     1      -2.989 -16.359  -1.975  1.00  0.00    -0.550 OA
ATOM      6  O   UNL     1      -4.039 -17.351  -0.197  1.00  0.00    -0.550 OA
ENDBRANCH   3   4
ENDBRANCH   2   3
ENDBRANCH   1   2
BRANCH   1   7
ATOM      7  C   UNL     1      -7.005 -17.041  -5.317  1.00  0.00     0.000 C 
BRANCH   7   8
ATOM      8  C   UNL     1      -7.374 -15.801  -6.140  1.00  0.00    -0.000 C 
BRANCH   8   9
ATOM      9  C   UNL     1      -8.330 -14.887  -5.358  1.00  0.00    -0.000 C 
BRANCH   9  10
ATOM     10  C   UNL     1      -7.943 -13.404  -5.459  1.00  0.00    -0.003 C 
ATOM     11  C   UNL     1      -6.908 -12.990  -4.412  1.00  0.00     0.004 C 
ENDBRANCH   9  10
ENDBRANCH   8   9
ENDBRANCH   7   8
ENDBRANCH   1   7
TORSDOF 7
ENDMDL
MODEL 9
REMARK VINA RESULT:    -5.045     14.999     17.134
REMARK INTER + INTRA:          -7.468
REMARK INTER:                  -7.045
REMARK INTRA:                  -0.423
REMARK UNBOUND:                -0.359
REMARK SMILES CCCCCCCCC(=O)[O-]
REMARK SMILES IDX 6 1 7 2 8 3 9 4 10 5 11 6 5 7 4 8 3 9 2 10 1 11
REMARK H PARENT
REMARK Flexibility Score: inf
ROOT
ATOM      1  C   UNL     1     -11.909  -2.277  -8.549  1.00  0.00     0.000 C 
ENDROOT
BRANCH   1   2
ATOM      2  C   UNL     1     -12.832  -1.153  -8.063  1.00  0.00     0.006 C 
BRANCH   2   3
ATOM      3  C   UNL     1     -13.759  -0.679  -9.187  1.00  0.00     0.053 C 
BRANCH   3   4
ATOM      4  C   UNL     1     -14.759  -1.738  -9.523  1.00  0.00     0.041 C 
ATOM      5  O   UNL     1     -15.516  -2.203  -8.630  1.00  0.00    -0.550 OA
ATOM      6  O   UNL     1     -14.824  -2.251 -10.813  1.00  0.00    -0.550 OA
ENDBRANCH   3   4
ENDBRANCH   2   3
ENDBRANCH   1   2
BRANCH   1   7
ATOM      7  C   UNL     1     -11.152  -1.859  -9.815  1.00  0.00     0.000 C 
BRANCH   7   8
ATOM      8  C   UNL     1      -9.702  -2.356  -9.780  1.00  0.00    -0.000 C 
BRANCH   8   9
ATOM      9  C   UNL     1      -9.528  -3.468  -8.735  1.00  0.00    -0.000 C 
BRANCH   9  10
ATOM     10  C   UNL     1      -8.062  -3.666  -8.321  1.00  0.00    -0.003 C 
ATOM     11  C   UNL     1      -7.377  -2.357  -7.925  1.00  0.00     0.004 C 
ENDBRANCH   9  10
ENDBRANCH   8   9
ENDBRANCH   7   8
ENDBRANCH   1   7
TORSDOF 7
ENDMDL
