MODEL 1
REMARK VINA RESULT:    -4.417      0.000      0.000
REMARK INTER + INTRA:         -10.455
REMARK INTER:                  -8.548
REMARK INTRA:                  -1.907
REMARK UNBOUND:                -1.907
REMARK SMILES CCCCCCCCCCCCCCCCCC(=O)[O-]
REMARK SMILES IDX 10 1 11 2 12 3 13 4 14 5 15 6 16 7 17 8 18 9 19 10 20 11
REMARK SMILES IDX 9 12 8 13 7 14 6 15 5 16 4 17 3 18 2 19 1 20
REMARK H PARENT
REMARK Flexibility Score: inf
ROOT
ATOM      1  C   UNL     1      15.772  53.175  32.724  1.00  0.00     0.000 C 
ENDROOT
BRANCH   1   2
ATOM      2  C   UNL     1      14.376  52.842  32.163  1.00  0.00     0.000 C 
BRANCH   2   3
ATOM      3  C   UNL     1      14.253  51.457  31.496  1.00  0.00     0.000 C 
BRANCH   3   4
ATOM      4  C   UNL     1      15.587  50.731  31.251  1.00  0.00     0.000 C 
BRANCH   4   5
ATOM      5  C   UNL     1      15.402  49.302  30.723  1.00  0.00     0.000 C 
BRANCH   5   6
ATOM      6  C   UNL     1      14.533  48.472  31.676  1.00  0.00     0.000 C 
BRANCH   6   7
ATOM      7  C   UNL     1      15.333  47.305  32.274  1.00  0.00     0.006 C 
BRANCH   7   8
ATOM      8  C   UNL     1      14.805  46.885  33.652  1.00  0.00     0.053 C 
BRANCH   8   9
ATOM      9  C   UNL     1      13.985  45.634  33.574  1.00  0.00     0.041 C 
ATOM     10  O   UNL     1      13.426  45.176  34.605  1.00  0.00    -0.550 OA
ATOM     11  O   UNL     1      13.864  44.956  32.367  1.00  0.00    -0.550 OA
ENDBRANCH   8   9
ENDBRANCH   7   8
ENDBRANCH   6   7
ENDBRANCH   5   6
ENDBRANCH   4   5
ENDBRANCH   3   4
ENDBRANCH   2   3
ENDBRANCH   1   2
BRANCH   1  12
ATOM     12  C   UNL     1      15.795  53.571  34.214  1.00  0.00     0.000 C 
BRANCH  12  13
ATOM     13  C   UNL     1      14.988  52.644  35.146  1.00  0.00    -0.000 C 
BRANCH  13  14
ATOM     14  C   UNL     1      13.767  53.301  35.819  1.00  0.00    -0.000 C 
BRANCH  14  15
ATOM     15  C   UNL     1      13.644  54.821  35.599  1.00  0.00    -0.000 C 
BRANCH  15  16
ATOM     16  C   UNL     1      12.606  55.247  34.539  1.00  0.00    -0.000 C 
BRANCH  16  17
ATOM     17  C   UNL     1      12.873  56.608  33.873  1.00  0.00    -0.000 C 
BRANCH  17  18
ATOM     18  C   UNL     1      13.934  56.530  32.761  1.00  0.00    -0.000 C 
BRANCH  18  19
ATOM     19  C   UNL     1      15.256  57.204  33.163  1.00  0.00    -0.003 C 
ATOM     20  C   UNL     1      16.399  56.891  32.198  1.00  0.00     0.004 C 
ENDBRANCH  18  19
ENDBRANCH  17  18
ENDBRANCH  16  17
ENDBRANCH  15  16
ENDBRANCH  14  15
ENDBRANCH  13  14
ENDBRANCH  12  13
ENDBRANCH   1  12
TORSDOF 16
ENDMDL
MODEL 2
REMARK VINA RESULT:    -4.408      4.588      8.484
REMARK INTER + INTRA:         -10.438
REMARK INTER:                  -8.500
REMARK INTRA:                  -1.938
REMARK UNBOUND:                -1.907
REMARK SMILES CCCCCCCCCCCCCCCCCC(=O)[O-]
REMARK SMILES IDX 10 1 11 2 12 3 13 4 14 5 15 6 16 7 17 8 18 9 19 10 20 11
REMARK SMILES IDX 9 12 8 13 7 14 6 15 5 16 4 17 3 18 2 19 1 20
REMARK H PARENT
REMARK Flexibility Score: inf
ROOT
ATOM      1  C   UNL     1      14.578  53.011  35.224  1.00  0.00     0.000 C 
ENDROOT
BRANCH   1   2
ATOM      2  C   UNL     1      13.741  54.151  35.838  1.00  0.00     0.000 C 
BRANCH   2   3
ATOM      3  C   UNL     1      12.525  54.592  35.001  1.00  0.00     0.000 C 
BRANCH   3   4
ATOM      4  C   UNL     1      12.613  56.015  34.423  1.00  0.00     0.000 C 
BRANCH   4   5
ATOM      5  C   UNL     1      12.680  56.035  32.889  1.00  0.00     0.000 C 
BRANCH   5   6
ATOM      6  C   UNL     1      13.737  57.031  32.398  1.00  0.00     0.000 C 
BRANCH   6   7
ATOM      7  C   UNL     1      15.028  56.915  33.222  1.00  0.00     0.006 C 
BRANCH   7   8
ATOM      8  C   UNL     1      16.283  56.930  32.340  1.00  0.00     0.053 C 
BRANCH   8   9
ATOM      9  C   UNL     1      17.030  58.224  32.460  1.00  0.00     0.041 C 
ATOM     10  O   UNL     1      18.286  58.242  32.378  1.00  0.00    -0.550 OA
ATOM     11  O   UNL     1      16.338  59.406  32.694  1.00  0.00    -0.550 OA
ENDBRANCH   8   9
ENDBRANCH   7   8
ENDBRANCH   6   7
ENDBRANCH   5   6
ENDBRANCH   4   5
ENDBRANCH   3   4
ENDBRANCH   2   3
ENDBRANCH   1   2
BRANCH   1  12
ATOM     12  C   UNL     1      15.845  53.468  34.474  1.00  0.00     0.000 C 
BRANCH  12  13
ATOM     13  C   UNL     1      15.828  53.213  32.953  1.00  0.00    -0.000 C 
BRANCH  13  14
ATOM     14  C   UNL     1      14.477  52.731  32.389  1.00  0.00    -0.000 C 
BRANCH  14  15
ATOM     15  C   UNL     1      14.580  51.752  31.204  1.00  0.00    -0.000 C 
BRANCH  15  16
ATOM     16  C   UNL     1      14.557  50.257  31.587  1.00  0.00    -0.000 C 
BRANCH  16  17
ATOM     17  C   UNL     1      15.526  49.363  30.791  1.00  0.00    -0.000 C 
BRANCH  17  18
ATOM     18  C   UNL     1      15.619  47.935  31.354  1.00  0.00    -0.000 C 
BRANCH  18  19
ATOM     19  C   UNL     1      14.541  47.650  32.413  1.00  0.00    -0.003 C 
ATOM     20  C   UNL     1      15.063  46.811  33.580  1.00  0.00     0.004 C 
ENDBRANCH  18  19
ENDBRANCH  17  18
ENDBRANCH  16  17
ENDBRANCH  15  16
ENDBRANCH  14  15
ENDBRANCH  13  14
ENDBRANCH  12  13
ENDBRANCH   1  12
TORSDOF 16
ENDMDL
MODEL 3
REMARK VINA RESULT:    -4.317      1.262      2.221
REMARK INTER + INTRA:         -10.261
REMARK INTER:                  -8.251
REMARK INTRA:                  -2.010
REMARK UNBOUND:                -1.907
REMARK SMILES CCCCCCCCCCCCCCCCCC(=O)[O-]
REMARK SMILES IDX 10 1 11 2 12 3 13 4 14 5 15 6 16 7 17 8 18 9 19 10 20 11
REMARK SMILES IDX 9 12 8 13 7 14 6 15 5 16 4 17 3 18 2 19 1 20
REMARK H PARENT
REMARK Flexibility Score: inf
ROOT
ATOM      1  C   UNL     1      15.716  53.560  34.981  1.00  0.00     0.000 C 
ENDROOT
BRANCH   1   2
ATOM      2  C   UNL     1      15.935  53.293  33.479  1.00  0.00     0.000 C 
BRANCH   2   3
ATOM      3  C   UNL     1      14.749  52.626  32.754  1.00  0.00     0.000 C 
BRANCH   3   4
ATOM      4  C   UNL     1      15.125  51.809  31.506  1.00  0.00     0.000 C 
BRANCH   4   5
ATOM      5  C   UNL     1      14.143  50.663  31.223  1.00  0.00     0.000 C 
BRANCH   5   6
ATOM      6  C   UNL     1      14.874  49.317  31.153  1.00  0.00     0.000 C 
BRANCH   6   7
ATOM      7  C   UNL     1      14.088  48.225  31.895  1.00  0.00     0.006 C 
BRANCH   7   8
ATOM      8  C   UNL     1      14.993  47.364  32.786  1.00  0.00     0.053 C 
BRANCH   8   9
ATOM      9  C   UNL     1      15.631  46.249  32.016  1.00  0.00     0.041 C 
ATOM     10  O   UNL     1      15.043  45.143  31.895  1.00  0.00    -0.550 OA
ATOM     11  O   UNL     1      16.892  46.423  31.458  1.00  0.00    -0.550 OA
ENDBRANCH   8   9
ENDBRANCH   7   8
ENDBRANCH   6   7
ENDBRANCH   5   6
ENDBRANCH   4   5
ENDBRANCH   3   4
ENDBRANCH   2   3
ENDBRANCH   1   2
BRANCH   1  12
ATOM     12  C   UNL     1      14.280  53.312  35.482  1.00  0.00     0.000 C 
BRANCH  12  13
ATOM     13  C   UNL     1      13.501  54.583  35.878  1.00  0.00    -0.000 C 
BRANCH  13  14
ATOM     14  C   UNL     1      12.366  54.977  34.913  1.00  0.00    -0.000 C 
BRANCH  14  15
ATOM     15  C   UNL     1      12.571  56.318  34.181  1.00  0.00    -0.000 C 
BRANCH  15  16
ATOM     16  C   UNL     1      13.575  56.276  33.010  1.00  0.00    -0.000 C 
BRANCH  16  17
ATOM     17  C   UNL     1      14.969  56.848  33.324  1.00  0.00    -0.000 C 
BRANCH  17  18
ATOM     18  C   UNL     1      15.940  56.739  32.136  1.00  0.00    -0.000 C 
BRANCH  18  19
ATOM     19  C   UNL     1      15.343  55.949  30.960  1.00  0.00    -0.003 C 
ATOM     20  C   UNL     1      16.390  55.549  29.921  1.00  0.00     0.004 C 
ENDBRANCH  18  19
ENDBRANCH  17  18
ENDBRANCH  16  17
ENDBRANCH  15  16
ENDBRANCH  14  15
ENDBRANCH  13  14
ENDBRANCH  12  13
ENDBRANCH   1  12
TORSDOF 16
ENDMDL
MODEL 4
REMARK VINA RESULT:    -4.312      5.118      8.139
REMARK INTER + INTRA:         -10.253
REMARK INTER:                  -7.960
REMARK INTRA:                  -2.293
REMARK UNBOUND:                -1.907
REMARK SMILES CCCCCCCCCCCCCCCCCC(=O)[O-]
REMARK SMILES IDX 10 1 11 2 12 3 13 4 14 5 15 6 16 7 17 8 18 9 19 10 20 11
REMARK SMILES IDX 9 12 8 13 7 14 6 15 5 16 4 17 3 18 2 19 1 20
REMARK H PARENT
REMARK Flexibility Score: inf
ROOT
ATOM      1  C   UNL     1      12.743  53.960  35.164  1.00  0.00     0.000 C 
ENDROOT
BRANCH   1   2
ATOM      2  C   UNL     1      12.180  54.895  34.077  1.00  0.00     0.000 C 
BRANCH   2   3
ATOM      3  C   UNL     1      12.213  56.397  34.425  1.00  0.00     0.000 C 
BRANCH   3   4
ATOM      4  C   UNL     1      12.989  57.279  33.430  1.00  0.00     0.000 C 
BRANCH   4   5
ATOM      5  C   UNL     1      14.041  56.497  32.633  1.00  0.00     0.000 C 
BRANCH   5   6
ATOM      6  C   UNL     1      15.453  57.023  32.921  1.00  0.00     0.000 C 
BRANCH   6   7
ATOM      7  C   UNL     1      16.431  56.610  31.811  1.00  0.00     0.006 C 
BRANCH   7   8
ATOM      8  C   UNL     1      17.652  57.537  31.741  1.00  0.00     0.053 C 
BRANCH   8   9
ATOM      9  C   UNL     1      17.254  58.981  31.762  1.00  0.00     0.041 C 
ATOM     10  O   UNL     1      17.514  59.697  32.764  1.00  0.00    -0.550 OA
ATOM     11  O   UNL     1      16.568  59.528  30.684  1.00  0.00    -0.550 OA
ENDBRANCH   8   9
ENDBRANCH   7   8
ENDBRANCH   6   7
ENDBRANCH   5   6
ENDBRANCH   4   5
ENDBRANCH   3   4
ENDBRANCH   2   3
ENDBRANCH   1   2
BRANCH   1  12
ATOM     12  C   UNL     1      13.790  54.603  36.095  1.00  0.00     0.000 C 
BRANCH  12  13
ATOM     13  C   UNL     1      15.244  54.529  35.588  1.00  0.00    -0.000 C 
BRANCH  13  14
ATOM     14  C   UNL     1      15.627  53.206  34.898  1.00  0.00    -0.000 C 
BRANCH  14  15
ATOM     15  C   UNL     1      15.855  53.307  33.377  1.00  0.00    -0.000 C 
BRANCH  15  16
ATOM     16  C   UNL     1      14.766  52.647  32.506  1.00  0.00    -0.000 C 
BRANCH  16  17
ATOM     17  C   UNL     1      15.045  52.653  30.993  1.00  0.00    -0.000 C 
BRANCH  17  18
ATOM     18  C   UNL     1      14.392  51.469  30.260  1.00  0.00    -0.000 C 
BRANCH  18  19
ATOM     19  C   UNL     1      14.878  50.110  30.790  1.00  0.00    -0.003 C 
ATOM     20  C   UNL     1      16.364  49.866  30.523  1.00  0.00     0.004 C 
ENDBRANCH  18  19
ENDBRANCH  17  18
ENDBRANCH  16  17
ENDBRANCH  15  16
ENDBRANCH  14  15
ENDBRANCH  13  14
ENDBRANCH  12  13
ENDBRANCH   1  12
TORSDOF 16
ENDMDL
MODEL 5
REMARK VINA RESULT:    -4.304      3.749      8.458
REMARK INTER + INTRA:         -10.236
REMARK INTER:                  -8.553
REMARK INTRA:                  -1.683
REMARK UNBOUND:                -1.907
REMARK SMILES CCCCCCCCCCCCCCCCCC(=O)[O-]
REMARK SMILES IDX 10 1 11 2 12 3 13 4 14 5 15 6 16 7 17 8 18 9 19 10 20 11
REMARK SMILES IDX 9 12 8 13 7 14 6 15 5 16 4 17 3 18 2 19 1 20
REMARK H PARENT
REMARK Flexibility Score: inf
ROOT
ATOM      1  C   UNL     1      14.896  51.702  31.317  1.00  0.00     0.000 C 
ENDROOT
BRANCH   1   2
ATOM      2  C   UNL     1      14.617  52.522  32.593  1.00  0.00     0.000 C 
BRANCH   2   3
ATOM      3  C   UNL     1      15.839  53.257  33.178  1.00  0.00     0.000 C 
BRANCH   3   4
ATOM      4  C   UNL     1      15.815  53.448  34.704  1.00  0.00     0.000 C 
BRANCH   4   5
ATOM      5  C   UNL     1      14.464  53.077  35.331  1.00  0.00     0.000 C 
BRANCH   5   6
ATOM      6  C   UNL     1      13.703  54.331  35.780  1.00  0.00     0.000 C 
BRANCH   6   7
ATOM      7  C   UNL     1      12.678  54.761  34.719  1.00  0.00     0.006 C 
BRANCH   7   8
ATOM      8  C   UNL     1      12.863  56.224  34.294  1.00  0.00     0.053 C 
BRANCH   8   9
ATOM      9  C   UNL     1      13.911  56.365  33.233  1.00  0.00     0.041 C 
ATOM     10  O   UNL     1      15.011  56.916  33.496  1.00  0.00    -0.550 OA
ATOM     11  O   UNL     1      13.657  55.916  31.943  1.00  0.00    -0.550 OA
ENDBRANCH   8   9
ENDBRANCH   7   8
ENDBRANCH   6   7
ENDBRANCH   5   6
ENDBRANCH   4   5
ENDBRANCH   3   4
ENDBRANCH   2   3
ENDBRANCH   1   2
BRANCH   1  12
ATOM     12  C   UNL     1      14.611  50.192  31.441  1.00  0.00     0.000 C 
BRANCH  12  13
ATOM     13  C   UNL     1      14.206  49.497  30.125  1.00  0.00    -0.000 C 
BRANCH  13  14
ATOM     14  C   UNL     1      14.997  48.216  29.797  1.00  0.00    -0.000 C 
BRANCH  14  15
ATOM     15  C   UNL     1      16.443  48.190  30.328  1.00  0.00    -0.000 C 
BRANCH  15  16
ATOM     16  C   UNL     1      16.866  46.870  31.007  1.00  0.00    -0.000 C 
BRANCH  16  17
ATOM     17  C   UNL     1      15.736  46.116  31.732  1.00  0.00    -0.000 C 
BRANCH  17  18
ATOM     18  C   UNL     1      15.445  46.682  33.133  1.00  0.00    -0.000 C 
BRANCH  18  19
ATOM     19  C   UNL     1      13.939  46.791  33.420  1.00  0.00    -0.003 C 
ATOM     20  C   UNL     1      13.425  45.671  34.325  1.00  0.00     0.004 C 
ENDBRANCH  18  19
ENDBRANCH  17  18
ENDBRANCH  16  17
ENDBRANCH  15  16
ENDBRANCH  14  15
ENDBRANCH  13  14
ENDBRANCH  12  13
ENDBRANCH   1  12
TORSDOF 16
ENDMDL
MODEL 6
REMARK VINA RESULT:    -4.263      2.225      3.511
REMARK INTER + INTRA:         -10.158
REMARK INTER:                  -7.987
REMARK INTRA:                  -2.172
REMARK UNBOUND:                -1.907
REMARK SMILES CCCCCCCCCCCCCCCCCC(=O)[O-]
REMARK SMILES IDX 10 1 11 2 12 3 13 4 14 5 15 6 16 7 17 8 18 9 19 10 20 11
REMARK SMILES IDX 9 12 8 13 7 14 6 15 5 16 4 17 3 18 2 19 1 20
REMARK H PARENT
REMARK Flexibility Score: inf
ROOT
ATOM      1  C   UNL     1      14.847  54.314  35.592  1.00  0.00     0.000 C 
ENDROOT
BRANCH   1   2
ATOM      2  C   UNL     1      15.059  53.112  34.650  1.00  0.00     0.000 C 
BRANCH   2   3
ATOM      3  C   UNL     1      16.046  53.357  33.491  1.00  0.00     0.000 C 
BRANCH   3   4
ATOM      4  C   UNL     1      15.444  53.215  32.082  1.00  0.00     0.000 C 
BRANCH   4   5
ATOM      5  C   UNL     1      14.230  52.277  32.043  1.00  0.00     0.000 C 
BRANCH   5   6
ATOM      6  C   UNL     1      14.340  51.284  30.879  1.00  0.00     0.000 C 
BRANCH   6   7
ATOM      7  C   UNL     1      15.113  50.025  31.301  1.00  0.00     0.006 C 
BRANCH   7   8
ATOM      8  C   UNL     1      16.360  49.794  30.438  1.00  0.00     0.053 C 
BRANCH   8   9
ATOM      9  C   UNL     1      16.604  48.336  30.196  1.00  0.00     0.041 C 
ATOM     10  O   UNL     1      16.180  47.477  31.013  1.00  0.00    -0.550 OA
ATOM     11  O   UNL     1      17.328  47.928  29.082  1.00  0.00    -0.550 OA
ENDBRANCH   8   9
ENDBRANCH   7   8
ENDBRANCH   6   7
ENDBRANCH   5   6
ENDBRANCH   4   5
ENDBRANCH   3   4
ENDBRANCH   2   3
ENDBRANCH   1   2
BRANCH   1  12
ATOM     12  C   UNL     1      13.403  54.852  35.642  1.00  0.00     0.000 C 
BRANCH  12  13
ATOM     13  C   UNL     1      12.539  54.512  34.410  1.00  0.00    -0.000 C 
BRANCH  13  14
ATOM     14  C   UNL     1      12.672  55.496  33.232  1.00  0.00    -0.000 C 
BRANCH  14  15
ATOM     15  C   UNL     1      12.960  56.956  33.632  1.00  0.00    -0.000 C 
BRANCH  15  16
ATOM     16  C   UNL     1      14.114  57.630  32.860  1.00  0.00    -0.000 C 
BRANCH  16  17
ATOM     17  C   UNL     1      15.505  57.015  33.095  1.00  0.00    -0.000 C 
BRANCH  17  18
ATOM     18  C   UNL     1      16.256  56.719  31.785  1.00  0.00    -0.000 C 
BRANCH  18  19
ATOM     19  C   UNL     1      17.567  57.513  31.667  1.00  0.00    -0.003 C 
ATOM     20  C   UNL     1      17.584  58.765  32.544  1.00  0.00     0.004 C 
ENDBRANCH  18  19
ENDBRANCH  17  18
ENDBRANCH  16  17
ENDBRANCH  15  16
ENDBRANCH  14  15
ENDBRANCH  13  14
ENDBRANCH  12  13
ENDBRANCH   1  12
TORSDOF 16
ENDMDL
MODEL 7
REMARK VINA RESULT:    -4.239      1.116      1.679
REMARK INTER + INTRA:         -10.110
REMARK INTER:                  -8.211
REMARK INTRA:                  -1.899
REMARK UNBOUND:                -1.907
REMARK SMILES CCCCCCCCCCCCCCCCCC(=O)[O-]
REMARK SMILES IDX 10 1 11 2 12 3 13 4 14 5 15 6 16 7 17 8 18 9 19 10 20 11
REMARK SMILES IDX 9 12 8 13 7 14 6 15 5 16 4 17 3 18 2 19 1 20
REMARK H PARENT
REMARK Flexibility Score: inf
ROOT
ATOM      1  C   UNL     1      14.614  52.223  32.336  1.00  0.00     0.000 C 
ENDROOT
BRANCH   1   2
ATOM      2  C   UNL     1      14.985  51.127  31.318  1.00  0.00     0.000 C 
BRANCH   2   3
ATOM      3  C   UNL     1      14.112  49.858  31.376  1.00  0.00     0.000 C 
BRANCH   3   4
ATOM      4  C   UNL     1      14.678  48.643  30.620  1.00  0.00     0.000 C 
BRANCH   4   5
ATOM      5  C   UNL     1      15.845  47.971  31.358  1.00  0.00     0.000 C 
BRANCH   5   6
ATOM      6  C   UNL     1      15.399  46.658  32.012  1.00  0.00     0.000 C 
BRANCH   6   7
ATOM      7  C   UNL     1      15.044  46.872  33.491  1.00  0.00     0.006 C 
BRANCH   7   8
ATOM      8  C   UNL     1      13.798  46.079  33.909  1.00  0.00     0.053 C 
BRANCH   8   9
ATOM      9  C   UNL     1      12.711  46.173  32.882  1.00  0.00     0.041 C 
ATOM     10  O   UNL     1      12.057  47.239  32.745  1.00  0.00    -0.550 OA
ATOM     11  O   UNL     1      12.401  45.069  32.097  1.00  0.00    -0.550 OA
ENDBRANCH   8   9
ENDBRANCH   7   8
ENDBRANCH   6   7
ENDBRANCH   5   6
ENDBRANCH   4   5
ENDBRANCH   3   4
ENDBRANCH   2   3
ENDBRANCH   1   2
BRANCH   1  12
ATOM     12  C   UNL     1      15.790  53.104  32.800  1.00  0.00     0.000 C 
BRANCH  12  13
ATOM     13  C   UNL     1      15.851  53.361  34.319  1.00  0.00    -0.000 C 
BRANCH  13  14
ATOM     14  C   UNL     1      14.537  53.092  35.078  1.00  0.00    -0.000 C 
BRANCH  14  15
ATOM     15  C   UNL     1      14.047  54.254  35.963  1.00  0.00    -0.000 C 
BRANCH  15  16
ATOM     16  C   UNL     1      12.911  55.104  35.357  1.00  0.00    -0.000 C 
BRANCH  16  17
ATOM     17  C   UNL     1      12.440  54.664  33.959  1.00  0.00    -0.000 C 
BRANCH  17  18
ATOM     18  C   UNL     1      12.938  55.596  32.841  1.00  0.00    -0.000 C 
BRANCH  18  19
ATOM     19  C   UNL     1      13.670  56.832  33.389  1.00  0.00    -0.003 C 
ATOM     20  C   UNL     1      15.161  56.838  33.047  1.00  0.00     0.004 C 
ENDBRANCH  18  19
ENDBRANCH  17  18
ENDBRANCH  16  17
ENDBRANCH  15  16
ENDBRANCH  14  15
ENDBRANCH  13  14
ENDBRANCH  12  13
ENDBRANCH   1  12
TORSDOF 16
ENDMDL
MODEL 8
REMARK VINA RESULT:    -4.177      2.563      4.175
REMARK INTER + INTRA:          -9.991
REMARK INTER:                  -8.107
REMARK INTRA:                  -1.885
REMARK UNBOUND:                -1.907
REMARK SMILES CCCCCCCCCCCCCCCCCC(=O)[O-]
REMARK SMILES IDX 10 1 11 2 12 3 13 4 14 5 15 6 16 7 17 8 18 9 19 10 20 11
REMARK SMILES IDX 9 12 8 13 7 14 6 15 5 16 4 17 3 18 2 19 1 20
REMARK H PARENT
REMARK Flexibility Score: inf
ROOT
ATOM      1  C   UNL     1      14.519  50.164  31.596  1.00  0.00     0.000 C 
ENDROOT
BRANCH   1   2
ATOM      2  C   UNL     1      13.594  49.128  30.929  1.00  0.00     0.000 C 
BRANCH   2   3
ATOM      3  C   UNL     1      13.791  47.675  31.403  1.00  0.00     0.000 C 
BRANCH   3   4
ATOM      4  C   UNL     1      14.633  47.515  32.682  1.00  0.00     0.000 C 
BRANCH   4   5
ATOM      5  C   UNL     1      15.906  46.688  32.460  1.00  0.00     0.000 C 
BRANCH   5   6
ATOM      6  C   UNL     1      15.969  46.151  31.025  1.00  0.00     0.000 C 
BRANCH   6   7
ATOM      7  C   UNL     1      17.254  46.612  30.320  1.00  0.00     0.006 C 
BRANCH   7   8
ATOM      8  C   UNL     1      17.254  48.120  30.041  1.00  0.00     0.053 C 
BRANCH   8   9
ATOM      9  C   UNL     1      16.836  48.424  28.635  1.00  0.00     0.041 C 
ATOM     10  O   UNL     1      16.987  47.564  27.728  1.00  0.00    -0.550 OA
ATOM     11  O   UNL     1      16.307  49.670  28.321  1.00  0.00    -0.550 OA
ENDBRANCH   8   9
ENDBRANCH   7   8
ENDBRANCH   6   7
ENDBRANCH   5   6
ENDBRANCH   4   5
ENDBRANCH   3   4
ENDBRANCH   2   3
ENDBRANCH   1   2
BRANCH   1  12
ATOM     12  C   UNL     1      14.312  51.618  31.126  1.00  0.00     0.000 C 
BRANCH  12  13
ATOM     13  C   UNL     1      14.339  52.675  32.248  1.00  0.00    -0.000 C 
BRANCH  13  14
ATOM     14  C   UNL     1      15.747  53.080  32.727  1.00  0.00    -0.000 C 
BRANCH  14  15
ATOM     15  C   UNL     1      15.856  53.394  34.232  1.00  0.00    -0.000 C 
BRANCH  15  16
ATOM     16  C   UNL     1      14.636  52.973  35.078  1.00  0.00    -0.000 C 
BRANCH  16  17
ATOM     17  C   UNL     1      13.833  54.135  35.690  1.00  0.00    -0.000 C 
BRANCH  17  18
ATOM     18  C   UNL     1      12.600  54.515  34.852  1.00  0.00    -0.000 C 
BRANCH  18  19
ATOM     19  C   UNL     1      12.601  55.997  34.445  1.00  0.00    -0.003 C 
ATOM     20  C   UNL     1      13.783  56.366  33.548  1.00  0.00     0.004 C 
ENDBRANCH  18  19
ENDBRANCH  17  18
ENDBRANCH  16  17
ENDBRANCH  15  16
ENDBRANCH  14  15
ENDBRANCH  13  14
ENDBRANCH  12  13
ENDBRANCH   1  12
TORSDOF 16
ENDMDL
MODEL 9
REMARK VINA RESULT:    -4.156      4.551      7.567
REMARK INTER + INTRA:          -9.951
REMARK INTER:                  -7.151
REMARK INTRA:                  -2.799
REMARK UNBOUND:                -1.907
REMARK SMILES CCCCCCCCCCCCCCCCCC(=O)[O-]
REMARK SMILES IDX 10 1 11 2 12 3 13 4 14 5 15 6 16 7 17 8 18 9 19 10 20 11
REMARK SMILES IDX 9 12 8 13 7 14 6 15 5 16 4 17 3 18 2 19 1 20
REMARK H PARENT
REMARK Flexibility Score: inf
ROOT
ATOM      1  C   UNL     1      11.943  55.316  34.982  1.00  0.00     0.000 C 
ENDROOT
BRANCH   1   2
ATOM      2  C   UNL     1      11.430  56.706  35.408  1.00  0.00     0.000 C 
BRANCH   2   3
ATOM      3  C   UNL     1      11.840  57.866  34.481  1.00  0.00     0.000 C 
BRANCH   3   4
ATOM      4  C   UNL     1      12.307  57.444  33.076  1.00  0.00     0.000 C 
BRANCH   4   5
ATOM      5  C   UNL     1      13.617  58.123  32.653  1.00  0.00     0.000 C 
BRANCH   5   6
ATOM      6  C   UNL     1      14.832  57.301  33.101  1.00  0.00     0.000 C 
BRANCH   6   7
ATOM      7  C   UNL     1      16.143  58.005  32.720  1.00  0.00     0.006 C 
BRANCH   7   8
ATOM      8  C   UNL     1      17.065  57.105  31.887  1.00  0.00     0.053 C 
BRANCH   8   9
ATOM      9  C   UNL     1      16.485  56.817  30.536  1.00  0.00     0.041 C 
ATOM     10  O   UNL     1      16.453  55.638  30.097  1.00  0.00    -0.550 OA
ATOM     11  O   UNL     1      16.008  57.858  29.749  1.00  0.00    -0.550 OA
ENDBRANCH   8   9
ENDBRANCH   7   8
ENDBRANCH   6   7
ENDBRANCH   5   6
ENDBRANCH   4   5
ENDBRANCH   3   4
ENDBRANCH   2   3
ENDBRANCH   1   2
BRANCH   1  12
ATOM     12  C   UNL     1      13.294  54.905  35.601  1.00  0.00     0.000 C 
BRANCH  12  13
ATOM     13  C   UNL     1      13.512  53.385  35.737  1.00  0.00    -0.000 C 
BRANCH  13  14
ATOM     14  C   UNL     1      14.911  52.888  35.324  1.00  0.00    -0.000 C 
BRANCH  14  15
ATOM     15  C   UNL     1      15.759  53.910  34.542  1.00  0.00    -0.000 C 
BRANCH  15  16
ATOM     16  C   UNL     1      15.703  53.767  33.006  1.00  0.00    -0.000 C 
BRANCH  16  17
ATOM     17  C   UNL     1      15.133  52.432  32.494  1.00  0.00    -0.000 C 
BRANCH  17  18
ATOM     18  C   UNL     1      13.799  52.601  31.746  1.00  0.00    -0.000 C 
BRANCH  18  19
ATOM     19  C   UNL     1      13.237  54.027  31.861  1.00  0.00    -0.003 C 
ATOM     20  C   UNL     1      11.787  54.133  31.390  1.00  0.00     0.004 C 
ENDBRANCH  18  19
ENDBRANCH  17  18
ENDBRANCH  16  17
ENDBRANCH  15  16
ENDBRANCH  14  15
ENDBRANCH  13  14
ENDBRANCH  12  13
ENDBRANCH   1  12
TORSDOF 16
ENDMDL
