MODEL 1
REMARK VINA RESULT:     0.900      0.000      0.000
REMARK INTER + INTRA:           0.441
REMARK INTER:                   2.267
REMARK INTRA:                  -1.826
REMARK UNBOUND:                -1.826
REMARK SMILES CCCCCCCCCCCCCCCCCCCCCCCCCCCC(=O)[O-]
REMARK SMILES IDX 15 1 16 2 17 3 18 4 19 5 20 6 21 7 22 8 23 9 24 10 25 11
REMARK SMILES IDX 26 12 27 13 28 14 29 15 30 16 14 17 13 18 12 19 11 20 10 21
REMARK SMILES IDX 9 22 8 23 7 24 6 25 5 26 4 27 3 28 2 29 1 30
REMARK H PARENT
REMARK Flexibility Score: inf
ROOT
ATOM      1  C   UNL     1      -5.429 -51.372   4.336  1.00  0.00     0.000 C 
ENDROOT
BRANCH   1   2
ATOM      2  C   UNL     1      -6.201 -52.087   5.456  1.00  0.00     0.000 C 
BRANCH   2   3
ATOM      3  C   UNL     1      -5.650 -51.743   6.854  1.00  0.00     0.000 C 
BRANCH   3   4
ATOM      4  C   UNL     1      -6.635 -52.114   7.982  1.00  0.00     0.000 C 
BRANCH   4   5
ATOM      5  C   UNL     1      -7.135 -50.902   8.787  1.00  0.00     0.000 C 
BRANCH   5   6
ATOM      6  C   UNL     1      -6.124 -50.432   9.847  1.00  0.00     0.000 C 
BRANCH   6   7
ATOM      7  C   UNL     1      -4.830 -51.272   9.843  1.00  0.00     0.000 C 
BRANCH   7   8
ATOM      8  C   UNL     1      -3.550 -50.446   9.597  1.00  0.00     0.000 C 
BRANCH   8   9
ATOM      9  C   UNL     1      -2.237 -51.122  10.038  1.00  0.00     0.000 C 
BRANCH   9  10
ATOM     10  C   UNL     1      -1.649 -52.118   9.018  1.00  0.00     0.000 C 
BRANCH  10  11
ATOM     11  C   UNL     1      -2.100 -51.823   7.578  1.00  0.00     0.000 C 
BRANCH  11  12
ATOM     12  C   UNL     1      -0.930 -51.827   6.579  1.00  0.00     0.006 C 
BRANCH  12  13
ATOM     13  C   UNL     1      -1.102 -50.793   5.458  1.00  0.00     0.053 C 
BRANCH  13  14
ATOM     14  C   UNL     1      -1.432 -51.474   4.166  1.00  0.00     0.041 C 
ATOM     15  O   UNL     1      -2.619 -51.499   3.748  1.00  0.00    -0.550 OA
ATOM     16  O   UNL     1      -0.436 -52.123   3.449  1.00  0.00    -0.550 OA
ENDBRANCH  13  14
ENDBRANCH  12  13
ENDBRANCH  11  12
ENDBRANCH  10  11
ENDBRANCH   9  10
ENDBRANCH   8   9
ENDBRANCH   7   8
ENDBRANCH   6   7
ENDBRANCH   5   6
ENDBRANCH   4   5
ENDBRANCH   3   4
ENDBRANCH   2   3
ENDBRANCH   1   2
BRANCH   1  17
ATOM     17  C   UNL     1      -6.214 -50.187   3.746  1.00  0.00     0.000 C 
BRANCH  17  18
ATOM     18  C   UNL     1      -7.621 -50.055   4.353  1.00  0.00     0.000 C 
BRANCH  18  19
ATOM     19  C   UNL     1      -8.533 -49.144   3.515  1.00  0.00     0.000 C 
BRANCH  19  20
ATOM     20  C   UNL     1      -8.939 -49.826   2.199  1.00  0.00     0.000 C 
BRANCH  20  21
ATOM     21  C   UNL     1      -9.100 -51.349   2.345  1.00  0.00     0.000 C 
BRANCH  21  22
ATOM     22  C   UNL     1      -8.584 -52.119   1.116  1.00  0.00    -0.000 C 
BRANCH  22  23
ATOM     23  C   UNL     1      -8.145 -51.192  -0.033  1.00  0.00    -0.000 C 
BRANCH  23  24
ATOM     24  C   UNL     1      -6.740 -50.581   0.122  1.00  0.00    -0.000 C 
BRANCH  24  25
ATOM     25  C   UNL     1      -5.634 -51.459  -0.483  1.00  0.00    -0.000 C 
BRANCH  25  26
ATOM     26  C   UNL     1      -4.608 -51.866   0.585  1.00  0.00    -0.000 C 
BRANCH  26  27
ATOM     27  C   UNL     1      -3.245 -51.182   0.387  1.00  0.00    -0.000 C 
BRANCH  27  28
ATOM     28  C   UNL     1      -2.188 -52.125  -0.208  1.00  0.00    -0.000 C 
BRANCH  28  29
ATOM     29  C   UNL     1      -0.776 -51.563  -0.002  1.00  0.00    -0.003 C 
ATOM     30  C   UNL     1       0.112 -51.840  -1.212  1.00  0.00     0.004 C 
ENDBRANCH  28  29
ENDBRANCH  27  28
ENDBRANCH  26  27
ENDBRANCH  25  26
ENDBRANCH  24  25
ENDBRANCH  23  24
ENDBRANCH  22  23
ENDBRANCH  21  22
ENDBRANCH  20  21
ENDBRANCH  19  20
ENDBRANCH  18  19
ENDBRANCH  17  18
ENDBRANCH   1  17
TORSDOF 26
ENDMDL
MODEL 2
REMARK VINA RESULT:     2.188      1.998      8.162
REMARK INTER + INTRA:           3.686
REMARK INTER:                   1.688
REMARK INTRA:                   1.998
REMARK UNBOUND:                -1.826
REMARK SMILES CCCCCCCCCCCCCCCCCCCCCCCCCCCC(=O)[O-]
REMARK SMILES IDX 15 1 16 2 17 3 18 4 19 5 20 6 21 7 22 8 23 9 24 10 25 11
REMARK SMILES IDX 26 12 27 13 28 14 29 15 30 16 14 17 13 18 12 19 11 20 10 21
REMARK SMILES IDX 9 22 8 23 7 24 6 25 5 26 4 27 3 28 2 29 1 30
REMARK H PARENT
REMARK Flexibility Score: inf
ROOT
ATOM      1  C   UNL     1      -5.502 -51.769   3.286  1.00  0.00     0.000 C 
ENDROOT
BRANCH   1   2
ATOM      2  C   UNL     1      -6.970 -52.094   3.606  1.00  0.00     0.000 C 
BRANCH   2   3
ATOM      3  C   UNL     1      -7.273 -51.993   5.113  1.00  0.00     0.000 C 
BRANCH   3   4
ATOM      4  C   UNL     1      -7.659 -50.562   5.541  1.00  0.00     0.000 C 
BRANCH   4   5
ATOM      5  C   UNL     1      -7.808 -49.586   4.361  1.00  0.00     0.000 C 
BRANCH   5   6
ATOM      6  C   UNL     1      -9.125 -49.777   3.590  1.00  0.00     0.000 C 
BRANCH   6   7
ATOM      7  C   UNL     1      -8.996 -50.801   2.443  1.00  0.00     0.000 C 
BRANCH   7   8
ATOM      8  C   UNL     1      -7.729 -50.617   1.582  1.00  0.00     0.000 C 
BRANCH   8   9
ATOM      9  C   UNL     1      -7.864 -51.056   0.111  1.00  0.00     0.000 C 
BRANCH   9  10
ATOM     10  C   UNL     1      -6.665 -51.854  -0.438  1.00  0.00     0.000 C 
BRANCH  10  11
ATOM     11  C   UNL     1      -5.516 -51.965   0.578  1.00  0.00     0.000 C 
BRANCH  11  12
ATOM     12  C   UNL     1      -4.342 -51.027   0.247  1.00  0.00     0.006 C 
BRANCH  12  13
ATOM     13  C   UNL     1      -3.167 -51.179   1.223  1.00  0.00     0.053 C 
BRANCH  13  14
ATOM     14  C   UNL     1      -1.865 -51.046   0.496  1.00  0.00     0.041 C 
ATOM     15  O   UNL     1      -1.667 -51.685  -0.570  1.00  0.00    -0.550 OA
ATOM     16  O   UNL     1      -0.852 -50.257   1.023  1.00  0.00    -0.550 OA
ENDBRANCH  13  14
ENDBRANCH  12  13
ENDBRANCH  11  12
ENDBRANCH  10  11
ENDBRANCH   9  10
ENDBRANCH   8   9
ENDBRANCH   7   8
ENDBRANCH   6   7
ENDBRANCH   5   6
ENDBRANCH   4   5
ENDBRANCH   3   4
ENDBRANCH   2   3
ENDBRANCH   1   2
BRANCH   1  17
ATOM     17  C   UNL     1      -4.605 -51.813   4.536  1.00  0.00     0.000 C 
BRANCH  17  18
ATOM     18  C   UNL     1      -3.210 -51.219   4.279  1.00  0.00     0.000 C 
BRANCH  18  19
ATOM     19  C   UNL     1      -2.241 -51.486   5.442  1.00  0.00     0.000 C 
BRANCH  19  20
ATOM     20  C   UNL     1      -2.980 -52.065   6.657  1.00  0.00     0.000 C 
BRANCH  20  21
ATOM     21  C   UNL     1      -3.264 -51.010   7.738  1.00  0.00     0.000 C 
BRANCH  21  22
ATOM     22  C   UNL     1      -3.917 -51.611   8.997  1.00  0.00    -0.000 C 
BRANCH  22  23
ATOM     23  C   UNL     1      -5.431 -51.844   8.835  1.00  0.00    -0.000 C 
BRANCH  23  24
ATOM     24  C   UNL     1      -6.270 -51.585  10.099  1.00  0.00    -0.000 C 
BRANCH  24  25
ATOM     25  C   UNL     1      -7.712 -52.101   9.979  1.00  0.00    -0.000 C 
BRANCH  25  26
ATOM     26  C   UNL     1      -8.687 -50.949   9.693  1.00  0.00    -0.000 C 
BRANCH  26  27
ATOM     27  C   UNL     1      -8.083 -49.570  10.006  1.00  0.00    -0.000 C 
BRANCH  27  28
ATOM     28  C   UNL     1      -9.082 -48.422   9.796  1.00  0.00    -0.000 C 
BRANCH  28  29
ATOM     29  C   UNL     1      -8.784 -47.670   8.494  1.00  0.00    -0.003 C 
ATOM     30  C   UNL     1      -9.110 -46.184   8.625  1.00  0.00     0.004 C 
ENDBRANCH  28  29
ENDBRANCH  27  28
ENDBRANCH  26  27
ENDBRANCH  25  26
ENDBRANCH  24  25
ENDBRANCH  23  24
ENDBRANCH  22  23
ENDBRANCH  21  22
ENDBRANCH  20  21
ENDBRANCH  19  20
ENDBRANCH  18  19
ENDBRANCH  17  18
ENDBRANCH   1  17
TORSDOF 26
ENDMDL
MODEL 3
REMARK VINA RESULT:     2.718      1.993      9.125
REMARK INTER + INTRA:           5.023
REMARK INTER:                   5.603
REMARK INTRA:                  -0.580
REMARK UNBOUND:                -1.826
REMARK SMILES CCCCCCCCCCCCCCCCCCCCCCCCCCCC(=O)[O-]
REMARK SMILES IDX 15 1 16 2 17 3 18 4 19 5 20 6 21 7 22 8 23 9 24 10 25 11
REMARK SMILES IDX 26 12 27 13 28 14 29 15 30 16 14 17 13 18 12 19 11 20 10 21
REMARK SMILES IDX 9 22 8 23 7 24 6 25 5 26 4 27 3 28 2 29 1 30
REMARK H PARENT
REMARK Flexibility Score: inf
ROOT
ATOM      1  C   UNL     1      -3.644 -51.768   3.195  1.00  0.00     0.000 C 
ENDROOT
BRANCH   1   2
ATOM      2  C   UNL     1      -2.663 -51.967   2.028  1.00  0.00     0.000 C 
BRANCH   2   3
ATOM      3  C   UNL     1      -2.450 -50.672   1.220  1.00  0.00     0.000 C 
BRANCH   3   4
ATOM      4  C   UNL     1      -3.236 -50.671  -0.107  1.00  0.00     0.000 C 
BRANCH   4   5
ATOM      5  C   UNL     1      -4.315 -49.576  -0.183  1.00  0.00     0.000 C 
BRANCH   5   6
ATOM      6  C   UNL     1      -5.720 -50.142  -0.451  1.00  0.00     0.000 C 
BRANCH   6   7
ATOM      7  C   UNL     1      -5.681 -51.547  -1.086  1.00  0.00     0.000 C 
BRANCH   7   8
ATOM      8  C   UNL     1      -7.020 -51.985  -1.715  1.00  0.00     0.000 C 
BRANCH   8   9
ATOM      9  C   UNL     1      -8.242 -51.909  -0.779  1.00  0.00     0.000 C 
BRANCH   9  10
ATOM     10  C   UNL     1      -7.927 -52.120   0.715  1.00  0.00     0.000 C 
BRANCH  10  11
ATOM     11  C   UNL     1      -7.572 -50.806   1.434  1.00  0.00     0.000 C 
BRANCH  11  12
ATOM     12  C   UNL     1      -8.721 -50.287   2.316  1.00  0.00     0.006 C 
BRANCH  12  13
ATOM     13  C   UNL     1      -8.232 -49.735   3.663  1.00  0.00     0.053 C 
BRANCH  13  14
ATOM     14  C   UNL     1      -7.652 -50.834   4.497  1.00  0.00     0.041 C 
ATOM     15  O   UNL     1      -6.619 -51.443   4.113  1.00  0.00    -0.550 OA
ATOM     16  O   UNL     1      -8.279 -51.221   5.673  1.00  0.00    -0.550 OA
ENDBRANCH  13  14
ENDBRANCH  12  13
ENDBRANCH  11  12
ENDBRANCH  10  11
ENDBRANCH   9  10
ENDBRANCH   8   9
ENDBRANCH   7   8
ENDBRANCH   6   7
ENDBRANCH   5   6
ENDBRANCH   4   5
ENDBRANCH   3   4
ENDBRANCH   2   3
ENDBRANCH   1   2
BRANCH   1  17
ATOM     17  C   UNL     1      -2.953 -51.219   4.455  1.00  0.00     0.000 C 
BRANCH  17  18
ATOM     18  C   UNL     1      -3.784 -50.130   5.154  1.00  0.00     0.000 C 
BRANCH  18  19
ATOM     19  C   UNL     1      -3.195 -49.732   6.517  1.00  0.00     0.000 C 
BRANCH  19  20
ATOM     20  C   UNL     1      -1.869 -50.462   6.781  1.00  0.00     0.000 C 
BRANCH  20  21
ATOM     21  C   UNL     1      -1.498 -50.498   8.273  1.00  0.00     0.000 C 
BRANCH  21  22
ATOM     22  C   UNL     1      -1.541 -51.921   8.860  1.00  0.00    -0.000 C 
BRANCH  22  23
ATOM     23  C   UNL     1      -2.419 -52.024  10.121  1.00  0.00    -0.000 C 
BRANCH  23  24
ATOM     24  C   UNL     1      -3.761 -51.273  10.045  1.00  0.00    -0.000 C 
BRANCH  24  25
ATOM     25  C   UNL     1      -4.886 -52.116   9.426  1.00  0.00    -0.000 C 
BRANCH  25  26
ATOM     26  C   UNL     1      -5.642 -51.322   8.350  1.00  0.00    -0.000 C 
BRANCH  26  27
ATOM     27  C   UNL     1      -7.163 -51.315   8.577  1.00  0.00    -0.000 C 
BRANCH  27  28
ATOM     28  C   UNL     1      -7.621 -50.175   9.499  1.00  0.00    -0.000 C 
BRANCH  28  29
ATOM     29  C   UNL     1      -7.915 -48.904   8.692  1.00  0.00    -0.003 C 
ATOM     30  C   UNL     1      -8.941 -48.024   9.400  1.00  0.00     0.004 C 
ENDBRANCH  28  29
ENDBRANCH  27  28
ENDBRANCH  26  27
ENDBRANCH  25  26
ENDBRANCH  24  25
ENDBRANCH  23  24
ENDBRANCH  22  23
ENDBRANCH  21  22
ENDBRANCH  20  21
ENDBRANCH  19  20
ENDBRANCH  18  19
ENDBRANCH  17  18
ENDBRANCH   1  17
TORSDOF 26
ENDMDL
MODEL 4
REMARK VINA RESULT:     2.958      2.350      7.927
REMARK INTER + INTRA:           5.627
REMARK INTER:                   5.634
REMARK INTRA:                  -0.007
REMARK UNBOUND:                -1.826
REMARK SMILES CCCCCCCCCCCCCCCCCCCCCCCCCCCC(=O)[O-]
REMARK SMILES IDX 15 1 16 2 17 3 18 4 19 5 20 6 21 7 22 8 23 9 24 10 25 11
REMARK SMILES IDX 26 12 27 13 28 14 29 15 30 16 14 17 13 18 12 19 11 20 10 21
REMARK SMILES IDX 9 22 8 23 7 24 6 25 5 26 4 27 3 28 2 29 1 30
REMARK H PARENT
REMARK Flexibility Score: inf
ROOT
ATOM      1  C   UNL     1      -3.266 -50.419  -0.369  1.00  0.00     0.000 C 
ENDROOT
BRANCH   1   2
ATOM      2  C   UNL     1      -4.639 -50.897   0.130  1.00  0.00     0.000 C 
BRANCH   2   3
ATOM      3  C   UNL     1      -5.542 -51.378  -1.022  1.00  0.00     0.000 C 
BRANCH   3   4
ATOM      4  C   UNL     1      -6.892 -50.632  -1.063  1.00  0.00     0.000 C 
BRANCH   4   5
ATOM      5  C   UNL     1      -8.020 -51.360  -0.310  1.00  0.00     0.000 C 
BRANCH   5   6
ATOM      6  C   UNL     1      -8.593 -50.531   0.852  1.00  0.00     0.000 C 
BRANCH   6   7
ATOM      7  C   UNL     1      -8.766 -51.361   2.141  1.00  0.00     0.000 C 
BRANCH   7   8
ATOM      8  C   UNL     1      -7.436 -51.853   2.750  1.00  0.00     0.000 C 
BRANCH   8   9
ATOM      9  C   UNL     1      -7.410 -51.942   4.289  1.00  0.00     0.000 C 
BRANCH   9  10
ATOM     10  C   UNL     1      -8.382 -50.984   5.008  1.00  0.00     0.000 C 
BRANCH  10  11
ATOM     11  C   UNL     1      -8.068 -50.843   6.507  1.00  0.00     0.000 C 
BRANCH  11  12
ATOM     12  C   UNL     1      -8.406 -52.114   7.304  1.00  0.00     0.006 C 
BRANCH  12  13
ATOM     13  C   UNL     1      -7.955 -52.035   8.769  1.00  0.00     0.053 C 
BRANCH  13  14
ATOM     14  C   UNL     1      -7.546 -50.637   9.114  1.00  0.00     0.041 C 
ATOM     15  O   UNL     1      -6.560 -50.106   8.538  1.00  0.00    -0.550 OA
ATOM     16  O   UNL     1      -8.221 -49.939  10.106  1.00  0.00    -0.550 OA
ENDBRANCH  13  14
ENDBRANCH  12  13
ENDBRANCH  11  12
ENDBRANCH  10  11
ENDBRANCH   9  10
ENDBRANCH   8   9
ENDBRANCH   7   8
ENDBRANCH   6   7
ENDBRANCH   5   6
ENDBRANCH   4   5
ENDBRANCH   3   4
ENDBRANCH   2   3
ENDBRANCH   1   2
BRANCH   1  17
ATOM     17  C   UNL     1      -2.176 -51.494  -0.206  1.00  0.00     0.000 C 
BRANCH  17  18
ATOM     18  C   UNL     1      -1.333 -51.287   1.064  1.00  0.00     0.000 C 
BRANCH  18  19
ATOM     19  C   UNL     1      -2.109 -51.642   2.342  1.00  0.00     0.000 C 
BRANCH  19  20
ATOM     20  C   UNL     1      -1.151 -51.911   3.513  1.00  0.00     0.000 C 
BRANCH  20  21
ATOM     21  C   UNL     1      -1.800 -51.648   4.883  1.00  0.00     0.000 C 
BRANCH  21  22
ATOM     22  C   UNL     1      -2.625 -50.348   4.908  1.00  0.00    -0.000 C 
BRANCH  22  23
ATOM     23  C   UNL     1      -4.096 -50.578   5.304  1.00  0.00    -0.000 C 
BRANCH  23  24
ATOM     24  C   UNL     1      -4.387 -51.933   5.975  1.00  0.00    -0.000 C 
BRANCH  24  25
ATOM     25  C   UNL     1      -3.637 -52.119   7.303  1.00  0.00    -0.000 C 
BRANCH  25  26
ATOM     26  C   UNL     1      -4.417 -51.492   8.468  1.00  0.00    -0.000 C 
BRANCH  26  27
ATOM     27  C   UNL     1      -3.616 -51.485   9.781  1.00  0.00    -0.000 C 
BRANCH  27  28
ATOM     28  C   UNL     1      -2.228 -52.125   9.634  1.00  0.00    -0.000 C 
BRANCH  28  29
ATOM     29  C   UNL     1      -1.369 -51.343   8.632  1.00  0.00    -0.003 C 
ATOM     30  C   UNL     1      -0.059 -52.071   8.341  1.00  0.00     0.004 C 
ENDBRANCH  28  29
ENDBRANCH  27  28
ENDBRANCH  26  27
ENDBRANCH  25  26
ENDBRANCH  24  25
ENDBRANCH  23  24
ENDBRANCH  22  23
ENDBRANCH  21  22
ENDBRANCH  20  21
ENDBRANCH  19  20
ENDBRANCH  18  19
ENDBRANCH  17  18
ENDBRANCH   1  17
TORSDOF 26
ENDMDL
MODEL 5
REMARK VINA RESULT:     3.137      2.471      8.725
REMARK INTER + INTRA:           6.080
REMARK INTER:                   2.620
REMARK INTRA:                   3.460
REMARK UNBOUND:                -1.826
REMARK SMILES CCCCCCCCCCCCCCCCCCCCCCCCCCCC(=O)[O-]
REMARK SMILES IDX 15 1 16 2 17 3 18 4 19 5 20 6 21 7 22 8 23 9 24 10 25 11
REMARK SMILES IDX 26 12 27 13 28 14 29 15 30 16 14 17 13 18 12 19 11 20 10 21
REMARK SMILES IDX 9 22 8 23 7 24 6 25 5 26 4 27 3 28 2 29 1 30
REMARK H PARENT
REMARK Flexibility Score: inf
ROOT
ATOM      1  C   UNL     1      -0.661 -50.923   2.540  1.00  0.00     0.000 C 
ENDROOT
BRANCH   1   2
ATOM      2  C   UNL     1      -0.758 -52.087   1.542  1.00  0.00     0.000 C 
BRANCH   2   3
ATOM      3  C   UNL     1      -2.083 -52.070   0.754  1.00  0.00     0.000 C 
BRANCH   3   4
ATOM      4  C   UNL     1      -1.880 -51.704  -0.731  1.00  0.00     0.000 C 
BRANCH   4   5
ATOM      5  C   UNL     1      -3.050 -50.908  -1.334  1.00  0.00     0.000 C 
BRANCH   5   6
ATOM      6  C   UNL     1      -4.331 -50.994  -0.487  1.00  0.00     0.000 C 
BRANCH   6   7
ATOM      7  C   UNL     1      -4.174 -51.935   0.726  1.00  0.00     0.000 C 
BRANCH   7   8
ATOM      8  C   UNL     1      -5.040 -51.537   1.940  1.00  0.00     0.000 C 
BRANCH   8   9
ATOM      9  C   UNL     1      -4.563 -52.090   3.298  1.00  0.00     0.000 C 
BRANCH   9  10
ATOM     10  C   UNL     1      -5.574 -51.933   4.451  1.00  0.00     0.000 C 
BRANCH  10  11
ATOM     11  C   UNL     1      -6.833 -51.155   4.029  1.00  0.00     0.000 C 
BRANCH  11  12
ATOM     12  C   UNL     1      -7.899 -52.060   3.389  1.00  0.00     0.006 C 
BRANCH  12  13
ATOM     13  C   UNL     1      -7.784 -52.124   1.860  1.00  0.00     0.053 C 
BRANCH  13  14
ATOM     14  C   UNL     1      -8.646 -51.077   1.228  1.00  0.00     0.041 C 
ATOM     15  O   UNL     1      -9.125 -51.259   0.078  1.00  0.00    -0.550 OA
ATOM     16  O   UNL     1      -8.881 -49.877   1.887  1.00  0.00    -0.550 OA
ENDBRANCH  13  14
ENDBRANCH  12  13
ENDBRANCH  11  12
ENDBRANCH  10  11
ENDBRANCH   9  10
ENDBRANCH   8   9
ENDBRANCH   7   8
ENDBRANCH   6   7
ENDBRANCH   5   6
ENDBRANCH   4   5
ENDBRANCH   3   4
ENDBRANCH   2   3
ENDBRANCH   1   2
BRANCH   1  17
ATOM     17  C   UNL     1      -1.917 -50.800   3.421  1.00  0.00     0.000 C 
BRANCH  17  18
ATOM     18  C   UNL     1      -1.811 -51.627   4.713  1.00  0.00     0.000 C 
BRANCH  18  19
ATOM     19  C   UNL     1      -0.367 -51.718   5.231  1.00  0.00     0.000 C 
BRANCH  19  20
ATOM     20  C   UNL     1      -0.330 -51.740   6.767  1.00  0.00     0.000 C 
BRANCH  20  21
ATOM     21  C   UNL     1      -1.424 -50.863   7.399  1.00  0.00     0.000 C 
BRANCH  21  22
ATOM     22  C   UNL     1      -2.842 -51.395   7.123  1.00  0.00    -0.000 C 
BRANCH  22  23
ATOM     23  C   UNL     1      -3.786 -51.246   8.331  1.00  0.00    -0.000 C 
BRANCH  23  24
ATOM     24  C   UNL     1      -5.049 -52.125   8.286  1.00  0.00    -0.000 C 
BRANCH  24  25
ATOM     25  C   UNL     1      -6.019 -51.724   7.163  1.00  0.00    -0.000 C 
BRANCH  25  26
ATOM     26  C   UNL     1      -7.397 -51.354   7.732  1.00  0.00    -0.000 C 
BRANCH  26  27
ATOM     27  C   UNL     1      -7.508 -51.628   9.241  1.00  0.00    -0.000 C 
BRANCH  27  28
ATOM     28  C   UNL     1      -8.377 -50.593   9.971  1.00  0.00    -0.000 C 
BRANCH  28  29
ATOM     29  C   UNL     1      -7.763 -49.192   9.866  1.00  0.00    -0.003 C 
ATOM     30  C   UNL     1      -8.660 -48.253   9.063  1.00  0.00     0.004 C 
ENDBRANCH  28  29
ENDBRANCH  27  28
ENDBRANCH  26  27
ENDBRANCH  25  26
ENDBRANCH  24  25
ENDBRANCH  23  24
ENDBRANCH  22  23
ENDBRANCH  21  22
ENDBRANCH  20  21
ENDBRANCH  19  20
ENDBRANCH  18  19
ENDBRANCH  17  18
ENDBRANCH   1  17
TORSDOF 26
ENDMDL
MODEL 6
REMARK VINA RESULT:     3.596      2.454      4.093
REMARK INTER + INTRA:           7.236
REMARK INTER:                   5.811
REMARK INTRA:                   1.425
REMARK UNBOUND:                -1.826
REMARK SMILES CCCCCCCCCCCCCCCCCCCCCCCCCCCC(=O)[O-]
REMARK SMILES IDX 15 1 16 2 17 3 18 4 19 5 20 6 21 7 22 8 23 9 24 10 25 11
REMARK SMILES IDX 26 12 27 13 28 14 29 15 30 16 14 17 13 18 12 19 11 20 10 21
REMARK SMILES IDX 9 22 8 23 7 24 6 25 5 26 4 27 3 28 2 29 1 30
REMARK H PARENT
REMARK Flexibility Score: inf
ROOT
ATOM      1  C   UNL     1      -5.269 -51.372   2.832  1.00  0.00     0.000 C 
ENDROOT
BRANCH   1   2
ATOM      2  C   UNL     1      -3.876 -51.881   3.234  1.00  0.00     0.000 C 
BRANCH   2   3
ATOM      3  C   UNL     1      -3.714 -51.987   4.763  1.00  0.00     0.000 C 
BRANCH   3   4
ATOM      4  C   UNL     1      -2.237 -52.112   5.191  1.00  0.00     0.000 C 
BRANCH   4   5
ATOM      5  C   UNL     1      -1.319 -51.054   4.553  1.00  0.00     0.000 C 
BRANCH   5   6
ATOM      6  C   UNL     1      -0.973 -49.906   5.516  1.00  0.00     0.000 C 
BRANCH   6   7
ATOM      7  C   UNL     1      -2.209 -49.370   6.266  1.00  0.00     0.000 C 
BRANCH   7   8
ATOM      8  C   UNL     1      -3.136 -50.475   6.813  1.00  0.00     0.000 C 
BRANCH   8   9
ATOM      9  C   UNL     1      -3.308 -50.490   8.345  1.00  0.00     0.000 C 
BRANCH   9  10
ATOM     10  C   UNL     1      -3.150 -51.877   9.000  1.00  0.00     0.000 C 
BRANCH  10  11
ATOM     11  C   UNL     1      -4.180 -52.124  10.116  1.00  0.00     0.000 C 
BRANCH  11  12
ATOM     12  C   UNL     1      -5.630 -51.994   9.620  1.00  0.00     0.006 C 
BRANCH  12  13
ATOM     13  C   UNL     1      -6.223 -50.601   9.878  1.00  0.00     0.053 C 
BRANCH  13  14
ATOM     14  C   UNL     1      -7.499 -50.429   9.116  1.00  0.00     0.041 C 
ATOM     15  O   UNL     1      -8.471 -51.201   9.324  1.00  0.00    -0.550 OA
ATOM     16  O   UNL     1      -7.598 -49.446   8.139  1.00  0.00    -0.550 OA
ENDBRANCH  13  14
ENDBRANCH  12  13
ENDBRANCH  11  12
ENDBRANCH  10  11
ENDBRANCH   9  10
ENDBRANCH   8   9
ENDBRANCH   7   8
ENDBRANCH   6   7
ENDBRANCH   5   6
ENDBRANCH   4   5
ENDBRANCH   3   4
ENDBRANCH   2   3
ENDBRANCH   1   2
BRANCH   1  17
ATOM     17  C   UNL     1      -6.400 -52.119   3.562  1.00  0.00     0.000 C 
BRANCH  17  18
ATOM     18  C   UNL     1      -7.789 -51.549   3.232  1.00  0.00     0.000 C 
BRANCH  18  19
ATOM     19  C   UNL     1      -7.751 -50.035   2.973  1.00  0.00     0.000 C 
BRANCH  19  20
ATOM     20  C   UNL     1      -7.669 -49.732   1.469  1.00  0.00     0.000 C 
BRANCH  20  21
ATOM     21  C   UNL     1      -8.984 -50.033   0.730  1.00  0.00     0.000 C 
BRANCH  21  22
ATOM     22  C   UNL     1      -9.056 -51.482   0.213  1.00  0.00    -0.000 C 
BRANCH  22  23
ATOM     23  C   UNL     1      -7.667 -52.118   0.019  1.00  0.00    -0.000 C 
BRANCH  23  24
ATOM     24  C   UNL     1      -6.765 -51.416  -1.013  1.00  0.00    -0.000 C 
BRANCH  24  25
ATOM     25  C   UNL     1      -5.299 -51.870  -0.936  1.00  0.00    -0.000 C 
BRANCH  25  26
ATOM     26  C   UNL     1      -4.504 -51.003   0.051  1.00  0.00    -0.000 C 
BRANCH  26  27
ATOM     27  C   UNL     1      -3.028 -50.851  -0.350  1.00  0.00    -0.000 C 
BRANCH  27  28
ATOM     28  C   UNL     1      -2.155 -52.017   0.139  1.00  0.00    -0.000 C 
BRANCH  28  29
ATOM     29  C   UNL     1      -0.677 -51.766  -0.184  1.00  0.00    -0.003 C 
ATOM     30  C   UNL     1      -0.433 -51.768  -1.691  1.00  0.00     0.004 C 
ENDBRANCH  28  29
ENDBRANCH  27  28
ENDBRANCH  26  27
ENDBRANCH  25  26
ENDBRANCH  24  25
ENDBRANCH  23  24
ENDBRANCH  22  23
ENDBRANCH  21  22
ENDBRANCH  20  21
ENDBRANCH  19  20
ENDBRANCH  18  19
ENDBRANCH  17  18
ENDBRANCH   1  17
TORSDOF 26
ENDMDL
MODEL 7
REMARK VINA RESULT:     3.713      1.404      7.831
REMARK INTER + INTRA:           7.531
REMARK INTER:                   0.281
REMARK INTRA:                   7.250
REMARK UNBOUND:                -1.826
REMARK SMILES CCCCCCCCCCCCCCCCCCCCCCCCCCCC(=O)[O-]
REMARK SMILES IDX 15 1 16 2 17 3 18 4 19 5 20 6 21 7 22 8 23 9 24 10 25 11
REMARK SMILES IDX 26 12 27 13 28 14 29 15 30 16 14 17 13 18 12 19 11 20 10 21
REMARK SMILES IDX 9 22 8 23 7 24 6 25 5 26 4 27 3 28 2 29 1 30
REMARK H PARENT
REMARK Flexibility Score: inf
ROOT
ATOM      1  C   UNL     1      -5.468 -51.413   3.318  1.00  0.00     0.000 C 
ENDROOT
BRANCH   1   2
ATOM      2  C   UNL     1      -6.983 -51.438   3.575  1.00  0.00     0.000 C 
BRANCH   2   3
ATOM      3  C   UNL     1      -7.488 -50.124   4.202  1.00  0.00     0.000 C 
BRANCH   3   4
ATOM      4  C   UNL     1      -8.386 -49.319   3.239  1.00  0.00     0.000 C 
BRANCH   4   5
ATOM      5  C   UNL     1      -8.344 -49.829   1.787  1.00  0.00     0.000 C 
BRANCH   5   6
ATOM      6  C   UNL     1      -8.599 -51.342   1.679  1.00  0.00     0.000 C 
BRANCH   6   7
ATOM      7  C   UNL     1      -7.356 -52.119   1.198  1.00  0.00     0.000 C 
BRANCH   7   8
ATOM      8  C   UNL     1      -6.386 -51.277   0.344  1.00  0.00     0.000 C 
BRANCH   8   9
ATOM      9  C   UNL     1      -5.818 -51.989  -0.900  1.00  0.00     0.000 C 
BRANCH   9  10
ATOM     10  C   UNL     1      -4.400 -51.543  -1.309  1.00  0.00     0.000 C 
BRANCH  10  11
ATOM     11  C   UNL     1      -3.412 -51.565  -0.129  1.00  0.00     0.000 C 
BRANCH  11  12
ATOM     12  C   UNL     1      -2.022 -52.086  -0.533  1.00  0.00     0.006 C 
BRANCH  12  13
ATOM     13  C   UNL     1      -0.933 -51.725   0.487  1.00  0.00     0.053 C 
BRANCH  13  14
ATOM     14  C   UNL     1      -1.503 -50.878   1.581  1.00  0.00     0.041 C 
ATOM     15  O   UNL     1      -2.714 -50.536   1.551  1.00  0.00    -0.550 OA
ATOM     16  O   UNL     1      -0.686 -50.423   2.607  1.00  0.00    -0.550 OA
ENDBRANCH  13  14
ENDBRANCH  12  13
ENDBRANCH  11  12
ENDBRANCH  10  11
ENDBRANCH   9  10
ENDBRANCH   8   9
ENDBRANCH   7   8
ENDBRANCH   6   7
ENDBRANCH   5   6
ENDBRANCH   4   5
ENDBRANCH   3   4
ENDBRANCH   2   3
ENDBRANCH   1   2
BRANCH   1  17
ATOM     17  C   UNL     1      -4.651 -51.662   4.599  1.00  0.00     0.000 C 
BRANCH  17  18
ATOM     18  C   UNL     1      -3.149 -51.404   4.397  1.00  0.00     0.000 C 
BRANCH  18  19
ATOM     19  C   UNL     1      -2.305 -51.927   5.571  1.00  0.00     0.000 C 
BRANCH  19  20
ATOM     20  C   UNL     1      -3.159 -52.085   6.838  1.00  0.00     0.000 C 
BRANCH  20  21
ATOM     21  C   UNL     1      -3.040 -50.882   7.788  1.00  0.00     0.000 C 
BRANCH  21  22
ATOM     22  C   UNL     1      -3.824 -51.081   9.098  1.00  0.00    -0.000 C 
BRANCH  22  23
ATOM     23  C   UNL     1      -5.348 -51.148   8.881  1.00  0.00    -0.000 C 
BRANCH  23  24
ATOM     24  C   UNL     1      -6.167 -51.546  10.122  1.00  0.00    -0.000 C 
BRANCH  24  25
ATOM     25  C   UNL     1      -7.614 -51.938   9.785  1.00  0.00    -0.000 C 
BRANCH  25  26
ATOM     26  C   UNL     1      -8.441 -50.707   9.387  1.00  0.00    -0.000 C 
BRANCH  26  27
ATOM     27  C   UNL     1      -7.947 -50.058   8.083  1.00  0.00    -0.000 C 
BRANCH  27  28
ATOM     28  C   UNL     1      -7.501 -51.091   7.037  1.00  0.00    -0.000 C 
BRANCH  28  29
ATOM     29  C   UNL     1      -8.608 -52.121   6.780  1.00  0.00    -0.003 C 
ATOM     30  C   UNL     1      -9.095 -52.061   5.334  1.00  0.00     0.004 C 
ENDBRANCH  28  29
ENDBRANCH  27  28
ENDBRANCH  26  27
ENDBRANCH  25  26
ENDBRANCH  24  25
ENDBRANCH  23  24
ENDBRANCH  22  23
ENDBRANCH  21  22
ENDBRANCH  20  21
ENDBRANCH  19  20
ENDBRANCH  18  19
ENDBRANCH  17  18
ENDBRANCH   1  17
TORSDOF 26
ENDMDL
