MODEL 1
REMARK VINA RESULT:    -3.791      0.000      0.000
REMARK INTER + INTRA:          -4.395
REMARK INTER:                  -4.345
REMARK INTRA:                  -0.050
REMARK UNBOUND:                -0.050
REMARK SMILES CC(C)[C@H]([NH3+])C(=O)[O-]
REMARK SMILES IDX 4 1 5 2 6 6 7 7 8 8 2 9 1 10 3 11
REMARK H PARENT 5 3 5 4 5 5
REMARK Flexibility Score: inf
ROOT
ATOM      1  C   UNL     1       4.378  45.937   9.118  1.00  0.00     0.230 C 
ENDROOT
BRANCH   1   2
ATOM      2  N   UNL     1       3.064  46.454   8.706  1.00  0.00    -0.350 N 
ATOM      3  H   UNL     1       3.039  46.623   7.674  1.00  0.00     0.345 HD
ATOM      4  H   UNL     1       2.312  45.777   8.970  1.00  0.00     0.345 HD
ATOM      5  H   UNL     1       2.859  47.352   9.203  1.00  0.00     0.345 HD
ENDBRANCH   1   2
BRANCH   1   6
ATOM      6  C   UNL     1       4.189  44.641   9.867  1.00  0.00     0.099 C 
ATOM      7  O   UNL     1       4.136  43.549   9.241  1.00  0.00    -0.544 OA
ATOM      8  O   UNL     1       4.077  44.643  11.252  1.00  0.00    -0.544 OA
ENDBRANCH   1   6
BRANCH   1   9
ATOM      9  C   UNL     1       5.161  46.968   9.987  1.00  0.00     0.047 C 
ATOM     10  C   UNL     1       6.371  47.535   9.223  1.00  0.00     0.014 C 
ATOM     11  C   UNL     1       4.264  48.130  10.444  1.00  0.00     0.014 C 
ENDBRANCH   1   9
TORSDOF 3
ENDMDL
MODEL 2
REMARK VINA RESULT:    -3.747      2.591      3.170
REMARK INTER + INTRA:          -4.345
REMARK INTER:                  -4.283
REMARK INTRA:                  -0.062
REMARK UNBOUND:                -0.050
REMARK SMILES CC(C)[C@H]([NH3+])C(=O)[O-]
REMARK SMILES IDX 4 1 5 2 6 6 7 7 8 8 2 9 1 10 3 11
REMARK H PARENT 5 3 5 4 5 5
REMARK Flexibility Score: inf
ROOT
ATOM      1  C   UNL     1       5.590  47.932   9.433  1.00  0.00     0.230 C 
ENDROOT
BRANCH   1   2
ATOM      2  N   UNL     1       6.747  48.141   8.550  1.00  0.00    -0.350 N 
ATOM      3  H   UNL     1       6.506  48.795   7.771  1.00  0.00     0.345 HD
ATOM      4  H   UNL     1       7.553  48.525   9.095  1.00  0.00     0.345 HD
ATOM      5  H   UNL     1       7.058  47.228   8.143  1.00  0.00     0.345 HD
ENDBRANCH   1   2
BRANCH   1   6
ATOM      6  C   UNL     1       4.578  47.063   8.729  1.00  0.00     0.099 C 
ATOM      7  O   UNL     1       4.457  45.850   9.043  1.00  0.00    -0.544 OA
ATOM      8  O   UNL     1       3.770  47.596   7.732  1.00  0.00    -0.544 OA
ENDBRANCH   1   6
BRANCH   1   9
ATOM      9  C   UNL     1       4.946  49.282   9.875  1.00  0.00     0.047 C 
ATOM     10  C   UNL     1       3.814  49.053  10.891  1.00  0.00     0.014 C 
ATOM     11  C   UNL     1       5.983  50.239  10.484  1.00  0.00     0.014 C 
ENDBRANCH   1   9
TORSDOF 3
ENDMDL
MODEL 3
REMARK VINA RESULT:    -3.666      2.587      3.970
REMARK INTER + INTRA:          -4.252
REMARK INTER:                  -4.224
REMARK INTRA:                  -0.029
REMARK UNBOUND:                -0.050
REMARK SMILES CC(C)[C@H]([NH3+])C(=O)[O-]
REMARK SMILES IDX 4 1 5 2 6 6 7 7 8 8 2 9 1 10 3 11
REMARK H PARENT 5 3 5 4 5 5
REMARK Flexibility Score: inf
ROOT
ATOM      1  C   UNL     1       3.999  44.212  10.989  1.00  0.00     0.230 C 
ENDROOT
BRANCH   1   2
ATOM      2  N   UNL     1       4.315  44.392  12.414  1.00  0.00    -0.350 N 
ATOM      3  H   UNL     1       4.328  45.407  12.666  1.00  0.00     0.345 HD
ATOM      4  H   UNL     1       3.612  43.892  13.005  1.00  0.00     0.345 HD
ATOM      5  H   UNL     1       5.250  43.976  12.631  1.00  0.00     0.345 HD
ENDBRANCH   1   2
BRANCH   1   6
ATOM      6  C   UNL     1       4.226  45.515  10.262  1.00  0.00     0.099 C 
ATOM      7  O   UNL     1       4.595  45.514   9.058  1.00  0.00    -0.544 OA
ATOM      8  O   UNL     1       4.024  46.725  10.915  1.00  0.00    -0.544 OA
ENDBRANCH   1   6
BRANCH   1   9
ATOM      9  C   UNL     1       2.539  43.709  10.776  1.00  0.00     0.047 C 
ATOM     10  C   UNL     1       2.425  42.848   9.506  1.00  0.00     0.014 C 
ATOM     11  C   UNL     1       2.031  42.899  11.980  1.00  0.00     0.014 C 
ENDBRANCH   1   9
TORSDOF 3
ENDMDL
MODEL 4
REMARK VINA RESULT:    -3.634      2.873      3.821
REMARK INTER + INTRA:          -4.215
REMARK INTER:                  -4.181
REMARK INTRA:                  -0.034
REMARK UNBOUND:                -0.050
REMARK SMILES CC(C)[C@H]([NH3+])C(=O)[O-]
REMARK SMILES IDX 4 1 5 2 6 6 7 7 8 8 2 9 1 10 3 11
REMARK H PARENT 5 3 5 4 5 5
REMARK Flexibility Score: inf
ROOT
ATOM      1  C   UNL     1       3.360  43.944  11.510  1.00  0.00     0.230 C 
ENDROOT
BRANCH   1   2
ATOM      2  N   UNL     1       4.398  44.355  12.467  1.00  0.00    -0.350 N 
ATOM      3  H   UNL     1       5.316  43.910  12.233  1.00  0.00     0.345 HD
ATOM      4  H   UNL     1       4.501  45.396  12.463  1.00  0.00     0.345 HD
ATOM      5  H   UNL     1       4.124  44.077  13.438  1.00  0.00     0.345 HD
ENDBRANCH   1   2
BRANCH   1   6
ATOM      6  C   UNL     1       2.796  42.610  11.934  1.00  0.00     0.099 C 
ATOM      7  O   UNL     1       3.547  41.604  12.022  1.00  0.00    -0.544 OA
ATOM      8  O   UNL     1       1.445  42.485  12.234  1.00  0.00    -0.544 OA
ENDBRANCH   1   6
BRANCH   1   9
ATOM      9  C   UNL     1       3.908  43.874  10.052  1.00  0.00     0.047 C 
ATOM     10  C   UNL     1       2.887  43.222   9.104  1.00  0.00     0.014 C 
ATOM     11  C   UNL     1       4.280  45.264   9.513  1.00  0.00     0.014 C 
ENDBRANCH   1   9
TORSDOF 3
ENDMDL
MODEL 5
REMARK VINA RESULT:    -3.614      3.790      4.492
REMARK INTER + INTRA:          -4.192
REMARK INTER:                  -4.148
REMARK INTRA:                  -0.045
REMARK UNBOUND:                -0.050
REMARK SMILES CC(C)[C@H]([NH3+])C(=O)[O-]
REMARK SMILES IDX 4 1 5 2 6 6 7 7 8 8 2 9 1 10 3 11
REMARK H PARENT 5 3 5 4 5 5
REMARK Flexibility Score: inf
ROOT
ATOM      1  C   UNL     1       5.086  49.129  10.242  1.00  0.00     0.230 C 
ENDROOT
BRANCH   1   2
ATOM      2  N   UNL     1       4.047  48.789  11.226  1.00  0.00    -0.350 N 
ATOM      3  H   UNL     1       4.023  49.494  11.999  1.00  0.00     0.345 HD
ATOM      4  H   UNL     1       3.111  48.745  10.762  1.00  0.00     0.345 HD
ATOM      5  H   UNL     1       4.233  47.844  11.635  1.00  0.00     0.345 HD
ENDBRANCH   1   2
BRANCH   1   6
ATOM      6  C   UNL     1       4.588  50.248   9.361  1.00  0.00     0.099 C 
ATOM      7  O   UNL     1       3.482  50.800   9.602  1.00  0.00    -0.544 OA
ATOM      8  O   UNL     1       5.348  50.679   8.280  1.00  0.00    -0.544 OA
ENDBRANCH   1   6
BRANCH   1   9
ATOM      9  C   UNL     1       5.500  47.894   9.385  1.00  0.00     0.047 C 
ATOM     10  C   UNL     1       7.030  47.730   9.348  1.00  0.00     0.014 C 
ATOM     11  C   UNL     1       4.867  46.595   9.911  1.00  0.00     0.014 C 
ENDBRANCH   1   9
TORSDOF 3
ENDMDL
MODEL 6
REMARK VINA RESULT:    -3.596      2.575      3.032
REMARK INTER + INTRA:          -4.172
REMARK INTER:                  -4.112
REMARK INTRA:                  -0.060
REMARK UNBOUND:                -0.050
REMARK SMILES CC(C)[C@H]([NH3+])C(=O)[O-]
REMARK SMILES IDX 4 1 5 2 6 6 7 7 8 8 2 9 1 10 3 11
REMARK H PARENT 5 3 5 4 5 5
REMARK Flexibility Score: inf
ROOT
ATOM      1  C   UNL     1       4.674  47.318   9.468  1.00  0.00     0.230 C 
ENDROOT
BRANCH   1   2
ATOM      2  N   UNL     1       5.106  45.919   9.608  1.00  0.00    -0.350 N 
ATOM      3  H   UNL     1       6.150  45.853   9.624  1.00  0.00     0.345 HD
ATOM      4  H   UNL     1       4.714  45.506  10.485  1.00  0.00     0.345 HD
ATOM      5  H   UNL     1       4.742  45.348   8.810  1.00  0.00     0.345 HD
ENDBRANCH   1   2
BRANCH   1   6
ATOM      6  C   UNL     1       3.574  47.396   8.437  1.00  0.00     0.099 C 
ATOM      7  O   UNL     1       3.750  48.043   7.371  1.00  0.00    -0.544 OA
ATOM      8  O   UNL     1       2.363  46.751   8.655  1.00  0.00    -0.544 OA
ENDBRANCH   1   6
BRANCH   1   9
ATOM      9  C   UNL     1       5.859  48.256   9.083  1.00  0.00     0.047 C 
ATOM     10  C   UNL     1       5.799  49.579   9.868  1.00  0.00     0.014 C 
ATOM     11  C   UNL     1       7.221  47.587   9.328  1.00  0.00     0.014 C 
ENDBRANCH   1   9
TORSDOF 3
ENDMDL
MODEL 7
REMARK VINA RESULT:    -3.595      3.812      4.573
REMARK INTER + INTRA:          -4.171
REMARK INTER:                  -4.120
REMARK INTRA:                  -0.051
REMARK UNBOUND:                -0.050
REMARK SMILES CC(C)[C@H]([NH3+])C(=O)[O-]
REMARK SMILES IDX 4 1 5 2 6 6 7 7 8 8 2 9 1 10 3 11
REMARK H PARENT 5 3 5 4 5 5
REMARK Flexibility Score: inf
ROOT
ATOM      1  C   UNL     1       5.688  48.524   8.941  1.00  0.00     0.230 C 
ENDROOT
BRANCH   1   2
ATOM      2  N   UNL     1       7.005  47.951   8.626  1.00  0.00    -0.350 N 
ATOM      3  H   UNL     1       6.930  46.922   8.452  1.00  0.00     0.345 HD
ATOM      4  H   UNL     1       7.411  48.421   7.784  1.00  0.00     0.345 HD
ATOM      5  H   UNL     1       7.668  48.114   9.419  1.00  0.00     0.345 HD
ENDBRANCH   1   2
BRANCH   1   6
ATOM      6  C   UNL     1       5.851  49.985   9.280  1.00  0.00     0.099 C 
ATOM      7  O   UNL     1       5.463  50.870   8.472  1.00  0.00    -0.544 OA
ATOM      8  O   UNL     1       6.425  50.364  10.487  1.00  0.00    -0.544 OA
ENDBRANCH   1   6
BRANCH   1   9
ATOM      9  C   UNL     1       4.987  47.762  10.107  1.00  0.00     0.047 C 
ATOM     10  C   UNL     1       3.618  48.384  10.436  1.00  0.00     0.014 C 
ATOM     11  C   UNL     1       4.797  46.271   9.783  1.00  0.00     0.014 C 
ENDBRANCH   1   9
TORSDOF 3
ENDMDL
MODEL 8
REMARK VINA RESULT:    -3.541      2.142      3.513
REMARK INTER + INTRA:          -4.108
REMARK INTER:                  -4.060
REMARK INTRA:                  -0.048
REMARK UNBOUND:                -0.050
REMARK SMILES CC(C)[C@H]([NH3+])C(=O)[O-]
REMARK SMILES IDX 4 1 5 2 6 6 7 7 8 8 2 9 1 10 3 11
REMARK H PARENT 5 3 5 4 5 5
REMARK Flexibility Score: inf
ROOT
ATOM      1  C   UNL     1       3.534  46.074  10.325  1.00  0.00     0.230 C 
ENDROOT
BRANCH   1   2
ATOM      2  N   UNL     1       2.905  45.949   9.002  1.00  0.00    -0.350 N 
ATOM      3  H   UNL     1       1.876  46.130   9.061  1.00  0.00     0.345 HD
ATOM      4  H   UNL     1       3.342  46.620   8.329  1.00  0.00     0.345 HD
ATOM      5  H   UNL     1       3.059  44.986   8.619  1.00  0.00     0.345 HD
ENDBRANCH   1   2
BRANCH   1   6
ATOM      6  C   UNL     1       4.471  47.256  10.319  1.00  0.00     0.099 C 
ATOM      7  O   UNL     1       4.113  48.351  10.827  1.00  0.00    -0.544 OA
ATOM      8  O   UNL     1       5.738  47.142   9.758  1.00  0.00    -0.544 OA
ENDBRANCH   1   6
BRANCH   1   9
ATOM      9  C   UNL     1       4.289  44.772  10.734  1.00  0.00     0.047 C 
ATOM     10  C   UNL     1       3.836  44.278  12.120  1.00  0.00     0.014 C 
ATOM     11  C   UNL     1       4.087  43.646   9.708  1.00  0.00     0.014 C 
ENDBRANCH   1   9
TORSDOF 3
ENDMDL
MODEL 9
REMARK VINA RESULT:    -3.471      1.944      2.583
REMARK INTER + INTRA:          -4.028
REMARK INTER:                  -3.967
REMARK INTRA:                  -0.061
REMARK UNBOUND:                -0.050
REMARK SMILES CC(C)[C@H]([NH3+])C(=O)[O-]
REMARK SMILES IDX 4 1 5 2 6 6 7 7 8 8 2 9 1 10 3 11
REMARK H PARENT 5 3 5 4 5 5
REMARK Flexibility Score: inf
ROOT
ATOM      1  C   UNL     1       4.055  47.867   9.834  1.00  0.00     0.230 C 
ENDROOT
BRANCH   1   2
ATOM      2  N   UNL     1       4.182  48.610  11.097  1.00  0.00    -0.350 N 
ATOM      3  H   UNL     1       3.241  48.871  11.470  1.00  0.00     0.345 HD
ATOM      4  H   UNL     1       4.693  48.034  11.805  1.00  0.00     0.345 HD
ATOM      5  H   UNL     1       4.742  49.481  10.948  1.00  0.00     0.345 HD
ENDBRANCH   1   2
BRANCH   1   6
ATOM      6  C   UNL     1       4.243  46.394  10.104  1.00  0.00     0.099 C 
ATOM      7  O   UNL     1       4.128  45.945  11.275  1.00  0.00    -0.544 OA
ATOM      8  O   UNL     1       4.537  45.523   9.062  1.00  0.00    -0.544 OA
ENDBRANCH   1   6
BRANCH   1   9
ATOM      9  C   UNL     1       5.072  48.365   8.763  1.00  0.00     0.047 C 
ATOM     10  C   UNL     1       4.678  49.752   8.224  1.00  0.00     0.014 C 
ATOM     11  C   UNL     1       6.504  48.428   9.318  1.00  0.00     0.014 C 
ENDBRANCH   1   9
TORSDOF 3
ENDMDL
