MODEL 1
REMARK VINA RESULT:    -3.322      0.000      0.000
REMARK INTER + INTRA:          -9.268
REMARK INTER:                  -6.429
REMARK INTRA:                  -2.838
REMARK UNBOUND:                -2.838
REMARK SMILES CCCCCCCCCCCCCCCCCC(=O)[O-]
REMARK SMILES IDX 10 1 11 2 12 3 13 4 14 5 15 6 16 7 17 8 18 9 19 10 20 11
REMARK SMILES IDX 9 12 8 13 7 14 6 15 5 16 4 17 3 18 2 19 1 20
REMARK H PARENT
REMARK Flexibility Score: inf
ROOT
ATOM      1  C   UNL     1     -98.110 -42.962  -9.253  1.00  0.00     0.000 C 
ENDROOT
BRANCH   1   2
ATOM      2  C   UNL     1     -96.939 -43.025 -10.256  1.00  0.00     0.000 C 
BRANCH   2   3
ATOM      3  C   UNL     1     -97.321 -43.496 -11.673  1.00  0.00     0.000 C 
BRANCH   3   4
ATOM      4  C   UNL     1     -98.834 -43.514 -11.962  1.00  0.00     0.000 C 
BRANCH   4   5
ATOM      5  C   UNL     1     -99.358 -44.886 -12.440  1.00  0.00     0.000 C 
BRANCH   5   6
ATOM      6  C   UNL     1     -98.314 -46.005 -12.269  1.00  0.00     0.000 C 
BRANCH   6   7
ATOM      7  C   UNL     1     -98.953 -47.367 -11.956  1.00  0.00     0.006 C 
BRANCH   7   8
ATOM      8  C   UNL     1     -99.045 -48.275 -13.189  1.00  0.00     0.053 C 
BRANCH   8   9
ATOM      9  C   UNL     1    -100.474 -48.460 -13.593  1.00  0.00     0.041 C 
ATOM     10  O   UNL     1    -100.944 -49.619 -13.746  1.00  0.00    -0.550 OA
ATOM     11  O   UNL     1    -101.300 -47.356 -13.752  1.00  0.00    -0.550 OA
ENDBRANCH   8   9
ENDBRANCH   7   8
ENDBRANCH   6   7
ENDBRANCH   5   6
ENDBRANCH   4   5
ENDBRANCH   3   4
ENDBRANCH   2   3
ENDBRANCH   1   2
BRANCH   1  12
ATOM     12  C   UNL     1     -98.078 -44.029  -8.141  1.00  0.00     0.000 C 
BRANCH  12  13
ATOM     13  C   UNL     1     -98.423 -45.458  -8.602  1.00  0.00    -0.000 C 
BRANCH  13  14
ATOM     14  C   UNL     1     -97.232 -46.438  -8.640  1.00  0.00    -0.000 C 
BRANCH  14  15
ATOM     15  C   UNL     1     -95.930 -45.911  -8.009  1.00  0.00    -0.000 C 
BRANCH  15  16
ATOM     16  C   UNL     1     -94.770 -45.828  -9.016  1.00  0.00    -0.000 C 
BRANCH  16  17
ATOM     17  C   UNL     1     -95.180 -46.281 -10.427  1.00  0.00    -0.000 C 
BRANCH  17  18
ATOM     18  C   UNL     1     -94.412 -47.531 -10.895  1.00  0.00    -0.000 C 
BRANCH  18  19
ATOM     19  C   UNL     1     -94.554 -47.775 -12.405  1.00  0.00    -0.003 C 
ATOM     20  C   UNL     1     -95.444 -48.974 -12.729  1.00  0.00     0.004 C 
ENDBRANCH  18  19
ENDBRANCH  17  18
ENDBRANCH  16  17
ENDBRANCH  15  16
ENDBRANCH  14  15
ENDBRANCH  13  14
ENDBRANCH  12  13
ENDBRANCH   1  12
TORSDOF 16
ENDMDL
MODEL 2
REMARK VINA RESULT:    -3.060      1.632      2.113
REMARK INTER + INTRA:          -8.761
REMARK INTER:                  -5.439
REMARK INTRA:                  -3.322
REMARK UNBOUND:                -2.838
REMARK SMILES CCCCCCCCCCCCCCCCCC(=O)[O-]
REMARK SMILES IDX 10 1 11 2 12 3 13 4 14 5 15 6 16 7 17 8 18 9 19 10 20 11
REMARK SMILES IDX 9 12 8 13 7 14 6 15 5 16 4 17 3 18 2 19 1 20
REMARK H PARENT
REMARK Flexibility Score: inf
ROOT
ATOM      1  C   UNL     1     -97.654 -42.997  -9.418  1.00  0.00     0.000 C 
ENDROOT
BRANCH   1   2
ATOM      2  C   UNL     1     -98.791 -42.875 -10.453  1.00  0.00     0.000 C 
BRANCH   2   3
ATOM      3  C   UNL     1     -98.441 -43.375 -11.867  1.00  0.00     0.000 C 
BRANCH   3   4
ATOM      4  C   UNL     1     -97.000 -43.892 -12.031  1.00  0.00     0.000 C 
BRANCH   4   5
ATOM      5  C   UNL     1     -96.892 -45.432 -12.055  1.00  0.00     0.000 C 
BRANCH   5   6
ATOM      6  C   UNL     1     -98.270 -46.117 -12.060  1.00  0.00     0.000 C 
BRANCH   6   7
ATOM      7  C   UNL     1     -98.506 -46.980 -10.810  1.00  0.00     0.006 C 
BRANCH   7   8
ATOM      8  C   UNL     1     -99.802 -46.614 -10.074  1.00  0.00     0.053 C 
BRANCH   8   9
ATOM      9  C   UNL     1    -100.828 -47.687 -10.261  1.00  0.00     0.041 C 
ATOM     10  O   UNL     1    -101.471 -48.129  -9.272  1.00  0.00    -0.550 OA
ATOM     11  O   UNL     1    -101.110 -48.166 -11.534  1.00  0.00    -0.550 OA
ENDBRANCH   8   9
ENDBRANCH   7   8
ENDBRANCH   6   7
ENDBRANCH   5   6
ENDBRANCH   4   5
ENDBRANCH   3   4
ENDBRANCH   2   3
ENDBRANCH   1   2
BRANCH   1  12
ATOM     12  C   UNL     1     -97.922 -43.981  -8.263  1.00  0.00     0.000 C 
BRANCH  12  13
ATOM     13  C   UNL     1     -96.825 -45.041  -8.044  1.00  0.00    -0.000 C 
BRANCH  13  14
ATOM     14  C   UNL     1     -95.511 -44.790  -8.811  1.00  0.00    -0.000 C 
BRANCH  14  15
ATOM     15  C   UNL     1     -94.655 -46.042  -9.073  1.00  0.00    -0.000 C 
BRANCH  15  16
ATOM     16  C   UNL     1     -95.451 -47.351  -8.923  1.00  0.00    -0.000 C 
BRANCH  16  17
ATOM     17  C   UNL     1     -95.147 -48.357 -10.044  1.00  0.00    -0.000 C 
BRANCH  17  18
ATOM     18  C   UNL     1     -94.222 -47.776 -11.129  1.00  0.00    -0.000 C 
BRANCH  18  19
ATOM     19  C   UNL     1     -94.483 -48.389 -12.513  1.00  0.00    -0.003 C 
ATOM     20  C   UNL     1     -95.881 -48.993 -12.637  1.00  0.00     0.004 C 
ENDBRANCH  18  19
ENDBRANCH  17  18
ENDBRANCH  16  17
ENDBRANCH  15  16
ENDBRANCH  14  15
ENDBRANCH  13  14
ENDBRANCH  12  13
ENDBRANCH   1  12
TORSDOF 16
ENDMDL
MODEL 3
REMARK VINA RESULT:    -3.053      1.433      1.965
REMARK INTER + INTRA:          -8.747
REMARK INTER:                  -5.754
REMARK INTRA:                  -2.994
REMARK UNBOUND:                -2.838
REMARK SMILES CCCCCCCCCCCCCCCCCC(=O)[O-]
REMARK SMILES IDX 10 1 11 2 12 3 13 4 14 5 15 6 16 7 17 8 18 9 19 10 20 11
REMARK SMILES IDX 9 12 8 13 7 14 6 15 5 16 4 17 3 18 2 19 1 20
REMARK H PARENT
REMARK Flexibility Score: inf
ROOT
ATOM      1  C   UNL     1     -97.272 -44.751  -7.969  1.00  0.00     0.000 C 
ENDROOT
BRANCH   1   2
ATOM      2  C   UNL     1     -96.417 -43.995  -9.007  1.00  0.00     0.000 C 
BRANCH   2   3
ATOM      3  C   UNL     1     -97.218 -43.150 -10.017  1.00  0.00     0.000 C 
BRANCH   3   4
ATOM      4  C   UNL     1     -97.262 -43.722 -11.446  1.00  0.00     0.000 C 
BRANCH   4   5
ATOM      5  C   UNL     1     -98.670 -43.700 -12.081  1.00  0.00     0.000 C 
BRANCH   5   6
ATOM      6  C   UNL     1     -99.188 -45.112 -12.408  1.00  0.00     0.000 C 
BRANCH   6   7
ATOM      7  C   UNL     1     -98.151 -46.206 -12.112  1.00  0.00     0.006 C 
BRANCH   7   8
ATOM      8  C   UNL     1     -98.542 -47.567 -12.704  1.00  0.00     0.053 C 
BRANCH   8   9
ATOM      9  C   UNL     1     -99.052 -48.475 -11.629  1.00  0.00     0.041 C 
ATOM     10  O   UNL     1     -99.936 -48.073 -10.827  1.00  0.00    -0.550 OA
ATOM     11  O   UNL     1     -98.587 -49.781 -11.543  1.00  0.00    -0.550 OA
ENDBRANCH   8   9
ENDBRANCH   7   8
ENDBRANCH   6   7
ENDBRANCH   5   6
ENDBRANCH   4   5
ENDBRANCH   3   4
ENDBRANCH   2   3
ENDBRANCH   1   2
BRANCH   1  12
ATOM     12  C   UNL     1     -98.117 -45.910  -8.535  1.00  0.00     0.000 C 
BRANCH  12  13
ATOM     13  C   UNL     1     -97.546 -47.317  -8.275  1.00  0.00    -0.000 C 
BRANCH  13  14
ATOM     14  C   UNL     1     -96.392 -47.737  -9.209  1.00  0.00    -0.000 C 
BRANCH  14  15
ATOM     15  C   UNL     1     -94.978 -47.501  -8.648  1.00  0.00    -0.000 C 
BRANCH  15  16
ATOM     16  C   UNL     1     -94.019 -46.892  -9.686  1.00  0.00    -0.000 C 
BRANCH  16  17
ATOM     17  C   UNL     1     -94.739 -46.459 -10.973  1.00  0.00    -0.000 C 
BRANCH  17  18
ATOM     18  C   UNL     1     -94.015 -46.933 -12.246  1.00  0.00    -0.000 C 
BRANCH  18  19
ATOM     19  C   UNL     1     -93.866 -48.461 -12.303  1.00  0.00    -0.003 C 
ATOM     20  C   UNL     1     -95.199 -49.176 -12.525  1.00  0.00     0.004 C 
ENDBRANCH  18  19
ENDBRANCH  17  18
ENDBRANCH  16  17
ENDBRANCH  15  16
ENDBRANCH  14  15
ENDBRANCH  13  14
ENDBRANCH  12  13
ENDBRANCH   1  12
TORSDOF 16
ENDMDL
MODEL 4
REMARK VINA RESULT:    -3.048      2.440      5.024
REMARK INTER + INTRA:          -8.738
REMARK INTER:                  -5.888
REMARK INTRA:                  -2.849
REMARK UNBOUND:                -2.838
REMARK SMILES CCCCCCCCCCCCCCCCCC(=O)[O-]
REMARK SMILES IDX 10 1 11 2 12 3 13 4 14 5 15 6 16 7 17 8 18 9 19 10 20 11
REMARK SMILES IDX 9 12 8 13 7 14 6 15 5 16 4 17 3 18 2 19 1 20
REMARK H PARENT
REMARK Flexibility Score: inf
ROOT
ATOM      1  C   UNL     1     -97.053 -43.924 -11.673  1.00  0.00     0.000 C 
ENDROOT
BRANCH   1   2
ATOM      2  C   UNL     1     -97.587 -43.123 -10.468  1.00  0.00     0.000 C 
BRANCH   2   3
ATOM      3  C   UNL     1     -96.941 -43.476  -9.114  1.00  0.00     0.000 C 
BRANCH   3   4
ATOM      4  C   UNL     1     -97.459 -44.776  -8.471  1.00  0.00     0.000 C 
BRANCH   4   5
ATOM      5  C   UNL     1     -96.476 -45.961  -8.589  1.00  0.00     0.000 C 
BRANCH   5   6
ATOM      6  C   UNL     1     -95.035 -45.502  -8.877  1.00  0.00     0.000 C 
BRANCH   6   7
ATOM      7  C   UNL     1     -94.273 -46.479  -9.787  1.00  0.00     0.006 C 
BRANCH   7   8
ATOM      8  C   UNL     1     -95.208 -47.324 -10.662  1.00  0.00     0.053 C 
BRANCH   8   9
ATOM      9  C   UNL     1     -94.715 -47.350 -12.074  1.00  0.00     0.041 C 
ATOM     10  O   UNL     1     -94.907 -48.365 -12.795  1.00  0.00    -0.550 OA
ATOM     11  O   UNL     1     -94.088 -46.234 -12.613  1.00  0.00    -0.550 OA
ENDBRANCH   8   9
ENDBRANCH   7   8
ENDBRANCH   6   7
ENDBRANCH   5   6
ENDBRANCH   4   5
ENDBRANCH   3   4
ENDBRANCH   2   3
ENDBRANCH   1   2
BRANCH   1  12
ATOM     12  C   UNL     1     -97.880 -45.168 -12.051  1.00  0.00     0.000 C 
BRANCH  12  13
ATOM     13  C   UNL     1     -99.358 -44.890 -12.386  1.00  0.00    -0.000 C 
BRANCH  13  14
ATOM     14  C   UNL     1    -100.377 -45.501 -11.402  1.00  0.00    -0.000 C 
BRANCH  14  15
ATOM     15  C   UNL     1    -101.351 -46.521 -12.019  1.00  0.00    -0.000 C 
BRANCH  15  16
ATOM     16  C   UNL     1    -100.867 -47.064 -13.374  1.00  0.00    -0.000 C 
BRANCH  16  17
ATOM     17  C   UNL     1    -100.251 -48.469 -13.261  1.00  0.00    -0.000 C 
BRANCH  17  18
ATOM     18  C   UNL     1     -98.719 -48.434 -13.110  1.00  0.00    -0.000 C 
BRANCH  18  19
ATOM     19  C   UNL     1     -98.232 -49.240 -11.896  1.00  0.00    -0.003 C 
ATOM     20  C   UNL     1     -98.626 -48.599 -10.565  1.00  0.00     0.004 C 
ENDBRANCH  18  19
ENDBRANCH  17  18
ENDBRANCH  16  17
ENDBRANCH  15  16
ENDBRANCH  14  15
ENDBRANCH  13  14
ENDBRANCH  12  13
ENDBRANCH   1  12
TORSDOF 16
ENDMDL
MODEL 5
REMARK VINA RESULT:    -3.033      2.578      4.949
REMARK INTER + INTRA:          -8.709
REMARK INTER:                  -6.228
REMARK INTRA:                  -2.481
REMARK UNBOUND:                -2.838
REMARK SMILES CCCCCCCCCCCCCCCCCC(=O)[O-]
REMARK SMILES IDX 10 1 11 2 12 3 13 4 14 5 15 6 16 7 17 8 18 9 19 10 20 11
REMARK SMILES IDX 9 12 8 13 7 14 6 15 5 16 4 17 3 18 2 19 1 20
REMARK H PARENT
REMARK Flexibility Score: inf
ROOT
ATOM      1  C   UNL     1     -97.880 -42.906  -9.424  1.00  0.00     0.000 C 
ENDROOT
BRANCH   1   2
ATOM      2  C   UNL     1     -98.120 -43.892  -8.261  1.00  0.00     0.000 C 
BRANCH   2   3
ATOM      3  C   UNL     1     -97.132 -45.073  -8.195  1.00  0.00     0.000 C 
BRANCH   3   4
ATOM      4  C   UNL     1     -95.694 -44.738  -8.631  1.00  0.00     0.000 C 
BRANCH   4   5
ATOM      5  C   UNL     1     -94.854 -45.978  -9.007  1.00  0.00     0.000 C 
BRANCH   5   6
ATOM      6  C   UNL     1     -95.644 -47.289  -8.855  1.00  0.00     0.000 C 
BRANCH   6   7
ATOM      7  C   UNL     1     -95.344 -48.295  -9.977  1.00  0.00     0.006 C 
BRANCH   7   8
ATOM      8  C   UNL     1     -93.879 -48.253 -10.433  1.00  0.00     0.053 C 
BRANCH   8   9
ATOM      9  C   UNL     1     -93.800 -48.000 -11.906  1.00  0.00     0.041 C 
ATOM     10  O   UNL     1     -93.968 -48.944 -12.722  1.00  0.00    -0.550 OA
ATOM     11  O   UNL     1     -93.589 -46.711 -12.379  1.00  0.00    -0.550 OA
ENDBRANCH   8   9
ENDBRANCH   7   8
ENDBRANCH   6   7
ENDBRANCH   5   6
ENDBRANCH   4   5
ENDBRANCH   3   4
ENDBRANCH   2   3
ENDBRANCH   1   2
BRANCH   1  12
ATOM     12  C   UNL     1     -98.983 -42.883 -10.500  1.00  0.00     0.000 C 
BRANCH  12  13
ATOM     13  C   UNL     1     -98.552 -43.407 -11.884  1.00  0.00    -0.000 C 
BRANCH  13  14
ATOM     14  C   UNL     1     -97.060 -43.782 -12.005  1.00  0.00    -0.000 C 
BRANCH  14  15
ATOM     15  C   UNL     1     -96.765 -45.292 -12.033  1.00  0.00    -0.000 C 
BRANCH  15  16
ATOM     16  C   UNL     1     -98.023 -46.150 -11.816  1.00  0.00    -0.000 C 
BRANCH  16  17
ATOM     17  C   UNL     1     -97.907 -47.541 -12.462  1.00  0.00    -0.000 C 
BRANCH  17  18
ATOM     18  C   UNL     1     -99.146 -48.418 -12.208  1.00  0.00    -0.000 C 
BRANCH  18  19
ATOM     19  C   UNL     1    -100.061 -48.513 -13.439  1.00  0.00    -0.003 C 
ATOM     20  C   UNL     1    -101.001 -47.316 -13.569  1.00  0.00     0.004 C 
ENDBRANCH  18  19
ENDBRANCH  17  18
ENDBRANCH  16  17
ENDBRANCH  15  16
ENDBRANCH  14  15
ENDBRANCH  13  14
ENDBRANCH  12  13
ENDBRANCH   1  12
TORSDOF 16
ENDMDL
MODEL 6
REMARK VINA RESULT:    -3.011      2.863      4.203
REMARK INTER + INTRA:          -8.665
REMARK INTER:                  -5.777
REMARK INTRA:                  -2.888
REMARK UNBOUND:                -2.838
REMARK SMILES CCCCCCCCCCCCCCCCCC(=O)[O-]
REMARK SMILES IDX 10 1 11 2 12 3 13 4 14 5 15 6 16 7 17 8 18 9 19 10 20 11
REMARK SMILES IDX 9 12 8 13 7 14 6 15 5 16 4 17 3 18 2 19 1 20
REMARK H PARENT
REMARK Flexibility Score: inf
ROOT
ATOM      1  C   UNL     1     -98.921 -43.742 -12.013  1.00  0.00     0.000 C 
ENDROOT
BRANCH   1   2
ATOM      2  C   UNL     1     -99.463 -45.162 -12.275  1.00  0.00     0.000 C 
BRANCH   2   3
ATOM      3  C   UNL     1     -98.398 -46.276 -12.266  1.00  0.00     0.000 C 
BRANCH   3   4
ATOM      4  C   UNL     1     -98.342 -47.105 -10.970  1.00  0.00     0.000 C 
BRANCH   4   5
ATOM      5  C   UNL     1     -97.782 -48.531 -11.168  1.00  0.00     0.000 C 
BRANCH   5   6
ATOM      6  C   UNL     1     -97.384 -48.807 -12.629  1.00  0.00     0.000 C 
BRANCH   6   7
ATOM      7  C   UNL     1     -95.903 -49.190 -12.777  1.00  0.00     0.006 C 
BRANCH   7   8
ATOM      8  C   UNL     1     -95.475 -50.288 -11.794  1.00  0.00     0.053 C 
BRANCH   8   9
ATOM      9  C   UNL     1     -94.018 -50.589 -11.952  1.00  0.00     0.041 C 
ATOM     10  O   UNL     1     -93.236 -49.715 -12.411  1.00  0.00    -0.550 OA
ATOM     11  O   UNL     1     -93.514 -51.818 -11.547  1.00  0.00    -0.550 OA
ENDBRANCH   8   9
ENDBRANCH   7   8
ENDBRANCH   6   7
ENDBRANCH   5   6
ENDBRANCH   4   5
ENDBRANCH   3   4
ENDBRANCH   2   3
ENDBRANCH   1   2
BRANCH   1  12
ATOM     12  C   UNL     1     -97.404 -43.657 -11.752  1.00  0.00     0.000 C 
BRANCH  12  13
ATOM     13  C   UNL     1     -97.013 -43.123 -10.361  1.00  0.00    -0.000 C 
BRANCH  13  14
ATOM     14  C   UNL     1     -97.704 -43.823  -9.173  1.00  0.00    -0.000 C 
BRANCH  14  15
ATOM     15  C   UNL     1     -96.887 -44.947  -8.510  1.00  0.00    -0.000 C 
BRANCH  15  16
ATOM     16  C   UNL     1     -95.428 -44.990  -8.995  1.00  0.00    -0.000 C 
BRANCH  16  17
ATOM     17  C   UNL     1     -94.800 -46.386  -8.852  1.00  0.00    -0.000 C 
BRANCH  17  18
ATOM     18  C   UNL     1     -94.460 -47.025 -10.211  1.00  0.00    -0.000 C 
BRANCH  18  19
ATOM     19  C   UNL     1     -94.792 -46.102 -11.394  1.00  0.00    -0.003 C 
ATOM     20  C   UNL     1     -93.798 -46.238 -12.546  1.00  0.00     0.004 C 
ENDBRANCH  18  19
ENDBRANCH  17  18
ENDBRANCH  16  17
ENDBRANCH  15  16
ENDBRANCH  14  15
ENDBRANCH  13  14
ENDBRANCH  12  13
ENDBRANCH   1  12
TORSDOF 16
ENDMDL
MODEL 7
REMARK VINA RESULT:    -3.009      2.581      5.514
REMARK INTER + INTRA:          -8.662
REMARK INTER:                  -6.288
REMARK INTRA:                  -2.373
REMARK UNBOUND:                -2.838
REMARK SMILES CCCCCCCCCCCCCCCCCC(=O)[O-]
REMARK SMILES IDX 10 1 11 2 12 3 13 4 14 5 15 6 16 7 17 8 18 9 19 10 20 11
REMARK SMILES IDX 9 12 8 13 7 14 6 15 5 16 4 17 3 18 2 19 1 20
REMARK H PARENT
REMARK Flexibility Score: inf
ROOT
ATOM      1  C   UNL     1     -98.743 -43.432 -10.817  1.00  0.00     0.000 C 
ENDROOT
BRANCH   1   2
ATOM      2  C   UNL     1     -98.114 -42.875  -9.523  1.00  0.00     0.000 C 
BRANCH   2   3
ATOM      3  C   UNL     1     -98.383 -43.710  -8.256  1.00  0.00     0.000 C 
BRANCH   3   4
ATOM      4  C   UNL     1     -97.461 -44.931  -8.079  1.00  0.00     0.000 C 
BRANCH   4   5
ATOM      5  C   UNL     1     -96.027 -44.708  -8.607  1.00  0.00     0.000 C 
BRANCH   5   6
ATOM      6  C   UNL     1     -95.182 -45.993  -8.568  1.00  0.00     0.000 C 
BRANCH   6   7
ATOM      7  C   UNL     1     -94.351 -46.194  -9.845  1.00  0.00     0.006 C 
BRANCH   7   8
ATOM      8  C   UNL     1     -94.599 -47.558 -10.504  1.00  0.00     0.053 C 
BRANCH   8   9
ATOM      9  C   UNL     1     -94.210 -47.516 -11.948  1.00  0.00     0.041 C 
ATOM     10  O   UNL     1     -93.605 -46.514 -12.414  1.00  0.00    -0.550 OA
ATOM     11  O   UNL     1     -94.470 -48.606 -12.770  1.00  0.00    -0.550 OA
ENDBRANCH   8   9
ENDBRANCH   7   8
ENDBRANCH   6   7
ENDBRANCH   5   6
ENDBRANCH   4   5
ENDBRANCH   3   4
ENDBRANCH   2   3
ENDBRANCH   1   2
BRANCH   1  12
ATOM     12  C   UNL     1     -97.751 -43.696 -11.967  1.00  0.00     0.000 C 
BRANCH  12  13
ATOM     13  C   UNL     1     -97.161 -45.118 -12.003  1.00  0.00    -0.000 C 
BRANCH  13  14
ATOM     14  C   UNL     1     -98.164 -46.250 -11.701  1.00  0.00    -0.000 C 
BRANCH  14  15
ATOM     15  C   UNL     1     -97.859 -47.596 -12.384  1.00  0.00    -0.000 C 
BRANCH  15  16
ATOM     16  C   UNL     1     -99.066 -48.163 -13.152  1.00  0.00    -0.000 C 
BRANCH  16  17
ATOM     17  C   UNL     1    -100.406 -47.621 -12.627  1.00  0.00    -0.000 C 
BRANCH  17  18
ATOM     18  C   UNL     1    -101.430 -47.384 -13.751  1.00  0.00    -0.000 C 
BRANCH  18  19
ATOM     19  C   UNL     1    -102.200 -46.066 -13.576  1.00  0.00    -0.003 C 
ATOM     20  C   UNL     1    -101.316 -44.932 -13.056  1.00  0.00     0.004 C 
ENDBRANCH  18  19
ENDBRANCH  17  18
ENDBRANCH  16  17
ENDBRANCH  15  16
ENDBRANCH  14  15
ENDBRANCH  13  14
ENDBRANCH  12  13
ENDBRANCH   1  12
TORSDOF 16
ENDMDL
MODEL 8
REMARK VINA RESULT:    -2.995      2.000      4.639
REMARK INTER + INTRA:          -8.635
REMARK INTER:                  -5.596
REMARK INTRA:                  -3.039
REMARK UNBOUND:                -2.838
REMARK SMILES CCCCCCCCCCCCCCCCCC(=O)[O-]
REMARK SMILES IDX 10 1 11 2 12 3 13 4 14 5 15 6 16 7 17 8 18 9 19 10 20 11
REMARK SMILES IDX 9 12 8 13 7 14 6 15 5 16 4 17 3 18 2 19 1 20
REMARK H PARENT
REMARK Flexibility Score: inf
ROOT
ATOM      1  C   UNL     1     -97.435 -44.658  -8.181  1.00  0.00     0.000 C 
ENDROOT
BRANCH   1   2
ATOM      2  C   UNL     1     -96.048 -45.230  -8.540  1.00  0.00     0.000 C 
BRANCH   2   3
ATOM      3  C   UNL     1     -96.011 -46.754  -8.763  1.00  0.00     0.000 C 
BRANCH   3   4
ATOM      4  C   UNL     1     -94.952 -47.234  -9.771  1.00  0.00     0.000 C 
BRANCH   4   5
ATOM      5  C   UNL     1     -94.595 -46.183 -10.845  1.00  0.00     0.000 C 
BRANCH   5   6
ATOM      6  C   UNL     1     -94.556 -46.783 -12.262  1.00  0.00     0.000 C 
BRANCH   6   7
ATOM      7  C   UNL     1     -94.382 -48.310 -12.254  1.00  0.00     0.006 C 
BRANCH   7   8
ATOM      8  C   UNL     1     -95.618 -49.049 -12.783  1.00  0.00     0.053 C 
BRANCH   8   9
ATOM      9  C   UNL     1     -95.874 -50.281 -11.974  1.00  0.00     0.041 C 
ATOM     10  O   UNL     1     -94.910 -50.966 -11.540  1.00  0.00    -0.550 OA
ATOM     11  O   UNL     1     -97.175 -50.648 -11.656  1.00  0.00    -0.550 OA
ENDBRANCH   8   9
ENDBRANCH   7   8
ENDBRANCH   6   7
ENDBRANCH   5   6
ENDBRANCH   4   5
ENDBRANCH   3   4
ENDBRANCH   2   3
ENDBRANCH   1   2
BRANCH   1  12
ATOM     12  C   UNL     1     -97.935 -43.527  -9.101  1.00  0.00     0.000 C 
BRANCH  12  13
ATOM     13  C   UNL     1     -96.930 -43.070 -10.175  1.00  0.00    -0.000 C 
BRANCH  13  14
ATOM     14  C   UNL     1     -97.200 -43.608 -11.595  1.00  0.00    -0.000 C 
BRANCH  14  15
ATOM     15  C   UNL     1     -98.678 -43.600 -12.027  1.00  0.00    -0.000 C 
BRANCH  15  16
ATOM     16  C   UNL     1     -99.240 -45.013 -12.257  1.00  0.00    -0.000 C 
BRANCH  16  17
ATOM     17  C   UNL     1     -98.151 -46.098 -12.200  1.00  0.00    -0.000 C 
BRANCH  17  18
ATOM     18  C   UNL     1     -98.623 -47.375 -11.482  1.00  0.00    -0.000 C 
BRANCH  18  19
ATOM     19  C   UNL     1     -99.906 -47.150 -10.667  1.00  0.00    -0.003 C 
ATOM     20  C   UNL     1     -99.674 -47.257  -9.160  1.00  0.00     0.004 C 
ENDBRANCH  18  19
ENDBRANCH  17  18
ENDBRANCH  16  17
ENDBRANCH  15  16
ENDBRANCH  14  15
ENDBRANCH  13  14
ENDBRANCH  12  13
ENDBRANCH   1  12
TORSDOF 16
ENDMDL
MODEL 9
REMARK VINA RESULT:    -2.949      2.032      2.512
REMARK INTER + INTRA:          -8.546
REMARK INTER:                  -5.453
REMARK INTRA:                  -3.092
REMARK UNBOUND:                -2.838
REMARK SMILES CCCCCCCCCCCCCCCCCC(=O)[O-]
REMARK SMILES IDX 10 1 11 2 12 3 13 4 14 5 15 6 16 7 17 8 18 9 19 10 20 11
REMARK SMILES IDX 9 12 8 13 7 14 6 15 5 16 4 17 3 18 2 19 1 20
REMARK H PARENT
REMARK Flexibility Score: inf
ROOT
ATOM      1  C   UNL     1     -96.923 -43.023 -10.108  1.00  0.00     0.000 C 
ENDROOT
BRANCH   1   2
ATOM      2  C   UNL     1     -97.250 -43.579 -11.510  1.00  0.00     0.000 C 
BRANCH   2   3
ATOM      3  C   UNL     1     -98.753 -43.691 -11.831  1.00  0.00     0.000 C 
BRANCH   3   4
ATOM      4  C   UNL     1     -99.188 -45.044 -12.422  1.00  0.00     0.000 C 
BRANCH   4   5
ATOM      5  C   UNL     1     -98.418 -46.251 -11.843  1.00  0.00     0.000 C 
BRANCH   5   6
ATOM      6  C   UNL     1     -98.526 -47.499 -12.738  1.00  0.00     0.000 C 
BRANCH   6   7
ATOM      7  C   UNL     1     -98.972 -48.748 -11.960  1.00  0.00     0.006 C 
BRANCH   7   8
ATOM      8  C   UNL     1     -98.526 -48.721 -10.493  1.00  0.00     0.053 C 
BRANCH   8   9
ATOM      9  C   UNL     1     -97.774 -49.970 -10.155  1.00  0.00     0.041 C 
ATOM     10  O   UNL     1     -97.586 -50.854 -11.032  1.00  0.00    -0.550 OA
ATOM     11  O   UNL     1     -97.237 -50.136  -8.885  1.00  0.00    -0.550 OA
ENDBRANCH   8   9
ENDBRANCH   7   8
ENDBRANCH   6   7
ENDBRANCH   5   6
ENDBRANCH   4   5
ENDBRANCH   3   4
ENDBRANCH   2   3
ENDBRANCH   1   2
BRANCH   1  12
ATOM     12  C   UNL     1     -98.087 -43.064  -9.099  1.00  0.00     0.000 C 
BRANCH  12  13
ATOM     13  C   UNL     1     -98.015 -44.209  -8.071  1.00  0.00    -0.000 C 
BRANCH  13  14
ATOM     14  C   UNL     1     -96.669 -44.963  -8.024  1.00  0.00    -0.000 C 
BRANCH  14  15
ATOM     15  C   UNL     1     -96.750 -46.467  -8.341  1.00  0.00    -0.000 C 
BRANCH  15  16
ATOM     16  C   UNL     1     -95.469 -47.008  -8.999  1.00  0.00    -0.000 C 
BRANCH  16  17
ATOM     17  C   UNL     1     -94.908 -46.056 -10.069  1.00  0.00    -0.000 C 
BRANCH  17  18
ATOM     18  C   UNL     1     -94.886 -46.688 -11.473  1.00  0.00    -0.000 C 
BRANCH  18  19
ATOM     19  C   UNL     1     -94.761 -48.219 -11.425  1.00  0.00    -0.003 C 
ATOM     20  C   UNL     1     -95.126 -48.882 -12.753  1.00  0.00     0.004 C 
ENDBRANCH  18  19
ENDBRANCH  17  18
ENDBRANCH  16  17
ENDBRANCH  15  16
ENDBRANCH  14  15
ENDBRANCH  13  14
ENDBRANCH  12  13
ENDBRANCH   1  12
TORSDOF 16
ENDMDL
