MODEL 1
REMARK VINA RESULT:    -4.207      0.000      0.000
REMARK INTER + INTRA:         -14.357
REMARK INTER:                 -10.602
REMARK INTRA:                  -3.755
REMARK UNBOUND:                -3.755
REMARK SMILES CCCCCCCCCCCCCCCCCCCCCCCCCCCC(=O)[O-]
REMARK SMILES IDX 15 1 16 2 17 3 18 4 19 5 20 6 21 7 22 8 23 9 24 10 25 11
REMARK SMILES IDX 26 12 27 13 28 14 29 15 30 16 14 17 13 18 12 19 11 20 10 21
REMARK SMILES IDX 9 22 8 23 7 24 6 25 5 26 4 27 3 28 2 29 1 30
REMARK H PARENT
REMARK Flexibility Score: inf
ROOT
ATOM      1  C   UNL     1     -27.761 -33.472 -13.846  1.00  0.00     0.000 C 
ENDROOT
BRANCH   1   2
ATOM      2  C   UNL     1     -27.597 -34.844 -13.173  1.00  0.00     0.000 C 
BRANCH   2   3
ATOM      3  C   UNL     1     -27.402 -34.705 -11.658  1.00  0.00     0.000 C 
BRANCH   3   4
ATOM      4  C   UNL     1     -25.941 -34.978 -11.272  1.00  0.00     0.000 C 
BRANCH   4   5
ATOM      5  C   UNL     1     -25.019 -33.771 -11.513  1.00  0.00     0.000 C 
BRANCH   5   6
ATOM      6  C   UNL     1     -24.001 -33.992 -12.652  1.00  0.00     0.000 C 
BRANCH   6   7
ATOM      7  C   UNL     1     -23.378 -35.398 -12.603  1.00  0.00     0.000 C 
BRANCH   7   8
ATOM      8  C   UNL     1     -21.881 -35.377 -12.260  1.00  0.00     0.000 C 
BRANCH   8   9
ATOM      9  C   UNL     1     -20.989 -35.189 -13.500  1.00  0.00     0.000 C 
BRANCH   9  10
ATOM     10  C   UNL     1     -19.962 -34.059 -13.322  1.00  0.00     0.000 C 
BRANCH  10  11
ATOM     11  C   UNL     1     -20.626 -32.689 -13.097  1.00  0.00     0.000 C 
BRANCH  11  12
ATOM     12  C   UNL     1     -19.916 -31.558 -13.871  1.00  0.00     0.006 C 
BRANCH  12  13
ATOM     13  C   UNL     1     -19.699 -31.874 -15.359  1.00  0.00     0.053 C 
BRANCH  13  14
ATOM     14  C   UNL     1     -20.711 -31.207 -16.238  1.00  0.00     0.041 C 
ATOM     15  O   UNL     1     -21.261 -30.136 -15.871  1.00  0.00    -0.550 OA
ATOM     16  O   UNL     1     -21.025 -31.753 -17.476  1.00  0.00    -0.550 OA
ENDBRANCH  13  14
ENDBRANCH  12  13
ENDBRANCH  11  12
ENDBRANCH  10  11
ENDBRANCH   9  10
ENDBRANCH   8   9
ENDBRANCH   7   8
ENDBRANCH   6   7
ENDBRANCH   5   6
ENDBRANCH   4   5
ENDBRANCH   3   4
ENDBRANCH   2   3
ENDBRANCH   1   2
BRANCH   1  17
ATOM     17  C   UNL     1     -28.619 -32.510 -13.005  1.00  0.00     0.000 C 
BRANCH  17  18
ATOM     18  C   UNL     1     -27.981 -31.116 -12.876  1.00  0.00     0.000 C 
BRANCH  18  19
ATOM     19  C   UNL     1     -27.455 -30.839 -11.452  1.00  0.00     0.000 C 
BRANCH  19  20
ATOM     20  C   UNL     1     -26.077 -30.155 -11.415  1.00  0.00     0.000 C 
BRANCH  20  21
ATOM     21  C   UNL     1     -25.438 -30.015 -12.808  1.00  0.00     0.000 C 
BRANCH  21  22
ATOM     22  C   UNL     1     -23.934 -30.365 -12.813  1.00  0.00    -0.000 C 
BRANCH  22  23
ATOM     23  C   UNL     1     -23.168 -29.875 -11.571  1.00  0.00    -0.000 C 
BRANCH  23  24
ATOM     24  C   UNL     1     -22.784 -31.013 -10.609  1.00  0.00    -0.000 C 
BRANCH  24  25
ATOM     25  C   UNL     1     -21.905 -30.537  -9.433  1.00  0.00    -0.000 C 
BRANCH  25  26
ATOM     26  C   UNL     1     -20.423 -30.934  -9.546  1.00  0.00    -0.000 C 
BRANCH  26  27
ATOM     27  C   UNL     1     -19.589 -30.514  -8.328  1.00  0.00    -0.000 C 
BRANCH  27  28
ATOM     28  C   UNL     1     -20.425 -30.561  -7.041  1.00  0.00    -0.000 C 
BRANCH  28  29
ATOM     29  C   UNL     1     -19.864 -31.551  -6.009  1.00  0.00    -0.003 C 
ATOM     30  C   UNL     1     -20.797 -31.755  -4.816  1.00  0.00     0.004 C 
ENDBRANCH  28  29
ENDBRANCH  27  28
ENDBRANCH  26  27
ENDBRANCH  25  26
ENDBRANCH  24  25
ENDBRANCH  23  24
ENDBRANCH  22  23
ENDBRANCH  21  22
ENDBRANCH  20  21
ENDBRANCH  19  20
ENDBRANCH  18  19
ENDBRANCH  17  18
ENDBRANCH   1  17
TORSDOF 26
ENDMDL
MODEL 2
REMARK VINA RESULT:    -4.136     17.393     19.542
REMARK INTER + INTRA:         -14.177
REMARK INTER:                 -10.823
REMARK INTRA:                  -3.354
REMARK UNBOUND:                -3.755
REMARK SMILES CCCCCCCCCCCCCCCCCCCCCCCCCCCC(=O)[O-]
REMARK SMILES IDX 15 1 16 2 17 3 18 4 19 5 20 6 21 7 22 8 23 9 24 10 25 11
REMARK SMILES IDX 26 12 27 13 28 14 29 15 30 16 14 17 13 18 12 19 11 20 10 21
REMARK SMILES IDX 9 22 8 23 7 24 6 25 5 26 4 27 3 28 2 29 1 30
REMARK H PARENT
REMARK Flexibility Score: inf
ROOT
ATOM      1  C   UNL     1     -34.616 -45.771 -10.627  1.00  0.00     0.000 C 
ENDROOT
BRANCH   1   2
ATOM      2  C   UNL     1     -35.718 -45.937 -11.686  1.00  0.00     0.000 C 
BRANCH   2   3
ATOM      3  C   UNL     1     -35.350 -45.226 -12.994  1.00  0.00     0.000 C 
BRANCH   3   4
ATOM      4  C   UNL     1     -35.915 -45.987 -14.202  1.00  0.00     0.000 C 
BRANCH   4   5
ATOM      5  C   UNL     1     -37.382 -46.407 -14.015  1.00  0.00     0.000 C 
BRANCH   5   6
ATOM      6  C   UNL     1     -38.339 -45.781 -15.052  1.00  0.00     0.000 C 
BRANCH   6   7
ATOM      7  C   UNL     1     -37.603 -44.838 -16.019  1.00  0.00     0.000 C 
BRANCH   7   8
ATOM      8  C   UNL     1     -37.550 -45.378 -17.457  1.00  0.00     0.000 C 
BRANCH   8   9
ATOM      9  C   UNL     1     -36.139 -45.828 -17.872  1.00  0.00     0.000 C 
BRANCH   9  10
ATOM     10  C   UNL     1     -36.086 -47.312 -18.270  1.00  0.00     0.000 C 
BRANCH  10  11
ATOM     11  C   UNL     1     -36.576 -48.242 -17.145  1.00  0.00     0.000 C 
BRANCH  11  12
ATOM     12  C   UNL     1     -35.493 -49.248 -16.702  1.00  0.00     0.006 C 
BRANCH  12  13
ATOM     13  C   UNL     1     -34.263 -48.586 -16.063  1.00  0.00     0.053 C 
BRANCH  13  14
ATOM     14  C   UNL     1     -32.991 -48.942 -16.768  1.00  0.00     0.041 C 
ATOM     15  O   UNL     1     -32.932 -48.906 -18.025  1.00  0.00    -0.550 OA
ATOM     16  O   UNL     1     -31.862 -49.286 -16.036  1.00  0.00    -0.550 OA
ENDBRANCH  13  14
ENDBRANCH  12  13
ENDBRANCH  11  12
ENDBRANCH  10  11
ENDBRANCH   9  10
ENDBRANCH   8   9
ENDBRANCH   7   8
ENDBRANCH   6   7
ENDBRANCH   5   6
ENDBRANCH   4   5
ENDBRANCH   3   4
ENDBRANCH   2   3
ENDBRANCH   1   2
BRANCH   1  17
ATOM     17  C   UNL     1     -34.182 -47.118 -10.022  1.00  0.00     0.000 C 
BRANCH  17  18
ATOM     18  C   UNL     1     -34.221 -48.262 -11.050  1.00  0.00     0.000 C 
BRANCH  18  19
ATOM     19  C   UNL     1     -34.201 -49.654 -10.384  1.00  0.00     0.000 C 
BRANCH  19  20
ATOM     20  C   UNL     1     -33.605 -49.660  -8.965  1.00  0.00     0.000 C 
BRANCH  20  21
ATOM     21  C   UNL     1     -32.124 -50.079  -8.937  1.00  0.00     0.000 C 
BRANCH  21  22
ATOM     22  C   UNL     1     -31.183 -48.918  -8.550  1.00  0.00    -0.000 C 
BRANCH  22  23
ATOM     23  C   UNL     1     -29.920 -49.357  -7.787  1.00  0.00    -0.000 C 
BRANCH  23  24
ATOM     24  C   UNL     1     -29.615 -48.476  -6.562  1.00  0.00    -0.000 C 
BRANCH  24  25
ATOM     25  C   UNL     1     -30.722 -47.439  -6.276  1.00  0.00    -0.000 C 
BRANCH  25  26
ATOM     26  C   UNL     1     -31.765 -47.893  -5.240  1.00  0.00    -0.000 C 
BRANCH  26  27
ATOM     27  C   UNL     1     -33.179 -47.378  -5.539  1.00  0.00    -0.000 C 
BRANCH  27  28
ATOM     28  C   UNL     1     -33.182 -46.443  -6.757  1.00  0.00    -0.000 C 
BRANCH  28  29
ATOM     29  C   UNL     1     -33.714 -45.041  -6.423  1.00  0.00    -0.003 C 
ATOM     30  C   UNL     1     -34.060 -44.226  -7.669  1.00  0.00     0.004 C 
ENDBRANCH  28  29
ENDBRANCH  27  28
ENDBRANCH  26  27
ENDBRANCH  25  26
ENDBRANCH  24  25
ENDBRANCH  23  24
ENDBRANCH  22  23
ENDBRANCH  21  22
ENDBRANCH  20  21
ENDBRANCH  19  20
ENDBRANCH  18  19
ENDBRANCH  17  18
ENDBRANCH   1  17
TORSDOF 26
ENDMDL
MODEL 3
REMARK VINA RESULT:    -4.077     16.720     19.072
REMARK INTER + INTRA:         -14.028
REMARK INTER:                 -11.393
REMARK INTRA:                  -2.635
REMARK UNBOUND:                -3.755
REMARK SMILES CCCCCCCCCCCCCCCCCCCCCCCCCCCC(=O)[O-]
REMARK SMILES IDX 15 1 16 2 17 3 18 4 19 5 20 6 21 7 22 8 23 9 24 10 25 11
REMARK SMILES IDX 26 12 27 13 28 14 29 15 30 16 14 17 13 18 12 19 11 20 10 21
REMARK SMILES IDX 9 22 8 23 7 24 6 25 5 26 4 27 3 28 2 29 1 30
REMARK H PARENT
REMARK Flexibility Score: inf
ROOT
ATOM      1  C   UNL     1     -34.378 -44.118 -11.694  1.00  0.00     0.000 C 
ENDROOT
BRANCH   1   2
ATOM      2  C   UNL     1     -35.415 -45.230 -11.916  1.00  0.00     0.000 C 
BRANCH   2   3
ATOM      3  C   UNL     1     -35.466 -45.664 -13.386  1.00  0.00     0.000 C 
BRANCH   3   4
ATOM      4  C   UNL     1     -36.496 -46.785 -13.585  1.00  0.00     0.000 C 
BRANCH   4   5
ATOM      5  C   UNL     1     -37.934 -46.262 -13.731  1.00  0.00     0.000 C 
BRANCH   5   6
ATOM      6  C   UNL     1     -38.455 -46.292 -15.185  1.00  0.00     0.000 C 
BRANCH   6   7
ATOM      7  C   UNL     1     -38.312 -44.925 -15.876  1.00  0.00     0.000 C 
BRANCH   7   8
ATOM      8  C   UNL     1     -37.525 -45.001 -17.193  1.00  0.00     0.000 C 
BRANCH   8   9
ATOM      9  C   UNL     1     -36.085 -45.505 -16.997  1.00  0.00     0.000 C 
BRANCH   9  10
ATOM     10  C   UNL     1     -35.836 -46.860 -17.680  1.00  0.00     0.000 C 
BRANCH  10  11
ATOM     11  C   UNL     1     -35.131 -47.867 -16.753  1.00  0.00     0.000 C 
BRANCH  11  12
ATOM     12  C   UNL     1     -33.930 -48.554 -17.436  1.00  0.00     0.006 C 
BRANCH  12  13
ATOM     13  C   UNL     1     -32.989 -49.268 -16.454  1.00  0.00     0.053 C 
BRANCH  13  14
ATOM     14  C   UNL     1     -31.546 -49.052 -16.785  1.00  0.00     0.041 C 
ATOM     15  O   UNL     1     -31.218 -48.542 -17.888  1.00  0.00    -0.550 OA
ATOM     16  O   UNL     1     -30.562 -49.389 -15.863  1.00  0.00    -0.550 OA
ENDBRANCH  13  14
ENDBRANCH  12  13
ENDBRANCH  11  12
ENDBRANCH  10  11
ENDBRANCH   9  10
ENDBRANCH   8   9
ENDBRANCH   7   8
ENDBRANCH   6   7
ENDBRANCH   5   6
ENDBRANCH   4   5
ENDBRANCH   3   4
ENDBRANCH   2   3
ENDBRANCH   1   2
BRANCH   1  17
ATOM     17  C   UNL     1     -34.327 -43.653 -10.228  1.00  0.00     0.000 C 
BRANCH  17  18
ATOM     18  C   UNL     1     -34.244 -44.831  -9.242  1.00  0.00     0.000 C 
BRANCH  18  19
ATOM     19  C   UNL     1     -34.169 -44.365  -7.773  1.00  0.00     0.000 C 
BRANCH  19  20
ATOM     20  C   UNL     1     -33.504 -45.380  -6.827  1.00  0.00     0.000 C 
BRANCH  20  21
ATOM     21  C   UNL     1     -34.290 -45.587  -5.519  1.00  0.00     0.000 C 
BRANCH  21  22
ATOM     22  C   UNL     1     -34.063 -46.983  -4.901  1.00  0.00    -0.000 C 
BRANCH  22  23
ATOM     23  C   UNL     1     -33.083 -47.871  -5.688  1.00  0.00    -0.000 C 
BRANCH  23  24
ATOM     24  C   UNL     1     -31.657 -47.862  -5.108  1.00  0.00    -0.000 C 
BRANCH  24  25
ATOM     25  C   UNL     1     -30.578 -47.549  -6.166  1.00  0.00    -0.000 C 
BRANCH  25  26
ATOM     26  C   UNL     1     -29.692 -48.748  -6.544  1.00  0.00    -0.000 C 
BRANCH  26  27
ATOM     27  C   UNL     1     -30.313 -49.642  -7.626  1.00  0.00    -0.000 C 
BRANCH  27  28
ATOM     28  C   UNL     1     -30.821 -48.807  -8.811  1.00  0.00    -0.000 C 
BRANCH  28  29
ATOM     29  C   UNL     1     -32.145 -49.337  -9.381  1.00  0.00    -0.003 C 
ATOM     30  C   UNL     1     -33.155 -48.225  -9.664  1.00  0.00     0.004 C 
ENDBRANCH  28  29
ENDBRANCH  27  28
ENDBRANCH  26  27
ENDBRANCH  25  26
ENDBRANCH  24  25
ENDBRANCH  23  24
ENDBRANCH  22  23
ENDBRANCH  21  22
ENDBRANCH  20  21
ENDBRANCH  19  20
ENDBRANCH  18  19
ENDBRANCH  17  18
ENDBRANCH   1  17
TORSDOF 26
ENDMDL
MODEL 4
REMARK VINA RESULT:    -4.002     17.102     20.114
REMARK INTER + INTRA:         -13.840
REMARK INTER:                 -10.447
REMARK INTRA:                  -3.393
REMARK UNBOUND:                -3.755
REMARK SMILES CCCCCCCCCCCCCCCCCCCCCCCCCCCC(=O)[O-]
REMARK SMILES IDX 15 1 16 2 17 3 18 4 19 5 20 6 21 7 22 8 23 9 24 10 25 11
REMARK SMILES IDX 26 12 27 13 28 14 29 15 30 16 14 17 13 18 12 19 11 20 10 21
REMARK SMILES IDX 9 22 8 23 7 24 6 25 5 26 4 27 3 28 2 29 1 30
REMARK H PARENT
REMARK Flexibility Score: inf
ROOT
ATOM      1  C   UNL     1     -33.594 -48.577 -10.879  1.00  0.00     0.000 C 
ENDROOT
BRANCH   1   2
ATOM      2  C   UNL     1     -33.077 -48.882  -9.465  1.00  0.00     0.000 C 
BRANCH   2   3
ATOM      3  C   UNL     1     -31.544 -48.851  -9.409  1.00  0.00     0.000 C 
BRANCH   3   4
ATOM      4  C   UNL     1     -31.019 -49.850  -8.369  1.00  0.00     0.000 C 
BRANCH   4   5
ATOM      5  C   UNL     1     -29.638 -49.466  -7.811  1.00  0.00     0.000 C 
BRANCH   5   6
ATOM      6  C   UNL     1     -29.683 -48.950  -6.357  1.00  0.00     0.000 C 
BRANCH   6   7
ATOM      7  C   UNL     1     -30.486 -47.643  -6.234  1.00  0.00     0.000 C 
BRANCH   7   8
ATOM      8  C   UNL     1     -31.678 -47.761  -5.273  1.00  0.00     0.000 C 
BRANCH   8   9
ATOM      9  C   UNL     1     -33.034 -47.693  -5.996  1.00  0.00     0.000 C 
BRANCH   9  10
ATOM     10  C   UNL     1     -33.985 -46.660  -5.370  1.00  0.00     0.000 C 
BRANCH  10  11
ATOM     11  C   UNL     1     -33.884 -45.280  -6.045  1.00  0.00     0.000 C 
BRANCH  11  12
ATOM     12  C   UNL     1     -33.786 -45.384  -7.581  1.00  0.00     0.006 C 
BRANCH  12  13
ATOM     13  C   UNL     1     -34.267 -44.122  -8.315  1.00  0.00     0.053 C 
BRANCH  13  14
ATOM     14  C   UNL     1     -34.471 -44.355  -9.779  1.00  0.00     0.041 C 
ATOM     15  O   UNL     1     -34.126 -43.478 -10.614  1.00  0.00    -0.550 OA
ATOM     16  O   UNL     1     -35.018 -45.552 -10.224  1.00  0.00    -0.550 OA
ENDBRANCH  13  14
ENDBRANCH  12  13
ENDBRANCH  11  12
ENDBRANCH  10  11
ENDBRANCH   9  10
ENDBRANCH   8   9
ENDBRANCH   7   8
ENDBRANCH   6   7
ENDBRANCH   5   6
ENDBRANCH   4   5
ENDBRANCH   3   4
ENDBRANCH   2   3
ENDBRANCH   1   2
BRANCH   1  17
ATOM     17  C   UNL     1     -33.940 -49.856 -11.661  1.00  0.00     0.000 C 
BRANCH  17  18
ATOM     18  C   UNL     1     -34.947 -49.596 -12.795  1.00  0.00     0.000 C 
BRANCH  18  19
ATOM     19  C   UNL     1     -34.333 -49.826 -14.192  1.00  0.00     0.000 C 
BRANCH  19  20
ATOM     20  C   UNL     1     -34.664 -48.722 -15.212  1.00  0.00     0.000 C 
BRANCH  20  21
ATOM     21  C   UNL     1     -35.177 -49.277 -16.552  1.00  0.00     0.000 C 
BRANCH  21  22
ATOM     22  C   UNL     1     -35.816 -48.189 -17.444  1.00  0.00    -0.000 C 
BRANCH  22  23
ATOM     23  C   UNL     1     -35.450 -46.749 -17.043  1.00  0.00    -0.000 C 
BRANCH  23  24
ATOM     24  C   UNL     1     -36.238 -45.684 -17.826  1.00  0.00    -0.000 C 
BRANCH  24  25
ATOM     25  C   UNL     1     -37.284 -44.951 -16.959  1.00  0.00    -0.000 C 
BRANCH  25  26
ATOM     26  C   UNL     1     -38.355 -45.869 -16.344  1.00  0.00    -0.000 C 
BRANCH  26  27
ATOM     27  C   UNL     1     -38.467 -45.731 -14.820  1.00  0.00    -0.000 C 
BRANCH  27  28
ATOM     28  C   UNL     1     -37.733 -46.876 -14.105  1.00  0.00    -0.000 C 
BRANCH  28  29
ATOM     29  C   UNL     1     -36.742 -46.370 -13.046  1.00  0.00    -0.003 C 
ATOM     30  C   UNL     1     -35.644 -45.487 -13.637  1.00  0.00     0.004 C 
ENDBRANCH  28  29
ENDBRANCH  27  28
ENDBRANCH  26  27
ENDBRANCH  25  26
ENDBRANCH  24  25
ENDBRANCH  23  24
ENDBRANCH  22  23
ENDBRANCH  21  22
ENDBRANCH  20  21
ENDBRANCH  19  20
ENDBRANCH  18  19
ENDBRANCH  17  18
ENDBRANCH   1  17
TORSDOF 26
ENDMDL
MODEL 5
REMARK VINA RESULT:    -3.970     17.368     20.100
REMARK INTER + INTRA:         -13.760
REMARK INTER:                 -10.317
REMARK INTRA:                  -3.442
REMARK UNBOUND:                -3.755
REMARK SMILES CCCCCCCCCCCCCCCCCCCCCCCCCCCC(=O)[O-]
REMARK SMILES IDX 15 1 16 2 17 3 18 4 19 5 20 6 21 7 22 8 23 9 24 10 25 11
REMARK SMILES IDX 26 12 27 13 28 14 29 15 30 16 14 17 13 18 12 19 11 20 10 21
REMARK SMILES IDX 9 22 8 23 7 24 6 25 5 26 4 27 3 28 2 29 1 30
REMARK H PARENT
REMARK Flexibility Score: inf
ROOT
ATOM      1  C   UNL     1     -34.246 -45.632  -9.587  1.00  0.00     0.000 C 
ENDROOT
BRANCH   1   2
ATOM      2  C   UNL     1     -34.351 -44.319  -8.796  1.00  0.00     0.000 C 
BRANCH   2   3
ATOM      3  C   UNL     1     -33.884 -44.499  -7.346  1.00  0.00     0.000 C 
BRANCH   3   4
ATOM      4  C   UNL     1     -33.439 -45.947  -7.096  1.00  0.00     0.000 C 
BRANCH   4   5
ATOM      5  C   UNL     1     -33.932 -46.503  -5.750  1.00  0.00     0.000 C 
BRANCH   5   6
ATOM      6  C   UNL     1     -33.516 -47.969  -5.500  1.00  0.00     0.000 C 
BRANCH   6   7
ATOM      7  C   UNL     1     -34.662 -48.952  -5.798  1.00  0.00     0.000 C 
BRANCH   7   8
ATOM      8  C   UNL     1     -34.305 -49.971  -6.892  1.00  0.00     0.000 C 
BRANCH   8   9
ATOM      9  C   UNL     1     -34.297 -49.353  -8.300  1.00  0.00     0.000 C 
BRANCH   9  10
ATOM     10  C   UNL     1     -33.039 -49.726  -9.101  1.00  0.00     0.000 C 
BRANCH  10  11
ATOM     11  C   UNL     1     -32.090 -48.531  -9.300  1.00  0.00     0.000 C 
BRANCH  11  12
ATOM     12  C   UNL     1     -30.663 -48.822  -8.787  1.00  0.00     0.006 C 
BRANCH  12  13
ATOM     13  C   UNL     1     -30.630 -49.467  -7.393  1.00  0.00     0.053 C 
BRANCH  13  14
ATOM     14  C   UNL     1     -29.949 -48.603  -6.379  1.00  0.00     0.041 C 
ATOM     15  O   UNL     1     -29.107 -49.102  -5.586  1.00  0.00    -0.550 OA
ATOM     16  O   UNL     1     -30.221 -47.242  -6.327  1.00  0.00    -0.550 OA
ENDBRANCH  13  14
ENDBRANCH  12  13
ENDBRANCH  11  12
ENDBRANCH  10  11
ENDBRANCH   9  10
ENDBRANCH   8   9
ENDBRANCH   7   8
ENDBRANCH   6   7
ENDBRANCH   5   6
ENDBRANCH   4   5
ENDBRANCH   3   4
ENDBRANCH   2   3
ENDBRANCH   1   2
BRANCH   1  17
ATOM     17  C   UNL     1     -35.132 -45.627 -10.845  1.00  0.00     0.000 C 
BRANCH  17  18
ATOM     18  C   UNL     1     -35.524 -47.046 -11.292  1.00  0.00     0.000 C 
BRANCH  18  19
ATOM     19  C   UNL     1     -35.654 -47.166 -12.825  1.00  0.00     0.000 C 
BRANCH  19  20
ATOM     20  C   UNL     1     -35.795 -45.816 -13.549  1.00  0.00     0.000 C 
BRANCH  20  21
ATOM     21  C   UNL     1     -36.896 -45.823 -14.625  1.00  0.00     0.000 C 
BRANCH  21  22
ATOM     22  C   UNL     1     -36.392 -45.332 -15.999  1.00  0.00    -0.000 C 
BRANCH  22  23
ATOM     23  C   UNL     1     -35.373 -46.271 -16.670  1.00  0.00    -0.000 C 
BRANCH  23  24
ATOM     24  C   UNL     1     -36.030 -47.330 -17.574  1.00  0.00    -0.000 C 
BRANCH  24  25
ATOM     25  C   UNL     1     -35.575 -48.768 -17.246  1.00  0.00    -0.000 C 
BRANCH  25  26
ATOM     26  C   UNL     1     -34.855 -48.913 -15.894  1.00  0.00    -0.000 C 
BRANCH  26  27
ATOM     27  C   UNL     1     -33.450 -49.519 -16.019  1.00  0.00    -0.000 C 
BRANCH  27  28
ATOM     28  C   UNL     1     -32.905 -49.364 -17.446  1.00  0.00    -0.000 C 
BRANCH  28  29
ATOM     29  C   UNL     1     -31.585 -48.579 -17.491  1.00  0.00    -0.003 C 
ATOM     30  C   UNL     1     -30.394 -49.394 -16.988  1.00  0.00     0.004 C 
ENDBRANCH  28  29
ENDBRANCH  27  28
ENDBRANCH  26  27
ENDBRANCH  25  26
ENDBRANCH  24  25
ENDBRANCH  23  24
ENDBRANCH  22  23
ENDBRANCH  21  22
ENDBRANCH  20  21
ENDBRANCH  19  20
ENDBRANCH  18  19
ENDBRANCH  17  18
ENDBRANCH   1  17
TORSDOF 26
ENDMDL
MODEL 6
REMARK VINA RESULT:    -3.889     17.275     19.838
REMARK INTER + INTRA:         -13.554
REMARK INTER:                  -9.217
REMARK INTRA:                  -4.336
REMARK UNBOUND:                -3.755
REMARK SMILES CCCCCCCCCCCCCCCCCCCCCCCCCCCC(=O)[O-]
REMARK SMILES IDX 15 1 16 2 17 3 18 4 19 5 20 6 21 7 22 8 23 9 24 10 25 11
REMARK SMILES IDX 26 12 27 13 28 14 29 15 30 16 14 17 13 18 12 19 11 20 10 21
REMARK SMILES IDX 9 22 8 23 7 24 6 25 5 26 4 27 3 28 2 29 1 30
REMARK H PARENT
REMARK Flexibility Score: inf
ROOT
ATOM      1  C   UNL     1     -34.164 -46.112 -10.211  1.00  0.00     0.000 C 
ENDROOT
BRANCH   1   2
ATOM      2  C   UNL     1     -35.347 -47.017 -10.588  1.00  0.00     0.000 C 
BRANCH   2   3
ATOM      3  C   UNL     1     -34.888 -48.218 -11.425  1.00  0.00     0.000 C 
BRANCH   3   4
ATOM      4  C   UNL     1     -35.778 -49.440 -11.155  1.00  0.00     0.000 C 
BRANCH   4   5
ATOM      5  C   UNL     1     -36.475 -49.967 -12.420  1.00  0.00     0.000 C 
BRANCH   5   6
ATOM      6  C   UNL     1     -37.995 -49.697 -12.444  1.00  0.00     0.000 C 
BRANCH   6   7
ATOM      7  C   UNL     1     -38.438 -49.018 -13.751  1.00  0.00     0.000 C 
BRANCH   7   8
ATOM      8  C   UNL     1     -39.083 -47.642 -13.522  1.00  0.00     0.000 C 
BRANCH   8   9
ATOM      9  C   UNL     1     -38.096 -46.610 -12.951  1.00  0.00     0.000 C 
BRANCH   9  10
ATOM     10  C   UNL     1     -37.445 -45.749 -14.046  1.00  0.00     0.000 C 
BRANCH  10  11
ATOM     11  C   UNL     1     -35.915 -45.909 -14.091  1.00  0.00     0.000 C 
BRANCH  11  12
ATOM     12  C   UNL     1     -35.447 -46.743 -15.302  1.00  0.00     0.006 C 
BRANCH  12  13
ATOM     13  C   UNL     1     -36.593 -47.186 -16.223  1.00  0.00     0.053 C 
BRANCH  13  14
ATOM     14  C   UNL     1     -36.411 -46.714 -17.631  1.00  0.00     0.041 C 
ATOM     15  O   UNL     1     -35.839 -45.616 -17.862  1.00  0.00    -0.550 OA
ATOM     16  O   UNL     1     -36.848 -47.498 -18.691  1.00  0.00    -0.550 OA
ENDBRANCH  13  14
ENDBRANCH  12  13
ENDBRANCH  11  12
ENDBRANCH  10  11
ENDBRANCH   9  10
ENDBRANCH   8   9
ENDBRANCH   7   8
ENDBRANCH   6   7
ENDBRANCH   5   6
ENDBRANCH   4   5
ENDBRANCH   3   4
ENDBRANCH   2   3
ENDBRANCH   1   2
BRANCH   1  17
ATOM     17  C   UNL     1     -34.611 -44.675  -9.886  1.00  0.00     0.000 C 
BRANCH  17  18
ATOM     18  C   UNL     1     -34.239 -44.256  -8.453  1.00  0.00     0.000 C 
BRANCH  18  19
ATOM     19  C   UNL     1     -33.688 -45.432  -7.620  1.00  0.00     0.000 C 
BRANCH  19  20
ATOM     20  C   UNL     1     -33.842 -45.250  -6.100  1.00  0.00     0.000 C 
BRANCH  20  21
ATOM     21  C   UNL     1     -34.035 -46.582  -5.351  1.00  0.00     0.000 C 
BRANCH  21  22
ATOM     22  C   UNL     1     -33.181 -47.726  -5.940  1.00  0.00    -0.000 C 
BRANCH  22  23
ATOM     23  C   UNL     1     -33.980 -48.996  -6.286  1.00  0.00    -0.000 C 
BRANCH  23  24
ATOM     24  C   UNL     1     -34.129 -49.223  -7.801  1.00  0.00    -0.000 C 
BRANCH  24  25
ATOM     25  C   UNL     1     -32.902 -49.916  -8.430  1.00  0.00    -0.000 C 
BRANCH  25  26
ATOM     26  C   UNL     1     -32.011 -48.988  -9.273  1.00  0.00    -0.000 C 
BRANCH  26  27
ATOM     27  C   UNL     1     -30.846 -48.381  -8.480  1.00  0.00    -0.000 C 
BRANCH  27  28
ATOM     28  C   UNL     1     -29.964 -49.478  -7.864  1.00  0.00    -0.000 C 
BRANCH  28  29
ATOM     29  C   UNL     1     -29.709 -49.257  -6.366  1.00  0.00    -0.003 C 
ATOM     30  C   UNL     1     -29.115 -47.881  -6.063  1.00  0.00     0.004 C 
ENDBRANCH  28  29
ENDBRANCH  27  28
ENDBRANCH  26  27
ENDBRANCH  25  26
ENDBRANCH  24  25
ENDBRANCH  23  24
ENDBRANCH  22  23
ENDBRANCH  21  22
ENDBRANCH  20  21
ENDBRANCH  19  20
ENDBRANCH  18  19
ENDBRANCH  17  18
ENDBRANCH   1  17
TORSDOF 26
ENDMDL
MODEL 7
REMARK VINA RESULT:    -3.870     17.339     20.333
REMARK INTER + INTRA:         -13.507
REMARK INTER:                  -9.607
REMARK INTRA:                  -3.899
REMARK UNBOUND:                -3.755
REMARK SMILES CCCCCCCCCCCCCCCCCCCCCCCCCCCC(=O)[O-]
REMARK SMILES IDX 15 1 16 2 17 3 18 4 19 5 20 6 21 7 22 8 23 9 24 10 25 11
REMARK SMILES IDX 26 12 27 13 28 14 29 15 30 16 14 17 13 18 12 19 11 20 10 21
REMARK SMILES IDX 9 22 8 23 7 24 6 25 5 26 4 27 3 28 2 29 1 30
REMARK H PARENT
REMARK Flexibility Score: inf
ROOT
ATOM      1  C   UNL     1     -34.197 -45.650  -9.614  1.00  0.00     0.000 C 
ENDROOT
BRANCH   1   2
ATOM      2  C   UNL     1     -34.375 -44.338  -8.835  1.00  0.00     0.000 C 
BRANCH   2   3
ATOM      3  C   UNL     1     -33.897 -44.479  -7.384  1.00  0.00     0.000 C 
BRANCH   3   4
ATOM      4  C   UNL     1     -33.439 -45.917  -7.101  1.00  0.00     0.000 C 
BRANCH   4   5
ATOM      5  C   UNL     1     -33.879 -46.426  -5.719  1.00  0.00     0.000 C 
BRANCH   5   6
ATOM      6  C   UNL     1     -33.424 -47.872  -5.422  1.00  0.00     0.000 C 
BRANCH   6   7
ATOM      7  C   UNL     1     -34.456 -48.909  -5.896  1.00  0.00     0.000 C 
BRANCH   7   8
ATOM      8  C   UNL     1     -33.930 -49.799  -7.033  1.00  0.00     0.000 C 
BRANCH   8   9
ATOM      9  C   UNL     1     -33.987 -49.107  -8.405  1.00  0.00     0.000 C 
BRANCH   9  10
ATOM     10  C   UNL     1     -32.665 -49.226  -9.182  1.00  0.00     0.000 C 
BRANCH  10  11
ATOM     11  C   UNL     1     -31.544 -49.863  -8.342  1.00  0.00     0.000 C 
BRANCH  11  12
ATOM     12  C   UNL     1     -30.283 -48.975  -8.275  1.00  0.00     0.006 C 
BRANCH  12  13
ATOM     13  C   UNL     1     -30.285 -47.993  -7.093  1.00  0.00     0.053 C 
BRANCH  13  14
ATOM     14  C   UNL     1     -29.173 -48.258  -6.128  1.00  0.00     0.041 C 
ATOM     15  O   UNL     1     -29.076 -49.380  -5.564  1.00  0.00    -0.550 OA
ATOM     16  O   UNL     1     -28.226 -47.275  -5.870  1.00  0.00    -0.550 OA
ENDBRANCH  13  14
ENDBRANCH  12  13
ENDBRANCH  11  12
ENDBRANCH  10  11
ENDBRANCH   9  10
ENDBRANCH   8   9
ENDBRANCH   7   8
ENDBRANCH   6   7
ENDBRANCH   5   6
ENDBRANCH   4   5
ENDBRANCH   3   4
ENDBRANCH   2   3
ENDBRANCH   1   2
BRANCH   1  17
ATOM     17  C   UNL     1     -35.008 -45.665 -10.922  1.00  0.00     0.000 C 
BRANCH  17  18
ATOM     18  C   UNL     1     -35.812 -46.965 -11.099  1.00  0.00     0.000 C 
BRANCH  18  19
ATOM     19  C   UNL     1     -35.185 -47.906 -12.150  1.00  0.00     0.000 C 
BRANCH  19  20
ATOM     20  C   UNL     1     -35.935 -49.239 -12.323  1.00  0.00     0.000 C 
BRANCH  20  21
ATOM     21  C   UNL     1     -36.356 -49.506 -13.779  1.00  0.00     0.000 C 
BRANCH  21  22
ATOM     22  C   UNL     1     -35.396 -48.865 -14.806  1.00  0.00    -0.000 C 
BRANCH  22  23
ATOM     23  C   UNL     1     -35.546 -49.412 -16.237  1.00  0.00    -0.000 C 
BRANCH  23  24
ATOM     24  C   UNL     1     -35.579 -48.306 -17.307  1.00  0.00    -0.000 C 
BRANCH  24  25
ATOM     25  C   UNL     1     -34.992 -46.968 -16.809  1.00  0.00    -0.000 C 
BRANCH  25  26
ATOM     26  C   UNL     1     -35.887 -45.744 -17.072  1.00  0.00    -0.000 C 
BRANCH  26  27
ATOM     27  C   UNL     1     -37.379 -46.028 -16.855  1.00  0.00    -0.000 C 
BRANCH  27  28
ATOM     28  C   UNL     1     -37.930 -45.222 -15.669  1.00  0.00    -0.000 C 
BRANCH  28  29
ATOM     29  C   UNL     1     -37.410 -45.732 -14.317  1.00  0.00    -0.003 C 
ATOM     30  C   UNL     1     -38.483 -46.460 -13.507  1.00  0.00     0.004 C 
ENDBRANCH  28  29
ENDBRANCH  27  28
ENDBRANCH  26  27
ENDBRANCH  25  26
ENDBRANCH  24  25
ENDBRANCH  23  24
ENDBRANCH  22  23
ENDBRANCH  21  22
ENDBRANCH  20  21
ENDBRANCH  19  20
ENDBRANCH  18  19
ENDBRANCH  17  18
ENDBRANCH   1  17
TORSDOF 26
ENDMDL
MODEL 8
REMARK VINA RESULT:    -3.863     17.982     20.160
REMARK INTER + INTRA:         -13.490
REMARK INTER:                 -10.450
REMARK INTRA:                  -3.040
REMARK UNBOUND:                -3.755
REMARK SMILES CCCCCCCCCCCCCCCCCCCCCCCCCCCC(=O)[O-]
REMARK SMILES IDX 15 1 16 2 17 3 18 4 19 5 20 6 21 7 22 8 23 9 24 10 25 11
REMARK SMILES IDX 26 12 27 13 28 14 29 15 30 16 14 17 13 18 12 19 11 20 10 21
REMARK SMILES IDX 9 22 8 23 7 24 6 25 5 26 4 27 3 28 2 29 1 30
REMARK H PARENT
REMARK Flexibility Score: inf
ROOT
ATOM      1  C   UNL     1     -34.967 -49.182 -13.171  1.00  0.00     0.000 C 
ENDROOT
BRANCH   1   2
ATOM      2  C   UNL     1     -34.177 -49.978 -12.121  1.00  0.00     0.000 C 
BRANCH   2   3
ATOM      3  C   UNL     1     -34.902 -49.997 -10.770  1.00  0.00     0.000 C 
BRANCH   3   4
ATOM      4  C   UNL     1     -34.025 -49.374  -9.674  1.00  0.00     0.000 C 
BRANCH   4   5
ATOM      5  C   UNL     1     -33.150 -48.219 -10.190  1.00  0.00     0.000 C 
BRANCH   5   6
ATOM      6  C   UNL     1     -31.637 -48.459  -9.998  1.00  0.00     0.000 C 
BRANCH   6   7
ATOM      7  C   UNL     1     -31.357 -49.572  -8.973  1.00  0.00     0.000 C 
BRANCH   7   8
ATOM      8  C   UNL     1     -29.991 -49.421  -8.286  1.00  0.00     0.000 C 
BRANCH   8   9
ATOM      9  C   UNL     1     -30.099 -49.366  -6.752  1.00  0.00     0.000 C 
BRANCH   9  10
ATOM     10  C   UNL     1     -29.744 -47.981  -6.185  1.00  0.00     0.000 C 
BRANCH  10  11
ATOM     11  C   UNL     1     -30.978 -47.075  -6.027  1.00  0.00     0.000 C 
BRANCH  11  12
ATOM     12  C   UNL     1     -32.287 -47.882  -5.898  1.00  0.00     0.006 C 
BRANCH  12  13
ATOM     13  C   UNL     1     -33.478 -47.242  -6.628  1.00  0.00     0.053 C 
BRANCH  13  14
ATOM     14  C   UNL     1     -33.864 -45.920  -6.043  1.00  0.00     0.041 C 
ATOM     15  O   UNL     1     -33.541 -44.851  -6.625  1.00  0.00    -0.550 OA
ATOM     16  O   UNL     1     -34.606 -45.867  -4.869  1.00  0.00    -0.550 OA
ENDBRANCH  13  14
ENDBRANCH  12  13
ENDBRANCH  11  12
ENDBRANCH  10  11
ENDBRANCH   9  10
ENDBRANCH   8   9
ENDBRANCH   7   8
ENDBRANCH   6   7
ENDBRANCH   5   6
ENDBRANCH   4   5
ENDBRANCH   3   4
ENDBRANCH   2   3
ENDBRANCH   1   2
BRANCH   1  17
ATOM     17  C   UNL     1     -36.185 -48.463 -12.562  1.00  0.00     0.000 C 
BRANCH  17  18
ATOM     18  C   UNL     1     -37.187 -47.999 -13.632  1.00  0.00     0.000 C 
BRANCH  18  19
ATOM     19  C   UNL     1     -37.753 -46.593 -13.339  1.00  0.00     0.000 C 
BRANCH  19  20
ATOM     20  C   UNL     1     -37.524 -45.577 -14.471  1.00  0.00     0.000 C 
BRANCH  20  21
ATOM     21  C   UNL     1     -36.121 -45.682 -15.097  1.00  0.00     0.000 C 
BRANCH  21  22
ATOM     22  C   UNL     1     -36.144 -45.567 -16.637  1.00  0.00    -0.000 C 
BRANCH  22  23
ATOM     23  C   UNL     1     -35.524 -46.770 -17.369  1.00  0.00    -0.000 C 
BRANCH  23  24
ATOM     24  C   UNL     1     -34.578 -47.598 -16.480  1.00  0.00    -0.000 C 
BRANCH  24  25
ATOM     25  C   UNL     1     -34.025 -48.851 -17.192  1.00  0.00    -0.000 C 
BRANCH  25  26
ATOM     26  C   UNL     1     -33.164 -49.760 -16.298  1.00  0.00    -0.000 C 
BRANCH  26  27
ATOM     27  C   UNL     1     -31.681 -49.365 -16.283  1.00  0.00    -0.000 C 
BRANCH  27  28
ATOM     28  C   UNL     1     -31.289 -48.632 -17.575  1.00  0.00    -0.000 C 
BRANCH  28  29
ATOM     29  C   UNL     1     -29.954 -49.126 -18.151  1.00  0.00    -0.003 C 
ATOM     30  C   UNL     1     -29.439 -48.246 -19.291  1.00  0.00     0.004 C 
ENDBRANCH  28  29
ENDBRANCH  27  28
ENDBRANCH  26  27
ENDBRANCH  25  26
ENDBRANCH  24  25
ENDBRANCH  23  24
ENDBRANCH  22  23
ENDBRANCH  21  22
ENDBRANCH  20  21
ENDBRANCH  19  20
ENDBRANCH  18  19
ENDBRANCH  17  18
ENDBRANCH   1  17
TORSDOF 26
ENDMDL
MODEL 9
REMARK VINA RESULT:    -2.593     18.250     20.575
REMARK INTER + INTRA:         -10.289
REMARK INTER:                  -6.407
REMARK INTRA:                  -3.882
REMARK UNBOUND:                -3.755
REMARK SMILES CCCCCCCCCCCCCCCCCCCCCCCCCCCC(=O)[O-]
REMARK SMILES IDX 15 1 16 2 17 3 18 4 19 5 20 6 21 7 22 8 23 9 24 10 25 11
REMARK SMILES IDX 26 12 27 13 28 14 29 15 30 16 14 17 13 18 12 19 11 20 10 21
REMARK SMILES IDX 9 22 8 23 7 24 6 25 5 26 4 27 3 28 2 29 1 30
REMARK H PARENT
REMARK Flexibility Score: inf
ROOT
ATOM      1  C   UNL     1     -35.024 -45.718 -10.783  1.00  0.00     0.000 C 
ENDROOT
BRANCH   1   2
ATOM      2  C   UNL     1     -34.226 -46.522  -9.745  1.00  0.00     0.000 C 
BRANCH   2   3
ATOM      3  C   UNL     1     -34.619 -48.005  -9.763  1.00  0.00     0.000 C 
BRANCH   3   4
ATOM      4  C   UNL     1     -33.373 -48.895  -9.875  1.00  0.00     0.000 C 
BRANCH   4   5
ATOM      5  C   UNL     1     -32.059 -48.099  -9.821  1.00  0.00     0.000 C 
BRANCH   5   6
ATOM      6  C   UNL     1     -30.852 -48.933  -9.338  1.00  0.00     0.000 C 
BRANCH   6   7
ATOM      7  C   UNL     1     -31.256 -49.964  -8.270  1.00  0.00     0.000 C 
BRANCH   7   8
ATOM      8  C   UNL     1     -30.289 -49.998  -7.076  1.00  0.00     0.000 C 
BRANCH   8   9
ATOM      9  C   UNL     1     -29.893 -48.594  -6.591  1.00  0.00     0.000 C 
BRANCH   9  10
ATOM     10  C   UNL     1     -30.959 -47.961  -5.682  1.00  0.00     0.000 C 
BRANCH  10  11
ATOM     11  C   UNL     1     -31.559 -46.676  -6.282  1.00  0.00     0.000 C 
BRANCH  11  12
ATOM     12  C   UNL     1     -33.098 -46.733  -6.373  1.00  0.00     0.006 C 
BRANCH  12  13
ATOM     13  C   UNL     1     -33.701 -48.020  -5.789  1.00  0.00     0.053 C 
BRANCH  13  14
ATOM     14  C   UNL     1     -34.798 -47.744  -4.809  1.00  0.00     0.041 C 
ATOM     15  O   UNL     1     -34.998 -46.571  -4.395  1.00  0.00    -0.550 OA
ATOM     16  O   UNL     1     -35.620 -48.776  -4.373  1.00  0.00    -0.550 OA
ENDBRANCH  13  14
ENDBRANCH  12  13
ENDBRANCH  11  12
ENDBRANCH  10  11
ENDBRANCH   9  10
ENDBRANCH   8   9
ENDBRANCH   7   8
ENDBRANCH   6   7
ENDBRANCH   5   6
ENDBRANCH   4   5
ENDBRANCH   3   4
ENDBRANCH   2   3
ENDBRANCH   1   2
BRANCH   1  17
ATOM     17  C   UNL     1     -36.027 -46.595 -11.553  1.00  0.00     0.000 C 
BRANCH  17  18
ATOM     18  C   UNL     1     -35.637 -46.770 -13.031  1.00  0.00     0.000 C 
BRANCH  18  19
ATOM     19  C   UNL     1     -36.598 -46.029 -13.985  1.00  0.00     0.000 C 
BRANCH  19  20
ATOM     20  C   UNL     1     -37.998 -45.782 -13.397  1.00  0.00     0.000 C 
BRANCH  20  21
ATOM     21  C   UNL     1     -39.100 -46.584 -14.112  1.00  0.00     0.000 C 
BRANCH  21  22
ATOM     22  C   UNL     1     -39.125 -46.337 -15.637  1.00  0.00    -0.000 C 
BRANCH  22  23
ATOM     23  C   UNL     1     -39.074 -44.852 -16.036  1.00  0.00    -0.000 C 
BRANCH  23  24
ATOM     24  C   UNL     1     -38.210 -44.590 -17.283  1.00  0.00    -0.000 C 
BRANCH  24  25
ATOM     25  C   UNL     1     -37.351 -45.807 -17.688  1.00  0.00    -0.000 C 
BRANCH  25  26
ATOM     26  C   UNL     1     -35.842 -45.628 -17.445  1.00  0.00    -0.000 C 
BRANCH  26  27
ATOM     27  C   UNL     1     -35.124 -46.941 -17.105  1.00  0.00    -0.000 C 
BRANCH  27  28
ATOM     28  C   UNL     1     -36.130 -48.081 -16.880  1.00  0.00    -0.000 C 
BRANCH  28  29
ATOM     29  C   UNL     1     -35.509 -49.278 -16.145  1.00  0.00    -0.003 C 
ATOM     30  C   UNL     1     -33.984 -49.202 -16.071  1.00  0.00     0.004 C 
ENDBRANCH  28  29
ENDBRANCH  27  28
ENDBRANCH  26  27
ENDBRANCH  25  26
ENDBRANCH  24  25
ENDBRANCH  23  24
ENDBRANCH  22  23
ENDBRANCH  21  22
ENDBRANCH  20  21
ENDBRANCH  19  20
ENDBRANCH  18  19
ENDBRANCH  17  18
ENDBRANCH   1  17
TORSDOF 26
ENDMDL
