MODEL 1
REMARK VINA RESULT:    -5.065      0.000      0.000
REMARK INTER + INTRA:          -5.685
REMARK INTER:                  -5.509
REMARK INTRA:                  -0.176
REMARK UNBOUND:                -0.176
REMARK SMILES Cc1ccc(C(C)C)c(O)c1
REMARK SMILES IDX 1 1 2 2 11 3 9 4 5 5 4 6 3 7 10 8 6 10 7 11 8 12
REMARK H PARENT 10 9
REMARK Flexibility Score: inf
ROOT
ATOM      1  C   UNL     1     -23.647 -12.501 -33.093  1.00  0.00     0.044 C 
ATOM      2  C   UNL     1     -24.265 -12.048 -31.803  1.00  0.00    -0.047 A 
ATOM      3  C   UNL     1     -23.469 -11.481 -30.800  1.00  0.00     0.049 A 
ATOM      4  C   UNL     1     -24.044 -11.021 -29.606  1.00  0.00     0.119 A 
ATOM      5  C   UNL     1     -25.440 -11.118 -29.410  1.00  0.00    -0.004 A 
ATOM      6  C   UNL     1     -26.232 -11.671 -30.435  1.00  0.00     0.008 A 
ATOM      7  C   UNL     1     -25.651 -12.125 -31.620  1.00  0.00     0.004 A 
ENDROOT
BRANCH   4   8
ATOM      8  O   UNL     1     -23.227 -10.470 -28.619  1.00  0.00    -0.508 OA
ATOM      9  H   UNL     1     -22.636  -9.667 -28.803  1.00  0.00     0.293 HD
ENDBRANCH   4   8
BRANCH   5  10
ATOM     10  C   UNL     1     -26.087 -10.626 -28.123  1.00  0.00     0.017 C 
ATOM     11  C   UNL     1     -27.363 -11.417 -27.809  1.00  0.00     0.012 C 
ATOM     12  C   UNL     1     -26.374  -9.121 -28.191  1.00  0.00     0.012 C 
ENDBRANCH   5  10
TORSDOF 2
ENDMDL
MODEL 2
REMARK VINA RESULT:    -4.945      4.984      7.590
REMARK INTER + INTRA:          -5.555
REMARK INTER:                  -5.359
REMARK INTRA:                  -0.197
REMARK UNBOUND:                -0.176
REMARK SMILES Cc1ccc(C(C)C)c(O)c1
REMARK SMILES IDX 1 1 2 2 11 3 9 4 5 5 4 6 3 7 10 8 6 10 7 11 8 12
REMARK H PARENT 10 9
REMARK Flexibility Score: inf
ROOT
ATOM      1  C   UNL     1     -27.576  -3.193 -26.992  1.00  0.00     0.044 C 
ATOM      2  C   UNL     1     -26.380  -4.099 -27.038  1.00  0.00    -0.047 A 
ATOM      3  C   UNL     1     -25.901  -4.696 -25.865  1.00  0.00     0.049 A 
ATOM      4  C   UNL     1     -24.807  -5.573 -25.905  1.00  0.00     0.119 A 
ATOM      5  C   UNL     1     -24.183  -5.870 -27.138  1.00  0.00    -0.004 A 
ATOM      6  C   UNL     1     -24.687  -5.278 -28.313  1.00  0.00     0.008 A 
ATOM      7  C   UNL     1     -25.777  -4.408 -28.263  1.00  0.00     0.004 A 
ENDROOT
BRANCH   4   8
ATOM      8  O   UNL     1     -24.344  -6.147 -24.721  1.00  0.00    -0.508 OA
ATOM      9  H   UNL     1     -24.594  -5.772 -23.813  1.00  0.00     0.293 HD
ENDBRANCH   4   8
BRANCH   5  10
ATOM     10  C   UNL     1     -22.994  -6.818 -27.206  1.00  0.00     0.017 C 
ATOM     11  C   UNL     1     -21.730  -6.087 -27.678  1.00  0.00     0.012 C 
ATOM     12  C   UNL     1     -23.301  -8.022 -28.105  1.00  0.00     0.012 C 
ENDBRANCH   5  10
TORSDOF 2
ENDMDL
MODEL 3
REMARK VINA RESULT:    -4.932      2.080      2.675
REMARK INTER + INTRA:          -5.541
REMARK INTER:                  -5.344
REMARK INTRA:                  -0.197
REMARK UNBOUND:                -0.176
REMARK SMILES Cc1ccc(C(C)C)c(O)c1
REMARK SMILES IDX 1 1 2 2 11 3 9 4 5 5 4 6 3 7 10 8 6 10 7 11 8 12
REMARK H PARENT 10 9
REMARK Flexibility Score: inf
ROOT
ATOM      1  C   UNL     1     -23.765 -12.484 -33.000  1.00  0.00     0.044 C 
ATOM      2  C   UNL     1     -24.786 -12.084 -31.975  1.00  0.00    -0.047 A 
ATOM      3  C   UNL     1     -25.988 -12.794 -31.862  1.00  0.00     0.049 A 
ATOM      4  C   UNL     1     -26.931 -12.450 -30.882  1.00  0.00     0.119 A 
ATOM      5  C   UNL     1     -26.670 -11.385 -29.991  1.00  0.00    -0.004 A 
ATOM      6  C   UNL     1     -25.448 -10.692 -30.102  1.00  0.00     0.008 A 
ATOM      7  C   UNL     1     -24.515 -11.042 -31.080  1.00  0.00     0.004 A 
ENDROOT
BRANCH   4   8
ATOM      8  O   UNL     1     -28.125 -13.167 -30.798  1.00  0.00    -0.508 OA
ATOM      9  H   UNL     1     -28.794 -13.182 -31.559  1.00  0.00     0.293 HD
ENDBRANCH   4   8
BRANCH   5  10
ATOM     10  C   UNL     1     -27.678 -10.994 -28.920  1.00  0.00     0.017 C 
ATOM     11  C   UNL     1     -28.059  -9.512 -29.036  1.00  0.00     0.012 C 
ATOM     12  C   UNL     1     -27.147 -11.318 -27.519  1.00  0.00     0.012 C 
ENDBRANCH   5  10
TORSDOF 2
ENDMDL
MODEL 4
REMARK VINA RESULT:    -4.907      1.921      2.333
REMARK INTER + INTRA:          -5.514
REMARK INTER:                  -5.324
REMARK INTRA:                  -0.190
REMARK UNBOUND:                -0.176
REMARK SMILES Cc1ccc(C(C)C)c(O)c1
REMARK SMILES IDX 1 1 2 2 11 3 9 4 5 5 4 6 3 7 10 8 6 10 7 11 8 12
REMARK H PARENT 10 9
REMARK Flexibility Score: inf
ROOT
ATOM      1  C   UNL     1     -22.126 -11.375 -30.059  1.00  0.00     0.044 C 
ATOM      2  C   UNL     1     -23.439 -10.889 -29.518  1.00  0.00    -0.047 A 
ATOM      3  C   UNL     1     -23.544  -9.605 -28.967  1.00  0.00     0.049 A 
ATOM      4  C   UNL     1     -24.775  -9.129 -28.493  1.00  0.00     0.119 A 
ATOM      5  C   UNL     1     -25.928  -9.942 -28.578  1.00  0.00    -0.004 A 
ATOM      6  C   UNL     1     -25.813 -11.223 -29.153  1.00  0.00     0.008 A 
ATOM      7  C   UNL     1     -24.584 -11.688 -29.623  1.00  0.00     0.004 A 
ENDROOT
BRANCH   4   8
ATOM      8  O   UNL     1     -24.849  -7.851 -27.940  1.00  0.00    -0.508 OA
ATOM      9  H   UNL     1     -25.694  -7.293 -27.998  1.00  0.00     0.293 HD
ENDBRANCH   4   8
BRANCH   5  10
ATOM     10  C   UNL     1     -27.275  -9.448 -28.071  1.00  0.00     0.017 C 
ATOM     11  C   UNL     1     -28.122 -10.608 -27.532  1.00  0.00     0.012 C 
ATOM     12  C   UNL     1     -28.026  -8.677 -29.163  1.00  0.00     0.012 C 
ENDBRANCH   5  10
TORSDOF 2
ENDMDL
MODEL 5
REMARK VINA RESULT:    -4.861      1.808      4.340
REMARK INTER + INTRA:          -5.463
REMARK INTER:                  -5.290
REMARK INTRA:                  -0.173
REMARK UNBOUND:                -0.176
REMARK SMILES Cc1ccc(C(C)C)c(O)c1
REMARK SMILES IDX 1 1 2 2 11 3 9 4 5 5 4 6 3 7 10 8 6 10 7 11 8 12
REMARK H PARENT 10 9
REMARK Flexibility Score: inf
ROOT
ATOM      1  C   UNL     1     -28.123 -11.014 -27.757  1.00  0.00     0.044 C 
ATOM      2  C   UNL     1     -26.878 -11.152 -28.585  1.00  0.00    -0.047 A 
ATOM      3  C   UNL     1     -26.921 -11.812 -29.819  1.00  0.00     0.049 A 
ATOM      4  C   UNL     1     -25.771 -11.913 -30.616  1.00  0.00     0.119 A 
ATOM      5  C   UNL     1     -24.556 -11.336 -30.181  1.00  0.00    -0.004 A 
ATOM      6  C   UNL     1     -24.532 -10.656 -28.947  1.00  0.00     0.008 A 
ATOM      7  C   UNL     1     -25.682 -10.561 -28.162  1.00  0.00     0.004 A 
ENDROOT
BRANCH   4   8
ATOM      8  O   UNL     1     -25.838 -12.584 -31.836  1.00  0.00    -0.508 OA
ATOM      9  H   UNL     1     -25.245 -13.381 -32.041  1.00  0.00     0.293 HD
ENDBRANCH   4   8
BRANCH   5  10
ATOM     10  C   UNL     1     -23.296 -11.431 -31.028  1.00  0.00     0.017 C 
ATOM     11  C   UNL     1     -22.037 -11.395 -30.151  1.00  0.00     0.012 C 
ATOM     12  C   UNL     1     -23.259 -10.326 -32.089  1.00  0.00     0.012 C 
ENDBRANCH   5  10
TORSDOF 2
ENDMDL
MODEL 6
REMARK VINA RESULT:    -4.782      1.881      2.806
REMARK INTER + INTRA:          -5.377
REMARK INTER:                  -5.179
REMARK INTRA:                  -0.198
REMARK UNBOUND:                -0.176
REMARK SMILES Cc1ccc(C(C)C)c(O)c1
REMARK SMILES IDX 1 1 2 2 11 3 9 4 5 5 4 6 3 7 10 8 6 10 7 11 8 12
REMARK H PARENT 10 9
REMARK Flexibility Score: inf
ROOT
ATOM      1  C   UNL     1     -22.014 -11.380 -30.045  1.00  0.00     0.044 C 
ATOM      2  C   UNL     1     -23.474 -11.126 -29.807  1.00  0.00    -0.047 A 
ATOM      3  C   UNL     1     -24.428 -11.568 -30.733  1.00  0.00     0.049 A 
ATOM      4  C   UNL     1     -25.796 -11.367 -30.501  1.00  0.00     0.119 A 
ATOM      5  C   UNL     1     -26.226 -10.723 -29.319  1.00  0.00    -0.004 A 
ATOM      6  C   UNL     1     -25.258 -10.300 -28.386  1.00  0.00     0.008 A 
ATOM      7  C   UNL     1     -23.899 -10.506 -28.626  1.00  0.00     0.004 A 
ENDROOT
BRANCH   4   8
ATOM      8  O   UNL     1     -26.724 -11.809 -31.444  1.00  0.00    -0.508 OA
ATOM      9  H   UNL     1     -27.677 -11.463 -31.457  1.00  0.00     0.293 HD
ENDBRANCH   4   8
BRANCH   5  10
ATOM     10  C   UNL     1     -27.705 -10.494 -29.045  1.00  0.00     0.017 C 
ATOM     11  C   UNL     1     -28.073  -9.011 -29.196  1.00  0.00     0.012 C 
ATOM     12  C   UNL     1     -28.097 -11.019 -27.659  1.00  0.00     0.012 C 
ENDBRANCH   5  10
TORSDOF 2
ENDMDL
MODEL 7
REMARK VINA RESULT:    -4.776      1.266      4.127
REMARK INTER + INTRA:          -5.371
REMARK INTER:                  -5.172
REMARK INTRA:                  -0.199
REMARK UNBOUND:                -0.176
REMARK SMILES Cc1ccc(C(C)C)c(O)c1
REMARK SMILES IDX 1 1 2 2 11 3 9 4 5 5 4 6 3 7 10 8 6 10 7 11 8 12
REMARK H PARENT 10 9
REMARK Flexibility Score: inf
ROOT
ATOM      1  C   UNL     1     -28.077 -10.304 -27.369  1.00  0.00     0.044 C 
ATOM      2  C   UNL     1     -26.891 -10.449 -28.276  1.00  0.00    -0.047 A 
ATOM      3  C   UNL     1     -26.044  -9.359 -28.510  1.00  0.00     0.049 A 
ATOM      4  C   UNL     1     -24.912  -9.496 -29.327  1.00  0.00     0.119 A 
ATOM      5  C   UNL     1     -24.611 -10.745 -29.915  1.00  0.00    -0.004 A 
ATOM      6  C   UNL     1     -25.460 -11.839 -29.656  1.00  0.00     0.008 A 
ATOM      7  C   UNL     1     -26.583 -11.693 -28.841  1.00  0.00     0.004 A 
ENDROOT
BRANCH   4   8
ATOM      8  O   UNL     1     -24.090  -8.391 -29.552  1.00  0.00    -0.508 OA
ATOM      9  H   UNL     1     -24.452  -7.527 -29.939  1.00  0.00     0.293 HD
ENDBRANCH   4   8
BRANCH   5  10
ATOM     10  C   UNL     1     -23.389 -10.918 -30.806  1.00  0.00     0.017 C 
ATOM     11  C   UNL     1     -23.683 -11.875 -31.968  1.00  0.00     0.012 C 
ATOM     12  C   UNL     1     -22.178 -11.393 -29.993  1.00  0.00     0.012 C 
ENDBRANCH   5  10
TORSDOF 2
ENDMDL
MODEL 8
REMARK VINA RESULT:    -4.712      2.746      4.191
REMARK INTER + INTRA:          -5.301
REMARK INTER:                  -5.116
REMARK INTRA:                  -0.185
REMARK UNBOUND:                -0.176
REMARK SMILES Cc1ccc(C(C)C)c(O)c1
REMARK SMILES IDX 1 1 2 2 11 3 9 4 5 5 4 6 3 7 10 8 6 10 7 11 8 12
REMARK H PARENT 10 9
REMARK Flexibility Score: inf
ROOT
ATOM      1  C   UNL     1     -24.753 -11.359 -29.531  1.00  0.00     0.044 C 
ATOM      2  C   UNL     1     -24.722 -10.011 -28.873  1.00  0.00    -0.047 A 
ATOM      3  C   UNL     1     -23.501  -9.364 -28.646  1.00  0.00     0.049 A 
ATOM      4  C   UNL     1     -23.465  -8.088 -28.065  1.00  0.00     0.119 A 
ATOM      5  C   UNL     1     -24.668  -7.437 -27.712  1.00  0.00    -0.004 A 
ATOM      6  C   UNL     1     -25.892  -8.090 -27.964  1.00  0.00     0.008 A 
ATOM      7  C   UNL     1     -25.917  -9.360 -28.543  1.00  0.00     0.004 A 
ENDROOT
BRANCH   4   8
ATOM      8  O   UNL     1     -22.235  -7.470 -27.841  1.00  0.00    -0.508 OA
ATOM      9  H   UNL     1     -21.395  -7.760 -28.330  1.00  0.00     0.293 HD
ENDBRANCH   4   8
BRANCH   5  10
ATOM     10  C   UNL     1     -24.655  -6.053 -27.080  1.00  0.00     0.017 C 
ATOM     11  C   UNL     1     -24.499  -6.142 -25.556  1.00  0.00     0.012 C 
ATOM     12  C   UNL     1     -25.913  -5.263 -27.459  1.00  0.00     0.012 C 
ENDBRANCH   5  10
TORSDOF 2
ENDMDL
MODEL 9
REMARK VINA RESULT:    -4.684      1.021      4.148
REMARK INTER + INTRA:          -5.271
REMARK INTER:                  -5.084
REMARK INTRA:                  -0.187
REMARK UNBOUND:                -0.176
REMARK SMILES Cc1ccc(C(C)C)c(O)c1
REMARK SMILES IDX 1 1 2 2 11 3 9 4 5 5 4 6 3 7 10 8 6 10 7 11 8 12
REMARK H PARENT 10 9
REMARK Flexibility Score: inf
ROOT
ATOM      1  C   UNL     1     -26.885 -11.372 -27.826  1.00  0.00     0.044 C 
ATOM      2  C   UNL     1     -25.952 -11.423 -29.001  1.00  0.00    -0.047 A 
ATOM      3  C   UNL     1     -24.613 -11.038 -28.856  1.00  0.00     0.049 A 
ATOM      4  C   UNL     1     -23.726 -11.119 -29.940  1.00  0.00     0.119 A 
ATOM      5  C   UNL     1     -24.176 -11.601 -31.189  1.00  0.00    -0.004 A 
ATOM      6  C   UNL     1     -25.520 -12.005 -31.316  1.00  0.00     0.008 A 
ATOM      7  C   UNL     1     -26.395 -11.922 -30.232  1.00  0.00     0.004 A 
ENDROOT
BRANCH   4   8
ATOM      8  O   UNL     1     -22.400 -10.719 -29.771  1.00  0.00    -0.508 OA
ATOM      9  H   UNL     1     -21.790 -11.166 -29.096  1.00  0.00     0.293 HD
ENDBRANCH   4   8
BRANCH   5  10
ATOM     10  C   UNL     1     -23.232 -11.698 -32.378  1.00  0.00     0.017 C 
ATOM     11  C   UNL     1     -23.184 -10.376 -33.155  1.00  0.00     0.012 C 
ATOM     12  C   UNL     1     -23.620 -12.862 -33.297  1.00  0.00     0.012 C 
ENDBRANCH   5  10
TORSDOF 2
ENDMDL
