MODEL 1
REMARK VINA RESULT:    -4.237      0.000      0.000
REMARK INTER + INTRA:          -6.043
REMARK INTER:                  -5.228
REMARK INTRA:                  -0.814
REMARK UNBOUND:                -0.814
REMARK SMILES CC(C)=CCC[C@H](C)c1ccc(C)cc1
REMARK SMILES IDX 6 1 7 2 8 3 9 4 13 5 12 6 11 7 14 8 10 9 15 10 5 11 4 12
REMARK SMILES IDX 2 13 1 14 3 15
REMARK H PARENT
REMARK Flexibility Score: inf
ROOT
ATOM      1  C   UNL     1     -11.091  31.641  12.788  1.00  0.00     0.012 C 
ENDROOT
BRANCH   1   2
ATOM      2  C   UNL     1     -11.081  30.230  13.430  1.00  0.00     0.016 C 
ATOM      3  C   UNL     1      -9.860  30.008  14.336  1.00  0.00     0.013 C 
BRANCH   2   4
ATOM      4  C   UNL     1     -11.142  29.165  12.350  1.00  0.00    -0.045 A 
ATOM      5  C   UNL     1     -11.332  26.085   9.327  1.00  0.00     0.044 C 
ATOM      6  C   UNL     1     -11.247  27.169  10.359  1.00  0.00    -0.051 A 
ATOM      7  C   UNL     1     -10.335  27.065  11.420  1.00  0.00     0.004 A 
ATOM      8  C   UNL     1     -12.125  28.262  10.312  1.00  0.00     0.004 A 
ATOM      9  C   UNL     1     -10.280  28.056  12.404  1.00  0.00     0.004 A 
ATOM     10  C   UNL     1     -12.070  29.253  11.295  1.00  0.00     0.004 A 
ENDBRANCH   2   4
ENDBRANCH   1   2
BRANCH   1  11
ATOM     11  C   UNL     1     -12.120  32.607  13.402  1.00  0.00     0.028 C 
BRANCH  11  12
ATOM     12  C   UNL     1     -11.481  33.616  14.326  1.00  0.00    -0.028 C 
ATOM     13  C   UNL     1     -11.396  33.484  15.668  1.00  0.00    -0.080 C 
ATOM     14  C   UNL     1     -12.003  32.309  16.399  1.00  0.00     0.039 C 
ATOM     15  C   UNL     1     -10.693  34.563  16.451  1.00  0.00     0.039 C 
ENDBRANCH  11  12
ENDBRANCH   1  11
TORSDOF 4
ENDMDL
MODEL 2
REMARK VINA RESULT:    -4.135      2.169      3.249
REMARK INTER + INTRA:          -5.917
REMARK INTER:                  -5.271
REMARK INTRA:                  -0.645
REMARK UNBOUND:                -0.814
REMARK SMILES CC(C)=CCC[C@H](C)c1ccc(C)cc1
REMARK SMILES IDX 6 1 7 2 8 3 9 4 13 5 12 6 11 7 14 8 10 9 15 10 5 11 4 12
REMARK SMILES IDX 2 13 1 14 3 15
REMARK H PARENT
REMARK Flexibility Score: inf
ROOT
ATOM      1  C   UNL     1     -12.033  31.043  15.390  1.00  0.00     0.012 C 
ENDROOT
BRANCH   1   2
ATOM      2  C   UNL     1     -11.227  31.455  14.133  1.00  0.00     0.016 C 
ATOM      3  C   UNL     1     -11.804  32.704  13.450  1.00  0.00     0.013 C 
BRANCH   2   4
ATOM      4  C   UNL     1     -11.160  30.297  13.154  1.00  0.00    -0.045 A 
ATOM      5  C   UNL     1     -10.978  26.955  10.421  1.00  0.00     0.044 C 
ATOM      6  C   UNL     1     -11.024  28.131  11.351  1.00  0.00    -0.051 A 
ATOM      7  C   UNL     1     -10.106  28.233  12.407  1.00  0.00     0.004 A 
ATOM      8  C   UNL     1     -12.027  29.101  11.216  1.00  0.00     0.004 A 
ATOM      9  C   UNL     1     -10.170  29.308  13.297  1.00  0.00     0.004 A 
ATOM     10  C   UNL     1     -12.092  30.177  12.106  1.00  0.00     0.004 A 
ENDBRANCH   2   4
ENDBRANCH   1   2
BRANCH   1  11
ATOM     11  C   UNL     1     -11.267  31.209  16.715  1.00  0.00     0.028 C 
BRANCH  11  12
ATOM     12  C   UNL     1     -10.521  29.957  17.108  1.00  0.00    -0.028 C 
ATOM     13  C   UNL     1     -10.623  29.346  18.310  1.00  0.00    -0.080 C 
ATOM     14  C   UNL     1     -11.472  29.908  19.426  1.00  0.00     0.039 C 
ATOM     15  C   UNL     1      -9.841  28.079  18.538  1.00  0.00     0.039 C 
ENDBRANCH  11  12
ENDBRANCH   1  11
TORSDOF 4
ENDMDL
MODEL 3
REMARK VINA RESULT:    -4.079      2.151      3.340
REMARK INTER + INTRA:          -5.847
REMARK INTER:                  -5.326
REMARK INTRA:                  -0.520
REMARK UNBOUND:                -0.814
REMARK SMILES CC(C)=CCC[C@H](C)c1ccc(C)cc1
REMARK SMILES IDX 6 1 7 2 8 3 9 4 13 5 12 6 11 7 14 8 10 9 15 10 5 11 4 12
REMARK SMILES IDX 2 13 1 14 3 15
REMARK H PARENT
REMARK Flexibility Score: inf
ROOT
ATOM      1  C   UNL     1     -11.995  29.842  14.753  1.00  0.00     0.012 C 
ENDROOT
BRANCH   1   2
ATOM      2  C   UNL     1     -10.915  30.091  13.670  1.00  0.00     0.016 C 
ATOM      3  C   UNL     1     -10.975  31.518  13.101  1.00  0.00     0.013 C 
BRANCH   2   4
ATOM      4  C   UNL     1     -11.047  29.069  12.556  1.00  0.00    -0.045 A 
ATOM      5  C   UNL     1     -11.407  26.210   9.337  1.00  0.00     0.044 C 
ATOM      6  C   UNL     1     -11.301  27.186  10.470  1.00  0.00    -0.051 A 
ATOM      7  C   UNL     1     -12.125  28.321  10.505  1.00  0.00     0.004 A 
ATOM      8  C   UNL     1     -10.331  27.010  11.467  1.00  0.00     0.004 A 
ATOM      9  C   UNL     1     -12.003  29.252  11.541  1.00  0.00     0.004 A 
ATOM     10  C   UNL     1     -10.208  27.940  12.503  1.00  0.00     0.004 A 
ENDBRANCH   2   4
ENDBRANCH   1   2
BRANCH   1  11
ATOM     11  C   UNL     1     -11.559  28.880  15.871  1.00  0.00     0.028 C 
BRANCH  11  12
ATOM     12  C   UNL     1     -11.867  29.419  17.247  1.00  0.00    -0.028 C 
ATOM     13  C   UNL     1     -11.135  29.166  18.355  1.00  0.00    -0.080 C 
ATOM     14  C   UNL     1      -9.939  28.244  18.333  1.00  0.00     0.039 C 
ATOM     15  C   UNL     1     -11.551  29.811  19.651  1.00  0.00     0.039 C 
ENDBRANCH  11  12
ENDBRANCH   1  11
TORSDOF 4
ENDMDL
MODEL 4
REMARK VINA RESULT:    -3.934      2.573      6.883
REMARK INTER + INTRA:          -5.668
REMARK INTER:                  -4.664
REMARK INTRA:                  -1.004
REMARK UNBOUND:                -0.814
REMARK SMILES CC(C)=CCC[C@H](C)c1ccc(C)cc1
REMARK SMILES IDX 6 1 7 2 8 3 9 4 13 5 12 6 11 7 14 8 10 9 15 10 5 11 4 12
REMARK SMILES IDX 2 13 1 14 3 15
REMARK H PARENT
REMARK Flexibility Score: inf
ROOT
ATOM      1  C   UNL     1     -12.046  28.959  17.043  1.00  0.00     0.012 C 
ENDROOT
BRANCH   1   2
ATOM      2  C   UNL     1     -10.958  29.681  17.877  1.00  0.00     0.016 C 
ATOM      3  C   UNL     1     -11.010  29.298  19.364  1.00  0.00     0.013 C 
BRANCH   2   4
ATOM      4  C   UNL     1     -11.085  31.184  17.710  1.00  0.00    -0.045 A 
ATOM      5  C   UNL     1     -11.475  35.453  17.172  1.00  0.00     0.044 C 
ATOM      6  C   UNL     1     -11.316  33.976  17.377  1.00  0.00    -0.051 A 
ATOM      7  C   UNL     1     -10.560  33.215  16.474  1.00  0.00     0.004 A 
ATOM      8  C   UNL     1     -11.979  33.333  18.432  1.00  0.00     0.004 A 
ATOM      9  C   UNL     1     -10.441  31.832  16.641  1.00  0.00     0.004 A 
ATOM     10  C   UNL     1     -11.861  31.951  18.601  1.00  0.00     0.004 A 
ENDBRANCH   2   4
ENDBRANCH   1   2
BRANCH   1  11
ATOM     11  C   UNL     1     -11.571  28.488  15.657  1.00  0.00     0.028 C 
BRANCH  11  12
ATOM     12  C   UNL     1     -12.125  29.340  14.539  1.00  0.00    -0.028 C 
ATOM     13  C   UNL     1     -11.388  29.871  13.539  1.00  0.00    -0.080 C 
ATOM     14  C   UNL     1      -9.887  29.708  13.474  1.00  0.00     0.039 C 
ATOM     15  C   UNL     1     -12.094  30.669  12.474  1.00  0.00     0.039 C 
ENDBRANCH  11  12
ENDBRANCH   1  11
TORSDOF 4
ENDMDL
MODEL 5
REMARK VINA RESULT:    -3.915      2.783      4.941
REMARK INTER + INTRA:          -5.644
REMARK INTER:                  -4.635
REMARK INTRA:                  -1.010
REMARK UNBOUND:                -0.814
REMARK SMILES CC(C)=CCC[C@H](C)c1ccc(C)cc1
REMARK SMILES IDX 6 1 7 2 8 3 9 4 13 5 12 6 11 7 14 8 10 9 15 10 5 11 4 12
REMARK SMILES IDX 2 13 1 14 3 15
REMARK H PARENT
REMARK Flexibility Score: inf
ROOT
ATOM      1  C   UNL     1     -11.817  31.641  17.811  1.00  0.00     0.012 C 
ENDROOT
BRANCH   1   2
ATOM      2  C   UNL     1     -10.707  31.988  16.787  1.00  0.00     0.016 C 
ATOM      3  C   UNL     1     -10.560  33.502  16.573  1.00  0.00     0.013 C 
BRANCH   2   4
ATOM      4  C   UNL     1     -10.979  31.288  15.467  1.00  0.00    -0.045 A 
ATOM      5  C   UNL     1     -11.803  29.261  11.743  1.00  0.00     0.044 C 
ATOM      6  C   UNL     1     -11.488  29.968  13.027  1.00  0.00    -0.051 A 
ATOM      7  C   UNL     1     -11.131  29.235  14.168  1.00  0.00     0.004 A 
ATOM      8  C   UNL     1     -11.616  31.362  13.117  1.00  0.00     0.004 A 
ATOM      9  C   UNL     1     -10.874  29.889  15.376  1.00  0.00     0.004 A 
ATOM     10  C   UNL     1     -11.359  32.017  14.324  1.00  0.00     0.004 A 
ENDBRANCH   2   4
ENDBRANCH   1   2
BRANCH   1  11
ATOM     11  C   UNL     1     -11.332  30.808  19.011  1.00  0.00     0.028 C 
BRANCH  11  12
ATOM     12  C   UNL     1     -11.896  29.408  19.005  1.00  0.00    -0.028 C 
ATOM     13  C   UNL     1     -11.171  28.287  18.793  1.00  0.00    -0.080 C 
ATOM     14  C   UNL     1      -9.695  28.335  18.473  1.00  0.00     0.039 C 
ATOM     15  C   UNL     1     -11.873  26.957  18.857  1.00  0.00     0.039 C 
ENDBRANCH  11  12
ENDBRANCH   1  11
TORSDOF 4
ENDMDL
MODEL 6
REMARK VINA RESULT:    -3.805      1.326      6.881
REMARK INTER + INTRA:          -5.509
REMARK INTER:                  -4.910
REMARK INTRA:                  -0.599
REMARK UNBOUND:                -0.814
REMARK SMILES CC(C)=CCC[C@H](C)c1ccc(C)cc1
REMARK SMILES IDX 6 1 7 2 8 3 9 4 13 5 12 6 11 7 14 8 10 9 15 10 5 11 4 12
REMARK SMILES IDX 2 13 1 14 3 15
REMARK H PARENT
REMARK Flexibility Score: inf
ROOT
ATOM      1  C   UNL     1     -11.674  29.721  13.502  1.00  0.00     0.012 C 
ENDROOT
BRANCH   1   2
ATOM      2  C   UNL     1     -11.084  29.700  14.935  1.00  0.00     0.016 C 
ATOM      3  C   UNL     1     -11.816  28.712  15.856  1.00  0.00     0.013 C 
BRANCH   2   4
ATOM      4  C   UNL     1     -11.106  31.097  15.529  1.00  0.00    -0.045 A 
ATOM      5  C   UNL     1     -11.238  35.078  17.201  1.00  0.00     0.044 C 
ATOM      6  C   UNL     1     -11.163  33.699  16.615  1.00  0.00    -0.051 A 
ATOM      7  C   UNL     1     -11.459  33.490  15.260  1.00  0.00     0.004 A 
ATOM      8  C   UNL     1     -10.864  32.599  17.431  1.00  0.00     0.004 A 
ATOM      9  C   UNL     1     -11.427  32.202  14.720  1.00  0.00     0.004 A 
ATOM     10  C   UNL     1     -10.831  31.310  16.893  1.00  0.00     0.004 A 
ENDBRANCH   2   4
ENDBRANCH   1   2
BRANCH   1  11
ATOM     11  C   UNL     1     -10.632  29.532  12.386  1.00  0.00     0.028 C 
BRANCH  11  12
ATOM     12  C   UNL     1     -11.128  28.629  11.282  1.00  0.00    -0.028 C 
ATOM     13  C   UNL     1     -10.794  27.327  11.145  1.00  0.00    -0.080 C 
ATOM     14  C   UNL     1      -9.817  26.646  12.075  1.00  0.00     0.039 C 
ATOM     15  C   UNL     1     -11.403  26.547  10.009  1.00  0.00     0.039 C 
ENDBRANCH  11  12
ENDBRANCH   1  11
TORSDOF 4
ENDMDL
MODEL 7
REMARK VINA RESULT:    -3.800      2.633      6.384
REMARK INTER + INTRA:          -5.502
REMARK INTER:                  -4.854
REMARK INTRA:                  -0.649
REMARK UNBOUND:                -0.814
REMARK SMILES CC(C)=CCC[C@H](C)c1ccc(C)cc1
REMARK SMILES IDX 6 1 7 2 8 3 9 4 13 5 12 6 11 7 14 8 10 9 15 10 5 11 4 12
REMARK SMILES IDX 2 13 1 14 3 15
REMARK H PARENT
REMARK Flexibility Score: inf
ROOT
ATOM      1  C   UNL     1     -12.125  29.606  13.511  1.00  0.00     0.012 C 
ENDROOT
BRANCH   1   2
ATOM      2  C   UNL     1     -12.007  30.601  14.693  1.00  0.00     0.016 C 
ATOM      3  C   UNL     1     -11.114  31.806  14.359  1.00  0.00     0.013 C 
BRANCH   2   4
ATOM      4  C   UNL     1     -11.493  29.885  15.929  1.00  0.00    -0.045 A 
ATOM      5  C   UNL     1      -9.993  27.802  19.404  1.00  0.00     0.044 C 
ATOM      6  C   UNL     1     -10.539  28.533  18.213  1.00  0.00    -0.051 A 
ATOM      7  C   UNL     1     -11.274  27.843  17.237  1.00  0.00     0.004 A 
ATOM      8  C   UNL     1     -10.259  29.894  18.030  1.00  0.00     0.004 A 
ATOM      9  C   UNL     1     -11.751  28.514  16.108  1.00  0.00     0.004 A 
ATOM     10  C   UNL     1     -10.736  30.566  16.901  1.00  0.00     0.004 A 
ENDBRANCH   2   4
ENDBRANCH   1   2
BRANCH   1  11
ATOM     11  C   UNL     1     -10.817  29.398  12.728  1.00  0.00     0.028 C 
BRANCH  11  12
ATOM     12  C   UNL     1     -11.023  28.591  11.468  1.00  0.00    -0.028 C 
ATOM     13  C   UNL     1     -10.639  27.305  11.307  1.00  0.00    -0.080 C 
ATOM     14  C   UNL     1      -9.891  26.550  12.381  1.00  0.00     0.039 C 
ATOM     15  C   UNL     1     -10.951  26.624  10.000  1.00  0.00     0.039 C 
ENDBRANCH  11  12
ENDBRANCH   1  11
TORSDOF 4
ENDMDL
MODEL 8
REMARK VINA RESULT:    -3.732      3.293      7.579
REMARK INTER + INTRA:          -5.419
REMARK INTER:                  -4.706
REMARK INTRA:                  -0.714
REMARK UNBOUND:                -0.814
REMARK SMILES CC(C)=CCC[C@H](C)c1ccc(C)cc1
REMARK SMILES IDX 6 1 7 2 8 3 9 4 13 5 12 6 11 7 14 8 10 9 15 10 5 11 4 12
REMARK SMILES IDX 2 13 1 14 3 15
REMARK H PARENT
REMARK Flexibility Score: inf
ROOT
ATOM      1  C   UNL     1     -10.852  29.430  16.402  1.00  0.00     0.012 C 
ENDROOT
BRANCH   1   2
ATOM      2  C   UNL     1     -11.388  30.796  16.902  1.00  0.00     0.016 C 
ATOM      3  C   UNL     1     -10.511  31.972  16.444  1.00  0.00     0.013 C 
BRANCH   2   4
ATOM      4  C   UNL     1     -11.514  30.784  18.415  1.00  0.00    -0.045 A 
ATOM      5  C   UNL     1     -11.812  30.717  22.724  1.00  0.00     0.044 C 
ATOM      6  C   UNL     1     -11.738  30.741  21.226  1.00  0.00    -0.051 A 
ATOM      7  C   UNL     1     -11.645  29.542  20.504  1.00  0.00     0.004 A 
ATOM      8  C   UNL     1     -11.692  31.963  20.540  1.00  0.00     0.004 A 
ATOM      9  C   UNL     1     -11.538  29.563  19.111  1.00  0.00     0.004 A 
ATOM     10  C   UNL     1     -11.586  31.985  19.147  1.00  0.00     0.004 A 
ENDBRANCH   2   4
ENDBRANCH   1   2
BRANCH   1  11
ATOM     11  C   UNL     1     -11.760  28.734  15.374  1.00  0.00     0.028 C 
BRANCH  11  12
ATOM     12  C   UNL     1     -12.125  29.639  14.221  1.00  0.00    -0.028 C 
ATOM     13  C   UNL     1     -11.502  29.645  13.021  1.00  0.00    -0.080 C 
ATOM     14  C   UNL     1     -10.310  28.764  12.731  1.00  0.00     0.039 C 
ATOM     15  C   UNL     1     -12.009  30.583  11.957  1.00  0.00     0.039 C 
ENDBRANCH  11  12
ENDBRANCH   1  11
TORSDOF 4
ENDMDL
MODEL 9
REMARK VINA RESULT:    -3.675      2.117      4.766
REMARK INTER + INTRA:          -5.349
REMARK INTER:                  -4.663
REMARK INTRA:                  -0.686
REMARK UNBOUND:                -0.814
REMARK SMILES CC(C)=CCC[C@H](C)c1ccc(C)cc1
REMARK SMILES IDX 6 1 7 2 8 3 9 4 13 5 12 6 11 7 14 8 10 9 15 10 5 11 4 12
REMARK SMILES IDX 2 13 1 14 3 15
REMARK H PARENT
REMARK Flexibility Score: inf
ROOT
ATOM      1  C   UNL     1     -11.938  30.530  12.578  1.00  0.00     0.012 C 
ENDROOT
BRANCH   1   2
ATOM      2  C   UNL     1     -10.683  29.896  13.228  1.00  0.00     0.016 C 
ATOM      3  C   UNL     1     -10.330  28.533  12.611  1.00  0.00     0.013 C 
BRANCH   2   4
ATOM      4  C   UNL     1     -10.881  29.766  14.727  1.00  0.00    -0.045 A 
ATOM      5  C   UNL     1     -11.477  29.460  18.995  1.00  0.00     0.044 C 
ATOM      6  C   UNL     1     -11.246  29.549  17.516  1.00  0.00    -0.051 A 
ATOM      7  C   UNL     1     -10.519  30.621  16.977  1.00  0.00     0.004 A 
ATOM      8  C   UNL     1     -11.813  28.600  16.653  1.00  0.00     0.004 A 
ATOM      9  C   UNL     1     -10.334  30.727  15.596  1.00  0.00     0.004 A 
ATOM     10  C   UNL     1     -11.628  28.704  15.272  1.00  0.00     0.004 A 
ENDBRANCH   2   4
ENDBRANCH   1   2
BRANCH   1  11
ATOM     11  C   UNL     1     -11.732  31.972  12.081  1.00  0.00     0.028 C 
BRANCH  11  12
ATOM     12  C   UNL     1     -11.818  32.983  13.199  1.00  0.00    -0.028 C 
ATOM     13  C   UNL     1     -11.651  34.316  13.046  1.00  0.00    -0.080 C 
ATOM     14  C   UNL     1     -11.294  34.932  11.713  1.00  0.00     0.039 C 
ATOM     15  C   UNL     1     -11.806  35.201  14.255  1.00  0.00     0.039 C 
ENDBRANCH  11  12
ENDBRANCH   1  11
TORSDOF 4
ENDMDL
