MODEL 1
REMARK VINA RESULT:    -3.302      0.000      0.000
REMARK INTER + INTRA:          -5.217
REMARK INTER:                  -4.461
REMARK INTRA:                  -0.757
REMARK UNBOUND:                -0.757
REMARK SMILES CCCCCCC=CC(=O)[O-]
REMARK SMILES IDX 5 1 6 2 7 3 8 4 9 5 10 6 11 7 4 8 3 9 2 10 1 11
REMARK H PARENT
REMARK Flexibility Score: inf
ROOT
ATOM      1  C   UNL     1       9.579  -5.354  -0.687  1.00  0.00     0.004 C 
ENDROOT
BRANCH   1   2
ATOM      2  C   UNL     1      11.060  -5.517  -1.077  1.00  0.00     0.027 C 
BRANCH   2   3
ATOM      3  C   UNL     1      11.890  -4.311  -0.726  1.00  0.00    -0.025 C 
ATOM      4  C   UNL     1      12.754  -3.681  -1.537  1.00  0.00     0.020 C 
BRANCH   4   5
ATOM      5  C   UNL     1      13.117  -4.075  -2.915  1.00  0.00     0.064 C 
ATOM      6  O   UNL     1      12.879  -3.277  -3.858  1.00  0.00    -0.545 OA
ATOM      7  O   UNL     1      13.745  -5.280  -3.199  1.00  0.00    -0.545 OA
ENDBRANCH   4   5
ENDBRANCH   2   3
ENDBRANCH   1   2
BRANCH   1   8
ATOM      8  C   UNL     1       8.626  -5.183  -1.884  1.00  0.00     0.000 C 
BRANCH   8   9
ATOM      9  C   UNL     1       8.563  -3.735  -2.395  1.00  0.00    -0.000 C 
BRANCH   9  10
ATOM     10  C   UNL     1       9.342  -3.583  -3.708  1.00  0.00    -0.003 C 
ATOM     11  C   UNL     1       9.487  -4.925  -4.421  1.00  0.00     0.004 C 
ENDBRANCH   9  10
ENDBRANCH   8   9
ENDBRANCH   1   8
TORSDOF 6
ENDMDL
MODEL 2
REMARK VINA RESULT:    -2.888      1.286      2.288
REMARK INTER + INTRA:          -4.657
REMARK INTER:                  -4.150
REMARK INTRA:                  -0.507
REMARK UNBOUND:                -0.757
REMARK SMILES CCCCCCC=CC(=O)[O-]
REMARK SMILES IDX 5 1 6 2 7 3 8 4 9 5 10 6 11 7 4 8 3 9 2 10 1 11
REMARK H PARENT
REMARK Flexibility Score: inf
ROOT
ATOM      1  C   UNL     1       9.699  -3.591  -3.614  1.00  0.00     0.004 C 
ENDROOT
BRANCH   1   2
ATOM      2  C   UNL     1      10.181  -4.727  -2.693  1.00  0.00     0.027 C 
BRANCH   2   3
ATOM      3  C   UNL     1      10.929  -4.220  -1.488  1.00  0.00    -0.025 C 
ATOM      4  C   UNL     1      12.233  -3.901  -1.442  1.00  0.00     0.020 C 
BRANCH   4   5
ATOM      5  C   UNL     1      13.213  -4.040  -2.540  1.00  0.00     0.064 C 
ATOM      6  O   UNL     1      13.132  -3.267  -3.530  1.00  0.00    -0.545 OA
ATOM      7  O   UNL     1      14.244  -4.969  -2.498  1.00  0.00    -0.545 OA
ENDBRANCH   4   5
ENDBRANCH   2   3
ENDBRANCH   1   2
BRANCH   1   8
ATOM      8  C   UNL     1       8.180  -3.586  -3.869  1.00  0.00     0.000 C 
BRANCH   8   9
ATOM      9  C   UNL     1       7.371  -3.150  -2.637  1.00  0.00    -0.000 C 
BRANCH   9  10
ATOM     10  C   UNL     1       6.438  -4.274  -2.170  1.00  0.00    -0.003 C 
ATOM     11  C   UNL     1       6.939  -4.903  -0.872  1.00  0.00     0.004 C 
ENDBRANCH   9  10
ENDBRANCH   8   9
ENDBRANCH   1   8
TORSDOF 6
ENDMDL
MODEL 3
REMARK VINA RESULT:    -2.884      1.662      2.801
REMARK INTER + INTRA:          -4.653
REMARK INTER:                  -4.349
REMARK INTRA:                  -0.304
REMARK UNBOUND:                -0.757
REMARK SMILES CCCCCCC=CC(=O)[O-]
REMARK SMILES IDX 5 1 6 2 7 3 8 4 9 5 10 6 11 7 4 8 3 9 2 10 1 11
REMARK H PARENT
REMARK Flexibility Score: inf
ROOT
ATOM      1  C   UNL     1       9.889  -5.865  -0.778  1.00  0.00     0.004 C 
ENDROOT
BRANCH   1   2
ATOM      2  C   UNL     1      10.305  -4.506  -1.372  1.00  0.00     0.027 C 
BRANCH   2   3
ATOM      3  C   UNL     1      11.681  -4.078  -0.932  1.00  0.00    -0.025 C 
ATOM      4  C   UNL     1      12.741  -3.877  -1.731  1.00  0.00     0.020 C 
BRANCH   4   5
ATOM      5  C   UNL     1      12.796  -4.093  -3.192  1.00  0.00     0.064 C 
ATOM      6  O   UNL     1      12.665  -5.262  -3.640  1.00  0.00    -0.545 OA
ATOM      7  O   UNL     1      12.950  -3.046  -4.090  1.00  0.00    -0.545 OA
ENDBRANCH   4   5
ENDBRANCH   2   3
ENDBRANCH   1   2
BRANCH   1   8
ATOM      8  C   UNL     1       8.468  -5.883  -0.182  1.00  0.00     0.000 C 
BRANCH   8   9
ATOM      9  C   UNL     1       7.460  -5.082  -1.019  1.00  0.00    -0.000 C 
BRANCH   9  10
ATOM     10  C   UNL     1       6.255  -4.659  -0.169  1.00  0.00    -0.003 C 
ATOM     11  C   UNL     1       6.463  -5.023   1.299  1.00  0.00     0.004 C 
ENDBRANCH   9  10
ENDBRANCH   8   9
ENDBRANCH   1   8
TORSDOF 6
ENDMDL
MODEL 4
REMARK VINA RESULT:    -2.817     12.367     13.898
REMARK INTER + INTRA:          -4.561
REMARK INTER:                  -3.922
REMARK INTRA:                  -0.639
REMARK UNBOUND:                -0.757
REMARK SMILES CCCCCCC=CC(=O)[O-]
REMARK SMILES IDX 5 1 6 2 7 3 8 4 9 5 10 6 11 7 4 8 3 9 2 10 1 11
REMARK H PARENT
REMARK Flexibility Score: inf
ROOT
ATOM      1  C   UNL     1      16.134   2.461   7.576  1.00  0.00     0.004 C 
ENDROOT
BRANCH   1   2
ATOM      2  C   UNL     1      17.363   3.388   7.544  1.00  0.00     0.027 C 
BRANCH   2   3
ATOM      3  C   UNL     1      18.440   2.957   8.505  1.00  0.00    -0.025 C 
ATOM      4  C   UNL     1      19.762   2.982   8.275  1.00  0.00     0.020 C 
BRANCH   4   5
ATOM      5  C   UNL     1      20.431   3.375   7.016  1.00  0.00     0.064 C 
ATOM      6  O   UNL     1      20.542   2.525   6.094  1.00  0.00    -0.545 OA
ATOM      7  O   UNL     1      20.907   4.661   6.802  1.00  0.00    -0.545 OA
ENDBRANCH   4   5
ENDBRANCH   2   3
ENDBRANCH   1   2
BRANCH   1   8
ATOM      8  C   UNL     1      16.453   1.003   7.953  1.00  0.00     0.000 C 
BRANCH   8   9
ATOM      9  C   UNL     1      15.847  -0.014   6.973  1.00  0.00    -0.000 C 
BRANCH   9  10
ATOM     10  C   UNL     1      16.947  -0.776   6.224  1.00  0.00    -0.003 C 
ATOM     11  C   UNL     1      18.325  -0.460   6.799  1.00  0.00     0.004 C 
ENDBRANCH   9  10
ENDBRANCH   8   9
ENDBRANCH   1   8
TORSDOF 6
ENDMDL
MODEL 5
REMARK VINA RESULT:    -2.771      2.651      4.508
REMARK INTER + INTRA:          -4.499
REMARK INTER:                  -3.905
REMARK INTRA:                  -0.594
REMARK UNBOUND:                -0.757
REMARK SMILES CCCCCCC=CC(=O)[O-]
REMARK SMILES IDX 5 1 6 2 7 3 8 4 9 5 10 6 11 7 4 8 3 9 2 10 1 11
REMARK H PARENT
REMARK Flexibility Score: inf
ROOT
ATOM      1  C   UNL     1      10.721  -5.070  -0.986  1.00  0.00     0.004 C 
ENDROOT
BRANCH   1   2
ATOM      2  C   UNL     1      10.138  -5.474  -2.354  1.00  0.00     0.027 C 
BRANCH   2   3
ATOM      3  C   UNL     1      10.439  -4.468  -3.433  1.00  0.00    -0.025 C 
ATOM      4  C   UNL     1       9.619  -3.495  -3.859  1.00  0.00     0.020 C 
BRANCH   4   5
ATOM      5  C   UNL     1       8.234  -3.247  -3.404  1.00  0.00     0.064 C 
ATOM      6  O   UNL     1       8.049  -2.589  -2.347  1.00  0.00    -0.545 OA
ATOM      7  O   UNL     1       7.130  -3.684  -4.123  1.00  0.00    -0.545 OA
ENDBRANCH   4   5
ENDBRANCH   2   3
ENDBRANCH   1   2
BRANCH   1   8
ATOM      8  C   UNL     1      11.923  -4.111  -1.072  1.00  0.00     0.000 C 
BRANCH   8   9
ATOM      9  C   UNL     1      13.099  -4.548  -0.185  1.00  0.00    -0.000 C 
BRANCH   9  10
ATOM     10  C   UNL     1      14.214  -5.182  -1.027  1.00  0.00    -0.003 C 
ATOM     11  C   UNL     1      14.060  -4.825  -2.503  1.00  0.00     0.004 C 
ENDBRANCH   9  10
ENDBRANCH   8   9
ENDBRANCH   1   8
TORSDOF 6
ENDMDL
MODEL 6
REMARK VINA RESULT:    -2.753     10.585     12.495
REMARK INTER + INTRA:          -4.476
REMARK INTER:                  -4.068
REMARK INTRA:                  -0.408
REMARK UNBOUND:                -0.757
REMARK SMILES CCCCCCC=CC(=O)[O-]
REMARK SMILES IDX 5 1 6 2 7 3 8 4 9 5 10 6 11 7 4 8 3 9 2 10 1 11
REMARK H PARENT
REMARK Flexibility Score: inf
ROOT
ATOM      1  C   UNL     1      17.392  -0.076   7.066  1.00  0.00     0.004 C 
ENDROOT
BRANCH   1   2
ATOM      2  C   UNL     1      15.871  -0.259   6.908  1.00  0.00     0.027 C 
BRANCH   2   3
ATOM      3  C   UNL     1      15.287  -1.186   7.942  1.00  0.00    -0.025 C 
ATOM      4  C   UNL     1      14.902  -2.456   7.739  1.00  0.00     0.020 C 
BRANCH   4   5
ATOM      5  C   UNL     1      14.912  -3.185   6.453  1.00  0.00     0.064 C 
ATOM      6  O   UNL     1      13.814  -3.465   5.904  1.00  0.00    -0.545 OA
ATOM      7  O   UNL     1      16.091  -3.538   5.811  1.00  0.00    -0.545 OA
ENDBRANCH   4   5
ENDBRANCH   2   3
ENDBRANCH   1   2
BRANCH   1   8
ATOM      8  C   UNL     1      17.794   1.063   8.021  1.00  0.00     0.000 C 
BRANCH   8   9
ATOM      9  C   UNL     1      16.879   2.292   7.904  1.00  0.00    -0.000 C 
BRANCH   9  10
ATOM     10  C   UNL     1      17.700   3.564   7.657  1.00  0.00    -0.003 C 
ATOM     11  C   UNL     1      19.190   3.249   7.566  1.00  0.00     0.004 C 
ENDBRANCH   9  10
ENDBRANCH   8   9
ENDBRANCH   1   8
TORSDOF 6
ENDMDL
MODEL 7
REMARK VINA RESULT:    -2.705      9.765     11.384
REMARK INTER + INTRA:          -4.411
REMARK INTER:                  -3.667
REMARK INTRA:                  -0.744
REMARK UNBOUND:                -0.757
REMARK SMILES CCCCCCC=CC(=O)[O-]
REMARK SMILES IDX 5 1 6 2 7 3 8 4 9 5 10 6 11 7 4 8 3 9 2 10 1 11
REMARK H PARENT
REMARK Flexibility Score: inf
ROOT
ATOM      1  C   UNL     1       7.186   5.802  -7.156  1.00  0.00     0.004 C 
ENDROOT
BRANCH   1   2
ATOM      2  C   UNL     1       7.521   4.357  -6.741  1.00  0.00     0.027 C 
BRANCH   2   3
ATOM      3  C   UNL     1       9.003   4.093  -6.701  1.00  0.00    -0.025 C 
ATOM      4  C   UNL     1       9.677   3.243  -7.492  1.00  0.00     0.020 C 
BRANCH   4   5
ATOM      5  C   UNL     1       9.100   2.350  -8.519  1.00  0.00     0.064 C 
ATOM      6  O   UNL     1       8.935   1.133  -8.243  1.00  0.00    -0.545 OA
ATOM      7  O   UNL     1       8.700   2.814  -9.764  1.00  0.00    -0.545 OA
ENDBRANCH   4   5
ENDBRANCH   2   3
ENDBRANCH   1   2
BRANCH   1   8
ATOM      8  C   UNL     1       8.008   6.321  -8.351  1.00  0.00     0.000 C 
BRANCH   8   9
ATOM      9  C   UNL     1       8.952   7.473  -7.971  1.00  0.00    -0.000 C 
BRANCH   9  10
ATOM     10  C   UNL     1      10.322   7.301  -8.637  1.00  0.00    -0.003 C 
ATOM     11  C   UNL     1      10.293   6.184  -9.677  1.00  0.00     0.004 C 
ENDBRANCH   9  10
ENDBRANCH   8   9
ENDBRANCH   1   8
TORSDOF 6
ENDMDL
MODEL 8
REMARK VINA RESULT:    -2.641      1.825      2.788
REMARK INTER + INTRA:          -4.325
REMARK INTER:                  -3.828
REMARK INTRA:                  -0.497
REMARK UNBOUND:                -0.757
REMARK SMILES CCCCCCC=CC(=O)[O-]
REMARK SMILES IDX 5 1 6 2 7 3 8 4 9 5 10 6 11 7 4 8 3 9 2 10 1 11
REMARK H PARENT
REMARK Flexibility Score: inf
ROOT
ATOM      1  C   UNL     1       9.049  -3.380  -3.775  1.00  0.00     0.004 C 
ENDROOT
BRANCH   1   2
ATOM      2  C   UNL     1       9.920  -4.175  -2.785  1.00  0.00     0.027 C 
BRANCH   2   3
ATOM      3  C   UNL     1      10.669  -5.302  -3.446  1.00  0.00    -0.025 C 
ATOM      4  C   UNL     1      11.990  -5.343  -3.684  1.00  0.00     0.020 C 
BRANCH   4   5
ATOM      5  C   UNL     1      12.969  -4.271  -3.407  1.00  0.00     0.064 C 
ATOM      6  O   UNL     1      13.894  -4.490  -2.582  1.00  0.00    -0.545 OA
ATOM      7  O   UNL     1      12.925  -3.043  -4.054  1.00  0.00    -0.545 OA
ENDBRANCH   4   5
ENDBRANCH   2   3
ENDBRANCH   1   2
BRANCH   1   8
ATOM      8  C   UNL     1       7.543  -3.686  -3.676  1.00  0.00     0.000 C 
BRANCH   8   9
ATOM      9  C   UNL     1       7.014  -4.477  -4.882  1.00  0.00    -0.000 C 
BRANCH   9  10
ATOM     10  C   UNL     1       8.022  -4.452  -6.038  1.00  0.00    -0.003 C 
ATOM     11  C   UNL     1       7.504  -3.612  -7.203  1.00  0.00     0.004 C 
ENDBRANCH   9  10
ENDBRANCH   8   9
ENDBRANCH   1   8
TORSDOF 6
ENDMDL
MODEL 9
REMARK VINA RESULT:    -2.577     11.358     13.210
REMARK INTER + INTRA:          -4.238
REMARK INTER:                  -3.431
REMARK INTRA:                  -0.807
REMARK UNBOUND:                -0.757
REMARK SMILES CCCCCCC=CC(=O)[O-]
REMARK SMILES IDX 5 1 6 2 7 3 8 4 9 5 10 6 11 7 4 8 3 9 2 10 1 11
REMARK H PARENT
REMARK Flexibility Score: inf
ROOT
ATOM      1  C   UNL     1      19.278   0.920   6.873  1.00  0.00     0.004 C 
ENDROOT
BRANCH   1   2
ATOM      2  C   UNL     1      18.882  -0.567   6.941  1.00  0.00     0.027 C 
BRANCH   2   3
ATOM      3  C   UNL     1      17.918  -0.860   8.061  1.00  0.00    -0.025 C 
ATOM      4  C   UNL     1      16.609  -1.126   7.928  1.00  0.00     0.020 C 
BRANCH   4   5
ATOM      5  C   UNL     1      15.832  -1.125   6.671  1.00  0.00     0.064 C 
ATOM      6  O   UNL     1      15.515  -0.023   6.152  1.00  0.00    -0.545 OA
ATOM      7  O   UNL     1      15.473  -2.299   6.022  1.00  0.00    -0.545 OA
ENDBRANCH   4   5
ENDBRANCH   2   3
ENDBRANCH   1   2
BRANCH   1   8
ATOM      8  C   UNL     1      19.120   1.676   8.206  1.00  0.00     0.000 C 
BRANCH   8   9
ATOM      9  C   UNL     1      18.569   3.099   8.022  1.00  0.00    -0.000 C 
BRANCH   9  10
ATOM     10  C   UNL     1      17.084   3.066   7.641  1.00  0.00    -0.003 C 
ATOM     11  C   UNL     1      16.247   2.416   8.739  1.00  0.00     0.004 C 
ENDBRANCH   9  10
ENDBRANCH   8   9
ENDBRANCH   1   8
TORSDOF 6
ENDMDL
