MODEL 1
REMARK VINA RESULT:    -5.635      0.000      0.000
REMARK INTER + INTRA:          -6.129
REMARK INTER:                  -6.129
REMARK INTRA:                   0.000
REMARK UNBOUND:                 0.000
REMARK SMILES Cc1cc(O)c2c(c1)C(=O)c1cc(O)cc(O)c1C2=O
REMARK SMILES IDX 1 1 2 2 8 3 7 4 6 5 4 6 3 7 19 8 20 9 18 10 11 11 9 12 10 13
REMARK SMILES IDX 12 14 13 15 15 16 16 17 5 18 17 20 14 22
REMARK H PARENT 5 19 17 21 14 23
REMARK Flexibility Score: inf
ROOT
ATOM      1  C   UNL     1      -1.817   9.471   0.816  1.00  0.00     0.044 C 
ATOM      2  C   UNL     1      -0.779   9.096  -0.200  1.00  0.00    -0.047 A 
ATOM      3  C   UNL     1      -0.100  10.090  -0.913  1.00  0.00     0.016 A 
ATOM      4  C   UNL     1       0.905   9.750  -1.835  1.00  0.00     0.038 A 
ATOM      5  C   UNL     1       1.255   8.395  -2.026  1.00  0.00     0.076 A 
ATOM      6  C   UNL     1       0.533   7.389  -1.335  1.00  0.00     0.127 A 
ATOM      7  C   UNL     1      -0.450   7.753  -0.408  1.00  0.00     0.050 A 
ATOM      8  C   UNL     1       2.420   8.088  -2.896  1.00  0.00     0.201 C 
ATOM      9  O   UNL     1       3.116   7.062  -2.674  1.00  0.00    -0.288 OA
ATOM     10  C   UNL     1       2.872   9.082  -3.903  1.00  0.00     0.076 A 
ATOM     11  C   UNL     1       2.520  10.438  -3.708  1.00  0.00     0.041 A 
ATOM     12  C   UNL     1       1.596  10.808  -2.609  1.00  0.00     0.194 C 
ATOM     13  O   UNL     1       1.380  12.024  -2.351  1.00  0.00    -0.289 OA
ATOM     14  C   UNL     1       3.042  11.425  -4.560  1.00  0.00     0.059 A 
ATOM     15  C   UNL     1       3.894  11.079  -5.607  1.00  0.00     0.120 A 
ATOM     16  C   UNL     1       4.214   9.738  -5.830  1.00  0.00     0.093 A 
ATOM     17  C   UNL     1       3.691   8.733  -5.009  1.00  0.00     0.131 A 
ENDROOT
BRANCH   6  18
ATOM     18  O   UNL     1       0.732   6.025  -1.559  1.00  0.00    -0.507 OA
ATOM     19  H   UNL     1       1.072   5.386  -0.854  1.00  0.00     0.293 HD
ENDBRANCH   6  18
BRANCH  17  20
ATOM     20  O   UNL     1       3.981   7.409  -5.347  1.00  0.00    -0.507 OA
ATOM     21  H   UNL     1       4.896   7.096  -5.638  1.00  0.00     0.293 HD
ENDBRANCH  17  20
BRANCH  15  22
ATOM     22  O   UNL     1       4.411  12.078  -6.430  1.00  0.00    -0.508 OA
ATOM     23  H   UNL     1       3.806  12.670  -6.988  1.00  0.00     0.293 HD
ENDBRANCH  15  22
TORSDOF 3
ENDMDL
MODEL 2
REMARK VINA RESULT:    -5.515      1.475      2.327
REMARK INTER + INTRA:          -5.999
REMARK INTER:                  -5.999
REMARK INTRA:                   0.000
REMARK UNBOUND:                 0.000
REMARK SMILES Cc1cc(O)c2c(c1)C(=O)c1cc(O)cc(O)c1C2=O
REMARK SMILES IDX 1 1 2 2 8 3 7 4 6 5 4 6 3 7 19 8 20 9 18 10 11 11 9 12 10 13
REMARK SMILES IDX 12 14 13 15 15 16 16 17 5 18 17 20 14 22
REMARK H PARENT 5 19 17 21 14 23
REMARK Flexibility Score: inf
ROOT
ATOM      1  C   UNL     1      -3.375   9.235   1.868  1.00  0.00     0.044 C 
ATOM      2  C   UNL     1      -2.300   8.628   1.015  1.00  0.00    -0.047 A 
ATOM      3  C   UNL     1      -1.511   9.439   0.192  1.00  0.00     0.016 A 
ATOM      4  C   UNL     1      -0.473   8.885  -0.577  1.00  0.00     0.038 A 
ATOM      5  C   UNL     1      -0.202   7.501  -0.499  1.00  0.00     0.076 A 
ATOM      6  C   UNL     1      -1.034   6.676   0.301  1.00  0.00     0.127 A 
ATOM      7  C   UNL     1      -2.048   7.253   1.072  1.00  0.00     0.050 A 
ATOM      8  C   UNL     1       0.994   6.980  -1.210  1.00  0.00     0.201 C 
ATOM      9  O   UNL     1       1.604   5.975  -0.758  1.00  0.00    -0.288 OA
ATOM     10  C   UNL     1       1.576   7.751  -2.339  1.00  0.00     0.076 A 
ATOM     11  C   UNL     1       1.303   9.136  -2.412  1.00  0.00     0.041 A 
ATOM     12  C   UNL     1       0.336   9.747  -1.469  1.00  0.00     0.194 C 
ATOM     13  O   UNL     1       0.185  11.001  -1.446  1.00  0.00    -0.289 OA
ATOM     14  C   UNL     1       1.944   9.925  -3.382  1.00  0.00     0.059 A 
ATOM     15  C   UNL     1       2.839   9.351  -4.284  1.00  0.00     0.120 A 
ATOM     16  C   UNL     1       3.082   7.976  -4.243  1.00  0.00     0.093 A 
ATOM     17  C   UNL     1       2.441   7.165  -3.300  1.00  0.00     0.131 A 
ENDROOT
BRANCH   6  18
ATOM     18  O   UNL     1      -0.911   5.286   0.336  1.00  0.00    -0.507 OA
ATOM     19  H   UNL     1      -1.082   4.729   1.162  1.00  0.00     0.293 HD
ENDBRANCH   6  18
BRANCH  17  20
ATOM     20  O   UNL     1       2.663   5.789  -3.377  1.00  0.00    -0.507 OA
ATOM     21  H   UNL     1       1.939   5.098  -3.235  1.00  0.00     0.293 HD
ENDBRANCH  17  20
BRANCH  15  22
ATOM     22  O   UNL     1       3.473  10.156  -5.228  1.00  0.00    -0.508 OA
ATOM     23  H   UNL     1       4.237   9.807  -5.795  1.00  0.00     0.293 HD
ENDBRANCH  15  22
TORSDOF 3
ENDMDL
MODEL 3
REMARK VINA RESULT:    -5.402      1.912      6.562
REMARK INTER + INTRA:          -5.876
REMARK INTER:                  -5.876
REMARK INTRA:                   0.000
REMARK UNBOUND:                 0.000
REMARK SMILES Cc1cc(O)c2c(c1)C(=O)c1cc(O)cc(O)c1C2=O
REMARK SMILES IDX 1 1 2 2 8 3 7 4 6 5 4 6 3 7 19 8 20 9 18 10 11 11 9 12 10 13
REMARK SMILES IDX 12 14 13 15 15 16 16 17 5 18 17 20 14 22
REMARK H PARENT 5 19 17 21 14 23
REMARK Flexibility Score: inf
ROOT
ATOM      1  C   UNL     1       3.379  10.175  -5.576  1.00  0.00     0.044 C 
ATOM      2  C   UNL     1       2.586  10.134  -4.303  1.00  0.00    -0.047 A 
ATOM      3  C   UNL     1       2.248   8.906  -3.722  1.00  0.00     0.016 A 
ATOM      4  C   UNL     1       1.543   8.858  -2.507  1.00  0.00     0.038 A 
ATOM      5  C   UNL     1       1.196  10.058  -1.848  1.00  0.00     0.076 A 
ATOM      6  C   UNL     1       1.500  11.300  -2.463  1.00  0.00     0.127 A 
ATOM      7  C   UNL     1       2.219  11.322  -3.663  1.00  0.00     0.050 A 
ATOM      8  C   UNL     1       0.584   9.965  -0.497  1.00  0.00     0.201 C 
ATOM      9  O   UNL     1       0.773  10.884   0.342  1.00  0.00    -0.288 OA
ATOM     10  C   UNL     1      -0.088   8.708  -0.076  1.00  0.00     0.076 A 
ATOM     11  C   UNL     1       0.264   7.509  -0.738  1.00  0.00     0.041 A 
ATOM     12  C   UNL     1       1.162   7.554  -1.917  1.00  0.00     0.194 C 
ATOM     13  O   UNL     1       1.580   6.480  -2.432  1.00  0.00    -0.289 OA
ATOM     14  C   UNL     1      -0.244   6.282  -0.280  1.00  0.00     0.059 A 
ATOM     15  C   UNL     1      -1.106   6.237   0.816  1.00  0.00     0.120 A 
ATOM     16  C   UNL     1      -1.488   7.422   1.449  1.00  0.00     0.093 A 
ATOM     17  C   UNL     1      -1.013   8.658   0.999  1.00  0.00     0.131 A 
ENDROOT
BRANCH   6  18
ATOM     18  O   UNL     1       1.083  12.525  -1.940  1.00  0.00    -0.507 OA
ATOM     19  H   UNL     1       0.208  12.969  -2.182  1.00  0.00     0.293 HD
ENDBRANCH   6  18
BRANCH  17  20
ATOM     20  O   UNL     1      -1.509   9.805   1.623  1.00  0.00    -0.507 OA
ATOM     21  H   UNL     1      -1.580  10.703   1.165  1.00  0.00     0.293 HD
ENDBRANCH  17  20
BRANCH  15  22
ATOM     22  O   UNL     1      -1.586   5.007   1.261  1.00  0.00    -0.508 OA
ATOM     23  H   UNL     1      -1.907   4.877   2.213  1.00  0.00     0.293 HD
ENDBRANCH  15  22
TORSDOF 3
ENDMDL
MODEL 4
REMARK VINA RESULT:    -5.391      2.056      4.339
REMARK INTER + INTRA:          -5.864
REMARK INTER:                  -5.864
REMARK INTRA:                   0.000
REMARK UNBOUND:                 0.000
REMARK SMILES Cc1cc(O)c2c(c1)C(=O)c1cc(O)cc(O)c1C2=O
REMARK SMILES IDX 1 1 2 2 8 3 7 4 6 5 4 6 3 7 19 8 20 9 18 10 11 11 9 12 10 13
REMARK SMILES IDX 12 14 13 15 15 16 16 17 5 18 17 20 14 22
REMARK H PARENT 5 19 17 21 14 23
REMARK Flexibility Score: inf
ROOT
ATOM      1  C   UNL     1      -0.723  11.054  -0.602  1.00  0.00     0.044 C 
ATOM      2  C   UNL     1       0.353  10.487  -1.482  1.00  0.00    -0.047 A 
ATOM      3  C   UNL     1       0.573   9.106  -1.524  1.00  0.00     0.016 A 
ATOM      4  C   UNL     1       1.549   8.563  -2.377  1.00  0.00     0.038 A 
ATOM      5  C   UNL     1       2.297   9.413  -3.223  1.00  0.00     0.076 A 
ATOM      6  C   UNL     1       2.101  10.816  -3.142  1.00  0.00     0.127 A 
ATOM      7  C   UNL     1       1.111  11.331  -2.299  1.00  0.00     0.050 A 
ATOM      8  C   UNL     1       3.211   8.789  -4.213  1.00  0.00     0.201 C 
ATOM      9  O   UNL     1       3.443   9.371  -5.306  1.00  0.00    -0.288 OA
ATOM     10  C   UNL     1       3.698   7.402  -3.998  1.00  0.00     0.076 A 
ATOM     11  C   UNL     1       2.946   6.554  -3.152  1.00  0.00     0.041 A 
ATOM     12  C   UNL     1       1.798   7.102  -2.392  1.00  0.00     0.194 C 
ATOM     13  O   UNL     1       1.047   6.326  -1.738  1.00  0.00    -0.289 OA
ATOM     14  C   UNL     1       3.295   5.199  -3.031  1.00  0.00     0.059 A 
ATOM     15  C   UNL     1       4.388   4.683  -3.728  1.00  0.00     0.120 A 
ATOM     16  C   UNL     1       5.158   5.525  -4.534  1.00  0.00     0.093 A 
ATOM     17  C   UNL     1       4.845   6.883  -4.655  1.00  0.00     0.131 A 
ENDROOT
BRANCH   6  18
ATOM     18  O   UNL     1       2.884  11.730  -3.851  1.00  0.00    -0.507 OA
ATOM     19  H   UNL     1       3.820  11.995  -3.577  1.00  0.00     0.293 HD
ENDBRANCH   6  18
BRANCH  17  20
ATOM     20  O   UNL     1       5.712   7.680  -5.404  1.00  0.00    -0.507 OA
ATOM     21  H   UNL     1       5.703   8.690  -5.379  1.00  0.00     0.293 HD
ENDBRANCH  17  20
BRANCH  15  22
ATOM     22  O   UNL     1       4.706   3.333  -3.603  1.00  0.00    -0.508 OA
ATOM     23  H   UNL     1       5.654   2.997  -3.733  1.00  0.00     0.293 HD
ENDBRANCH  15  22
TORSDOF 3
ENDMDL
MODEL 5
REMARK VINA RESULT:    -5.380      2.307      6.204
REMARK INTER + INTRA:          -5.851
REMARK INTER:                  -5.851
REMARK INTRA:                   0.000
REMARK UNBOUND:                 0.000
REMARK SMILES Cc1cc(O)c2c(c1)C(=O)c1cc(O)cc(O)c1C2=O
REMARK SMILES IDX 1 1 2 2 8 3 7 4 6 5 4 6 3 7 19 8 20 9 18 10 11 11 9 12 10 13
REMARK SMILES IDX 12 14 13 15 15 16 16 17 5 18 17 20 14 22
REMARK H PARENT 5 19 17 21 14 23
REMARK Flexibility Score: inf
ROOT
ATOM      1  C   UNL     1       1.657  12.799  -3.013  1.00  0.00     0.044 C 
ATOM      2  C   UNL     1       1.460  11.407  -2.491  1.00  0.00    -0.047 A 
ATOM      3  C   UNL     1       0.346  11.101  -1.701  1.00  0.00     0.016 A 
ATOM      4  C   UNL     1       0.130   9.790  -1.244  1.00  0.00     0.038 A 
ATOM      5  C   UNL     1       1.029   8.762  -1.606  1.00  0.00     0.076 A 
ATOM      6  C   UNL     1       2.181   9.086  -2.368  1.00  0.00     0.127 A 
ATOM      7  C   UNL     1       2.364  10.394  -2.827  1.00  0.00     0.050 A 
ATOM      8  C   UNL     1       0.687   7.366  -1.227  1.00  0.00     0.201 C 
ATOM      9  O   UNL     1       1.072   6.409  -1.949  1.00  0.00    -0.288 OA
ATOM     10  C   UNL     1      -0.260   7.115  -0.111  1.00  0.00     0.076 A 
ATOM     11  C   UNL     1      -1.159   8.146   0.248  1.00  0.00     0.041 A 
ATOM     12  C   UNL     1      -1.035   9.483  -0.382  1.00  0.00     0.194 C 
ATOM     13  O   UNL     1      -1.910  10.366  -0.162  1.00  0.00    -0.289 OA
ATOM     14  C   UNL     1      -2.159   7.901   1.203  1.00  0.00     0.059 A 
ATOM     15  C   UNL     1      -2.266   6.652   1.812  1.00  0.00     0.120 A 
ATOM     16  C   UNL     1      -1.357   5.642   1.492  1.00  0.00     0.093 A 
ATOM     17  C   UNL     1      -0.338   5.866   0.560  1.00  0.00     0.131 A 
ENDROOT
BRANCH   6  18
ATOM     18  O   UNL     1       3.179   8.155  -2.662  1.00  0.00    -0.507 OA
ATOM     19  H   UNL     1       4.096   8.406  -3.006  1.00  0.00     0.293 HD
ENDBRANCH   6  18
BRANCH  17  20
ATOM     20  O   UNL     1       0.588   4.841   0.358  1.00  0.00    -0.507 OA
ATOM     21  H   UNL     1       0.701   4.357  -0.522  1.00  0.00     0.293 HD
ENDBRANCH  17  20
BRANCH  15  22
ATOM     22  O   UNL     1      -3.276   6.429   2.746  1.00  0.00    -0.508 OA
ATOM     23  H   UNL     1      -3.716   7.194   3.244  1.00  0.00     0.293 HD
ENDBRANCH  15  22
TORSDOF 3
ENDMDL
MODEL 6
REMARK VINA RESULT:    -5.194      1.938      5.827
REMARK INTER + INTRA:          -5.650
REMARK INTER:                  -5.650
REMARK INTRA:                   0.000
REMARK UNBOUND:                 0.000
REMARK SMILES Cc1cc(O)c2c(c1)C(=O)c1cc(O)cc(O)c1C2=O
REMARK SMILES IDX 1 1 2 2 8 3 7 4 6 5 4 6 3 7 19 8 20 9 18 10 11 11 9 12 10 13
REMARK SMILES IDX 12 14 13 15 15 16 16 17 5 18 17 20 14 22
REMARK H PARENT 5 19 17 21 14 23
REMARK Flexibility Score: inf
ROOT
ATOM      1  C   UNL     1       3.190  10.228  -5.612  1.00  0.00     0.044 C 
ATOM      2  C   UNL     1       2.646   9.438  -4.458  1.00  0.00    -0.047 A 
ATOM      3  C   UNL     1       1.859  10.064  -3.484  1.00  0.00     0.016 A 
ATOM      4  C   UNL     1       1.309   9.324  -2.424  1.00  0.00     0.038 A 
ATOM      5  C   UNL     1       1.524   7.929  -2.353  1.00  0.00     0.076 A 
ATOM      6  C   UNL     1       2.360   7.308  -3.317  1.00  0.00     0.127 A 
ATOM      7  C   UNL     1       2.880   8.062  -4.373  1.00  0.00     0.050 A 
ATOM      8  C   UNL     1       0.806   7.161  -1.304  1.00  0.00     0.201 C 
ATOM      9  O   UNL     1       0.489   5.960  -1.513  1.00  0.00    -0.288 OA
ATOM     10  C   UNL     1       0.297   7.859  -0.095  1.00  0.00     0.076 A 
ATOM     11  C   UNL     1       0.082   9.254  -0.171  1.00  0.00     0.041 A 
ATOM     12  C   UNL     1       0.505  10.000  -1.380  1.00  0.00     0.194 C 
ATOM     13  O   UNL     1       0.200  11.219  -1.507  1.00  0.00    -0.289 OA
ATOM     14  C   UNL     1      -0.525   9.927   0.902  1.00  0.00     0.059 A 
ATOM     15  C   UNL     1      -0.906   9.233   2.050  1.00  0.00     0.120 A 
ATOM     16  C   UNL     1      -0.659   7.862   2.147  1.00  0.00     0.093 A 
ATOM     17  C   UNL     1      -0.037   7.172   1.101  1.00  0.00     0.131 A 
ENDROOT
BRANCH   6  18
ATOM     18  O   UNL     1       2.722   5.961  -3.247  1.00  0.00    -0.507 OA
ATOM     19  H   UNL     1       2.055   5.205  -3.175  1.00  0.00     0.293 HD
ENDBRANCH   6  18
BRANCH  17  20
ATOM     20  O   UNL     1       0.259   5.822   1.306  1.00  0.00    -0.507 OA
ATOM     21  H   UNL     1       1.008   5.337   0.830  1.00  0.00     0.293 HD
ENDBRANCH  17  20
BRANCH  15  22
ATOM     22  O   UNL     1      -1.519   9.920   3.096  1.00  0.00    -0.508 OA
ATOM     23  H   UNL     1      -2.514   9.839   3.271  1.00  0.00     0.293 HD
ENDBRANCH  15  22
TORSDOF 3
ENDMDL
MODEL 7
REMARK VINA RESULT:    -5.189      3.323      7.846
REMARK INTER + INTRA:          -5.644
REMARK INTER:                  -5.644
REMARK INTRA:                   0.000
REMARK UNBOUND:                 0.000
REMARK SMILES Cc1cc(O)c2c(c1)C(=O)c1cc(O)cc(O)c1C2=O
REMARK SMILES IDX 1 1 2 2 8 3 7 4 6 5 4 6 3 7 19 8 20 9 18 10 11 11 9 12 10 13
REMARK SMILES IDX 12 14 13 15 15 16 16 17 5 18 17 20 14 22
REMARK H PARENT 5 19 17 21 14 23
REMARK Flexibility Score: inf
ROOT
ATOM      1  C   UNL     1       1.995  10.401  -2.573  1.00  0.00     0.044 C 
ATOM      2  C   UNL     1       0.837  10.023  -1.696  1.00  0.00    -0.047 A 
ATOM      3  C   UNL     1       0.602   8.680  -1.379  1.00  0.00     0.016 A 
ATOM      4  C   UNL     1      -0.453   8.321  -0.524  1.00  0.00     0.038 A 
ATOM      5  C   UNL     1      -1.269   9.323   0.047  1.00  0.00     0.076 A 
ATOM      6  C   UNL     1      -1.055  10.679  -0.313  1.00  0.00     0.127 A 
ATOM      7  C   UNL     1       0.013  11.013  -1.151  1.00  0.00     0.050 A 
ATOM      8  C   UNL     1      -2.277   8.915   1.060  1.00  0.00     0.201 C 
ATOM      9  O   UNL     1      -2.604   9.714   1.976  1.00  0.00    -0.288 OA
ATOM     10  C   UNL     1      -2.753   7.508   1.102  1.00  0.00     0.076 A 
ATOM     11  C   UNL     1      -1.933   6.508   0.530  1.00  0.00     0.041 A 
ATOM     12  C   UNL     1      -0.715   6.894  -0.220  1.00  0.00     0.194 C 
ATOM     13  O   UNL     1       0.087   6.005  -0.621  1.00  0.00    -0.289 OA
ATOM     14  C   UNL     1      -2.281   5.154   0.670  1.00  0.00     0.059 A 
ATOM     15  C   UNL     1      -3.438   4.787   1.357  1.00  0.00     0.120 A 
ATOM     16  C   UNL     1      -4.272   5.772   1.889  1.00  0.00     0.093 A 
ATOM     17  C   UNL     1      -3.960   7.128   1.746  1.00  0.00     0.131 A 
ENDROOT
BRANCH   6  18
ATOM     18  O   UNL     1      -1.892  11.714   0.108  1.00  0.00    -0.507 OA
ATOM     19  H   UNL     1      -2.852  11.576   0.393  1.00  0.00     0.293 HD
ENDBRANCH   6  18
BRANCH  17  20
ATOM     20  O   UNL     1      -4.886   8.057   2.224  1.00  0.00    -0.507 OA
ATOM     21  H   UNL     1      -5.887   7.945   2.131  1.00  0.00     0.293 HD
ENDBRANCH  17  20
BRANCH  15  22
ATOM     22  O   UNL     1      -3.754   3.437   1.495  1.00  0.00    -0.508 OA
ATOM     23  H   UNL     1      -4.691   3.135   1.736  1.00  0.00     0.293 HD
ENDBRANCH  15  22
TORSDOF 3
ENDMDL
MODEL 8
REMARK VINA RESULT:    -5.090     12.955     14.598
REMARK INTER + INTRA:          -5.537
REMARK INTER:                  -5.537
REMARK INTRA:                   0.000
REMARK UNBOUND:                 0.000
REMARK SMILES Cc1cc(O)c2c(c1)C(=O)c1cc(O)cc(O)c1C2=O
REMARK SMILES IDX 1 1 2 2 8 3 7 4 6 5 4 6 3 7 19 8 20 9 18 10 11 11 9 12 10 13
REMARK SMILES IDX 12 14 13 15 15 16 16 17 5 18 17 20 14 22
REMARK H PARENT 5 19 17 21 14 23
REMARK Flexibility Score: inf
ROOT
ATOM      1  C   UNL     1      -2.129  -4.826  -9.997  1.00  0.00     0.044 C 
ATOM      2  C   UNL     1      -2.574  -3.396 -10.101  1.00  0.00    -0.047 A 
ATOM      3  C   UNL     1      -3.905  -3.052  -9.840  1.00  0.00     0.016 A 
ATOM      4  C   UNL     1      -4.321  -1.710  -9.892  1.00  0.00     0.038 A 
ATOM      5  C   UNL     1      -3.383  -0.694 -10.183  1.00  0.00     0.076 A 
ATOM      6  C   UNL     1      -2.046  -1.053 -10.491  1.00  0.00     0.127 A 
ATOM      7  C   UNL     1      -1.651  -2.393 -10.414  1.00  0.00     0.050 A 
ATOM      8  C   UNL     1      -3.828   0.720 -10.083  1.00  0.00     0.201 C 
ATOM      9  O   UNL     1      -3.003   1.616  -9.763  1.00  0.00    -0.288 OA
ATOM     10  C   UNL     1      -5.275   1.047 -10.174  1.00  0.00     0.076 A 
ATOM     11  C   UNL     1      -6.209   0.027  -9.881  1.00  0.00     0.041 A 
ATOM     12  C   UNL     1      -5.738  -1.358  -9.646  1.00  0.00     0.194 C 
ATOM     13  O   UNL     1      -6.552  -2.243  -9.259  1.00  0.00    -0.289 OA
ATOM     14  C   UNL     1      -7.580   0.331  -9.822  1.00  0.00     0.059 A 
ATOM     15  C   UNL     1      -8.029   1.628 -10.063  1.00  0.00     0.120 A 
ATOM     16  C   UNL     1      -7.114   2.631 -10.392  1.00  0.00     0.093 A 
ATOM     17  C   UNL     1      -5.746   2.351 -10.478  1.00  0.00     0.131 A 
ENDROOT
BRANCH   6  18
ATOM     18  O   UNL     1      -1.091  -0.124 -10.908  1.00  0.00    -0.507 OA
ATOM     19  H   UNL     1      -0.871   0.721 -10.398  1.00  0.00     0.293 HD
ENDBRANCH   6  18
BRANCH  17  20
ATOM     20  O   UNL     1      -4.903   3.380 -10.900  1.00  0.00    -0.507 OA
ATOM     21  H   UNL     1      -4.080   3.230 -11.467  1.00  0.00     0.293 HD
ENDBRANCH  17  20
BRANCH  15  22
ATOM     22  O   UNL     1      -9.392   1.908  -9.985  1.00  0.00    -0.508 OA
ATOM     23  H   UNL     1      -9.973   1.950 -10.814  1.00  0.00     0.293 HD
ENDBRANCH  15  22
TORSDOF 3
ENDMDL
MODEL 9
REMARK VINA RESULT:    -5.073      1.787      3.602
REMARK INTER + INTRA:          -5.517
REMARK INTER:                  -5.517
REMARK INTRA:                   0.000
REMARK UNBOUND:                 0.000
REMARK SMILES Cc1cc(O)c2c(c1)C(=O)c1cc(O)cc(O)c1C2=O
REMARK SMILES IDX 1 1 2 2 8 3 7 4 6 5 4 6 3 7 19 8 20 9 18 10 11 11 9 12 10 13
REMARK SMILES IDX 12 14 13 15 15 16 16 17 5 18 17 20 14 22
REMARK H PARENT 5 19 17 21 14 23
REMARK Flexibility Score: inf
ROOT
ATOM      1  C   UNL     1      -0.336   5.542   2.038  1.00  0.00     0.044 C 
ATOM      2  C   UNL     1      -0.072   6.759   1.201  1.00  0.00    -0.047 A 
ATOM      3  C   UNL     1       0.525   6.632  -0.058  1.00  0.00     0.016 A 
ATOM      4  C   UNL     1       0.737   7.761  -0.868  1.00  0.00     0.038 A 
ATOM      5  C   UNL     1       0.317   9.035  -0.422  1.00  0.00     0.076 A 
ATOM      6  C   UNL     1      -0.246   9.164   0.873  1.00  0.00     0.127 A 
ATOM      7  C   UNL     1      -0.464   8.023   1.652  1.00  0.00     0.050 A 
ATOM      8  C   UNL     1       0.423  10.178  -1.366  1.00  0.00     0.201 C 
ATOM      9  O   UNL     1      -0.396  11.131  -1.290  1.00  0.00    -0.288 OA
ATOM     10  C   UNL     1       1.369  10.106  -2.509  1.00  0.00     0.076 A 
ATOM     11  C   UNL     1       1.785   8.830  -2.952  1.00  0.00     0.041 A 
ATOM     12  C   UNL     1       1.399   7.621  -2.186  1.00  0.00     0.194 C 
ATOM     13  O   UNL     1       1.658   6.474  -2.645  1.00  0.00    -0.289 OA
ATOM     14  C   UNL     1       2.568   8.714  -4.113  1.00  0.00     0.059 A 
ATOM     15  C   UNL     1       2.951   9.849  -4.826  1.00  0.00     0.120 A 
ATOM     16  C   UNL     1       2.576  11.115  -4.371  1.00  0.00     0.093 A 
ATOM     17  C   UNL     1       1.815  11.260  -3.206  1.00  0.00     0.131 A 
ENDROOT
BRANCH   6  18
ATOM     18  O   UNL     1      -0.572  10.400   1.436  1.00  0.00    -0.507 OA
ATOM     19  H   UNL     1      -0.270  10.693   2.355  1.00  0.00     0.293 HD
ENDBRANCH   6  18
BRANCH  17  20
ATOM     20  O   UNL     1       1.556  12.558  -2.763  1.00  0.00    -0.507 OA
ATOM     21  H   UNL     1       2.081  13.012  -2.028  1.00  0.00     0.293 HD
ENDBRANCH  17  20
BRANCH  15  22
ATOM     22  O   UNL     1       3.716   9.708  -5.983  1.00  0.00    -0.508 OA
ATOM     23  H   UNL     1       3.862  10.483  -6.619  1.00  0.00     0.293 HD
ENDBRANCH  15  22
TORSDOF 3
ENDMDL
