MODEL 1
REMARK VINA RESULT:    -4.871      0.000      0.000
REMARK INTER + INTRA:          -6.638
REMARK INTER:                  -6.295
REMARK INTRA:                  -0.343
REMARK UNBOUND:                -0.343
REMARK SMILES CCO[C@@H]1O[C@@H](CO)[C@@H](O)[C@@H](O)[C@H]1O
REMARK SMILES IDX 4 1 13 2 11 3 9 4 6 5 5 6 3 7 2 8 1 9 14 10 12 12 7 14 8 15
REMARK SMILES IDX 10 17
REMARK H PARENT 14 11 12 13 8 16 10 18
REMARK Flexibility Score: inf
ROOT
ATOM      1  C   UNL     1      15.768  11.822  33.512  1.00  0.00     0.281 C 
ATOM      2  C   UNL     1      14.622  10.896  33.001  1.00  0.00     0.202 C 
ATOM      3  C   UNL     1      14.232   9.850  34.059  1.00  0.00     0.179 C 
ATOM      4  C   UNL     1      13.941  10.504  35.431  1.00  0.00     0.177 C 
ATOM      5  C   UNL     1      14.889  11.706  35.715  1.00  0.00     0.178 C 
ATOM      6  O   UNL     1      16.049  11.652  34.898  1.00  0.00    -0.341 OA
ENDROOT
BRANCH   1   7
ATOM      7  O   UNL     1      16.939  11.513  32.777  1.00  0.00    -0.350 OA
BRANCH   7   8
ATOM      8  C   UNL     1      18.094  11.874  33.508  1.00  0.00     0.160 C 
ATOM      9  C   UNL     1      19.323  11.641  32.644  1.00  0.00     0.035 C 
ENDBRANCH   7   8
ENDBRANCH   1   7
BRANCH   2  10
ATOM     10  O   UNL     1      13.497  11.658  32.643  1.00  0.00    -0.385 OA
ATOM     11  H   UNL     1      13.316  12.277  33.398  1.00  0.00     0.211 HD
ENDBRANCH   2  10
BRANCH   3  12
ATOM     12  O   UNL     1      13.123   9.099  33.632  1.00  0.00    -0.387 OA
ATOM     13  H   UNL     1      12.393   9.269  34.283  1.00  0.00     0.211 HD
ENDBRANCH   3  12
BRANCH   5  14
ATOM     14  C   UNL     1      14.217  13.098  35.700  1.00  0.00     0.191 C 
BRANCH  14  15
ATOM     15  O   UNL     1      13.716  13.395  36.975  1.00  0.00    -0.394 OA
ATOM     16  H   UNL     1      14.086  14.283  37.217  1.00  0.00     0.210 HD
ENDBRANCH  14  15
ENDBRANCH   5  14
BRANCH   4  17
ATOM     17  O   UNL     1      12.581  10.835  35.597  1.00  0.00    -0.387 OA
ATOM     18  H   UNL     1      12.136  10.093  36.078  1.00  0.00     0.211 HD
ENDBRANCH   4  17
TORSDOF 7
ENDMDL
MODEL 2
REMARK VINA RESULT:    -4.842      5.582      7.375
REMARK INTER + INTRA:          -6.600
REMARK INTER:                  -6.205
REMARK INTRA:                  -0.394
REMARK UNBOUND:                -0.343
REMARK SMILES CCO[C@@H]1O[C@@H](CO)[C@@H](O)[C@@H](O)[C@H]1O
REMARK SMILES IDX 4 1 13 2 11 3 9 4 6 5 5 6 3 7 2 8 1 9 14 10 12 12 7 14 8 15
REMARK SMILES IDX 10 17
REMARK H PARENT 14 11 12 13 8 16 10 18
REMARK Flexibility Score: inf
ROOT
ATOM      1  C   UNL     1      21.909  15.536  33.155  1.00  0.00     0.281 C 
ATOM      2  C   UNL     1      20.927  14.379  32.796  1.00  0.00     0.202 C 
ATOM      3  C   UNL     1      19.855  14.196  33.882  1.00  0.00     0.179 C 
ATOM      4  C   UNL     1      19.149  15.530  34.222  1.00  0.00     0.177 C 
ATOM      5  C   UNL     1      20.133  16.736  34.175  1.00  0.00     0.178 C 
ATOM      6  O   UNL     1      21.482  16.305  34.275  1.00  0.00    -0.341 OA
ENDROOT
BRANCH   1   7
ATOM      7  O   UNL     1      23.168  14.961  33.460  1.00  0.00    -0.350 OA
BRANCH   7   8
ATOM      8  C   UNL     1      23.737  15.586  34.593  1.00  0.00     0.160 C 
ATOM      9  C   UNL     1      25.031  16.271  34.186  1.00  0.00     0.035 C 
ENDBRANCH   7   8
ENDBRANCH   1   7
BRANCH   2  10
ATOM     10  O   UNL     1      20.315  14.622  31.554  1.00  0.00    -0.385 OA
ATOM     11  H   UNL     1      19.661  13.888  31.407  1.00  0.00     0.211 HD
ENDBRANCH   2  10
BRANCH   3  12
ATOM     12  O   UNL     1      18.910  13.230  33.493  1.00  0.00    -0.387 OA
ATOM     13  H   UNL     1      18.038  13.511  33.875  1.00  0.00     0.211 HD
ENDBRANCH   3  12
BRANCH   5  14
ATOM     14  C   UNL     1      19.911  17.729  33.011  1.00  0.00     0.191 C 
BRANCH  14  15
ATOM     15  O   UNL     1      18.827  18.568  33.305  1.00  0.00    -0.394 OA
ATOM     16  H   UNL     1      19.165  19.496  33.214  1.00  0.00     0.210 HD
ENDBRANCH  14  15
ENDBRANCH   5  14
BRANCH   4  17
ATOM     17  O   UNL     1      17.992  15.745  33.447  1.00  0.00    -0.387 OA
ATOM     18  H   UNL     1      17.633  16.642  33.664  1.00  0.00     0.211 HD
ENDBRANCH   4  17
TORSDOF 7
ENDMDL
MODEL 3
REMARK VINA RESULT:    -4.819      2.077      5.160
REMARK INTER + INTRA:          -6.570
REMARK INTER:                  -6.228
REMARK INTRA:                  -0.341
REMARK UNBOUND:                -0.343
REMARK SMILES CCO[C@@H]1O[C@@H](CO)[C@@H](O)[C@@H](O)[C@H]1O
REMARK SMILES IDX 4 1 13 2 11 3 9 4 6 5 5 6 3 7 2 8 1 9 14 10 12 12 7 14 8 15
REMARK SMILES IDX 10 17
REMARK H PARENT 14 11 12 13 8 16 10 18
REMARK Flexibility Score: inf
ROOT
ATOM      1  C   UNL     1      12.616  12.845  35.398  1.00  0.00     0.281 C 
ATOM      2  C   UNL     1      13.970  13.515  35.781  1.00  0.00     0.202 C 
ATOM      3  C   UNL     1      15.001  12.473  36.244  1.00  0.00     0.179 C 
ATOM      4  C   UNL     1      15.144  11.317  35.225  1.00  0.00     0.177 C 
ATOM      5  C   UNL     1      13.781  10.950  34.568  1.00  0.00     0.178 C 
ATOM      6  O   UNL     1      12.690  11.423  35.345  1.00  0.00    -0.341 OA
ENDROOT
BRANCH   1   7
ATOM      7  O   UNL     1      11.658  13.206  36.378  1.00  0.00    -0.350 OA
BRANCH   7   8
ATOM      8  C   UNL     1      11.694  12.303  37.465  1.00  0.00     0.160 C 
ATOM      9  C   UNL     1      10.440  12.483  38.305  1.00  0.00     0.035 C 
ENDBRANCH   7   8
ENDBRANCH   1   7
BRANCH   2  10
ATOM     10  O   UNL     1      14.481  14.246  34.695  1.00  0.00    -0.385 OA
ATOM     11  H   UNL     1      13.767  14.276  34.006  1.00  0.00     0.211 HD
ENDBRANCH   2  10
BRANCH   3  12
ATOM     12  O   UNL     1      16.251  13.075  36.475  1.00  0.00    -0.387 OA
ATOM     13  H   UNL     1      16.902  12.340  36.618  1.00  0.00     0.211 HD
ENDBRANCH   3  12
BRANCH   5  14
ATOM     14  C   UNL     1      13.647  11.312  33.072  1.00  0.00     0.191 C 
BRANCH  14  15
ATOM     15  O   UNL     1      14.453  10.460  32.305  1.00  0.00    -0.394 OA
ATOM     16  H   UNL     1      14.917   9.866  32.949  1.00  0.00     0.210 HD
ENDBRANCH  14  15
ENDBRANCH   5  14
BRANCH   4  17
ATOM     17  O   UNL     1      16.157  11.553  34.274  1.00  0.00    -0.387 OA
ATOM     18  H   UNL     1      16.775  10.779  34.279  1.00  0.00     0.211 HD
ENDBRANCH   4  17
TORSDOF 7
ENDMDL
MODEL 4
REMARK VINA RESULT:    -4.786      1.974      4.556
REMARK INTER + INTRA:          -6.527
REMARK INTER:                  -6.179
REMARK INTRA:                  -0.349
REMARK UNBOUND:                -0.343
REMARK SMILES CCO[C@@H]1O[C@@H](CO)[C@@H](O)[C@@H](O)[C@H]1O
REMARK SMILES IDX 4 1 13 2 11 3 9 4 6 5 5 6 3 7 2 8 1 9 14 10 12 12 7 14 8 15
REMARK SMILES IDX 10 17
REMARK H PARENT 14 11 12 13 8 16 10 18
REMARK Flexibility Score: inf
ROOT
ATOM      1  C   UNL     1      14.248  12.391  36.512  1.00  0.00     0.281 C 
ATOM      2  C   UNL     1      14.527  10.952  35.981  1.00  0.00     0.202 C 
ATOM      3  C   UNL     1      14.066  10.793  34.522  1.00  0.00     0.179 C 
ATOM      4  C   UNL     1      14.632  11.913  33.618  1.00  0.00     0.177 C 
ATOM      5  C   UNL     1      14.698  13.281  34.357  1.00  0.00     0.178 C 
ATOM      6  O   UNL     1      13.841  13.296  35.490  1.00  0.00    -0.341 OA
ENDROOT
BRANCH   1   7
ATOM      7  O   UNL     1      13.211  12.307  37.474  1.00  0.00    -0.350 OA
BRANCH   7   8
ATOM      8  C   UNL     1      11.961  12.601  36.884  1.00  0.00     0.160 C 
ATOM      9  C   UNL     1      10.872  12.479  37.937  1.00  0.00     0.035 C 
ENDBRANCH   7   8
ENDBRANCH   1   7
BRANCH   2  10
ATOM     10  O   UNL     1      15.894  10.645  36.087  1.00  0.00    -0.385 OA
ATOM     11  H   UNL     1      16.394  11.470  35.852  1.00  0.00     0.211 HD
ENDBRANCH   2  10
BRANCH   3  12
ATOM     12  O   UNL     1      14.426   9.531  34.019  1.00  0.00    -0.387 OA
ATOM     13  H   UNL     1      14.992   9.691  33.219  1.00  0.00     0.211 HD
ENDBRANCH   3  12
BRANCH   5  14
ATOM     14  C   UNL     1      16.120  13.793  34.681  1.00  0.00     0.191 C 
BRANCH  14  15
ATOM     15  O   UNL     1      16.594  14.575  33.619  1.00  0.00    -0.394 OA
ATOM     16  H   UNL     1      16.944  13.939  32.942  1.00  0.00     0.210 HD
ENDBRANCH  14  15
ENDBRANCH   5  14
BRANCH   4  17
ATOM     17  O   UNL     1      15.859  11.561  33.021  1.00  0.00    -0.387 OA
ATOM     18  H   UNL     1      15.672  11.170  32.130  1.00  0.00     0.211 HD
ENDBRANCH   4  17
TORSDOF 7
ENDMDL
MODEL 5
REMARK VINA RESULT:    -4.660      1.166      3.139
REMARK INTER + INTRA:          -6.365
REMARK INTER:                  -6.003
REMARK INTRA:                  -0.363
REMARK UNBOUND:                -0.343
REMARK SMILES CCO[C@@H]1O[C@@H](CO)[C@@H](O)[C@@H](O)[C@H]1O
REMARK SMILES IDX 4 1 13 2 11 3 9 4 6 5 5 6 3 7 2 8 1 9 14 10 12 12 7 14 8 15
REMARK SMILES IDX 10 17
REMARK H PARENT 14 11 12 13 8 16 10 18
REMARK Flexibility Score: inf
ROOT
ATOM      1  C   UNL     1      16.217  12.252  34.384  1.00  0.00     0.281 C 
ATOM      2  C   UNL     1      15.680  12.683  35.782  1.00  0.00     0.202 C 
ATOM      3  C   UNL     1      14.231  13.189  35.695  1.00  0.00     0.179 C 
ATOM      4  C   UNL     1      13.315  12.182  34.960  1.00  0.00     0.177 C 
ATOM      5  C   UNL     1      14.054  11.475  33.785  1.00  0.00     0.178 C 
ATOM      6  O   UNL     1      15.203  12.207  33.384  1.00  0.00    -0.341 OA
ENDROOT
BRANCH   1   7
ATOM      7  O   UNL     1      17.198  13.192  33.984  1.00  0.00    -0.350 OA
BRANCH   7   8
ATOM      8  C   UNL     1      18.489  12.618  34.040  1.00  0.00     0.160 C 
ATOM      9  C   UNL     1      18.650  11.642  32.886  1.00  0.00     0.035 C 
ENDBRANCH   7   8
ENDBRANCH   1   7
BRANCH   2  10
ATOM     10  O   UNL     1      15.760  11.615  36.691  1.00  0.00    -0.385 OA
ATOM     11  H   UNL     1      16.352  10.931  36.280  1.00  0.00     0.211 HD
ENDBRANCH   2  10
BRANCH   3  12
ATOM     12  O   UNL     1      13.721  13.465  36.976  1.00  0.00    -0.387 OA
ATOM     13  H   UNL     1      13.528  14.439  37.005  1.00  0.00     0.211 HD
ENDBRANCH   3  12
BRANCH   5  14
ATOM     14  C   UNL     1      14.351   9.973  33.997  1.00  0.00     0.191 C 
BRANCH  14  15
ATOM     15  O   UNL     1      13.228   9.214  33.641  1.00  0.00    -0.394 OA
ATOM     16  H   UNL     1      13.282   9.086  32.658  1.00  0.00     0.210 HD
ENDBRANCH  14  15
ENDBRANCH   5  14
BRANCH   4  17
ATOM     17  O   UNL     1      12.696  11.269  35.837  1.00  0.00    -0.387 OA
ATOM     18  H   UNL     1      12.654  10.387  35.391  1.00  0.00     0.211 HD
ENDBRANCH   4  17
TORSDOF 7
ENDMDL
MODEL 6
REMARK VINA RESULT:    -4.606      1.859      2.566
REMARK INTER + INTRA:          -6.295
REMARK INTER:                  -5.869
REMARK INTRA:                  -0.426
REMARK UNBOUND:                -0.343
REMARK SMILES CCO[C@@H]1O[C@@H](CO)[C@@H](O)[C@@H](O)[C@H]1O
REMARK SMILES IDX 4 1 13 2 11 3 9 4 6 5 5 6 3 7 2 8 1 9 14 10 12 12 7 14 8 15
REMARK SMILES IDX 10 17
REMARK H PARENT 14 11 12 13 8 16 10 18
REMARK Flexibility Score: inf
ROOT
ATOM      1  C   UNL     1      15.946  11.666  35.559  1.00  0.00     0.281 C 
ATOM      2  C   UNL     1      16.013  11.375  34.029  1.00  0.00     0.202 C 
ATOM      3  C   UNL     1      14.684  10.803  33.508  1.00  0.00     0.179 C 
ATOM      4  C   UNL     1      13.480  11.680  33.925  1.00  0.00     0.177 C 
ATOM      5  C   UNL     1      13.662  12.278  35.351  1.00  0.00     0.178 C 
ATOM      6  O   UNL     1      14.631  11.554  36.094  1.00  0.00    -0.341 OA
ENDROOT
BRANCH   1   7
ATOM      7  O   UNL     1      16.779  10.727  36.218  1.00  0.00    -0.350 OA
BRANCH   7   8
ATOM      8  C   UNL     1      18.116  11.185  36.248  1.00  0.00     0.160 C 
ATOM      9  C   UNL     1      18.158  12.560  36.893  1.00  0.00     0.035 C 
ENDBRANCH   7   8
ENDBRANCH   1   7
BRANCH   2  10
ATOM     10  O   UNL     1      16.341  12.543  33.320  1.00  0.00    -0.385 OA
ATOM     11  H   UNL     1      16.587  12.262  32.400  1.00  0.00     0.211 HD
ENDBRANCH   2  10
BRANCH   3  12
ATOM     12  O   UNL     1      14.718  10.653  32.111  1.00  0.00    -0.387 OA
ATOM     13  H   UNL     1      13.789  10.784  31.785  1.00  0.00     0.211 HD
ENDBRANCH   3  12
BRANCH   5  14
ATOM     14  C   UNL     1      13.892  13.806  35.405  1.00  0.00     0.191 C 
BRANCH  14  15
ATOM     15  O   UNL     1      12.679  14.475  35.196  1.00  0.00    -0.394 OA
ATOM     16  H   UNL     1      12.893  15.268  34.639  1.00  0.00     0.210 HD
ENDBRANCH  14  15
ENDBRANCH   5  14
BRANCH   4  17
ATOM     17  O   UNL     1      13.163  12.660  32.963  1.00  0.00    -0.387 OA
ATOM     18  H   UNL     1      12.211  12.555  32.712  1.00  0.00     0.211 HD
ENDBRANCH   4  17
TORSDOF 7
ENDMDL
MODEL 7
REMARK VINA RESULT:    -4.602      6.666      8.328
REMARK INTER + INTRA:          -6.290
REMARK INTER:                  -5.923
REMARK INTRA:                  -0.367
REMARK UNBOUND:                -0.343
REMARK SMILES CCO[C@@H]1O[C@@H](CO)[C@@H](O)[C@@H](O)[C@H]1O
REMARK SMILES IDX 4 1 13 2 11 3 9 4 6 5 5 6 3 7 2 8 1 9 14 10 12 12 7 14 8 15
REMARK SMILES IDX 10 17
REMARK H PARENT 14 11 12 13 8 16 10 18
REMARK Flexibility Score: inf
ROOT
ATOM      1  C   UNL     1      21.094  16.557  33.615  1.00  0.00     0.281 C 
ATOM      2  C   UNL     1      20.176  15.486  32.952  1.00  0.00     0.202 C 
ATOM      3  C   UNL     1      20.963  14.600  31.972  1.00  0.00     0.179 C 
ATOM      4  C   UNL     1      22.235  14.012  32.627  1.00  0.00     0.177 C 
ATOM      5  C   UNL     1      22.904  15.019  33.607  1.00  0.00     0.178 C 
ATOM      6  O   UNL     1      22.479  16.349  33.349  1.00  0.00    -0.341 OA
ENDROOT
BRANCH   1   7
ATOM      7  O   UNL     1      20.726  17.826  33.103  1.00  0.00    -0.350 OA
BRANCH   7   8
ATOM      8  C   UNL     1      19.505  18.256  33.672  1.00  0.00     0.160 C 
ATOM      9  C   UNL     1      19.213  19.674  33.211  1.00  0.00     0.035 C 
ENDBRANCH   7   8
ENDBRANCH   1   7
BRANCH   2  10
ATOM     10  O   UNL     1      19.563  14.688  33.933  1.00  0.00    -0.385 OA
ATOM     11  H   UNL     1      19.497  13.771  33.558  1.00  0.00     0.211 HD
ENDBRANCH   2  10
BRANCH   3  12
ATOM     12  O   UNL     1      20.151  13.568  31.469  1.00  0.00    -0.387 OA
ATOM     13  H   UNL     1      20.024  12.917  32.208  1.00  0.00     0.211 HD
ENDBRANCH   3  12
BRANCH   5  14
ATOM     14  C   UNL     1      22.814  14.647  35.105  1.00  0.00     0.191 C 
BRANCH  14  15
ATOM     15  O   UNL     1      23.752  13.649  35.401  1.00  0.00    -0.394 OA
ATOM     16  H   UNL     1      23.606  12.926  34.738  1.00  0.00     0.210 HD
ENDBRANCH  14  15
ENDBRANCH   5  14
BRANCH   4  17
ATOM     17  O   UNL     1      22.008  12.751  33.217  1.00  0.00    -0.387 OA
ATOM     18  H   UNL     1      22.783  12.534  33.794  1.00  0.00     0.211 HD
ENDBRANCH   4  17
TORSDOF 7
ENDMDL
MODEL 8
REMARK VINA RESULT:    -4.599      6.832      8.999
REMARK INTER + INTRA:          -6.286
REMARK INTER:                  -6.139
REMARK INTRA:                  -0.148
REMARK UNBOUND:                -0.343
REMARK SMILES CCO[C@@H]1O[C@@H](CO)[C@@H](O)[C@@H](O)[C@H]1O
REMARK SMILES IDX 4 1 13 2 11 3 9 4 6 5 5 6 3 7 2 8 1 9 14 10 12 12 7 14 8 15
REMARK SMILES IDX 10 17
REMARK H PARENT 14 11 12 13 8 16 10 18
REMARK Flexibility Score: inf
ROOT
ATOM      1  C   UNL     1      20.821  16.798  33.467  1.00  0.00     0.281 C 
ATOM      2  C   UNL     1      22.271  16.865  34.034  1.00  0.00     0.202 C 
ATOM      3  C   UNL     1      22.548  15.706  35.005  1.00  0.00     0.179 C 
ATOM      4  C   UNL     1      22.184  14.337  34.382  1.00  0.00     0.177 C 
ATOM      5  C   UNL     1      20.915  14.426  33.484  1.00  0.00     0.178 C 
ATOM      6  O   UNL     1      20.150  15.583  33.787  1.00  0.00    -0.341 OA
ENDROOT
BRANCH   1   7
ATOM      7  O   UNL     1      20.086  17.875  34.022  1.00  0.00    -0.350 OA
BRANCH   7   8
ATOM      8  C   UNL     1      19.880  18.886  33.056  1.00  0.00     0.160 C 
ATOM      9  C   UNL     1      18.730  19.775  33.502  1.00  0.00     0.035 C 
ENDBRANCH   7   8
ENDBRANCH   1   7
BRANCH   2  10
ATOM     10  O   UNL     1      23.210  16.847  32.988  1.00  0.00    -0.385 OA
ATOM     11  H   UNL     1      23.703  15.987  33.057  1.00  0.00     0.211 HD
ENDBRANCH   2  10
BRANCH   3  12
ATOM     12  O   UNL     1      23.892  15.710  35.419  1.00  0.00    -0.387 OA
ATOM     13  H   UNL     1      24.323  16.493  34.986  1.00  0.00     0.211 HD
ENDBRANCH   3  12
BRANCH   5  14
ATOM     14  C   UNL     1      21.163  14.256  31.968  1.00  0.00     0.191 C 
BRANCH  14  15
ATOM     15  O   UNL     1      20.144  13.475  31.407  1.00  0.00    -0.394 OA
ATOM     16  H   UNL     1      19.628  13.105  32.169  1.00  0.00     0.210 HD
ENDBRANCH  14  15
ENDBRANCH   5  14
BRANCH   4  17
ATOM     17  O   UNL     1      23.273  13.733  33.723  1.00  0.00    -0.387 OA
ATOM     18  H   UNL     1      24.110  14.100  34.103  1.00  0.00     0.211 HD
ENDBRANCH   4  17
TORSDOF 7
ENDMDL
MODEL 9
REMARK VINA RESULT:    -4.572      1.612      4.523
REMARK INTER + INTRA:          -6.251
REMARK INTER:                  -5.787
REMARK INTRA:                  -0.464
REMARK UNBOUND:                -0.343
REMARK SMILES CCO[C@@H]1O[C@@H](CO)[C@@H](O)[C@@H](O)[C@H]1O
REMARK SMILES IDX 4 1 13 2 11 3 9 4 6 5 5 6 3 7 2 8 1 9 14 10 12 12 7 14 8 15
REMARK SMILES IDX 10 17
REMARK H PARENT 14 11 12 13 8 16 10 18
REMARK Flexibility Score: inf
ROOT
ATOM      1  C   UNL     1      13.560  10.875  34.725  1.00  0.00     0.281 C 
ATOM      2  C   UNL     1      13.023  12.338  34.756  1.00  0.00     0.202 C 
ATOM      3  C   UNL     1      13.921  13.247  35.610  1.00  0.00     0.179 C 
ATOM      4  C   UNL     1      15.408  13.137  35.196  1.00  0.00     0.177 C 
ATOM      5  C   UNL     1      15.792  11.684  34.787  1.00  0.00     0.178 C 
ATOM      6  O   UNL     1      14.859  10.742  35.296  1.00  0.00    -0.341 OA
ENDROOT
BRANCH   1   7
ATOM      7  O   UNL     1      12.662  10.065  35.464  1.00  0.00    -0.350 OA
BRANCH   7   8
ATOM      8  C   UNL     1      13.241   9.676  36.694  1.00  0.00     0.160 C 
ATOM      9  C   UNL     1      12.461  10.309  37.834  1.00  0.00     0.035 C 
ENDBRANCH   7   8
ENDBRANCH   1   7
BRANCH   2  10
ATOM     10  O   UNL     1      12.923  12.852  33.452  1.00  0.00    -0.385 OA
ATOM     11  H   UNL     1      12.676  12.093  32.861  1.00  0.00     0.211 HD
ENDBRANCH   2  10
BRANCH   3  12
ATOM     12  O   UNL     1      13.493  14.584  35.536  1.00  0.00    -0.387 OA
ATOM     13  H   UNL     1      14.249  15.108  35.161  1.00  0.00     0.211 HD
ENDBRANCH   3  12
BRANCH   5  14
ATOM     14  C   UNL     1      16.088  11.475  33.285  1.00  0.00     0.191 C 
BRANCH  14  15
ATOM     15  O   UNL     1      17.364  11.969  32.981  1.00  0.00    -0.394 OA
ATOM     16  H   UNL     1      17.523  11.752  32.026  1.00  0.00     0.210 HD
ENDBRANCH  14  15
ENDBRANCH   5  14
BRANCH   4  17
ATOM     17  O   UNL     1      15.773  14.088  34.222  1.00  0.00    -0.387 OA
ATOM     18  H   UNL     1      16.279  13.625  33.508  1.00  0.00     0.211 HD
ENDBRANCH   4  17
TORSDOF 7
ENDMDL
