MODEL 1
REMARK VINA RESULT:    -4.816      0.000      0.000
REMARK INTER + INTRA:          -7.846
REMARK INTER:                  -6.646
REMARK INTRA:                  -1.200
REMARK UNBOUND:                -1.200
REMARK SMILES O=C([O-])[C@H]1O[C@H](Oc2cc3oc(-c4ccccc4)cc(=O)c3c(O)c2O)[C@@H](O)[C@H](O)[C@H]1O
REMARK SMILES IDX 7 1 6 2 4 3 31 4 5 5 29 6 27 7 2 8 1 9 3 10 32 11 30 13
REMARK SMILES IDX 28 15 8 17 25 18 9 19 23 20 10 21 22 22 11 23 20 24 12 25
REMARK SMILES IDX 19 26 21 27 26 28 24 30 13 32 14 33 18 34 15 35 17 36 16 37
REMARK H PARENT 32 12 30 14 28 16 26 29 24 31
REMARK Flexibility Score: inf
ROOT
ATOM      1  O   UNL     1      12.398 -40.886 -24.450  1.00  0.00    -0.458 OA
ENDROOT
BRANCH   1   2
ATOM      2  C   UNL     1      13.790 -40.899 -24.109  1.00  0.00     0.339 C 
ATOM      3  C   UNL     1      14.451 -40.205 -26.249  1.00  0.00     0.199 C 
ATOM      4  C   UNL     1      15.039 -38.858 -25.772  1.00  0.00     0.180 C 
ATOM      5  O   UNL     1      14.583 -41.198 -25.246  1.00  0.00    -0.328 OA
ATOM      6  C   UNL     1      14.367 -38.407 -24.457  1.00  0.00     0.181 C 
ATOM      7  C   UNL     1      14.218 -39.566 -23.440  1.00  0.00     0.214 C 
BRANCH   3   8
ATOM      8  C   UNL     1      15.144 -40.669 -27.498  1.00  0.00     0.073 C 
ATOM      9  O   UNL     1      16.069 -39.983 -28.009  1.00  0.00    -0.547 OA
ATOM     10  O   UNL     1      14.734 -41.839 -28.125  1.00  0.00    -0.547 OA
ENDBRANCH   3   8
BRANCH   4  11
ATOM     11  O   UNL     1      16.425 -38.975 -25.563  1.00  0.00    -0.387 OA
ATOM     12  H   UNL     1      16.873 -38.380 -26.220  1.00  0.00     0.211 HD
ENDBRANCH   4  11
BRANCH   6  13
ATOM     13  O   UNL     1      13.127 -37.788 -24.703  1.00  0.00    -0.387 OA
ATOM     14  H   UNL     1      12.816 -38.057 -25.603  1.00  0.00     0.211 HD
ENDBRANCH   6  13
BRANCH   7  15
ATOM     15  O   UNL     1      15.409 -39.739 -22.712  1.00  0.00    -0.384 OA
ATOM     16  H   UNL     1      16.082 -39.104 -23.066  1.00  0.00     0.211 HD
ENDBRANCH   7  15
ENDBRANCH   1   2
BRANCH   1  17
ATOM     17  C   UNL     1      11.661 -42.055 -24.677  1.00  0.00     0.172 A 
ATOM     18  C   UNL     1      11.431 -42.524 -25.982  1.00  0.00     0.201 A 
ATOM     19  C   UNL     1      11.127 -42.733 -23.583  1.00  0.00     0.098 A 
ATOM     20  C   UNL     1      10.708 -43.728 -26.181  1.00  0.00     0.176 A 
ATOM     21  C   UNL     1      10.398 -43.906 -23.761  1.00  0.00     0.146 A 
ATOM     22  C   UNL     1      10.179 -44.419 -25.061  1.00  0.00     0.111 A 
ATOM     23  O   UNL     1       9.920 -44.536 -22.693  1.00  0.00    -0.456 OA
ATOM     24  C   UNL     1       9.430 -45.610 -25.170  1.00  0.00     0.197 A 
ATOM     25  C   UNL     1       9.222 -45.668 -22.762  1.00  0.00     0.138 A 
ATOM     26  C   UNL     1       8.949 -46.232 -24.018  1.00  0.00     0.100 A 
ATOM     27  O   UNL     1       9.177 -46.129 -26.292  1.00  0.00    -0.289 OA
BRANCH  18  28
ATOM     28  O   UNL     1      11.905 -41.755 -27.049  1.00  0.00    -0.502 OA
ATOM     29  H   UNL     1      11.316 -41.256 -27.699  1.00  0.00     0.293 HD
ENDBRANCH  18  28
BRANCH  20  30
ATOM     30  O   UNL     1      10.509 -44.254 -27.462  1.00  0.00    -0.504 OA
ATOM     31  H   UNL     1       9.860 -44.995 -27.681  1.00  0.00     0.293 HD
ENDBRANCH  20  30
BRANCH  25  32
ATOM     32  C   UNL     1       8.745 -46.290 -21.502  1.00  0.00     0.017 A 
ATOM     33  C   UNL     1       8.374 -45.469 -20.421  1.00  0.00     0.012 A 
ATOM     34  C   UNL     1       8.688 -47.690 -21.341  1.00  0.00     0.012 A 
ATOM     35  C   UNL     1       7.937 -46.032 -19.218  1.00  0.00     0.001 A 
ATOM     36  C   UNL     1       8.253 -48.247 -20.135  1.00  0.00     0.001 A 
ATOM     37  C   UNL     1       7.875 -47.419 -19.075  1.00  0.00     0.000 A 
ENDBRANCH  25  32
ENDBRANCH   1  17
TORSDOF 9
ENDMDL
MODEL 2
REMARK VINA RESULT:    -4.792      1.552      2.227
REMARK INTER + INTRA:          -7.813
REMARK INTER:                  -6.792
REMARK INTRA:                  -1.021
REMARK UNBOUND:                -1.200
REMARK SMILES O=C([O-])[C@H]1O[C@H](Oc2cc3oc(-c4ccccc4)cc(=O)c3c(O)c2O)[C@@H](O)[C@H](O)[C@H]1O
REMARK SMILES IDX 7 1 6 2 4 3 31 4 5 5 29 6 27 7 2 8 1 9 3 10 32 11 30 13
REMARK SMILES IDX 28 15 8 17 25 18 9 19 23 20 10 21 22 22 11 23 20 24 12 25
REMARK SMILES IDX 19 26 21 27 26 28 24 30 13 32 14 33 18 34 15 35 17 36 16 37
REMARK H PARENT 32 12 30 14 28 16 26 29 24 31
REMARK Flexibility Score: inf
ROOT
ATOM      1  O   UNL     1      11.835 -41.692 -24.616  1.00  0.00    -0.458 OA
ENDROOT
BRANCH   1   2
ATOM      2  C   UNL     1      13.268 -41.739 -24.642  1.00  0.00     0.339 C 
ATOM      3  C   UNL     1      13.480 -39.457 -24.150  1.00  0.00     0.199 C 
ATOM      4  C   UNL     1      14.170 -39.682 -22.787  1.00  0.00     0.180 C 
ATOM      5  O   UNL     1      13.804 -40.495 -25.059  1.00  0.00    -0.328 OA
ATOM      6  C   UNL     1      13.791 -41.063 -22.206  1.00  0.00     0.181 C 
ATOM      7  C   UNL     1      13.841 -42.186 -23.271  1.00  0.00     0.214 C 
BRANCH   3   8
ATOM      8  C   UNL     1      13.894 -38.138 -24.738  1.00  0.00     0.073 C 
ATOM      9  O   UNL     1      14.662 -37.367 -24.103  1.00  0.00    -0.547 OA
ATOM     10  O   UNL     1      13.391 -37.740 -25.970  1.00  0.00    -0.547 OA
ENDBRANCH   3   8
BRANCH   4  11
ATOM     11  O   UNL     1      15.568 -39.612 -22.927  1.00  0.00    -0.387 OA
ATOM     12  H   UNL     1      15.894 -40.536 -23.095  1.00  0.00     0.211 HD
ENDBRANCH   4  11
BRANCH   6  13
ATOM     13  O   UNL     1      12.535 -41.022 -21.572  1.00  0.00    -0.387 OA
ATOM     14  H   UNL     1      12.441 -40.147 -21.120  1.00  0.00     0.211 HD
ENDBRANCH   6  13
BRANCH   7  15
ATOM     15  O   UNL     1      15.155 -42.667 -23.418  1.00  0.00    -0.384 OA
ATOM     16  H   UNL     1      15.107 -43.632 -23.636  1.00  0.00     0.211 HD
ENDBRANCH   7  15
ENDBRANCH   1   2
BRANCH   1  17
ATOM     17  C   UNL     1      11.035 -42.828 -24.778  1.00  0.00     0.172 A 
ATOM     18  C   UNL     1      10.610 -43.238 -26.053  1.00  0.00     0.201 A 
ATOM     19  C   UNL     1      10.635 -43.533 -23.644  1.00  0.00     0.098 A 
ATOM     20  C   UNL     1       9.825 -44.413 -26.191  1.00  0.00     0.176 A 
ATOM     21  C   UNL     1       9.848 -44.676 -23.760  1.00  0.00     0.146 A 
ATOM     22  C   UNL     1       9.434 -45.131 -25.033  1.00  0.00     0.111 A 
ATOM     23  O   UNL     1       9.501 -45.334 -22.658  1.00  0.00    -0.456 OA
ATOM     24  C   UNL     1       8.636 -46.295 -25.078  1.00  0.00     0.197 A 
ATOM     25  C   UNL     1       8.762 -46.441 -22.669  1.00  0.00     0.138 A 
ATOM     26  C   UNL     1       8.298 -46.948 -23.894  1.00  0.00     0.100 A 
ATOM     27  O   UNL     1       8.212 -46.761 -26.171  1.00  0.00    -0.289 OA
BRANCH  18  28
ATOM     28  O   UNL     1      10.957 -42.442 -27.149  1.00  0.00    -0.502 OA
ATOM     29  H   UNL     1      11.448 -41.563 -27.083  1.00  0.00     0.293 HD
ENDBRANCH  18  28
BRANCH  20  30
ATOM     30  O   UNL     1       9.433 -44.881 -27.450  1.00  0.00    -0.504 OA
ATOM     31  H   UNL     1       8.941 -44.330 -28.137  1.00  0.00     0.293 HD
ENDBRANCH  20  30
BRANCH  25  32
ATOM     32  C   UNL     1       8.442 -47.099 -21.377  1.00  0.00     0.017 A 
ATOM     33  C   UNL     1       8.162 -46.307 -20.247  1.00  0.00     0.012 A 
ATOM     34  C   UNL     1       8.451 -48.502 -21.236  1.00  0.00     0.012 A 
ATOM     35  C   UNL     1       7.875 -46.903 -19.016  1.00  0.00     0.001 A 
ATOM     36  C   UNL     1       8.165 -49.092 -20.002  1.00  0.00     0.001 A 
ATOM     37  C   UNL     1       7.875 -48.293 -18.893  1.00  0.00     0.000 A 
ENDBRANCH  25  32
ENDBRANCH   1  17
TORSDOF 9
ENDMDL
MODEL 3
REMARK VINA RESULT:    -4.724      3.010      8.898
REMARK INTER + INTRA:          -7.720
REMARK INTER:                  -7.297
REMARK INTRA:                  -0.423
REMARK UNBOUND:                -1.200
REMARK SMILES O=C([O-])[C@H]1O[C@H](Oc2cc3oc(-c4ccccc4)cc(=O)c3c(O)c2O)[C@@H](O)[C@H](O)[C@H]1O
REMARK SMILES IDX 7 1 6 2 4 3 31 4 5 5 29 6 27 7 2 8 1 9 3 10 32 11 30 13
REMARK SMILES IDX 28 15 8 17 25 18 9 19 23 20 10 21 22 22 11 23 20 24 12 25
REMARK SMILES IDX 19 26 21 27 26 28 24 30 13 32 14 33 18 34 15 35 17 36 16 37
REMARK H PARENT 32 12 30 14 28 16 26 29 24 31
REMARK Flexibility Score: inf
ROOT
ATOM      1  O   UNL     1      10.260 -42.202 -26.694  1.00  0.00    -0.458 OA
ENDROOT
BRANCH   1   2
ATOM      2  C   UNL     1      11.083 -43.370 -26.588  1.00  0.00     0.339 C 
ATOM      3  C   UNL     1      11.749 -42.859 -24.399  1.00  0.00     0.199 C 
ATOM      4  C   UNL     1      11.079 -44.099 -23.767  1.00  0.00     0.180 C 
ATOM      5  O   UNL     1      12.180 -43.134 -25.720  1.00  0.00    -0.328 OA
ATOM      6  C   UNL     1       9.902 -44.586 -24.642  1.00  0.00     0.181 C 
ATOM      7  C   UNL     1      10.254 -44.606 -26.150  1.00  0.00     0.214 C 
BRANCH   3   8
ATOM      8  C   UNL     1      12.926 -42.420 -23.576  1.00  0.00     0.073 C 
ATOM      9  O   UNL     1      12.801 -41.509 -22.715  1.00  0.00    -0.547 OA
ATOM     10  O   UNL     1      14.175 -42.988 -23.795  1.00  0.00    -0.547 OA
ENDBRANCH   3   8
BRANCH   4  11
ATOM     11  O   UNL     1      12.011 -45.144 -23.630  1.00  0.00    -0.387 OA
ATOM     12  H   UNL     1      12.766 -44.795 -23.086  1.00  0.00     0.211 HD
ENDBRANCH   4  11
BRANCH   6  13
ATOM     13  O   UNL     1       8.740 -43.828 -24.404  1.00  0.00    -0.387 OA
ATOM     14  H   UNL     1       8.057 -44.084 -25.073  1.00  0.00     0.211 HD
ENDBRANCH   6  13
BRANCH   7  15
ATOM     15  O   UNL     1      10.927 -45.796 -26.484  1.00  0.00    -0.384 OA
ATOM     16  H   UNL     1      11.882 -45.687 -26.245  1.00  0.00     0.211 HD
ENDBRANCH   7  15
ENDBRANCH   1   2
BRANCH   1  17
ATOM     17  C   UNL     1      10.774 -40.934 -26.989  1.00  0.00     0.172 A 
ATOM     18  C   UNL     1       9.922 -39.829 -27.161  1.00  0.00     0.201 A 
ATOM     19  C   UNL     1      12.151 -40.789 -27.142  1.00  0.00     0.098 A 
ATOM     20  C   UNL     1      10.473 -38.549 -27.428  1.00  0.00     0.176 A 
ATOM     21  C   UNL     1      12.707 -39.543 -27.424  1.00  0.00     0.146 A 
ATOM     22  C   UNL     1      11.876 -38.408 -27.570  1.00  0.00     0.111 A 
ATOM     23  O   UNL     1      14.027 -39.439 -27.545  1.00  0.00    -0.456 OA
ATOM     24  C   UNL     1      12.505 -37.177 -27.857  1.00  0.00     0.197 A 
ATOM     25  C   UNL     1      14.650 -38.291 -27.802  1.00  0.00     0.138 A 
ATOM     26  C   UNL     1      13.893 -37.121 -27.976  1.00  0.00     0.100 A 
ATOM     27  O   UNL     1      11.838 -36.118 -28.016  1.00  0.00    -0.289 OA
BRANCH  18  28
ATOM     28  O   UNL     1       8.543 -40.047 -27.093  1.00  0.00    -0.502 OA
ATOM     29  H   UNL     1       7.933 -39.634 -26.404  1.00  0.00     0.293 HD
ENDBRANCH  18  28
BRANCH  20  30
ATOM     30  O   UNL     1       9.658 -37.418 -27.549  1.00  0.00    -0.504 OA
ATOM     31  H   UNL     1       9.244 -37.102 -28.413  1.00  0.00     0.293 HD
ENDBRANCH  20  30
BRANCH  25  32
ATOM     32  C   UNL     1      16.130 -38.290 -27.907  1.00  0.00     0.017 A 
ATOM     33  C   UNL     1      16.828 -39.512 -27.875  1.00  0.00     0.012 A 
ATOM     34  C   UNL     1      16.867 -37.092 -27.999  1.00  0.00     0.012 A 
ATOM     35  C   UNL     1      18.224 -39.536 -27.955  1.00  0.00     0.001 A 
ATOM     36  C   UNL     1      18.263 -37.122 -28.077  1.00  0.00     0.001 A 
ATOM     37  C   UNL     1      18.940 -38.344 -28.057  1.00  0.00     0.000 A 
ENDBRANCH  25  32
ENDBRANCH   1  17
TORSDOF 9
ENDMDL
MODEL 4
REMARK VINA RESULT:    -4.645      2.715      9.247
REMARK INTER + INTRA:          -7.611
REMARK INTER:                  -6.504
REMARK INTRA:                  -1.107
REMARK UNBOUND:                -1.200
REMARK SMILES O=C([O-])[C@H]1O[C@H](Oc2cc3oc(-c4ccccc4)cc(=O)c3c(O)c2O)[C@@H](O)[C@H](O)[C@H]1O
REMARK SMILES IDX 7 1 6 2 4 3 31 4 5 5 29 6 27 7 2 8 1 9 3 10 32 11 30 13
REMARK SMILES IDX 28 15 8 17 25 18 9 19 23 20 10 21 22 22 11 23 20 24 12 25
REMARK SMILES IDX 19 26 21 27 26 28 24 30 13 32 14 33 18 34 15 35 17 36 16 37
REMARK H PARENT 32 12 30 14 28 16 26 29 24 31
REMARK Flexibility Score: inf
ROOT
ATOM      1  O   UNL     1      10.381 -42.051 -25.819  1.00  0.00    -0.458 OA
ENDROOT
BRANCH   1   2
ATOM      2  C   UNL     1      11.187 -43.016 -25.131  1.00  0.00     0.339 C 
ATOM      3  C   UNL     1       9.408 -43.729 -23.781  1.00  0.00     0.199 C 
ATOM      4  C   UNL     1       9.377 -45.163 -24.355  1.00  0.00     0.180 C 
ATOM      5  O   UNL     1      10.724 -43.203 -23.804  1.00  0.00    -0.328 OA
ATOM      6  C   UNL     1       9.958 -45.188 -25.787  1.00  0.00     0.181 C 
ATOM      7  C   UNL     1      11.256 -44.353 -25.914  1.00  0.00     0.214 C 
BRANCH   3   8
ATOM      8  C   UNL     1       8.895 -43.716 -22.370  1.00  0.00     0.073 C 
ATOM      9  O   UNL     1       9.325 -42.872 -21.540  1.00  0.00    -0.547 OA
ATOM     10  O   UNL     1       7.973 -44.671 -21.959  1.00  0.00    -0.547 OA
ENDBRANCH   3   8
BRANCH   4  11
ATOM     11  O   UNL     1      10.126 -46.033 -23.542  1.00  0.00    -0.387 OA
ATOM     12  H   UNL     1      10.579 -46.681 -24.143  1.00  0.00     0.211 HD
ENDBRANCH   4  11
BRANCH   6  13
ATOM     13  O   UNL     1       8.999 -44.780 -26.734  1.00  0.00    -0.387 OA
ATOM     14  H   UNL     1       8.116 -45.131 -26.456  1.00  0.00     0.211 HD
ENDBRANCH   6  13
BRANCH   7  15
ATOM     15  O   UNL     1      12.370 -45.109 -25.505  1.00  0.00    -0.384 OA
ATOM     16  H   UNL     1      12.093 -45.677 -24.742  1.00  0.00     0.211 HD
ENDBRANCH   7  15
ENDBRANCH   1   2
BRANCH   1  17
ATOM     17  C   UNL     1      10.897 -40.852 -26.324  1.00  0.00     0.172 A 
ATOM     18  C   UNL     1      10.049 -39.777 -26.644  1.00  0.00     0.201 A 
ATOM     19  C   UNL     1      12.270 -40.750 -26.537  1.00  0.00     0.098 A 
ATOM     20  C   UNL     1      10.603 -38.561 -27.124  1.00  0.00     0.176 A 
ATOM     21  C   UNL     1      12.828 -39.572 -27.026  1.00  0.00     0.146 A 
ATOM     22  C   UNL     1      12.003 -38.463 -27.325  1.00  0.00     0.111 A 
ATOM     23  O   UNL     1      14.144 -39.504 -27.199  1.00  0.00    -0.456 OA
ATOM     24  C   UNL     1      12.633 -37.300 -27.820  1.00  0.00     0.197 A 
ATOM     25  C   UNL     1      14.769 -38.419 -27.650  1.00  0.00     0.138 A 
ATOM     26  C   UNL     1      14.017 -37.281 -27.985  1.00  0.00     0.100 A 
ATOM     27  O   UNL     1      11.970 -36.271 -28.125  1.00  0.00    -0.289 OA
BRANCH  18  28
ATOM     28  O   UNL     1       8.671 -39.963 -26.504  1.00  0.00    -0.502 OA
ATOM     29  H   UNL     1       8.112 -40.555 -27.100  1.00  0.00     0.293 HD
ENDBRANCH  18  28
BRANCH  20  30
ATOM     30  O   UNL     1       9.794 -37.453 -27.399  1.00  0.00    -0.504 OA
ATOM     31  H   UNL     1       8.852 -37.335 -27.060  1.00  0.00     0.293 HD
ENDBRANCH  20  30
BRANCH  25  32
ATOM     32  C   UNL     1      16.246 -38.454 -27.795  1.00  0.00     0.017 A 
ATOM     33  C   UNL     1      16.954 -37.250 -27.970  1.00  0.00     0.012 A 
ATOM     34  C   UNL     1      16.962 -39.668 -27.803  1.00  0.00     0.012 A 
ATOM     35  C   UNL     1      18.343 -37.258 -28.125  1.00  0.00     0.001 A 
ATOM     36  C   UNL     1      18.351 -39.671 -27.962  1.00  0.00     0.001 A 
ATOM     37  C   UNL     1      19.041 -38.466 -28.120  1.00  0.00     0.000 A 
ENDBRANCH  25  32
ENDBRANCH   1  17
TORSDOF 9
ENDMDL
MODEL 5
REMARK VINA RESULT:    -4.347      1.182      2.638
REMARK INTER + INTRA:          -7.199
REMARK INTER:                  -6.167
REMARK INTRA:                  -1.032
REMARK UNBOUND:                -1.200
REMARK SMILES O=C([O-])[C@H]1O[C@H](Oc2cc3oc(-c4ccccc4)cc(=O)c3c(O)c2O)[C@@H](O)[C@H](O)[C@H]1O
REMARK SMILES IDX 7 1 6 2 4 3 31 4 5 5 29 6 27 7 2 8 1 9 3 10 32 11 30 13
REMARK SMILES IDX 28 15 8 17 25 18 9 19 23 20 10 21 22 22 11 23 20 24 12 25
REMARK SMILES IDX 19 26 21 27 26 28 24 30 13 32 14 33 18 34 15 35 17 36 16 37
REMARK H PARENT 32 12 30 14 28 16 26 29 24 31
REMARK Flexibility Score: inf
ROOT
ATOM      1  O   UNL     1      13.075 -41.397 -25.737  1.00  0.00    -0.458 OA
ENDROOT
BRANCH   1   2
ATOM      2  C   UNL     1      12.766 -40.036 -25.412  1.00  0.00     0.339 C 
ATOM      3  C   UNL     1      14.134 -40.046 -23.508  1.00  0.00     0.199 C 
ATOM      4  C   UNL     1      15.118 -38.985 -24.051  1.00  0.00     0.180 C 
ATOM      5  O   UNL     1      12.827 -39.828 -24.011  1.00  0.00    -0.328 OA
ATOM      6  C   UNL     1      15.113 -38.979 -25.596  1.00  0.00     0.181 C 
ATOM      7  C   UNL     1      13.683 -39.051 -26.184  1.00  0.00     0.214 C 
BRANCH   3   8
ATOM      8  C   UNL     1      14.099 -40.012 -22.007  1.00  0.00     0.073 C 
ATOM      9  O   UNL     1      14.819 -39.199 -21.369  1.00  0.00    -0.547 OA
ATOM     10  O   UNL     1      13.304 -40.913 -21.312  1.00  0.00    -0.547 OA
ENDBRANCH   3   8
BRANCH   4  11
ATOM     11  O   UNL     1      14.763 -37.705 -23.587  1.00  0.00    -0.387 OA
ATOM     12  H   UNL     1      15.526 -37.099 -23.783  1.00  0.00     0.211 HD
ENDBRANCH   4  11
BRANCH   6  13
ATOM     13  O   UNL     1      15.925 -40.006 -26.113  1.00  0.00    -0.387 OA
ATOM     14  H   UNL     1      15.716 -40.844 -25.628  1.00  0.00     0.211 HD
ENDBRANCH   6  13
BRANCH   7  15
ATOM     15  O   UNL     1      13.104 -37.769 -26.230  1.00  0.00    -0.384 OA
ATOM     16  H   UNL     1      12.124 -37.877 -26.333  1.00  0.00     0.211 HD
ENDBRANCH   7  15
ENDBRANCH   1   2
BRANCH   1  17
ATOM     17  C   UNL     1      12.117 -42.417 -25.726  1.00  0.00     0.172 A 
ATOM     18  C   UNL     1      11.695 -43.027 -26.921  1.00  0.00     0.201 A 
ATOM     19  C   UNL     1      11.559 -42.799 -24.508  1.00  0.00     0.098 A 
ATOM     20  C   UNL     1      10.746 -44.081 -26.877  1.00  0.00     0.176 A 
ATOM     21  C   UNL     1      10.611 -43.818 -24.449  1.00  0.00     0.146 A 
ATOM     22  C   UNL     1      10.193 -44.472 -25.631  1.00  0.00     0.111 A 
ATOM     23  O   UNL     1      10.114 -44.169 -23.267  1.00  0.00    -0.456 OA
ATOM     24  C   UNL     1       9.228 -45.494 -25.500  1.00  0.00     0.197 A 
ATOM     25  C   UNL     1       9.214 -45.137 -23.109  1.00  0.00     0.138 A 
ATOM     26  C   UNL     1       8.737 -45.823 -24.238  1.00  0.00     0.100 A 
ATOM     27  O   UNL     1       8.790 -46.119 -26.505  1.00  0.00    -0.289 OA
BRANCH  18  28
ATOM     28  O   UNL     1      12.213 -42.541 -28.125  1.00  0.00    -0.502 OA
ATOM     29  H   UNL     1      12.110 -43.000 -29.017  1.00  0.00     0.293 HD
ENDBRANCH  18  28
BRANCH  20  30
ATOM     30  O   UNL     1      10.346 -44.748 -28.040  1.00  0.00    -0.504 OA
ATOM     31  H   UNL     1      10.823 -45.545 -28.434  1.00  0.00     0.293 HD
ENDBRANCH  20  30
BRANCH  25  32
ATOM     32  C   UNL     1       8.736 -45.450 -21.740  1.00  0.00     0.017 A 
ATOM     33  C   UNL     1       8.615 -44.415 -20.794  1.00  0.00     0.012 A 
ATOM     34  C   UNL     1       8.434 -46.769 -21.343  1.00  0.00     0.012 A 
ATOM     35  C   UNL     1       8.183 -44.688 -19.493  1.00  0.00     0.001 A 
ATOM     36  C   UNL     1       8.004 -47.037 -20.040  1.00  0.00     0.001 A 
ATOM     37  C   UNL     1       7.876 -45.996 -19.116  1.00  0.00     0.000 A 
ENDBRANCH  25  32
ENDBRANCH   1  17
TORSDOF 9
ENDMDL
MODEL 6
REMARK VINA RESULT:    -4.063      3.181      9.155
REMARK INTER + INTRA:          -6.808
REMARK INTER:                  -5.749
REMARK INTRA:                  -1.058
REMARK UNBOUND:                -1.200
REMARK SMILES O=C([O-])[C@H]1O[C@H](Oc2cc3oc(-c4ccccc4)cc(=O)c3c(O)c2O)[C@@H](O)[C@H](O)[C@H]1O
REMARK SMILES IDX 7 1 6 2 4 3 31 4 5 5 29 6 27 7 2 8 1 9 3 10 32 11 30 13
REMARK SMILES IDX 28 15 8 17 25 18 9 19 23 20 10 21 22 22 11 23 20 24 12 25
REMARK SMILES IDX 19 26 21 27 26 28 24 30 13 32 14 33 18 34 15 35 17 36 16 37
REMARK H PARENT 32 12 30 14 28 16 26 29 24 31
REMARK Flexibility Score: inf
ROOT
ATOM      1  O   UNL     1      10.568 -43.691 -28.123  1.00  0.00    -0.458 OA
ENDROOT
BRANCH   1   2
ATOM      2  C   UNL     1      11.064 -44.810 -27.379  1.00  0.00     0.339 C 
ATOM      3  C   UNL     1       9.597 -44.433 -25.589  1.00  0.00     0.199 C 
ATOM      4  C   UNL     1       8.825 -45.759 -25.774  1.00  0.00     0.180 C 
ATOM      5  O   UNL     1      10.951 -44.577 -25.985  1.00  0.00    -0.328 OA
ATOM      6  C   UNL     1       8.924 -46.246 -27.237  1.00  0.00     0.181 C 
ATOM      7  C   UNL     1      10.360 -46.126 -27.804  1.00  0.00     0.214 C 
BRANCH   3   8
ATOM      8  C   UNL     1       9.546 -43.990 -24.155  1.00  0.00     0.073 C 
ATOM      9  O   UNL     1      10.323 -44.494 -23.301  1.00  0.00    -0.547 OA
ATOM     10  O   UNL     1       8.604 -43.052 -23.753  1.00  0.00    -0.547 OA
ENDBRANCH   3   8
BRANCH   4  11
ATOM     11  O   UNL     1       9.344 -46.752 -24.923  1.00  0.00    -0.387 OA
ATOM     12  H   UNL     1       8.572 -47.197 -24.485  1.00  0.00     0.211 HD
ENDBRANCH   4  11
BRANCH   6  13
ATOM     13  O   UNL     1       7.996 -45.582 -28.061  1.00  0.00    -0.387 OA
ATOM     14  H   UNL     1       7.634 -46.234 -28.712  1.00  0.00     0.211 HD
ENDBRANCH   6  13
BRANCH   7  15
ATOM     15  O   UNL     1      11.132 -47.242 -27.434  1.00  0.00    -0.384 OA
ATOM     16  H   UNL     1      10.984 -47.413 -26.470  1.00  0.00     0.211 HD
ENDBRANCH   7  15
ENDBRANCH   1   2
BRANCH   1  17
ATOM     17  C   UNL     1      10.931 -42.369 -27.838  1.00  0.00     0.172 A 
ATOM     18  C   UNL     1       9.966 -41.419 -27.460  1.00  0.00     0.201 A 
ATOM     19  C   UNL     1      12.268 -41.998 -27.968  1.00  0.00     0.098 A 
ATOM     20  C   UNL     1      10.366 -40.094 -27.146  1.00  0.00     0.176 A 
ATOM     21  C   UNL     1      12.675 -40.697 -27.683  1.00  0.00     0.146 A 
ATOM     22  C   UNL     1      11.731 -39.729 -27.268  1.00  0.00     0.111 A 
ATOM     23  O   UNL     1      13.962 -40.384 -27.800  1.00  0.00    -0.456 OA
ATOM     24  C   UNL     1      12.211 -38.430 -26.997  1.00  0.00     0.197 A 
ATOM     25  C   UNL     1      14.447 -39.172 -27.539  1.00  0.00     0.138 A 
ATOM     26  C   UNL     1      13.570 -38.152 -27.137  1.00  0.00     0.100 A 
ATOM     27  O   UNL     1      11.435 -37.503 -26.636  1.00  0.00    -0.289 OA
BRANCH  18  28
ATOM     28  O   UNL     1       8.626 -41.817 -27.439  1.00  0.00    -0.502 OA
ATOM     29  H   UNL     1       7.868 -41.250 -27.091  1.00  0.00     0.293 HD
ENDBRANCH  18  28
BRANCH  20  30
ATOM     30  O   UNL     1       9.441 -39.139 -26.711  1.00  0.00    -0.504 OA
ATOM     31  H   UNL     1       8.439 -39.255 -26.748  1.00  0.00     0.293 HD
ENDBRANCH  20  30
BRANCH  25  32
ATOM     32  C   UNL     1      15.904 -38.938 -27.695  1.00  0.00     0.017 A 
ATOM     33  C   UNL     1      16.768 -40.036 -27.867  1.00  0.00     0.012 A 
ATOM     34  C   UNL     1      16.458 -37.643 -27.636  1.00  0.00     0.012 A 
ATOM     35  C   UNL     1      18.146 -39.842 -27.999  1.00  0.00     0.001 A 
ATOM     36  C   UNL     1      17.837 -37.455 -27.766  1.00  0.00     0.001 A 
ATOM     37  C   UNL     1      18.680 -38.554 -27.950  1.00  0.00     0.000 A 
ENDBRANCH  25  32
ENDBRANCH   1  17
TORSDOF 9
ENDMDL
MODEL 7
REMARK VINA RESULT:    -4.000      2.386      8.737
REMARK INTER + INTRA:          -6.720
REMARK INTER:                  -5.699
REMARK INTRA:                  -1.021
REMARK UNBOUND:                -1.200
REMARK SMILES O=C([O-])[C@H]1O[C@H](Oc2cc3oc(-c4ccccc4)cc(=O)c3c(O)c2O)[C@@H](O)[C@H](O)[C@H]1O
REMARK SMILES IDX 7 1 6 2 4 3 31 4 5 5 29 6 27 7 2 8 1 9 3 10 32 11 30 13
REMARK SMILES IDX 28 15 8 17 25 18 9 19 23 20 10 21 22 22 11 23 20 24 12 25
REMARK SMILES IDX 19 26 21 27 26 28 24 30 13 32 14 33 18 34 15 35 17 36 16 37
REMARK H PARENT 32 12 30 14 28 16 26 29 24 31
REMARK Flexibility Score: inf
ROOT
ATOM      1  O   UNL     1      10.010 -45.934 -23.858  1.00  0.00    -0.458 OA
ENDROOT
BRANCH   1   2
ATOM      2  C   UNL     1       8.823 -46.288 -23.138  1.00  0.00     0.339 C 
ATOM      3  C   UNL     1       8.882 -48.511 -23.881  1.00  0.00     0.199 C 
ATOM      4  C   UNL     1       9.103 -49.112 -22.475  1.00  0.00     0.180 C 
ATOM      5  O   UNL     1       8.118 -47.320 -23.809  1.00  0.00    -0.328 OA
ATOM      6  C   UNL     1       9.776 -48.080 -21.543  1.00  0.00     0.181 C 
ATOM      7  C   UNL     1       9.148 -46.670 -21.670  1.00  0.00     0.214 C 
BRANCH   3   8
ATOM      8  C   UNL     1       8.178 -49.496 -24.770  1.00  0.00     0.073 C 
ATOM      9  O   UNL     1       7.896 -50.650 -24.348  1.00  0.00    -0.547 OA
ATOM     10  O   UNL     1       7.875 -49.154 -26.081  1.00  0.00    -0.547 OA
ENDBRANCH   3   8
BRANCH   4  11
ATOM     11  O   UNL     1       7.875 -49.506 -21.912  1.00  0.00    -0.387 OA
ATOM     12  H   UNL     1       7.164 -48.967 -22.349  1.00  0.00     0.211 HD
ENDBRANCH   4  11
BRANCH   6  13
ATOM     13  O   UNL     1      11.167 -48.035 -21.750  1.00  0.00    -0.387 OA
ATOM     14  H   UNL     1      11.346 -47.493 -22.559  1.00  0.00     0.211 HD
ENDBRANCH   6  13
BRANCH   7  15
ATOM     15  O   UNL     1       7.998 -46.568 -20.866  1.00  0.00    -0.384 OA
ATOM     16  H   UNL     1       8.072 -47.235 -20.137  1.00  0.00     0.211 HD
ENDBRANCH   7  15
ENDBRANCH   1   2
BRANCH   1  17
ATOM     17  C   UNL     1      10.104 -44.782 -24.648  1.00  0.00     0.172 A 
ATOM     18  C   UNL     1       9.252 -44.589 -25.750  1.00  0.00     0.201 A 
ATOM     19  C   UNL     1      11.083 -43.839 -24.343  1.00  0.00     0.098 A 
ATOM     20  C   UNL     1       9.348 -43.396 -26.514  1.00  0.00     0.176 A 
ATOM     21  C   UNL     1      11.204 -42.672 -25.094  1.00  0.00     0.146 A 
ATOM     22  C   UNL     1      10.339 -42.436 -26.188  1.00  0.00     0.111 A 
ATOM     23  O   UNL     1      12.137 -41.786 -24.763  1.00  0.00    -0.456 OA
ATOM     24  C   UNL     1      10.517 -41.235 -26.908  1.00  0.00     0.197 A 
ATOM     25  C   UNL     1      12.322 -40.639 -25.413  1.00  0.00     0.138 A 
ATOM     26  C   UNL     1      11.512 -40.338 -26.521  1.00  0.00     0.100 A 
ATOM     27  O   UNL     1       9.799 -40.951 -27.905  1.00  0.00    -0.289 OA
BRANCH  18  28
ATOM     28  O   UNL     1       8.353 -45.609 -26.072  1.00  0.00    -0.502 OA
ATOM     29  H   UNL     1       7.867 -46.177 -25.394  1.00  0.00     0.293 HD
ENDBRANCH  18  28
BRANCH  20  30
ATOM     30  O   UNL     1       8.479 -43.145 -27.581  1.00  0.00    -0.504 OA
ATOM     31  H   UNL     1       8.490 -43.646 -28.457  1.00  0.00     0.293 HD
ENDBRANCH  20  30
BRANCH  25  32
ATOM     32  C   UNL     1      13.390 -39.719 -24.949  1.00  0.00     0.017 A 
ATOM     33  C   UNL     1      13.704 -39.658 -23.579  1.00  0.00     0.012 A 
ATOM     34  C   UNL     1      14.076 -38.869 -25.840  1.00  0.00     0.012 A 
ATOM     35  C   UNL     1      14.695 -38.787 -23.115  1.00  0.00     0.001 A 
ATOM     36  C   UNL     1      15.064 -37.998 -25.371  1.00  0.00     0.001 A 
ATOM     37  C   UNL     1      15.374 -37.959 -24.009  1.00  0.00     0.000 A 
ENDBRANCH  25  32
ENDBRANCH   1  17
TORSDOF 9
ENDMDL
MODEL 8
REMARK VINA RESULT:    -3.728     10.122     13.042
REMARK INTER + INTRA:          -6.345
REMARK INTER:                  -5.373
REMARK INTRA:                  -0.972
REMARK UNBOUND:                -1.200
REMARK SMILES O=C([O-])[C@H]1O[C@H](Oc2cc3oc(-c4ccccc4)cc(=O)c3c(O)c2O)[C@@H](O)[C@H](O)[C@H]1O
REMARK SMILES IDX 7 1 6 2 4 3 31 4 5 5 29 6 27 7 2 8 1 9 3 10 32 11 30 13
REMARK SMILES IDX 28 15 8 17 25 18 9 19 23 20 10 21 22 22 11 23 20 24 12 25
REMARK SMILES IDX 19 26 21 27 26 28 24 30 13 32 14 33 18 34 15 35 17 36 16 37
REMARK H PARENT 32 12 30 14 28 16 26 29 24 31
REMARK Flexibility Score: inf
ROOT
ATOM      1  O   UNL     1      15.328 -49.381 -13.428  1.00  0.00    -0.458 OA
ENDROOT
BRANCH   1   2
ATOM      2  C   UNL     1      16.103 -49.519 -14.625  1.00  0.00     0.339 C 
ATOM      3  C   UNL     1      17.697 -47.948 -13.927  1.00  0.00     0.199 C 
ATOM      4  C   UNL     1      18.860 -48.964 -13.863  1.00  0.00     0.180 C 
ATOM      5  O   UNL     1      16.768 -48.306 -14.936  1.00  0.00    -0.328 OA
ATOM      6  C   UNL     1      18.320 -50.394 -13.635  1.00  0.00     0.181 C 
ATOM      7  C   UNL     1      17.092 -50.711 -14.523  1.00  0.00     0.214 C 
BRANCH   3   8
ATOM      8  C   UNL     1      18.219 -46.567 -14.203  1.00  0.00     0.073 C 
ATOM      9  O   UNL     1      18.076 -46.045 -15.340  1.00  0.00    -0.547 OA
ATOM     10  O   UNL     1      18.908 -45.876 -13.214  1.00  0.00    -0.547 OA
ENDBRANCH   3   8
BRANCH   4  11
ATOM     11  O   UNL     1      19.600 -48.938 -15.058  1.00  0.00    -0.387 OA
ATOM     12  H   UNL     1      20.353 -48.303 -14.925  1.00  0.00     0.211 HD
ENDBRANCH   4  11
BRANCH   6  13
ATOM     13  O   UNL     1      18.036 -50.622 -12.276  1.00  0.00    -0.387 OA
ATOM     14  H   UNL     1      17.095 -50.366 -12.106  1.00  0.00     0.211 HD
ENDBRANCH   6  13
BRANCH   7  15
ATOM     15  O   UNL     1      17.502 -51.125 -15.803  1.00  0.00    -0.384 OA
ATOM     16  H   UNL     1      18.283 -50.576 -16.069  1.00  0.00     0.211 HD
ENDBRANCH   7  15
ENDBRANCH   1   2
BRANCH   1  17
ATOM     17  C   UNL     1      13.965 -49.693 -13.366  1.00  0.00     0.172 A 
ATOM     18  C   UNL     1      13.382 -50.157 -12.174  1.00  0.00     0.201 A 
ATOM     19  C   UNL     1      13.195 -49.565 -14.520  1.00  0.00     0.098 A 
ATOM     20  C   UNL     1      11.991 -50.434 -12.130  1.00  0.00     0.176 A 
ATOM     21  C   UNL     1      11.832 -49.852 -14.501  1.00  0.00     0.146 A 
ATOM     22  C   UNL     1      11.213 -50.290 -13.307  1.00  0.00     0.111 A 
ATOM     23  O   UNL     1      11.126 -49.701 -15.616  1.00  0.00    -0.456 OA
ATOM     24  C   UNL     1       9.829 -50.565 -13.358  1.00  0.00     0.197 A 
ATOM     25  C   UNL     1       9.818 -49.940 -15.693  1.00  0.00     0.138 A 
ATOM     26  C   UNL     1       9.134 -50.392 -14.553  1.00  0.00     0.100 A 
ATOM     27  O   UNL     1       9.201 -50.972 -12.342  1.00  0.00    -0.289 OA
BRANCH  18  28
ATOM     28  O   UNL     1      14.216 -50.360 -11.071  1.00  0.00    -0.502 OA
ATOM     29  H   UNL     1      13.912 -50.321 -10.110  1.00  0.00     0.293 HD
ENDBRANCH  18  28
BRANCH  20  30
ATOM     30  O   UNL     1      11.368 -50.844 -10.946  1.00  0.00    -0.504 OA
ATOM     31  H   UNL     1      11.829 -51.341 -10.200  1.00  0.00     0.293 HD
ENDBRANCH  20  30
BRANCH  25  32
ATOM     32  C   UNL     1       9.129 -49.728 -16.990  1.00  0.00     0.017 A 
ATOM     33  C   UNL     1       9.132 -50.755 -17.952  1.00  0.00     0.012 A 
ATOM     34  C   UNL     1       8.500 -48.506 -17.305  1.00  0.00     0.012 A 
ATOM     35  C   UNL     1       8.504 -50.573 -19.188  1.00  0.00     0.001 A 
ATOM     36  C   UNL     1       7.875 -48.329 -18.543  1.00  0.00     0.001 A 
ATOM     37  C   UNL     1       7.875 -49.363 -19.483  1.00  0.00     0.000 A 
ENDBRANCH  25  32
ENDBRANCH   1  17
TORSDOF 9
ENDMDL
MODEL 9
REMARK VINA RESULT:    -3.670      3.559      8.712
REMARK INTER + INTRA:          -6.264
REMARK INTER:                  -5.320
REMARK INTRA:                  -0.944
REMARK UNBOUND:                -1.200
REMARK SMILES O=C([O-])[C@H]1O[C@H](Oc2cc3oc(-c4ccccc4)cc(=O)c3c(O)c2O)[C@@H](O)[C@H](O)[C@H]1O
REMARK SMILES IDX 7 1 6 2 4 3 31 4 5 5 29 6 27 7 2 8 1 9 3 10 32 11 30 13
REMARK SMILES IDX 28 15 8 17 25 18 9 19 23 20 10 21 22 22 11 23 20 24 12 25
REMARK SMILES IDX 19 26 21 27 26 28 24 30 13 32 14 33 18 34 15 35 17 36 16 37
REMARK H PARENT 32 12 30 14 28 16 26 29 24 31
REMARK Flexibility Score: inf
ROOT
ATOM      1  O   UNL     1      12.830 -43.282 -26.040  1.00  0.00    -0.458 OA
ENDROOT
BRANCH   1   2
ATOM      2  C   UNL     1      12.083 -43.567 -27.229  1.00  0.00     0.339 C 
ATOM      3  C   UNL     1      12.526 -45.866 -27.110  1.00  0.00     0.199 C 
ATOM      4  C   UNL     1      11.050 -46.271 -26.897  1.00  0.00     0.180 C 
ATOM      5  O   UNL     1      12.620 -44.694 -27.902  1.00  0.00    -0.328 OA
ATOM      6  C   UNL     1      10.255 -45.109 -26.261  1.00  0.00     0.181 C 
ATOM      7  C   UNL     1      10.574 -43.744 -26.918  1.00  0.00     0.214 C 
BRANCH   3   8
ATOM      8  C   UNL     1      13.284 -46.977 -27.779  1.00  0.00     0.073 C 
ATOM      9  O   UNL     1      14.485 -46.813 -28.125  1.00  0.00    -0.547 OA
ATOM     10  O   UNL     1      12.648 -48.178 -28.063  1.00  0.00    -0.547 OA
ENDBRANCH   3   8
BRANCH   4  11
ATOM     11  O   UNL     1      10.454 -46.617 -28.123  1.00  0.00    -0.387 OA
ATOM     12  H   UNL     1      10.552 -47.600 -28.231  1.00  0.00     0.211 HD
ENDBRANCH   4  11
BRANCH   6  13
ATOM     13  O   UNL     1      10.450 -45.059 -24.868  1.00  0.00    -0.387 OA
ATOM     14  H   UNL     1       9.720 -44.522 -24.469  1.00  0.00     0.211 HD
ENDBRANCH   6  13
BRANCH   7  15
ATOM     15  O   UNL     1       9.804 -43.565 -28.082  1.00  0.00    -0.384 OA
ATOM     16  H   UNL     1       8.849 -43.663 -27.837  1.00  0.00     0.211 HD
ENDBRANCH   7  15
ENDBRANCH   1   2
BRANCH   1  17
ATOM     17  C   UNL     1      13.123 -41.979 -25.621  1.00  0.00     0.172 A 
ATOM     18  C   UNL     1      14.090 -41.738 -24.630  1.00  0.00     0.201 A 
ATOM     19  C   UNL     1      12.412 -40.920 -26.181  1.00  0.00     0.098 A 
ATOM     20  C   UNL     1      14.389 -40.404 -24.247  1.00  0.00     0.176 A 
ATOM     21  C   UNL     1      12.678 -39.606 -25.802  1.00  0.00     0.146 A 
ATOM     22  C   UNL     1      13.670 -39.332 -24.832  1.00  0.00     0.111 A 
ATOM     23  O   UNL     1      11.993 -38.619 -26.372  1.00  0.00    -0.456 OA
ATOM     24  C   UNL     1      13.888 -37.978 -24.493  1.00  0.00     0.197 A 
ATOM     25  C   UNL     1      12.185 -37.334 -26.083  1.00  0.00     0.138 A 
ATOM     26  C   UNL     1      13.141 -36.980 -25.118  1.00  0.00     0.100 A 
ATOM     27  O   UNL     1      14.743 -37.646 -23.627  1.00  0.00    -0.289 OA
BRANCH  18  28
ATOM     28  O   UNL     1      14.705 -42.840 -24.030  1.00  0.00    -0.502 OA
ATOM     29  H   UNL     1      14.336 -43.779 -24.046  1.00  0.00     0.293 HD
ENDBRANCH  18  28
BRANCH  20  30
ATOM     30  O   UNL     1      15.385 -40.124 -23.305  1.00  0.00    -0.504 OA
ATOM     31  H   UNL     1      15.255 -39.542 -22.492  1.00  0.00     0.293 HD
ENDBRANCH  20  30
BRANCH  25  32
ATOM     32  C   UNL     1      11.368 -36.315 -26.788  1.00  0.00     0.017 A 
ATOM     33  C   UNL     1      11.794 -34.973 -26.801  1.00  0.00     0.012 A 
ATOM     34  C   UNL     1      10.150 -36.645 -27.417  1.00  0.00     0.012 A 
ATOM     35  C   UNL     1      11.033 -33.993 -27.444  1.00  0.00     0.001 A 
ATOM     36  C   UNL     1       9.392 -35.660 -28.056  1.00  0.00     0.001 A 
ATOM     37  C   UNL     1       9.835 -34.335 -28.072  1.00  0.00     0.000 A 
ENDBRANCH  25  32
ENDBRANCH   1  17
TORSDOF 9
ENDMDL
