MODEL 1
REMARK VINA RESULT:    -4.212      0.000      0.000
REMARK INTER + INTRA:          -4.335
REMARK INTER:                  -4.335
REMARK INTRA:                   0.000
REMARK UNBOUND:                 0.000
REMARK SMILES Cc1ccccc1O
REMARK SMILES IDX 1 1 2 2 3 3 4 4 5 5 6 6 7 7 8 8
REMARK H PARENT 8 9
REMARK Flexibility Score: inf
ROOT
ATOM      1  C   UNL     1     145.998 126.875 118.023  1.00  0.00     0.048 C 
ATOM      2  C   UNL     1     145.819 127.600 116.720  1.00  0.00    -0.009 A 
ATOM      3  C   UNL     1     145.617 126.878 115.530  1.00  0.00     0.007 A 
ATOM      4  C   UNL     1     145.450 127.553 114.316  1.00  0.00     0.001 A 
ATOM      5  C   UNL     1     145.484 128.948 114.279  1.00  0.00     0.004 A 
ATOM      6  C   UNL     1     145.683 129.674 115.457  1.00  0.00     0.046 A 
ATOM      7  C   UNL     1     145.852 129.007 116.678  1.00  0.00     0.118 A 
ENDROOT
BRANCH   7   8
ATOM      8  O   UNL     1     146.052 129.735 117.852  1.00  0.00    -0.508 OA
ATOM      9  H   UNL     1     145.996 130.747 117.864  1.00  0.00     0.293 HD
ENDBRANCH   7   8
TORSDOF 1
ENDMDL
MODEL 2
REMARK VINA RESULT:    -4.066      0.594      2.446
REMARK INTER + INTRA:          -4.185
REMARK INTER:                  -4.185
REMARK INTRA:                   0.000
REMARK UNBOUND:                 0.000
REMARK SMILES Cc1ccccc1O
REMARK SMILES IDX 1 1 2 2 3 3 4 4 5 5 6 6 7 7 8 8
REMARK H PARENT 8 9
REMARK Flexibility Score: inf
ROOT
ATOM      1  C   UNL     1     145.730 131.236 115.779  1.00  0.00     0.048 C 
ATOM      2  C   UNL     1     145.708 129.737 115.690  1.00  0.00    -0.009 A 
ATOM      3  C   UNL     1     145.542 129.103 114.445  1.00  0.00     0.007 A 
ATOM      4  C   UNL     1     145.522 127.708 114.362  1.00  0.00     0.001 A 
ATOM      5  C   UNL     1     145.667 126.935 115.516  1.00  0.00     0.004 A 
ATOM      6  C   UNL     1     145.834 127.555 116.757  1.00  0.00     0.046 A 
ATOM      7  C   UNL     1     145.855 128.954 116.851  1.00  0.00     0.118 A 
ENDROOT
BRANCH   7   8
ATOM      8  O   UNL     1     146.021 129.570 118.092  1.00  0.00    -0.508 OA
ATOM      9  H   UNL     1     145.416 130.325 118.394  1.00  0.00     0.293 HD
ENDBRANCH   7   8
TORSDOF 1
ENDMDL
MODEL 3
REMARK VINA RESULT:    -3.634      2.455      3.298
REMARK INTER + INTRA:          -3.741
REMARK INTER:                  -3.741
REMARK INTRA:                   0.000
REMARK UNBOUND:                 0.000
REMARK SMILES Cc1ccccc1O
REMARK SMILES IDX 1 1 2 2 3 3 4 4 5 5 6 6 7 7 8 8
REMARK H PARENT 8 9
REMARK Flexibility Score: inf
ROOT
ATOM      1  C   UNL     1     141.922 127.573 115.142  1.00  0.00     0.048 C 
ATOM      2  C   UNL     1     143.321 127.413 115.664  1.00  0.00    -0.009 A 
ATOM      3  C   UNL     1     144.421 127.555 114.798  1.00  0.00     0.007 A 
ATOM      4  C   UNL     1     145.723 127.406 115.284  1.00  0.00     0.001 A 
ATOM      5  C   UNL     1     145.940 127.115 116.632  1.00  0.00     0.004 A 
ATOM      6  C   UNL     1     144.854 126.974 117.500  1.00  0.00     0.046 A 
ATOM      7  C   UNL     1     143.544 127.120 117.023  1.00  0.00     0.118 A 
ENDROOT
BRANCH   7   8
ATOM      8  O   UNL     1     142.462 126.977 117.893  1.00  0.00    -0.508 OA
ATOM      9  H   UNL     1     141.507 126.962 117.553  1.00  0.00     0.293 HD
ENDBRANCH   7   8
TORSDOF 1
ENDMDL
MODEL 4
REMARK VINA RESULT:    -3.589      1.898      2.247
REMARK INTER + INTRA:          -3.694
REMARK INTER:                  -3.694
REMARK INTRA:                   0.000
REMARK UNBOUND:                 0.000
REMARK SMILES Cc1ccccc1O
REMARK SMILES IDX 1 1 2 2 3 3 4 4 5 5 6 6 7 7 8 8
REMARK H PARENT 8 9
REMARK Flexibility Score: inf
ROOT
ATOM      1  C   UNL     1     143.573 127.143 118.692  1.00  0.00     0.048 C 
ATOM      2  C   UNL     1     144.115 127.253 117.295  1.00  0.00    -0.009 A 
ATOM      3  C   UNL     1     143.248 127.495 116.215  1.00  0.00     0.007 A 
ATOM      4  C   UNL     1     143.752 127.597 114.915  1.00  0.00     0.001 A 
ATOM      5  C   UNL     1     145.122 127.459 114.682  1.00  0.00     0.004 A 
ATOM      6  C   UNL     1     145.992 127.220 115.749  1.00  0.00     0.046 A 
ATOM      7  C   UNL     1     145.496 127.115 117.056  1.00  0.00     0.118 A 
ENDROOT
BRANCH   7   8
ATOM      8  O   UNL     1     146.368 126.875 118.119  1.00  0.00    -0.508 OA
ATOM      9  H   UNL     1     146.567 125.934 118.439  1.00  0.00     0.293 HD
ENDBRANCH   7   8
TORSDOF 1
ENDMDL
MODEL 5
REMARK VINA RESULT:    -3.395      2.608      3.037
REMARK INTER + INTRA:          -3.494
REMARK INTER:                  -3.494
REMARK INTRA:                   0.000
REMARK UNBOUND:                 0.000
REMARK SMILES Cc1ccccc1O
REMARK SMILES IDX 1 1 2 2 3 3 4 4 5 5 6 6 7 7 8 8
REMARK H PARENT 8 9
REMARK Flexibility Score: inf
ROOT
ATOM      1  C   UNL     1     141.864 127.225 115.317  1.00  0.00     0.048 C 
ATOM      2  C   UNL     1     143.184 127.898 115.070  1.00  0.00    -0.009 A 
ATOM      3  C   UNL     1     144.371 127.144 115.046  1.00  0.00     0.007 A 
ATOM      4  C   UNL     1     145.599 127.770 114.815  1.00  0.00     0.001 A 
ATOM      5  C   UNL     1     145.654 129.150 114.607  1.00  0.00     0.004 A 
ATOM      6  C   UNL     1     144.481 129.908 114.628  1.00  0.00     0.046 A 
ATOM      7  C   UNL     1     143.244 129.289 114.859  1.00  0.00     0.118 A 
ENDROOT
BRANCH   7   8
ATOM      8  O   UNL     1     142.074 130.050 114.880  1.00  0.00    -0.508 OA
ATOM      9  H   UNL     1     141.833 130.673 114.118  1.00  0.00     0.293 HD
ENDBRANCH   7   8
TORSDOF 1
ENDMDL
MODEL 6
REMARK VINA RESULT:    -3.392      2.651      2.979
REMARK INTER + INTRA:          -3.492
REMARK INTER:                  -3.492
REMARK INTRA:                   0.000
REMARK UNBOUND:                 0.000
REMARK SMILES Cc1ccccc1O
REMARK SMILES IDX 1 1 2 2 3 3 4 4 5 5 6 6 7 7 8 8
REMARK H PARENT 8 9
REMARK Flexibility Score: inf
ROOT
ATOM      1  C   UNL     1     143.377 126.878 118.863  1.00  0.00     0.048 C 
ATOM      2  C   UNL     1     143.842 127.155 117.462  1.00  0.00    -0.009 A 
ATOM      3  C   UNL     1     145.212 127.314 117.188  1.00  0.00     0.007 A 
ATOM      4  C   UNL     1     145.645 127.571 115.883  1.00  0.00     0.001 A 
ATOM      5  C   UNL     1     144.718 127.672 114.844  1.00  0.00     0.004 A 
ATOM      6  C   UNL     1     143.354 127.515 115.106  1.00  0.00     0.046 A 
ATOM      7  C   UNL     1     142.910 127.257 116.411  1.00  0.00     0.118 A 
ENDROOT
BRANCH   7   8
ATOM      8  O   UNL     1     141.547 127.101 116.668  1.00  0.00    -0.508 OA
ATOM      9  H   UNL     1     140.905 126.785 115.951  1.00  0.00     0.293 HD
ENDBRANCH   7   8
TORSDOF 1
ENDMDL
MODEL 7
REMARK VINA RESULT:    -3.367      1.352      2.517
REMARK INTER + INTRA:          -3.466
REMARK INTER:                  -3.466
REMARK INTRA:                   0.000
REMARK UNBOUND:                 0.000
REMARK SMILES Cc1ccccc1O
REMARK SMILES IDX 1 1 2 2 3 3 4 4 5 5 6 6 7 7 8 8
REMARK H PARENT 8 9
REMARK Flexibility Score: inf
ROOT
ATOM      1  C   UNL     1     145.872 126.875 114.612  1.00  0.00     0.048 C 
ATOM      2  C   UNL     1     145.637 128.169 115.337  1.00  0.00    -0.009 A 
ATOM      3  C   UNL     1     145.193 129.304 114.636  1.00  0.00     0.007 A 
ATOM      4  C   UNL     1     144.973 130.509 115.311  1.00  0.00     0.001 A 
ATOM      5  C   UNL     1     145.194 130.591 116.687  1.00  0.00     0.004 A 
ATOM      6  C   UNL     1     145.633 129.468 117.393  1.00  0.00     0.046 A 
ATOM      7  C   UNL     1     145.857 128.256 116.725  1.00  0.00     0.118 A 
ENDROOT
BRANCH   7   8
ATOM      8  O   UNL     1     146.297 127.137 117.434  1.00  0.00    -0.508 OA
ATOM      9  H   UNL     1     146.575 126.285 116.960  1.00  0.00     0.293 HD
ENDBRANCH   7   8
TORSDOF 1
ENDMDL
MODEL 8
REMARK VINA RESULT:    -3.355      2.157      3.469
REMARK INTER + INTRA:          -3.453
REMARK INTER:                  -3.453
REMARK INTRA:                   0.000
REMARK UNBOUND:                 0.000
REMARK SMILES Cc1ccccc1O
REMARK SMILES IDX 1 1 2 2 3 3 4 4 5 5 6 6 7 7 8 8
REMARK H PARENT 8 9
REMARK Flexibility Score: inf
ROOT
ATOM      1  C   UNL     1     145.503 127.722 114.247  1.00  0.00     0.048 C 
ATOM      2  C   UNL     1     145.057 127.485 115.661  1.00  0.00    -0.009 A 
ATOM      3  C   UNL     1     145.987 127.099 116.642  1.00  0.00     0.007 A 
ATOM      4  C   UNL     1     145.572 126.879 117.960  1.00  0.00     0.001 A 
ATOM      5  C   UNL     1     144.230 127.040 118.308  1.00  0.00     0.004 A 
ATOM      6  C   UNL     1     143.298 127.425 117.340  1.00  0.00     0.046 A 
ATOM      7  C   UNL     1     143.704 127.648 116.017  1.00  0.00     0.118 A 
ENDROOT
BRANCH   7   8
ATOM      8  O   UNL     1     142.770 128.030 115.053  1.00  0.00    -0.508 OA
ATOM      9  H   UNL     1     141.823 127.667 115.059  1.00  0.00     0.293 HD
ENDBRANCH   7   8
TORSDOF 1
ENDMDL
MODEL 9
REMARK VINA RESULT:    -3.294     17.622     18.049
REMARK INTER + INTRA:          -3.390
REMARK INTER:                  -3.390
REMARK INTRA:                   0.000
REMARK UNBOUND:                 0.000
REMARK SMILES Cc1ccccc1O
REMARK SMILES IDX 1 1 2 2 3 3 4 4 5 5 6 6 7 7 8 8
REMARK H PARENT 8 9
REMARK Flexibility Score: inf
ROOT
ATOM      1  C   UNL     1     127.402 134.499 115.925  1.00  0.00     0.048 C 
ATOM      2  C   UNL     1     128.056 133.194 115.575  1.00  0.00    -0.009 A 
ATOM      3  C   UNL     1     128.766 133.058 114.368  1.00  0.00     0.007 A 
ATOM      4  C   UNL     1     129.376 131.842 114.042  1.00  0.00     0.001 A 
ATOM      5  C   UNL     1     129.282 130.755 114.913  1.00  0.00     0.004 A 
ATOM      6  C   UNL     1     128.580 130.881 116.115  1.00  0.00     0.046 A 
ATOM      7  C   UNL     1     127.965 132.095 116.451  1.00  0.00     0.118 A 
ENDROOT
BRANCH   7   8
ATOM      8  O   UNL     1     127.263 132.216 117.651  1.00  0.00    -0.508 OA
ATOM      9  H   UNL     1     126.379 131.742 117.799  1.00  0.00     0.293 HD
ENDBRANCH   7   8
TORSDOF 1
ENDMDL
