MODEL 1
REMARK VINA RESULT:    -7.229      0.000      0.000
REMARK INTER + INTRA:         -10.444
REMARK INTER:                  -9.553
REMARK INTRA:                  -0.890
REMARK UNBOUND:                -0.890
REMARK SMILES CC[C@H](C=C[C@H](C)[C@@H]1CC[C@@H]2[C@H]3CC=C4C[C@H](O)CC[C@]4(C)[C@H]3CC[C@@]21C)C(C)C
REMARK SMILES IDX 6 1 7 2 5 3 4 4 3 5 2 6 1 7 28 8 29 9 30 10 8 11 9 12 26 13
REMARK SMILES IDX 10 14 11 15 25 16 27 17 12 18 24 19 23 20 13 21 21 22 14 23
REMARK SMILES IDX 15 24 20 25 22 26 16 27 19 28 17 29 18 30
REMARK H PARENT 18 31
REMARK Flexibility Score: inf
ROOT
ATOM      1  C   UNL     1     166.262 177.846 185.551  1.00  0.00     0.012 C 
ATOM      2  C   UNL     1     165.864 176.842 184.461  1.00  0.00     0.012 C 
ENDROOT
BRANCH   1   3
ATOM      3  C   UNL     1     164.984 178.293 186.239  1.00  0.00    -0.028 C 
ATOM      4  C   UNL     1     163.754 178.061 185.726  1.00  0.00    -0.027 C 
BRANCH   4   5
ATOM      5  C   UNL     1     162.475 178.265 186.518  1.00  0.00     0.014 C 
BRANCH   5   6
ATOM      6  C   UNL     1     161.209 177.918 185.690  1.00  0.00     0.004 C 
ATOM      7  C   UNL     1     161.489 176.983 184.507  1.00  0.00     0.004 C 
ENDBRANCH   5   6
BRANCH   5   8
ATOM      8  C   UNL     1     162.535 177.515 187.889  1.00  0.00    -0.011 C 
ATOM      9  C   UNL     1     161.201 177.665 188.650  1.00  0.00     0.008 C 
ATOM     10  C   UNL     1     162.841 176.009 187.707  1.00  0.00     0.008 C 
ENDBRANCH   5   8
ENDBRANCH   4   5
ENDBRANCH   1   3
BRANCH   1  11
ATOM     11  C   UNL     1     167.304 177.275 186.587  1.00  0.00     0.002 C 
ATOM     12  C   UNL     1     167.477 178.205 187.804  1.00  0.00     0.005 C 
ATOM     13  C   UNL     1     168.767 176.991 186.095  1.00  0.00    -0.026 C 
ATOM     14  C   UNL     1     168.876 177.983 188.362  1.00  0.00     0.005 C 
ATOM     15  C   UNL     1     169.575 176.987 187.427  1.00  0.00    -0.001 C 
ATOM     16  C   UNL     1     169.271 178.122 185.152  1.00  0.00     0.007 C 
ATOM     17  C   UNL     1     168.873 175.587 185.416  1.00  0.00     0.012 C 
ATOM     18  C   UNL     1     171.109 177.239 187.334  1.00  0.00     0.000 C 
ATOM     19  C   UNL     1     170.791 178.165 184.976  1.00  0.00     0.005 C 
ATOM     20  C   UNL     1     171.532 178.342 186.329  1.00  0.00     0.003 C 
ATOM     21  C   UNL     1     171.904 175.960 187.058  1.00  0.00     0.031 C 
ATOM     22  C   UNL     1     173.133 178.490 186.224  1.00  0.00    -0.008 C 
ATOM     23  C   UNL     1     173.347 176.230 187.334  1.00  0.00    -0.027 C 
ATOM     24  C   UNL     1     173.898 177.427 187.051  1.00  0.00    -0.065 C 
ATOM     25  C   UNL     1     173.514 179.918 186.750  1.00  0.00     0.014 C 
ATOM     26  C   UNL     1     173.658 178.345 184.764  1.00  0.00     0.016 C 
ATOM     27  C   UNL     1     175.351 177.664 187.426  1.00  0.00     0.063 C 
ATOM     28  C   UNL     1     175.019 180.125 187.009  1.00  0.00     0.033 C 
ATOM     29  C   UNL     1     175.558 179.078 187.982  1.00  0.00     0.118 C 
BRANCH  29  30
ATOM     30  O   UNL     1     174.906 179.204 189.224  1.00  0.00    -0.393 OA
ATOM     31  H   UNL     1     175.288 180.012 189.663  1.00  0.00     0.210 HD
ENDBRANCH  29  30
ENDBRANCH   1  11
TORSDOF 6
ENDMDL
MODEL 2
REMARK VINA RESULT:    -6.793      6.240     10.708
REMARK INTER + INTRA:          -9.868
REMARK INTER:                  -8.775
REMARK INTRA:                  -1.092
REMARK UNBOUND:                -0.890
REMARK SMILES CC[C@H](C=C[C@H](C)[C@@H]1CC[C@@H]2[C@H]3CC=C4C[C@H](O)CC[C@]4(C)[C@H]3CC[C@@]21C)C(C)C
REMARK SMILES IDX 6 1 7 2 5 3 4 4 3 5 2 6 1 7 28 8 29 9 30 10 8 11 9 12 26 13
REMARK SMILES IDX 10 14 11 15 25 16 27 17 12 18 24 19 23 20 13 21 21 22 14 23
REMARK SMILES IDX 15 24 20 25 22 26 16 27 19 28 17 29 18 30
REMARK H PARENT 18 31
REMARK Flexibility Score: inf
ROOT
ATOM      1  C   UNL     1     161.357 175.827 178.257  1.00  0.00     0.012 C 
ATOM      2  C   UNL     1     160.183 175.125 177.563  1.00  0.00     0.012 C 
ENDROOT
BRANCH   1   3
ATOM      3  C   UNL     1     162.075 176.650 177.203  1.00  0.00    -0.028 C 
ATOM      4  C   UNL     1     161.881 176.476 175.875  1.00  0.00    -0.027 C 
BRANCH   4   5
ATOM      5  C   UNL     1     162.384 177.454 174.830  1.00  0.00     0.014 C 
BRANCH   5   6
ATOM      6  C   UNL     1     163.380 176.794 173.838  1.00  0.00     0.004 C 
ATOM      7  C   UNL     1     164.602 176.170 174.524  1.00  0.00     0.004 C 
ENDBRANCH   5   6
BRANCH   5   8
ATOM      8  C   UNL     1     161.197 178.176 174.114  1.00  0.00    -0.011 C 
ATOM      9  C   UNL     1     161.585 178.563 172.671  1.00  0.00     0.008 C 
ATOM     10  C   UNL     1     159.928 177.292 174.071  1.00  0.00     0.008 C 
ENDBRANCH   5   8
ENDBRANCH   4   5
ENDBRANCH   1   3
BRANCH   1  11
ATOM     11  C   UNL     1     160.926 176.715 179.486  1.00  0.00     0.002 C 
ATOM     12  C   UNL     1     161.601 178.101 179.462  1.00  0.00     0.005 C 
ATOM     13  C   UNL     1     161.194 176.169 180.933  1.00  0.00    -0.026 C 
ATOM     14  C   UNL     1     161.697 178.594 180.900  1.00  0.00     0.005 C 
ATOM     15  C   UNL     1     161.163 177.468 181.793  1.00  0.00    -0.001 C 
ATOM     16  C   UNL     1     162.590 175.485 181.024  1.00  0.00     0.007 C 
ATOM     17  C   UNL     1     160.052 175.209 181.396  1.00  0.00     0.012 C 
ATOM     18  C   UNL     1     161.873 177.425 183.179  1.00  0.00     0.000 C 
ATOM     19  C   UNL     1     163.117 175.316 182.451  1.00  0.00     0.005 C 
ATOM     20  C   UNL     1     163.230 176.673 183.196  1.00  0.00     0.003 C 
ATOM     21  C   UNL     1     160.971 176.881 184.290  1.00  0.00     0.031 C 
ATOM     22  C   UNL     1     163.866 176.597 184.676  1.00  0.00    -0.008 C 
ATOM     23  C   UNL     1     161.596 177.203 185.608  1.00  0.00    -0.027 C 
ATOM     24  C   UNL     1     162.935 177.178 185.768  1.00  0.00    -0.065 C 
ATOM     25  C   UNL     1     165.206 177.412 184.660  1.00  0.00     0.014 C 
ATOM     26  C   UNL     1     164.180 175.138 185.122  1.00  0.00     0.016 C 
ATOM     27  C   UNL     1     163.512 177.589 187.112  1.00  0.00     0.063 C 
ATOM     28  C   UNL     1     165.794 177.704 186.054  1.00  0.00     0.033 C 
ATOM     29  C   UNL     1     164.782 178.431 186.937  1.00  0.00     0.118 C 
BRANCH  29  30
ATOM     30  O   UNL     1     164.456 179.674 186.360  1.00  0.00    -0.393 OA
ATOM     31  H   UNL     1     164.627 179.585 185.383  1.00  0.00     0.210 HD
ENDBRANCH  29  30
ENDBRANCH   1  11
TORSDOF 6
ENDMDL
MODEL 3
REMARK VINA RESULT:    -6.766      2.759      9.500
REMARK INTER + INTRA:          -9.832
REMARK INTER:                  -9.063
REMARK INTRA:                  -0.770
REMARK UNBOUND:                -0.890
REMARK SMILES CC[C@H](C=C[C@H](C)[C@@H]1CC[C@@H]2[C@H]3CC=C4C[C@H](O)CC[C@]4(C)[C@H]3CC[C@@]21C)C(C)C
REMARK SMILES IDX 6 1 7 2 5 3 4 4 3 5 2 6 1 7 28 8 29 9 30 10 8 11 9 12 26 13
REMARK SMILES IDX 10 14 11 15 25 16 27 17 12 18 24 19 23 20 13 21 21 22 14 23
REMARK SMILES IDX 15 24 20 25 22 26 16 27 19 28 17 29 18 30
REMARK H PARENT 18 31
REMARK Flexibility Score: inf
ROOT
ATOM      1  C   UNL     1     170.697 175.921 186.905  1.00  0.00     0.012 C 
ATOM      2  C   UNL     1     171.068 175.439 185.496  1.00  0.00     0.012 C 
ENDROOT
BRANCH   1   3
ATOM      3  C   UNL     1     171.984 176.356 187.584  1.00  0.00    -0.028 C 
ATOM      4  C   UNL     1     172.901 177.149 186.983  1.00  0.00    -0.027 C 
BRANCH   4   5
ATOM      5  C   UNL     1     174.049 177.800 187.731  1.00  0.00     0.014 C 
BRANCH   5   6
ATOM      6  C   UNL     1     175.429 177.444 187.115  1.00  0.00     0.004 C 
ATOM      7  C   UNL     1     175.565 175.964 186.736  1.00  0.00     0.004 C 
ENDBRANCH   5   6
BRANCH   5   8
ATOM      8  C   UNL     1     173.826 179.340 187.880  1.00  0.00    -0.011 C 
ATOM      9  C   UNL     1     174.947 180.125 187.167  1.00  0.00     0.008 C 
ATOM     10  C   UNL     1     172.460 179.782 187.301  1.00  0.00     0.008 C 
ENDBRANCH   5   8
ENDBRANCH   4   5
ENDBRANCH   1   3
BRANCH   1  11
ATOM     11  C   UNL     1     169.622 177.073 186.917  1.00  0.00     0.002 C 
ATOM     12  C   UNL     1     169.166 177.423 188.348  1.00  0.00     0.005 C 
ATOM     13  C   UNL     1     168.288 176.858 186.119  1.00  0.00    -0.026 C 
ATOM     14  C   UNL     1     167.752 177.981 188.260  1.00  0.00     0.005 C 
ATOM     15  C   UNL     1     167.325 177.882 186.790  1.00  0.00    -0.001 C 
ATOM     16  C   UNL     1     167.755 175.406 186.298  1.00  0.00     0.007 C 
ATOM     17  C   UNL     1     168.467 177.222 184.610  1.00  0.00     0.012 C 
ATOM     18  C   UNL     1     165.796 177.635 186.634  1.00  0.00     0.000 C 
ATOM     19  C   UNL     1     166.279 175.227 185.934  1.00  0.00     0.005 C 
ATOM     20  C   UNL     1     165.354 176.154 186.768  1.00  0.00     0.003 C 
ATOM     21  C   UNL     1     165.229 178.223 185.339  1.00  0.00     0.031 C 
ATOM     22  C   UNL     1     163.774 175.962 186.514  1.00  0.00    -0.008 C 
ATOM     23  C   UNL     1     163.739 178.252 185.443  1.00  0.00    -0.027 C 
ATOM     24  C   UNL     1     163.067 177.268 186.074  1.00  0.00    -0.065 C 
ATOM     25  C   UNL     1     163.134 175.460 187.854  1.00  0.00     0.014 C 
ATOM     26  C   UNL     1     163.466 174.920 185.398  1.00  0.00     0.016 C 
ATOM     27  C   UNL     1     161.559 177.393 186.212  1.00  0.00     0.063 C 
ATOM     28  C   UNL     1     161.594 175.514 187.888  1.00  0.00     0.033 C 
ATOM     29  C   UNL     1     161.086 176.925 187.594  1.00  0.00     0.118 C 
BRANCH  29  30
ATOM     30  O   UNL     1     161.551 177.812 188.584  1.00  0.00    -0.393 OA
ATOM     31  H   UNL     1     160.752 178.301 188.922  1.00  0.00     0.210 HD
ENDBRANCH  29  30
ENDBRANCH   1  11
TORSDOF 6
ENDMDL
MODEL 4
REMARK VINA RESULT:    -6.688      4.577     10.521
REMARK INTER + INTRA:          -9.729
REMARK INTER:                  -8.896
REMARK INTRA:                  -0.833
REMARK UNBOUND:                -0.890
REMARK SMILES CC[C@H](C=C[C@H](C)[C@@H]1CC[C@@H]2[C@H]3CC=C4C[C@H](O)CC[C@]4(C)[C@H]3CC[C@@]21C)C(C)C
REMARK SMILES IDX 6 1 7 2 5 3 4 4 3 5 2 6 1 7 28 8 29 9 30 10 8 11 9 12 26 13
REMARK SMILES IDX 10 14 11 15 25 16 27 17 12 18 24 19 23 20 13 21 21 22 14 23
REMARK SMILES IDX 15 24 20 25 22 26 16 27 19 28 17 29 18 30
REMARK H PARENT 18 31
REMARK Flexibility Score: inf
ROOT
ATOM      1  C   UNL     1     165.055 177.955 186.281  1.00  0.00     0.012 C 
ATOM      2  C   UNL     1     164.381 179.071 187.089  1.00  0.00     0.012 C 
ENDROOT
BRANCH   1   3
ATOM      3  C   UNL     1     166.198 177.417 187.124  1.00  0.00    -0.028 C 
ATOM      4  C   UNL     1     167.467 177.876 187.021  1.00  0.00    -0.027 C 
BRANCH   4   5
ATOM      5  C   UNL     1     168.552 177.541 188.027  1.00  0.00     0.014 C 
BRANCH   5   6
ATOM      6  C   UNL     1     168.491 176.059 188.486  1.00  0.00     0.004 C 
ATOM      7  C   UNL     1     169.113 175.820 189.867  1.00  0.00     0.004 C 
ENDBRANCH   5   6
BRANCH   5   8
ATOM      8  C   UNL     1     169.962 177.960 187.498  1.00  0.00    -0.011 C 
ATOM      9  C   UNL     1     170.187 177.427 186.068  1.00  0.00     0.008 C 
ATOM     10  C   UNL     1     170.141 179.497 187.494  1.00  0.00     0.008 C 
ENDBRANCH   5   8
ENDBRANCH   4   5
ENDBRANCH   1   3
BRANCH   1  11
ATOM     11  C   UNL     1     164.070 176.805 185.847  1.00  0.00     0.002 C 
ATOM     12  C   UNL     1     164.823 175.562 185.332  1.00  0.00     0.005 C 
ATOM     13  C   UNL     1     163.007 177.112 184.733  1.00  0.00    -0.026 C 
ATOM     14  C   UNL     1     163.906 174.836 184.356  1.00  0.00     0.005 C 
ATOM     15  C   UNL     1     162.640 175.689 184.216  1.00  0.00    -0.001 C 
ATOM     16  C   UNL     1     163.626 177.968 183.589  1.00  0.00     0.007 C 
ATOM     17  C   UNL     1     161.736 177.793 185.337  1.00  0.00     0.012 C 
ATOM     18  C   UNL     1     162.009 175.585 182.796  1.00  0.00     0.000 C 
ATOM     19  C   UNL     1     162.824 177.951 182.285  1.00  0.00     0.005 C 
ATOM     20  C   UNL     1     162.645 176.513 181.727  1.00  0.00     0.003 C 
ATOM     21  C   UNL     1     160.491 175.778 182.805  1.00  0.00     0.031 C 
ATOM     22  C   UNL     1     161.892 176.413 180.306  1.00  0.00    -0.008 C 
ATOM     23  C   UNL     1     159.946 175.318 181.492  1.00  0.00    -0.027 C 
ATOM     24  C   UNL     1     160.633 175.512 180.348  1.00  0.00    -0.065 C 
ATOM     25  C   UNL     1     162.909 175.822 179.269  1.00  0.00     0.014 C 
ATOM     26  C   UNL     1     161.402 177.797 179.785  1.00  0.00     0.016 C 
ATOM     27  C   UNL     1     160.061 174.953 179.056  1.00  0.00     0.063 C 
ATOM     28  C   UNL     1     162.278 175.373 177.937  1.00  0.00     0.033 C 
ATOM     29  C   UNL     1     161.163 174.355 178.173  1.00  0.00     0.118 C 
BRANCH  29  30
ATOM     30  O   UNL     1     161.694 173.204 178.785  1.00  0.00    -0.393 OA
ATOM     31  H   UNL     1     162.646 173.146 178.502  1.00  0.00     0.210 HD
ENDBRANCH  29  30
ENDBRANCH   1  11
TORSDOF 6
ENDMDL
MODEL 5
REMARK VINA RESULT:    -6.568      8.041     12.080
REMARK INTER + INTRA:          -9.571
REMARK INTER:                  -8.486
REMARK INTRA:                  -1.085
REMARK UNBOUND:                -0.890
REMARK SMILES CC[C@H](C=C[C@H](C)[C@@H]1CC[C@@H]2[C@H]3CC=C4C[C@H](O)CC[C@]4(C)[C@H]3CC[C@@]21C)C(C)C
REMARK SMILES IDX 6 1 7 2 5 3 4 4 3 5 2 6 1 7 28 8 29 9 30 10 8 11 9 12 26 13
REMARK SMILES IDX 10 14 11 15 25 16 27 17 12 18 24 19 23 20 13 21 21 22 14 23
REMARK SMILES IDX 15 24 20 25 22 26 16 27 19 28 17 29 18 30
REMARK H PARENT 18 31
REMARK Flexibility Score: inf
ROOT
ATOM      1  C   UNL     1     160.918 174.902 182.836  1.00  0.00     0.012 C 
ATOM      2  C   UNL     1     161.547 173.617 183.389  1.00  0.00     0.012 C 
ENDROOT
BRANCH   1   3
ATOM      3  C   UNL     1     160.501 175.747 184.027  1.00  0.00    -0.028 C 
ATOM      4  C   UNL     1     161.264 175.882 185.136  1.00  0.00    -0.027 C 
BRANCH   4   5
ATOM      5  C   UNL     1     160.989 176.919 186.210  1.00  0.00     0.014 C 
BRANCH   5   6
ATOM      6  C   UNL     1     160.622 176.271 187.572  1.00  0.00     0.004 C 
ATOM      7  C   UNL     1     160.241 174.790 187.462  1.00  0.00     0.004 C 
ENDBRANCH   5   6
BRANCH   5   8
ATOM      8  C   UNL     1     162.161 177.947 186.316  1.00  0.00    -0.011 C 
ATOM      9  C   UNL     1     162.784 177.917 187.728  1.00  0.00     0.008 C 
ATOM     10  C   UNL     1     163.269 177.666 185.273  1.00  0.00     0.008 C 
ENDBRANCH   5   8
ENDBRANCH   4   5
ENDBRANCH   1   3
BRANCH   1  11
ATOM     11  C   UNL     1     161.866 175.704 181.865  1.00  0.00     0.002 C 
ATOM     12  C   UNL     1     161.392 177.157 181.665  1.00  0.00     0.005 C 
ATOM     13  C   UNL     1     162.083 175.154 180.411  1.00  0.00    -0.026 C 
ATOM     14  C   UNL     1     161.884 177.621 180.300  1.00  0.00     0.005 C 
ATOM     15  C   UNL     1     162.574 176.418 179.644  1.00  0.00    -0.001 C 
ATOM     16  C   UNL     1     160.748 174.630 179.805  1.00  0.00     0.007 C 
ATOM     17  C   UNL     1     163.198 174.060 180.381  1.00  0.00     0.012 C 
ATOM     18  C   UNL     1     162.419 176.420 178.094  1.00  0.00     0.000 C 
ATOM     19  C   UNL     1     160.762 174.485 178.281  1.00  0.00     0.005 C 
ATOM     20  C   UNL     1     161.085 175.827 177.569  1.00  0.00     0.003 C 
ATOM     21  C   UNL     1     163.595 175.749 177.380  1.00  0.00     0.031 C 
ATOM     22  C   UNL     1     161.028 175.784 175.959  1.00  0.00    -0.008 C 
ATOM     23  C   UNL     1     163.535 176.105 175.930  1.00  0.00    -0.027 C 
ATOM     24  C   UNL     1     162.353 176.227 175.292  1.00  0.00    -0.065 C 
ATOM     25  C   UNL     1     159.877 176.745 175.498  1.00  0.00     0.014 C 
ATOM     26  C   UNL     1     160.733 174.359 175.404  1.00  0.00     0.016 C 
ATOM     27  C   UNL     1     162.357 176.667 173.837  1.00  0.00     0.063 C 
ATOM     28  C   UNL     1     159.875 177.065 173.991  1.00  0.00     0.033 C 
ATOM     29  C   UNL     1     161.216 177.651 173.551  1.00  0.00     0.118 C 
BRANCH  29  30
ATOM     30  O   UNL     1     161.449 178.863 174.229  1.00  0.00    -0.393 OA
ATOM     31  H   UNL     1     162.425 178.897 174.420  1.00  0.00     0.210 HD
ENDBRANCH  29  30
ENDBRANCH   1  11
TORSDOF 6
ENDMDL
MODEL 6
REMARK VINA RESULT:    -6.562      8.746     12.563
REMARK INTER + INTRA:          -9.563
REMARK INTER:                  -8.835
REMARK INTRA:                  -0.727
REMARK UNBOUND:                -0.890
REMARK SMILES CC[C@H](C=C[C@H](C)[C@@H]1CC[C@@H]2[C@H]3CC=C4C[C@H](O)CC[C@]4(C)[C@H]3CC[C@@]21C)C(C)C
REMARK SMILES IDX 6 1 7 2 5 3 4 4 3 5 2 6 1 7 28 8 29 9 30 10 8 11 9 12 26 13
REMARK SMILES IDX 10 14 11 15 25 16 27 17 12 18 24 19 23 20 13 21 21 22 14 23
REMARK SMILES IDX 15 24 20 25 22 26 16 27 19 28 17 29 18 30
REMARK H PARENT 18 31
REMARK Flexibility Score: inf
ROOT
ATOM      1  C   UNL     1     162.455 176.555 182.425  1.00  0.00     0.012 C 
ATOM      2  C   UNL     1     163.016 177.982 182.386  1.00  0.00     0.012 C 
ENDROOT
BRANCH   1   3
ATOM      3  C   UNL     1     162.044 176.272 183.859  1.00  0.00    -0.028 C 
ATOM      4  C   UNL     1     161.726 177.250 184.739  1.00  0.00    -0.027 C 
BRANCH   4   5
ATOM      5  C   UNL     1     161.066 176.975 186.078  1.00  0.00     0.014 C 
BRANCH   5   6
ATOM      6  C   UNL     1     161.298 175.518 186.560  1.00  0.00     0.004 C 
ATOM      7  C   UNL     1     160.053 174.876 187.185  1.00  0.00     0.004 C 
ENDBRANCH   5   6
BRANCH   5   8
ATOM      8  C   UNL     1     161.480 178.044 187.141  1.00  0.00    -0.011 C 
ATOM      9  C   UNL     1     160.235 178.624 187.843  1.00  0.00     0.008 C 
ATOM     10  C   UNL     1     162.429 177.454 188.210  1.00  0.00     0.008 C 
ENDBRANCH   5   8
ENDBRANCH   4   5
ENDBRANCH   1   3
BRANCH   1  11
ATOM     11  C   UNL     1     161.260 176.317 181.425  1.00  0.00     0.002 C 
ATOM     12  C   UNL     1     160.684 174.892 181.542  1.00  0.00     0.005 C 
ATOM     13  C   UNL     1     161.520 176.514 179.890  1.00  0.00    -0.026 C 
ATOM     14  C   UNL     1     160.073 174.527 180.196  1.00  0.00     0.005 C 
ATOM     15  C   UNL     1     160.361 175.696 179.245  1.00  0.00    -0.001 C 
ATOM     16  C   UNL     1     162.901 175.927 179.475  1.00  0.00     0.007 C 
ATOM     17  C   UNL     1     161.388 178.016 179.482  1.00  0.00     0.012 C 
ATOM     18  C   UNL     1     160.550 175.228 177.772  1.00  0.00     0.000 C 
ATOM     19  C   UNL     1     163.055 175.679 177.973  1.00  0.00     0.005 C 
ATOM     20  C   UNL     1     161.972 174.712 177.425  1.00  0.00     0.003 C 
ATOM     21  C   UNL     1     160.127 176.289 176.753  1.00  0.00     0.031 C 
ATOM     22  C   UNL     1     162.117 174.323 175.868  1.00  0.00    -0.008 C 
ATOM     23  C   UNL     1     160.008 175.640 175.413  1.00  0.00    -0.027 C 
ATOM     24  C   UNL     1     160.854 174.660 175.037  1.00  0.00    -0.065 C 
ATOM     25  C   UNL     1     162.386 172.780 175.786  1.00  0.00     0.014 C 
ATOM     26  C   UNL     1     163.293 175.068 175.168  1.00  0.00     0.016 C 
ATOM     27  C   UNL     1     160.633 173.988 173.692  1.00  0.00     0.063 C 
ATOM     28  C   UNL     1     162.249 172.180 174.373  1.00  0.00     0.033 C 
ATOM     29  C   UNL     1     160.872 172.475 173.781  1.00  0.00     0.118 C 
BRANCH  29  30
ATOM     30  O   UNL     1     159.876 171.880 174.579  1.00  0.00    -0.393 OA
ATOM     31  H   UNL     1     159.045 172.410 174.436  1.00  0.00     0.210 HD
ENDBRANCH  29  30
ENDBRANCH   1  11
TORSDOF 6
ENDMDL
MODEL 7
REMARK VINA RESULT:    -6.524      7.111     10.600
REMARK INTER + INTRA:          -9.511
REMARK INTER:                  -8.676
REMARK INTRA:                  -0.835
REMARK UNBOUND:                -0.890
REMARK SMILES CC[C@H](C=C[C@H](C)[C@@H]1CC[C@@H]2[C@H]3CC=C4C[C@H](O)CC[C@]4(C)[C@H]3CC[C@@]21C)C(C)C
REMARK SMILES IDX 6 1 7 2 5 3 4 4 3 5 2 6 1 7 28 8 29 9 30 10 8 11 9 12 26 13
REMARK SMILES IDX 10 14 11 15 25 16 27 17 12 18 24 19 23 20 13 21 21 22 14 23
REMARK SMILES IDX 15 24 20 25 22 26 16 27 19 28 17 29 18 30
REMARK H PARENT 18 31
REMARK Flexibility Score: inf
ROOT
ATOM      1  C   UNL     1     176.398 176.653 186.040  1.00  0.00     0.012 C 
ATOM      2  C   UNL     1     177.137 177.748 186.821  1.00  0.00     0.012 C 
ENDROOT
BRANCH   1   3
ATOM      3  C   UNL     1     176.343 175.425 186.932  1.00  0.00    -0.028 C 
ATOM      4  C   UNL     1     177.037 174.294 186.669  1.00  0.00    -0.027 C 
BRANCH   4   5
ATOM      5  C   UNL     1     177.199 173.169 187.674  1.00  0.00     0.014 C 
BRANCH   5   6
ATOM      6  C   UNL     1     175.837 172.694 188.250  1.00  0.00     0.004 C 
ATOM      7  C   UNL     1     175.977 171.724 189.429  1.00  0.00     0.004 C 
ENDBRANCH   5   6
BRANCH   5   8
ATOM      8  C   UNL     1     178.054 172.001 187.083  1.00  0.00    -0.011 C 
ATOM      9  C   UNL     1     178.113 172.094 185.544  1.00  0.00     0.008 C 
ATOM     10  C   UNL     1     179.497 172.006 187.641  1.00  0.00     0.008 C 
ENDBRANCH   5   8
ENDBRANCH   4   5
ENDBRANCH   1   3
BRANCH   1  11
ATOM     11  C   UNL     1     174.960 177.080 185.559  1.00  0.00     0.002 C 
ATOM     12  C   UNL     1     174.136 175.876 185.060  1.00  0.00     0.005 C 
ATOM     13  C   UNL     1     174.841 178.143 184.410  1.00  0.00    -0.026 C 
ATOM     14  C   UNL     1     173.126 176.393 184.045  1.00  0.00     0.005 C 
ATOM     15  C   UNL     1     173.403 177.891 183.866  1.00  0.00    -0.001 C 
ATOM     16  C   UNL     1     175.900 177.886 183.297  1.00  0.00     0.007 C 
ATOM     17  C   UNL     1     174.939 179.597 184.972  1.00  0.00     0.012 C 
ATOM     18  C   UNL     1     173.088 178.383 182.423  1.00  0.00     0.000 C 
ATOM     19  C   UNL     1     175.593 178.574 181.965  1.00  0.00     0.005 C 
ATOM     20  C   UNL     1     174.218 178.143 181.387  1.00  0.00     0.003 C 
ATOM     21  C   UNL     1     172.655 179.851 182.377  1.00  0.00     0.031 C 
ATOM     22  C   UNL     1     173.858 178.749 179.938  1.00  0.00    -0.008 C 
ATOM     23  C   UNL     1     172.046 180.125 181.041  1.00  0.00    -0.027 C 
ATOM     24  C   UNL     1     172.527 179.540 179.925  1.00  0.00    -0.065 C 
ATOM     25  C   UNL     1     173.750 177.550 178.934  1.00  0.00     0.014 C 
ATOM     26  C   UNL     1     174.941 179.738 179.413  1.00  0.00     0.016 C 
ATOM     27  C   UNL     1     171.816 179.800 178.607  1.00  0.00     0.063 C 
ATOM     28  C   UNL     1     173.116 177.907 177.575  1.00  0.00     0.033 C 
ATOM     29  C   UNL     1     171.732 178.525 177.760  1.00  0.00     0.118 C 
BRANCH  29  30
ATOM     30  O   UNL     1     170.876 177.595 178.380  1.00  0.00    -0.393 OA
ATOM     31  H   UNL     1     170.238 178.122 178.933  1.00  0.00     0.210 HD
ENDBRANCH  29  30
ENDBRANCH   1  11
TORSDOF 6
ENDMDL
MODEL 8
REMARK VINA RESULT:    -6.511      7.995     12.172
REMARK INTER + INTRA:          -9.495
REMARK INTER:                  -8.410
REMARK INTRA:                  -1.085
REMARK UNBOUND:                -0.890
REMARK SMILES CC[C@H](C=C[C@H](C)[C@@H]1CC[C@@H]2[C@H]3CC=C4C[C@H](O)CC[C@]4(C)[C@H]3CC[C@@]21C)C(C)C
REMARK SMILES IDX 6 1 7 2 5 3 4 4 3 5 2 6 1 7 28 8 29 9 30 10 8 11 9 12 26 13
REMARK SMILES IDX 10 14 11 15 25 16 27 17 12 18 24 19 23 20 13 21 21 22 14 23
REMARK SMILES IDX 15 24 20 25 22 26 16 27 19 28 17 29 18 30
REMARK H PARENT 18 31
REMARK Flexibility Score: inf
ROOT
ATOM      1  C   UNL     1     163.260 175.815 176.701  1.00  0.00     0.012 C 
ATOM      2  C   UNL     1     163.434 174.428 176.070  1.00  0.00     0.012 C 
ENDROOT
BRANCH   1   3
ATOM      3  C   UNL     1     163.211 176.822 175.564  1.00  0.00    -0.028 C 
ATOM      4  C   UNL     1     162.537 176.599 174.413  1.00  0.00    -0.027 C 
BRANCH   4   5
ATOM      5  C   UNL     1     162.263 177.686 173.390  1.00  0.00     0.014 C 
BRANCH   5   6
ATOM      6  C   UNL     1     162.943 177.395 172.025  1.00  0.00     0.004 C 
ATOM      7  C   UNL     1     162.539 178.377 170.919  1.00  0.00     0.004 C 
ENDBRANCH   5   6
BRANCH   5   8
ATOM      8  C   UNL     1     160.730 177.968 173.263  1.00  0.00    -0.011 C 
ATOM      9  C   UNL     1     159.920 176.966 174.112  1.00  0.00     0.008 C 
ATOM     10  C   UNL     1     160.372 179.406 173.706  1.00  0.00     0.008 C 
ENDBRANCH   5   8
ENDBRANCH   4   5
ENDBRANCH   1   3
BRANCH   1  11
ATOM     11  C   UNL     1     161.992 175.934 177.629  1.00  0.00     0.002 C 
ATOM     12  C   UNL     1     161.593 177.403 177.877  1.00  0.00     0.005 C 
ATOM     13  C   UNL     1     162.053 175.294 179.062  1.00  0.00    -0.026 C 
ATOM     14  C   UNL     1     160.876 177.468 179.219  1.00  0.00     0.005 C 
ATOM     15  C   UNL     1     160.925 176.057 179.819  1.00  0.00    -0.001 C 
ATOM     16  C   UNL     1     163.434 175.552 179.732  1.00  0.00     0.007 C 
ATOM     17  C   UNL     1     161.712 173.770 179.015  1.00  0.00     0.012 C 
ATOM     18  C   UNL     1     160.996 176.078 181.374  1.00  0.00     0.000 C 
ATOM     19  C   UNL     1     163.443 175.359 181.251  1.00  0.00     0.005 C 
ATOM     20  C   UNL     1     162.417 176.280 181.963  1.00  0.00     0.003 C 
ATOM     21  C   UNL     1     160.346 174.848 182.014  1.00  0.00     0.031 C 
ATOM     22  C   UNL     1     162.426 176.208 183.574  1.00  0.00    -0.008 C 
ATOM     23  C   UNL     1     160.148 175.119 183.470  1.00  0.00    -0.027 C 
ATOM     24  C   UNL     1     161.048 175.834 184.173  1.00  0.00    -0.065 C 
ATOM     25  C   UNL     1     162.852 177.619 184.110  1.00  0.00     0.014 C 
ATOM     26  C   UNL     1     163.426 175.148 184.123  1.00  0.00     0.016 C 
ATOM     27  C   UNL     1     160.751 176.141 185.632  1.00  0.00     0.063 C 
ATOM     28  C   UNL     1     162.622 177.826 185.620  1.00  0.00     0.033 C 
ATOM     29  C   UNL     1     161.163 177.573 185.994  1.00  0.00     0.118 C 
BRANCH  29  30
ATOM     30  O   UNL     1     160.335 178.492 185.322  1.00  0.00    -0.393 OA
ATOM     31  H   UNL     1     160.492 178.356 184.349  1.00  0.00     0.210 HD
ENDBRANCH  29  30
ENDBRANCH   1  11
TORSDOF 6
ENDMDL
MODEL 9
REMARK VINA RESULT:    -6.481      3.005      9.503
REMARK INTER + INTRA:          -9.456
REMARK INTER:                  -8.255
REMARK INTRA:                  -1.201
REMARK UNBOUND:                -0.890
REMARK SMILES CC[C@H](C=C[C@H](C)[C@@H]1CC[C@@H]2[C@H]3CC=C4C[C@H](O)CC[C@]4(C)[C@H]3CC[C@@]21C)C(C)C
REMARK SMILES IDX 6 1 7 2 5 3 4 4 3 5 2 6 1 7 28 8 29 9 30 10 8 11 9 12 26 13
REMARK SMILES IDX 10 14 11 15 25 16 27 17 12 18 24 19 23 20 13 21 21 22 14 23
REMARK SMILES IDX 15 24 20 25 22 26 16 27 19 28 17 29 18 30
REMARK H PARENT 18 31
REMARK Flexibility Score: inf
ROOT
ATOM      1  C   UNL     1     170.152 175.589 187.388  1.00  0.00     0.012 C 
ATOM      2  C   UNL     1     171.082 174.494 186.850  1.00  0.00     0.012 C 
ENDROOT
BRANCH   1   3
ATOM      3  C   UNL     1     171.032 176.674 187.983  1.00  0.00    -0.028 C 
ATOM      4  C   UNL     1     172.196 177.070 187.417  1.00  0.00    -0.027 C 
BRANCH   4   5
ATOM      5  C   UNL     1     172.944 178.317 187.849  1.00  0.00     0.014 C 
BRANCH   5   6
ATOM      6  C   UNL     1     174.484 178.130 187.789  1.00  0.00     0.004 C 
ATOM      7  C   UNL     1     175.268 179.424 188.040  1.00  0.00     0.004 C 
ENDBRANCH   5   6
BRANCH   5   8
ATOM      8  C   UNL     1     172.450 179.574 187.061  1.00  0.00    -0.011 C 
ATOM      9  C   UNL     1     172.249 179.237 185.569  1.00  0.00     0.008 C 
ATOM     10  C   UNL     1     171.122 180.125 187.633  1.00  0.00     0.008 C 
ENDBRANCH   5   8
ENDBRANCH   4   5
ENDBRANCH   1   3
BRANCH   1  11
ATOM     11  C   UNL     1     169.171 176.175 186.303  1.00  0.00     0.002 C 
ATOM     12  C   UNL     1     168.765 177.629 186.615  1.00  0.00     0.005 C 
ATOM     13  C   UNL     1     167.812 175.432 186.046  1.00  0.00    -0.026 C 
ATOM     14  C   UNL     1     167.398 177.873 185.991  1.00  0.00     0.005 C 
ATOM     15  C   UNL     1     166.942 176.541 185.382  1.00  0.00    -0.001 C 
ATOM     16  C   UNL     1     167.169 174.959 187.383  1.00  0.00     0.007 C 
ATOM     17  C   UNL     1     167.996 174.245 185.046  1.00  0.00     0.012 C 
ATOM     18  C   UNL     1     165.396 176.364 185.434  1.00  0.00     0.000 C 
ATOM     19  C   UNL     1     165.679 174.626 187.283  1.00  0.00     0.005 C 
ATOM     20  C   UNL     1     164.842 175.834 186.783  1.00  0.00     0.003 C 
ATOM     21  C   UNL     1     164.858 175.506 184.286  1.00  0.00     0.031 C 
ATOM     22  C   UNL     1     163.248 175.597 186.737  1.00  0.00    -0.008 C 
ATOM     23  C   UNL     1     163.376 175.684 184.214  1.00  0.00    -0.027 C 
ATOM     24  C   UNL     1     162.639 175.833 185.333  1.00  0.00    -0.065 C 
ATOM     25  C   UNL     1     162.590 176.594 187.753  1.00  0.00     0.014 C 
ATOM     26  C   UNL     1     162.843 174.147 187.134  1.00  0.00     0.016 C 
ATOM     27  C   UNL     1     161.147 176.086 185.190  1.00  0.00     0.063 C 
ATOM     28  C   UNL     1     161.061 176.724 187.624  1.00  0.00     0.033 C 
ATOM     29  C   UNL     1     160.660 177.126 186.206  1.00  0.00     0.118 C 
BRANCH  29  30
ATOM     30  O   UNL     1     161.207 178.387 185.899  1.00  0.00    -0.393 OA
ATOM     31  H   UNL     1     162.166 178.352 186.166  1.00  0.00     0.210 HD
ENDBRANCH  29  30
ENDBRANCH   1  11
TORSDOF 6
ENDMDL
