MODEL 1
REMARK VINA RESULT:    -2.506      0.000      0.000
REMARK INTER + INTRA:          -7.201
REMARK INTER:                  -5.437
REMARK INTRA:                  -1.764
REMARK UNBOUND:                -1.764
REMARK SMILES CCCCCCCCCCCCCCCCCCCCCC(=O)[O-]
REMARK SMILES IDX 12 1 11 2 10 3 9 4 8 5 7 6 6 7 5 8 4 9 3 10 2 11 1 12 13 13
REMARK SMILES IDX 14 14 15 15 16 16 17 17 18 18 19 19 20 20 21 21 22 22 23 23
REMARK SMILES IDX 24 24
REMARK H PARENT
REMARK Flexibility Score: inf
ROOT
ATOM      1  C   UNL     1      32.935  -4.101  45.163  1.00  0.00     0.000 C 
ENDROOT
BRANCH   1   2
ATOM      2  C   UNL     1      33.792  -3.391  44.100  1.00  0.00     0.000 C 
BRANCH   2   3
ATOM      3  C   UNL     1      35.074  -4.167  43.742  1.00  0.00     0.000 C 
BRANCH   3   4
ATOM      4  C   UNL     1      35.653  -3.869  42.347  1.00  0.00    -0.000 C 
BRANCH   4   5
ATOM      5  C   UNL     1      37.174  -4.090  42.272  1.00  0.00    -0.000 C 
BRANCH   5   6
ATOM      6  C   UNL     1      37.921  -3.539  43.500  1.00  0.00    -0.000 C 
BRANCH   6   7
ATOM      7  C   UNL     1      37.969  -2.001  43.593  1.00  0.00    -0.000 C 
BRANCH   7   8
ATOM      8  C   UNL     1      37.259  -1.250  42.448  1.00  0.00    -0.000 C 
BRANCH   8   9
ATOM      9  C   UNL     1      36.101  -0.344  42.918  1.00  0.00    -0.000 C 
BRANCH   9  10
ATOM     10  C   UNL     1      34.974  -0.231  41.875  1.00  0.00    -0.000 C 
BRANCH  10  11
ATOM     11  C   UNL     1      33.604   0.038  42.516  1.00  0.00    -0.003 C 
ATOM     12  C   UNL     1      33.007   1.379  42.089  1.00  0.00     0.004 C 
ENDBRANCH  10  11
ENDBRANCH   9  10
ENDBRANCH   8   9
ENDBRANCH   7   8
ENDBRANCH   6   7
ENDBRANCH   5   6
ENDBRANCH   4   5
ENDBRANCH   3   4
ENDBRANCH   2   3
ENDBRANCH   1   2
BRANCH   1  13
ATOM     13  C   UNL     1      31.480  -3.603  45.178  1.00  0.00     0.000 C 
BRANCH  13  14
ATOM     14  C   UNL     1      31.276  -2.381  46.086  1.00  0.00     0.000 C 
BRANCH  14  15
ATOM     15  C   UNL     1      30.930  -1.136  45.256  1.00  0.00     0.000 C 
BRANCH  15  16
ATOM     16  C   UNL     1      30.740  -1.448  43.759  1.00  0.00     0.000 C 
BRANCH  16  17
ATOM     17  C   UNL     1      29.279  -1.421  43.264  1.00  0.00     0.000 C 
BRANCH  17  18
ATOM     18  C   UNL     1      28.266  -2.143  44.171  1.00  0.00     0.000 C 
BRANCH  18  19
ATOM     19  C   UNL     1      27.554  -1.192  45.144  1.00  0.00     0.000 C 
BRANCH  19  20
ATOM     20  C   UNL     1      27.623  -1.722  46.581  1.00  0.00     0.006 C 
BRANCH  20  21
ATOM     21  C   UNL     1      26.462  -2.678  46.869  1.00  0.00     0.053 C 
BRANCH  21  22
ATOM     22  C   UNL     1      26.923  -3.841  47.689  1.00  0.00     0.041 C 
ATOM     23  O   UNL     1      27.290  -4.908  47.128  1.00  0.00    -0.550 OA
ATOM     24  O   UNL     1      26.959  -3.744  49.077  1.00  0.00    -0.550 OA
ENDBRANCH  21  22
ENDBRANCH  20  21
ENDBRANCH  19  20
ENDBRANCH  18  19
ENDBRANCH  17  18
ENDBRANCH  16  17
ENDBRANCH  15  16
ENDBRANCH  14  15
ENDBRANCH  13  14
ENDBRANCH   1  13
TORSDOF 20
ENDMDL
MODEL 2
REMARK VINA RESULT:    -2.139      0.894      3.203
REMARK INTER + INTRA:          -6.404
REMARK INTER:                  -4.889
REMARK INTRA:                  -1.515
REMARK UNBOUND:                -1.764
REMARK SMILES CCCCCCCCCCCCCCCCCCCCCC(=O)[O-]
REMARK SMILES IDX 12 1 11 2 10 3 9 4 8 5 7 6 6 7 5 8 4 9 3 10 2 11 1 12 13 13
REMARK SMILES IDX 14 14 15 15 16 16 17 17 18 18 19 19 20 20 21 21 22 22 23 23
REMARK SMILES IDX 24 24
REMARK H PARENT
REMARK Flexibility Score: inf
ROOT
ATOM      1  C   UNL     1      31.114  -1.782  45.538  1.00  0.00     0.000 C 
ENDROOT
BRANCH   1   2
ATOM      2  C   UNL     1      31.714  -0.721  44.598  1.00  0.00     0.000 C 
BRANCH   2   3
ATOM      3  C   UNL     1      31.587  -1.094  43.109  1.00  0.00     0.000 C 
BRANCH   3   4
ATOM      4  C   UNL     1      32.695  -0.536  42.197  1.00  0.00    -0.000 C 
BRANCH   4   5
ATOM      5  C   UNL     1      33.644   0.428  42.930  1.00  0.00    -0.000 C 
BRANCH   5   6
ATOM      6  C   UNL     1      34.876   0.810  42.091  1.00  0.00    -0.000 C 
BRANCH   6   7
ATOM      7  C   UNL     1      35.924  -0.308  41.930  1.00  0.00    -0.000 C 
BRANCH   7   8
ATOM      8  C   UNL     1      36.387  -0.969  43.244  1.00  0.00    -0.000 C 
BRANCH   8   9
ATOM      9  C   UNL     1      37.516  -2.006  43.059  1.00  0.00    -0.000 C 
BRANCH   9  10
ATOM     10  C   UNL     1      37.105  -3.418  43.516  1.00  0.00    -0.000 C 
BRANCH  10  11
ATOM     11  C   UNL     1      35.744  -3.847  42.946  1.00  0.00    -0.003 C 
ATOM     12  C   UNL     1      34.770  -4.309  44.031  1.00  0.00     0.004 C 
ENDBRANCH  10  11
ENDBRANCH   9  10
ENDBRANCH   8   9
ENDBRANCH   7   8
ENDBRANCH   6   7
ENDBRANCH   5   6
ENDBRANCH   4   5
ENDBRANCH   3   4
ENDBRANCH   2   3
ENDBRANCH   1   2
BRANCH   1  13
ATOM     13  C   UNL     1      31.691  -3.185  45.291  1.00  0.00     0.000 C 
BRANCH  13  14
ATOM     14  C   UNL     1      30.603  -4.249  45.080  1.00  0.00     0.000 C 
BRANCH  14  15
ATOM     15  C   UNL     1      29.203  -3.621  45.160  1.00  0.00     0.000 C 
BRANCH  15  16
ATOM     16  C   UNL     1      28.552  -3.432  43.777  1.00  0.00     0.000 C 
BRANCH  16  17
ATOM     17  C   UNL     1      27.971  -2.027  43.512  1.00  0.00     0.000 C 
BRANCH  17  18
ATOM     18  C   UNL     1      28.256  -0.984  44.608  1.00  0.00     0.000 C 
BRANCH  18  19
ATOM     19  C   UNL     1      27.143  -0.909  45.664  1.00  0.00     0.000 C 
BRANCH  19  20
ATOM     20  C   UNL     1      27.463  -1.808  46.864  1.00  0.00     0.006 C 
BRANCH  20  21
ATOM     21  C   UNL     1      26.317  -2.787  47.137  1.00  0.00     0.053 C 
BRANCH  21  22
ATOM     22  C   UNL     1      26.800  -3.963  47.925  1.00  0.00     0.041 C 
ATOM     23  O   UNL     1      27.093  -5.041  47.342  1.00  0.00    -0.550 OA
ATOM     24  O   UNL     1      26.937  -3.867  49.306  1.00  0.00    -0.550 OA
ENDBRANCH  21  22
ENDBRANCH  20  21
ENDBRANCH  19  20
ENDBRANCH  18  19
ENDBRANCH  17  18
ENDBRANCH  16  17
ENDBRANCH  15  16
ENDBRANCH  14  15
ENDBRANCH  13  14
ENDBRANCH   1  13
TORSDOF 20
ENDMDL
MODEL 3
REMARK VINA RESULT:    -1.605      3.246      8.423
REMARK INTER + INTRA:          -5.244
REMARK INTER:                  -3.814
REMARK INTRA:                  -1.430
REMARK UNBOUND:                -1.764
REMARK SMILES CCCCCCCCCCCCCCCCCCCCCC(=O)[O-]
REMARK SMILES IDX 12 1 11 2 10 3 9 4 8 5 7 6 6 7 5 8 4 9 3 10 2 11 1 12 13 13
REMARK SMILES IDX 14 14 15 15 16 16 17 17 18 18 19 19 20 20 21 21 22 22 23 23
REMARK SMILES IDX 24 24
REMARK H PARENT
REMARK Flexibility Score: inf
ROOT
ATOM      1  C   UNL     1      30.843  -0.757  42.781  1.00  0.00     0.000 C 
ENDROOT
BRANCH   1   2
ATOM      2  C   UNL     1      29.673  -1.180  41.875  1.00  0.00     0.000 C 
BRANCH   2   3
ATOM      3  C   UNL     1      28.419  -0.305  42.060  1.00  0.00     0.000 C 
BRANCH   3   4
ATOM      4  C   UNL     1      27.439  -0.786  43.146  1.00  0.00    -0.000 C 
BRANCH   4   5
ATOM      5  C   UNL     1      27.975  -1.985  43.947  1.00  0.00    -0.000 C 
BRANCH   5   6
ATOM      6  C   UNL     1      27.489  -1.996  45.407  1.00  0.00    -0.000 C 
BRANCH   6   7
ATOM      7  C   UNL     1      28.016  -0.838  46.276  1.00  0.00    -0.000 C 
BRANCH   7   8
ATOM      8  C   UNL     1      29.547  -0.652  46.265  1.00  0.00    -0.000 C 
BRANCH   8   9
ATOM      9  C   UNL     1      30.334  -1.918  46.670  1.00  0.00    -0.000 C 
BRANCH   9  10
ATOM     10  C   UNL     1      31.443  -2.275  45.664  1.00  0.00    -0.000 C 
BRANCH  10  11
ATOM     11  C   UNL     1      31.378  -3.742  45.214  1.00  0.00    -0.003 C 
ATOM     12  C   UNL     1      29.954  -4.299  45.219  1.00  0.00     0.004 C 
ENDBRANCH  10  11
ENDBRANCH   9  10
ENDBRANCH   8   9
ENDBRANCH   7   8
ENDBRANCH   6   7
ENDBRANCH   5   6
ENDBRANCH   4   5
ENDBRANCH   3   4
ENDBRANCH   2   3
ENDBRANCH   1   2
BRANCH   1  13
ATOM     13  C   UNL     1      32.172  -0.646  42.017  1.00  0.00     0.000 C 
BRANCH  13  14
ATOM     14  C   UNL     1      32.813   0.746  42.131  1.00  0.00     0.000 C 
BRANCH  14  15
ATOM     15  C   UNL     1      34.110   0.683  42.953  1.00  0.00     0.000 C 
BRANCH  15  16
ATOM     16  C   UNL     1      35.366   0.522  42.077  1.00  0.00     0.000 C 
BRANCH  16  17
ATOM     17  C   UNL     1      36.000  -0.884  42.090  1.00  0.00     0.000 C 
BRANCH  17  18
ATOM     18  C   UNL     1      37.529  -0.911  42.264  1.00  0.00     0.000 C 
BRANCH  18  19
ATOM     19  C   UNL     1      37.969  -1.563  43.584  1.00  0.00     0.000 C 
BRANCH  19  20
ATOM     20  C   UNL     1      38.829  -2.804  43.324  1.00  0.00     0.006 C 
BRANCH  20  21
ATOM     21  C   UNL     1      38.092  -3.805  42.430  1.00  0.00     0.053 C 
BRANCH  21  22
ATOM     22  C   UNL     1      36.783  -4.197  43.039  1.00  0.00     0.041 C 
ATOM     23  O   UNL     1      35.753  -4.294  42.320  1.00  0.00    -0.550 OA
ATOM     24  O   UNL     1      36.701  -4.466  44.402  1.00  0.00    -0.550 OA
ENDBRANCH  21  22
ENDBRANCH  20  21
ENDBRANCH  19  20
ENDBRANCH  18  19
ENDBRANCH  17  18
ENDBRANCH  16  17
ENDBRANCH  15  16
ENDBRANCH  14  15
ENDBRANCH  13  14
ENDBRANCH   1  13
TORSDOF 20
ENDMDL
MODEL 4
REMARK VINA RESULT:    -1.575      2.201      4.534
REMARK INTER + INTRA:          -5.179
REMARK INTER:                  -3.727
REMARK INTRA:                  -1.452
REMARK UNBOUND:                -1.764
REMARK SMILES CCCCCCCCCCCCCCCCCCCCCC(=O)[O-]
REMARK SMILES IDX 12 1 11 2 10 3 9 4 8 5 7 6 6 7 5 8 4 9 3 10 2 11 1 12 13 13
REMARK SMILES IDX 14 14 15 15 16 16 17 17 18 18 19 19 20 20 21 21 22 22 23 23
REMARK SMILES IDX 24 24
REMARK H PARENT
REMARK Flexibility Score: inf
ROOT
ATOM      1  C   UNL     1      31.001  -2.717  45.179  1.00  0.00     0.000 C 
ENDROOT
BRANCH   1   2
ATOM      2  C   UNL     1      31.249  -1.208  45.005  1.00  0.00     0.000 C 
BRANCH   2   3
ATOM      3  C   UNL     1      32.360  -0.893  43.986  1.00  0.00     0.000 C 
BRANCH   3   4
ATOM      4  C   UNL     1      31.874  -0.615  42.552  1.00  0.00    -0.000 C 
BRANCH   4   5
ATOM      5  C   UNL     1      32.639   0.537  41.875  1.00  0.00    -0.000 C 
BRANCH   5   6
ATOM      6  C   UNL     1      33.944   0.900  42.606  1.00  0.00    -0.000 C 
BRANCH   6   7
ATOM      7  C   UNL     1      35.212   0.230  42.041  1.00  0.00    -0.000 C 
BRANCH   7   8
ATOM      8  C   UNL     1      36.058  -0.548  43.070  1.00  0.00    -0.000 C 
BRANCH   8   9
ATOM      9  C   UNL     1      36.973  -1.622  42.444  1.00  0.00    -0.000 C 
BRANCH   9  10
ATOM     10  C   UNL     1      37.483  -2.642  43.478  1.00  0.00    -0.000 C 
BRANCH  10  11
ATOM     11  C   UNL     1      36.853  -4.032  43.293  1.00  0.00    -0.003 C 
ATOM     12  C   UNL     1      35.338  -4.024  43.497  1.00  0.00     0.004 C 
ENDBRANCH  10  11
ENDBRANCH   9  10
ENDBRANCH   8   9
ENDBRANCH   7   8
ENDBRANCH   6   7
ENDBRANCH   5   6
ENDBRANCH   4   5
ENDBRANCH   3   4
ENDBRANCH   2   3
ENDBRANCH   1   2
BRANCH   1  13
ATOM     13  C   UNL     1      29.677  -3.019  45.900  1.00  0.00     0.000 C 
BRANCH  13  14
ATOM     14  C   UNL     1      29.048  -4.350  45.462  1.00  0.00     0.000 C 
BRANCH  14  15
ATOM     15  C   UNL     1      28.034  -4.844  46.505  1.00  0.00     0.000 C 
BRANCH  15  16
ATOM     16  C   UNL     1      27.754  -3.804  47.607  1.00  0.00     0.000 C 
BRANCH  16  17
ATOM     17  C   UNL     1      26.405  -3.064  47.485  1.00  0.00     0.000 C 
BRANCH  17  18
ATOM     18  C   UNL     1      26.327  -2.030  46.348  1.00  0.00     0.000 C 
BRANCH  18  19
ATOM     19  C   UNL     1      27.555  -1.109  46.294  1.00  0.00     0.000 C 
BRANCH  19  20
ATOM     20  C   UNL     1      27.694  -0.457  44.914  1.00  0.00     0.006 C 
BRANCH  20  21
ATOM     21  C   UNL     1      27.362  -1.455  43.800  1.00  0.00     0.053 C 
BRANCH  21  22
ATOM     22  C   UNL     1      28.280  -1.271  42.632  1.00  0.00     0.041 C 
ATOM     23  O   UNL     1      29.035  -2.210  42.265  1.00  0.00    -0.550 OA
ATOM     24  O   UNL     1      28.294  -0.063  41.941  1.00  0.00    -0.550 OA
ENDBRANCH  21  22
ENDBRANCH  20  21
ENDBRANCH  19  20
ENDBRANCH  18  19
ENDBRANCH  17  18
ENDBRANCH  16  17
ENDBRANCH  15  16
ENDBRANCH  14  15
ENDBRANCH  13  14
ENDBRANCH   1  13
TORSDOF 20
ENDMDL
MODEL 5
REMARK VINA RESULT:    -1.493      3.699      8.600
REMARK INTER + INTRA:          -5.003
REMARK INTER:                  -3.389
REMARK INTRA:                  -1.614
REMARK UNBOUND:                -1.764
REMARK SMILES CCCCCCCCCCCCCCCCCCCCCC(=O)[O-]
REMARK SMILES IDX 12 1 11 2 10 3 9 4 8 5 7 6 6 7 5 8 4 9 3 10 2 11 1 12 13 13
REMARK SMILES IDX 14 14 15 15 16 16 17 17 18 18 19 19 20 20 21 21 22 22 23 23
REMARK SMILES IDX 24 24
REMARK H PARENT
REMARK Flexibility Score: inf
ROOT
ATOM      1  C   UNL     1      29.335  -1.458  42.024  1.00  0.00     0.000 C 
ENDROOT
BRANCH   1   2
ATOM      2  C   UNL     1      27.955  -0.779  42.038  1.00  0.00     0.000 C 
BRANCH   2   3
ATOM      3  C   UNL     1      27.274  -0.824  43.418  1.00  0.00     0.000 C 
BRANCH   3   4
ATOM      4  C   UNL     1      28.231  -0.785  44.624  1.00  0.00    -0.000 C 
BRANCH   4   5
ATOM      5  C   UNL     1      27.492  -0.765  45.973  1.00  0.00    -0.000 C 
BRANCH   5   6
ATOM      6  C   UNL     1      26.864  -2.123  46.333  1.00  0.00    -0.000 C 
BRANCH   6   7
ATOM      7  C   UNL     1      27.789  -3.080  47.109  1.00  0.00    -0.000 C 
BRANCH   7   8
ATOM      8  C   UNL     1      28.262  -4.319  46.321  1.00  0.00    -0.000 C 
BRANCH   8   9
ATOM      9  C   UNL     1      29.000  -3.981  45.008  1.00  0.00    -0.000 C 
BRANCH   9  10
ATOM     10  C   UNL     1      30.512  -3.776  45.213  1.00  0.00    -0.000 C 
BRANCH  10  11
ATOM     11  C   UNL     1      30.871  -2.315  45.525  1.00  0.00    -0.003 C 
ATOM     12  C   UNL     1      30.965  -2.039  47.026  1.00  0.00     0.004 C 
ENDBRANCH  10  11
ENDBRANCH   9  10
ENDBRANCH   8   9
ENDBRANCH   7   8
ENDBRANCH   6   7
ENDBRANCH   5   6
ENDBRANCH   4   5
ENDBRANCH   3   4
ENDBRANCH   2   3
ENDBRANCH   1   2
BRANCH   1  13
ATOM     13  C   UNL     1      30.487  -0.459  42.225  1.00  0.00     0.000 C 
BRANCH  13  14
ATOM     14  C   UNL     1      31.872  -1.114  42.105  1.00  0.00     0.000 C 
BRANCH  14  15
ATOM     15  C   UNL     1      32.827  -0.570  43.179  1.00  0.00     0.000 C 
BRANCH  15  16
ATOM     16  C   UNL     1      33.182   0.914  42.968  1.00  0.00     0.000 C 
BRANCH  16  17
ATOM     17  C   UNL     1      34.240   1.187  41.877  1.00  0.00     0.000 C 
BRANCH  17  18
ATOM     18  C   UNL     1      35.693   0.885  42.285  1.00  0.00     0.000 C 
BRANCH  18  19
ATOM     19  C   UNL     1      36.049  -0.604  42.162  1.00  0.00     0.000 C 
BRANCH  19  20
ATOM     20  C   UNL     1      37.006  -1.035  43.280  1.00  0.00     0.006 C 
BRANCH  20  21
ATOM     21  C   UNL     1      36.817  -2.515  43.624  1.00  0.00     0.053 C 
BRANCH  21  22
ATOM     22  C   UNL     1      37.756  -3.368  42.830  1.00  0.00     0.041 C 
ATOM     23  O   UNL     1      38.608  -2.837  42.069  1.00  0.00    -0.550 OA
ATOM     24  O   UNL     1      37.697  -4.754  42.938  1.00  0.00    -0.550 OA
ENDBRANCH  21  22
ENDBRANCH  20  21
ENDBRANCH  19  20
ENDBRANCH  18  19
ENDBRANCH  17  18
ENDBRANCH  16  17
ENDBRANCH  15  16
ENDBRANCH  14  15
ENDBRANCH  13  14
ENDBRANCH   1  13
TORSDOF 20
ENDMDL
MODEL 6
REMARK VINA RESULT:    -1.332      2.785      8.163
REMARK INTER + INTRA:          -4.653
REMARK INTER:                  -4.547
REMARK INTRA:                  -0.106
REMARK UNBOUND:                -1.764
REMARK SMILES CCCCCCCCCCCCCCCCCCCCCC(=O)[O-]
REMARK SMILES IDX 12 1 11 2 10 3 9 4 8 5 7 6 6 7 5 8 4 9 3 10 2 11 1 12 13 13
REMARK SMILES IDX 14 14 15 15 16 16 17 17 18 18 19 19 20 20 21 21 22 22 23 23
REMARK SMILES IDX 24 24
REMARK H PARENT
REMARK Flexibility Score: inf
ROOT
ATOM      1  C   UNL     1      30.818  -1.231  42.033  1.00  0.00     0.000 C 
ENDROOT
BRANCH   1   2
ATOM      2  C   UNL     1      29.515  -1.359  42.842  1.00  0.00     0.000 C 
BRANCH   2   3
ATOM      3  C   UNL     1      29.624  -0.769  44.260  1.00  0.00     0.000 C 
BRANCH   3   4
ATOM      4  C   UNL     1      30.929  -1.097  45.009  1.00  0.00    -0.000 C 
BRANCH   4   5
ATOM      5  C   UNL     1      30.769  -2.260  46.004  1.00  0.00    -0.000 C 
BRANCH   5   6
ATOM      6  C   UNL     1      31.114  -3.627  45.389  1.00  0.00    -0.000 C 
BRANCH   6   7
ATOM      7  C   UNL     1      29.899  -4.462  44.939  1.00  0.00    -0.000 C 
BRANCH   7   8
ATOM      8  C   UNL     1      28.524  -3.887  45.335  1.00  0.00    -0.000 C 
BRANCH   8   9
ATOM      9  C   UNL     1      28.035  -4.337  46.728  1.00  0.00    -0.000 C 
BRANCH   9  10
ATOM     10  C   UNL     1      27.382  -3.194  47.527  1.00  0.00    -0.000 C 
BRANCH  10  11
ATOM     11  C   UNL     1      26.475  -2.312  46.655  1.00  0.00    -0.003 C 
ATOM     12  C   UNL     1      27.095  -0.948  46.352  1.00  0.00     0.004 C 
ENDBRANCH  10  11
ENDBRANCH   9  10
ENDBRANCH   8   9
ENDBRANCH   7   8
ENDBRANCH   6   7
ENDBRANCH   5   6
ENDBRANCH   4   5
ENDBRANCH   3   4
ENDBRANCH   2   3
ENDBRANCH   1   2
BRANCH   1  13
ATOM     13  C   UNL     1      31.822  -0.262  42.679  1.00  0.00     0.000 C 
BRANCH  13  14
ATOM     14  C   UNL     1      33.124  -0.127  41.875  1.00  0.00     0.000 C 
BRANCH  14  15
ATOM     15  C   UNL     1      34.255   0.425  42.756  1.00  0.00     0.000 C 
BRANCH  15  16
ATOM     16  C   UNL     1      35.619  -0.224  42.456  1.00  0.00     0.000 C 
BRANCH  16  17
ATOM     17  C   UNL     1      36.461  -0.586  43.698  1.00  0.00     0.000 C 
BRANCH  17  18
ATOM     18  C   UNL     1      37.758  -1.361  43.405  1.00  0.00     0.000 C 
BRANCH  18  19
ATOM     19  C   UNL     1      37.598  -2.383  42.269  1.00  0.00     0.000 C 
BRANCH  19  20
ATOM     20  C   UNL     1      38.094  -3.768  42.700  1.00  0.00     0.006 C 
BRANCH  20  21
ATOM     21  C   UNL     1      37.065  -4.465  43.595  1.00  0.00     0.053 C 
BRANCH  21  22
ATOM     22  C   UNL     1      35.672  -4.142  43.152  1.00  0.00     0.041 C 
ATOM     23  O   UNL     1      35.434  -3.881  41.943  1.00  0.00    -0.550 OA
ATOM     24  O   UNL     1      34.632  -4.139  44.077  1.00  0.00    -0.550 OA
ENDBRANCH  21  22
ENDBRANCH  20  21
ENDBRANCH  19  20
ENDBRANCH  18  19
ENDBRANCH  17  18
ENDBRANCH  16  17
ENDBRANCH  15  16
ENDBRANCH  14  15
ENDBRANCH  13  14
ENDBRANCH   1  13
TORSDOF 20
ENDMDL
MODEL 7
REMARK VINA RESULT:    -1.192      1.297      3.920
REMARK INTER + INTRA:          -4.350
REMARK INTER:                  -6.123
REMARK INTRA:                   1.774
REMARK UNBOUND:                -1.764
REMARK SMILES CCCCCCCCCCCCCCCCCCCCCC(=O)[O-]
REMARK SMILES IDX 12 1 11 2 10 3 9 4 8 5 7 6 6 7 5 8 4 9 3 10 2 11 1 12 13 13
REMARK SMILES IDX 14 14 15 15 16 16 17 17 18 18 19 19 20 20 21 21 22 22 23 23
REMARK SMILES IDX 24 24
REMARK H PARENT
REMARK Flexibility Score: inf
ROOT
ATOM      1  C   UNL     1      28.188  -1.573  42.529  1.00  0.00     0.000 C 
ENDROOT
BRANCH   1   2
ATOM      2  C   UNL     1      29.600  -1.750  41.943  1.00  0.00     0.000 C 
BRANCH   2   3
ATOM      3  C   UNL     1      30.688  -1.030  42.762  1.00  0.00     0.000 C 
BRANCH   3   4
ATOM      4  C   UNL     1      31.747  -0.282  41.930  1.00  0.00    -0.000 C 
BRANCH   4   5
ATOM      5  C   UNL     1      33.083  -0.117  42.675  1.00  0.00    -0.000 C 
BRANCH   5   6
ATOM      6  C   UNL     1      34.207  -0.991  42.092  1.00  0.00    -0.000 C 
BRANCH   6   7
ATOM      7  C   UNL     1      35.636  -0.526  42.434  1.00  0.00    -0.000 C 
BRANCH   7   8
ATOM      8  C   UNL     1      36.767  -1.414  41.877  1.00  0.00    -0.000 C 
BRANCH   8   9
ATOM      9  C   UNL     1      37.720  -1.965  42.960  1.00  0.00    -0.000 C 
BRANCH   9  10
ATOM     10  C   UNL     1      36.988  -2.805  44.023  1.00  0.00    -0.000 C 
BRANCH  10  11
ATOM     11  C   UNL     1      36.345  -4.069  43.432  1.00  0.00    -0.003 C 
ATOM     12  C   UNL     1      34.857  -4.185  43.767  1.00  0.00     0.004 C 
ENDBRANCH  10  11
ENDBRANCH   9  10
ENDBRANCH   8   9
ENDBRANCH   7   8
ENDBRANCH   6   7
ENDBRANCH   5   6
ENDBRANCH   4   5
ENDBRANCH   3   4
ENDBRANCH   2   3
ENDBRANCH   1   2
BRANCH   1  13
ATOM     13  C   UNL     1      28.138  -0.511  43.640  1.00  0.00     0.000 C 
BRANCH  13  14
ATOM     14  C   UNL     1      27.799  -1.103  45.017  1.00  0.00     0.000 C 
BRANCH  14  15
ATOM     15  C   UNL     1      28.887  -0.754  46.043  1.00  0.00     0.000 C 
BRANCH  15  16
ATOM     16  C   UNL     1      29.707  -1.981  46.486  1.00  0.00     0.000 C 
BRANCH  16  17
ATOM     17  C   UNL     1      30.935  -2.301  45.609  1.00  0.00     0.000 C 
BRANCH  17  18
ATOM     18  C   UNL     1      30.951  -3.713  44.996  1.00  0.00     0.000 C 
BRANCH  18  19
ATOM     19  C   UNL     1      29.654  -4.492  45.261  1.00  0.00     0.000 C 
BRANCH  19  20
ATOM     20  C   UNL     1      28.656  -3.645  46.058  1.00  0.00     0.006 C 
BRANCH  20  21
ATOM     21  C   UNL     1      27.757  -4.530  46.928  1.00  0.00     0.053 C 
BRANCH  21  22
ATOM     22  C   UNL     1      26.784  -3.698  47.703  1.00  0.00     0.041 C 
ATOM     23  O   UNL     1      25.950  -2.970  47.101  1.00  0.00    -0.550 OA
ATOM     24  O   UNL     1      26.791  -3.734  49.094  1.00  0.00    -0.550 OA
ENDBRANCH  21  22
ENDBRANCH  20  21
ENDBRANCH  19  20
ENDBRANCH  18  19
ENDBRANCH  17  18
ENDBRANCH  16  17
ENDBRANCH  15  16
ENDBRANCH  14  15
ENDBRANCH  13  14
ENDBRANCH   1  13
TORSDOF 20
ENDMDL
MODEL 8
REMARK VINA RESULT:    -1.028      6.017     11.676
REMARK INTER + INTRA:          -3.994
REMARK INTER:                  -3.249
REMARK INTRA:                  -0.745
REMARK UNBOUND:                -1.764
REMARK SMILES CCCCCCCCCCCCCCCCCCCCCC(=O)[O-]
REMARK SMILES IDX 12 1 11 2 10 3 9 4 8 5 7 6 6 7 5 8 4 9 3 10 2 11 1 12 13 13
REMARK SMILES IDX 14 14 15 15 16 16 17 17 18 18 19 19 20 20 21 21 22 22 23 23
REMARK SMILES IDX 24 24
REMARK H PARENT
REMARK Flexibility Score: inf
ROOT
ATOM      1  C   UNL     1      24.609  -3.375  41.875  1.00  0.00     0.000 C 
ENDROOT
BRANCH   1   2
ATOM      2  C   UNL     1      23.791  -4.673  41.997  1.00  0.00     0.000 C 
BRANCH   2   3
ATOM      3  C   UNL     1      22.271  -4.439  41.913  1.00  0.00     0.000 C 
BRANCH   3   4
ATOM      4  C   UNL     1      21.471  -4.872  43.156  1.00  0.00    -0.000 C 
BRANCH   4   5
ATOM      5  C   UNL     1      20.317  -5.832  42.819  1.00  0.00    -0.000 C 
BRANCH   5   6
ATOM      6  C   UNL     1      20.796  -7.263  42.519  1.00  0.00    -0.000 C 
BRANCH   6   7
ATOM      7  C   UNL     1      19.711  -8.350  42.643  1.00  0.00    -0.000 C 
BRANCH   7   8
ATOM      8  C   UNL     1      19.975  -9.423  43.719  1.00  0.00    -0.000 C 
BRANCH   8   9
ATOM      9  C   UNL     1      21.410  -9.397  44.289  1.00  0.00    -0.000 C 
BRANCH   9  10
ATOM     10  C   UNL     1      21.953 -10.806  44.594  1.00  0.00    -0.000 C 
BRANCH  10  11
ATOM     11  C   UNL     1      21.126 -11.535  45.664  1.00  0.00    -0.003 C 
ATOM     12  C   UNL     1      21.524 -13.004  45.817  1.00  0.00     0.004 C 
ENDBRANCH  10  11
ENDBRANCH   9  10
ENDBRANCH   8   9
ENDBRANCH   7   8
ENDBRANCH   6   7
ENDBRANCH   5   6
ENDBRANCH   4   5
ENDBRANCH   3   4
ENDBRANCH   2   3
ENDBRANCH   1   2
BRANCH   1  13
ATOM     13  C   UNL     1      26.120  -3.613  42.026  1.00  0.00     0.000 C 
BRANCH  13  14
ATOM     14  C   UNL     1      26.945  -2.325  41.876  1.00  0.00     0.000 C 
BRANCH  14  15
ATOM     15  C   UNL     1      27.986  -2.210  42.999  1.00  0.00     0.000 C 
BRANCH  15  16
ATOM     16  C   UNL     1      29.152  -1.269  42.641  1.00  0.00     0.000 C 
BRANCH  16  17
ATOM     17  C   UNL     1      30.350  -1.308  43.614  1.00  0.00     0.000 C 
BRANCH  17  18
ATOM     18  C   UNL     1      30.385  -2.521  44.559  1.00  0.00     0.000 C 
BRANCH  18  19
ATOM     19  C   UNL     1      30.911  -2.171  45.960  1.00  0.00     0.000 C 
BRANCH  19  20
ATOM     20  C   UNL     1      29.758  -1.846  46.915  1.00  0.00     0.006 C 
BRANCH  20  21
ATOM     21  C   UNL     1      28.404  -2.115  46.252  1.00  0.00     0.053 C 
BRANCH  21  22
ATOM     22  C   UNL     1      27.823  -3.407  46.737  1.00  0.00     0.041 C 
ATOM     23  O   UNL     1      26.967  -3.410  47.661  1.00  0.00    -0.550 OA
ATOM     24  O   UNL     1      28.219  -4.609  46.158  1.00  0.00    -0.550 OA
ENDBRANCH  21  22
ENDBRANCH  20  21
ENDBRANCH  19  20
ENDBRANCH  18  19
ENDBRANCH  17  18
ENDBRANCH  16  17
ENDBRANCH  15  16
ENDBRANCH  14  15
ENDBRANCH  13  14
ENDBRANCH   1  13
TORSDOF 20
ENDMDL
