MODEL 1
REMARK VINA RESULT:    -4.717      0.000      0.000
REMARK INTER + INTRA:          -6.011
REMARK INTER:                  -7.199
REMARK INTRA:                   1.188
REMARK UNBOUND:                 1.188
REMARK SMILES CC1=CCC[C@@H](C)C(=O)C[C@H](C(C)C)C(=O)C1
REMARK SMILES IDX 8 1 9 2 6 3 7 4 5 5 4 6 3 7 2 8 1 9 10 11 11 12 15 13 16 14
REMARK SMILES IDX 17 15 12 17 13 18 14 19
REMARK H PARENT
REMARK Flexibility Score: 70.00
ROOT
ATOM      1  C   UNL     1     107.982  49.799  64.496  1.00  0.00     0.136 C 
ATOM      2  O   UNL     1     107.185  49.289  65.272  1.00  0.00    -0.299 OA
ENDROOT
BRANCH   1   3
ATOM      3  C   UNL     1     107.562  51.084  63.793  1.00  0.00     0.053 C 
ATOM      4  C   UNL     1     106.359  50.832  62.868  1.00  0.00     0.016 C 
BRANCH   3   5
ATOM      5  C   UNL     1     108.671  51.957  63.130  1.00  0.00     0.015 C 
BRANCH   5   6
ATOM      6  C   UNL     1     109.172  51.619  61.708  1.00  0.00     0.028 C 
BRANCH   6   7
ATOM      7  C   UNL     1     108.419  50.512  61.019  1.00  0.00    -0.028 C 
ATOM      8  C   UNL     1     108.831  49.226  60.922  1.00  0.00    -0.070 CG0
ATOM      9  C   UNL     1     107.934  48.253  60.197  1.00  0.00     0.039 C 
ATOM     10  G   UNL     1     110.120  48.708  61.534  1.00  0.00     0.000 G0
ENDBRANCH   6   7
ENDBRANCH   5   6
ENDBRANCH   3   5
ENDBRANCH   1   3
BRANCH   1  11
ATOM     11  C   UNL     1     109.334  49.134  64.362  1.00  0.00     0.087 C 
BRANCH  11  12
ATOM     12  C   UNL     1     109.229  47.678  63.837  1.00  0.00     0.066 C 
BRANCH  12  13
ATOM     13  C   UNL     1     109.858  47.537  62.453  1.00  0.00     0.140 C 
ATOM     14  O   UNL     1     110.184  46.420  62.074  1.00  0.00    -0.299 OA
BRANCH  13  15
ATOM     15  C   UNL     1     110.121  48.708  61.536  1.00  0.00     0.106 CG0
ATOM     16  G   UNL     1     108.834  49.228  60.918  1.00  0.00     0.000 G0
ENDBRANCH  13  15
ENDBRANCH  12  13
BRANCH  12  17
ATOM     17  C   UNL     1     109.772  46.625  64.856  1.00  0.00    -0.006 C 
ATOM     18  C   UNL     1     109.105  45.253  64.651  1.00  0.00     0.008 C 
ATOM     19  C   UNL     1     109.553  47.068  66.314  1.00  0.00     0.008 C 
ENDBRANCH  12  17
ENDBRANCH  11  12
ENDBRANCH   1  11
TORSDOF 1
ENDMDL
MODEL 2
REMARK VINA RESULT:    -4.462      1.954      5.009
REMARK INTER + INTRA:          -5.622
REMARK INTER:                  -5.752
REMARK INTRA:                   0.130
REMARK UNBOUND:                 1.188
REMARK SMILES CC1=CCC[C@@H](C)C(=O)C[C@H](C(C)C)C(=O)C1
REMARK SMILES IDX 8 1 9 2 6 3 7 4 5 5 4 6 3 7 2 8 1 9 10 11 11 12 15 13 16 14
REMARK SMILES IDX 17 15 12 17 13 18 14 19
REMARK H PARENT
REMARK Flexibility Score: 70.00
ROOT
ATOM      1  C   UNL     1     110.057  49.547  61.559  1.00  0.00     0.136 C 
ATOM      2  O   UNL     1     110.865  50.206  60.920  1.00  0.00    -0.299 OA
ENDROOT
BRANCH   1   3
ATOM      3  C   UNL     1     109.604  48.217  60.969  1.00  0.00     0.053 C 
ATOM      4  C   UNL     1     108.116  48.270  60.581  1.00  0.00     0.016 C 
BRANCH   3   5
ATOM      5  C   UNL     1     109.993  46.907  61.720  1.00  0.00     0.015 C 
BRANCH   5   6
ATOM      6  C   UNL     1     109.113  46.393  62.882  1.00  0.00     0.028 C 
BRANCH   6   7
ATOM      7  C   UNL     1     109.568  46.816  64.254  1.00  0.00    -0.028 C 
ATOM      8  C   UNL     1     108.888  47.636  65.089  1.00  0.00    -0.070 CG0
ATOM      9  C   UNL     1     109.502  47.940  66.433  1.00  0.00     0.039 C 
ATOM     10  G   UNL     1     107.529  48.230  64.760  1.00  0.00     0.000 G0
ENDBRANCH   6   7
ENDBRANCH   5   6
ENDBRANCH   3   5
ENDBRANCH   1   3
BRANCH   1  11
ATOM     11  C   UNL     1     109.638  50.090  62.908  1.00  0.00     0.087 C 
BRANCH  11  12
ATOM     12  C   UNL     1     108.097  50.201  63.048  1.00  0.00     0.066 C 
BRANCH  12  13
ATOM     13  C   UNL     1     107.622  49.700  64.410  1.00  0.00     0.140 C 
ATOM     14  O   UNL     1     107.319  50.526  65.260  1.00  0.00    -0.299 OA
BRANCH  13  15
ATOM     15  C   UNL     1     107.530  48.235  64.771  1.00  0.00     0.106 CG0
ATOM     16  G   UNL     1     108.897  47.654  65.086  1.00  0.00     0.000 G0
ENDBRANCH  13  15
ENDBRANCH  12  13
BRANCH  12  17
ATOM     17  C   UNL     1     107.559  51.628  62.710  1.00  0.00    -0.006 C 
ATOM     18  C   UNL     1     107.186  51.748  61.222  1.00  0.00     0.008 C 
ATOM     19  C   UNL     1     108.582  52.726  63.054  1.00  0.00     0.008 C 
ENDBRANCH  12  17
ENDBRANCH  11  12
ENDBRANCH   1  11
TORSDOF 1
ENDMDL
MODEL 3
REMARK VINA RESULT:    -3.917      1.833      3.806
REMARK INTER + INTRA:          -4.790
REMARK INTER:                  -6.835
REMARK INTRA:                   2.044
REMARK UNBOUND:                 1.188
REMARK SMILES CC1=CCC[C@@H](C)C(=O)C[C@H](C(C)C)C(=O)C1
REMARK SMILES IDX 8 1 9 2 6 3 7 4 5 5 4 6 3 7 2 8 1 9 10 11 11 12 15 13 16 14
REMARK SMILES IDX 17 15 12 17 13 18 14 19
REMARK H PARENT
REMARK Flexibility Score: 70.00
ROOT
ATOM      1  C   UNL     1     109.779  47.492  62.282  1.00  0.00     0.136 C 
ATOM      2  O   UNL     1     109.880  46.599  63.112  1.00  0.00    -0.299 OA
ENDROOT
BRANCH   1   3
ATOM      3  C   UNL     1     108.986  47.194  61.015  1.00  0.00     0.053 C 
ATOM      4  C   UNL     1     109.853  46.436  59.995  1.00  0.00     0.016 C 
BRANCH   3   5
ATOM      5  C   UNL     1     108.160  48.351  60.374  1.00  0.00     0.015 C 
BRANCH   5   6
ATOM      6  C   UNL     1     107.336  49.301  61.273  1.00  0.00     0.028 C 
BRANCH   6   7
ATOM      7  C   UNL     1     107.624  50.766  61.076  1.00  0.00    -0.028 C 
ATOM      8  C   UNL     1     107.926  51.645  62.059  1.00  0.00    -0.070 CG0
ATOM      9  C   UNL     1     108.193  53.077  61.666  1.00  0.00     0.039 C 
ATOM     10  G   UNL     1     108.048  51.260  63.523  1.00  0.00     0.000 G0
ENDBRANCH   6   7
ENDBRANCH   5   6
ENDBRANCH   3   5
ENDBRANCH   1   3
BRANCH   1  11
ATOM     11  C   UNL     1     110.399  48.828  62.629  1.00  0.00     0.087 C 
BRANCH  11  12
ATOM     12  C   UNL     1     109.894  49.379  63.988  1.00  0.00     0.066 C 
BRANCH  12  13
ATOM     13  C   UNL     1     109.460  50.838  63.873  1.00  0.00     0.140 C 
ATOM     14  O   UNL     1     110.287  51.710  64.102  1.00  0.00    -0.299 OA
BRANCH  13  15
ATOM     15  C   UNL     1     108.055  51.261  63.515  1.00  0.00     0.106 CG0
ATOM     16  G   UNL     1     107.946  51.637  62.047  1.00  0.00     0.000 G0
ENDBRANCH  13  15
ENDBRANCH  12  13
BRANCH  12  17
ATOM     17  C   UNL     1     108.799  48.474  64.640  1.00  0.00    -0.006 C 
ATOM     18  C   UNL     1     107.535  49.283  64.981  1.00  0.00     0.008 C 
ATOM     19  C   UNL     1     109.307  47.786  65.920  1.00  0.00     0.008 C 
ENDBRANCH  12  17
ENDBRANCH  11  12
ENDBRANCH   1  11
TORSDOF 1
ENDMDL
MODEL 4
REMARK VINA RESULT:    -3.912      1.462      1.641
REMARK INTER + INTRA:          -4.783
REMARK INTER:                  -6.107
REMARK INTRA:                   1.324
REMARK UNBOUND:                 1.188
REMARK SMILES CC1=CCC[C@@H](C)C(=O)C[C@H](C(C)C)C(=O)C1
REMARK SMILES IDX 8 1 9 2 6 3 7 4 5 5 4 6 3 7 2 8 1 9 10 11 11 12 15 13 16 14
REMARK SMILES IDX 17 15 12 17 13 18 14 19
REMARK H PARENT
REMARK Flexibility Score: 70.00
ROOT
ATOM      1  C   UNL     1     107.531  50.463  64.056  1.00  0.00     0.136 C 
ATOM      2  O   UNL     1     108.042  51.524  64.386  1.00  0.00    -0.299 OA
ENDROOT
BRANCH   1   3
ATOM      3  C   UNL     1     106.502  50.493  62.931  1.00  0.00     0.053 C 
ATOM      4  C   UNL     1     105.981  49.077  62.631  1.00  0.00     0.016 C 
BRANCH   3   5
ATOM      5  C   UNL     1     106.842  51.304  61.644  1.00  0.00     0.015 C 
BRANCH   5   6
ATOM      6  C   UNL     1     108.030  50.875  60.752  1.00  0.00     0.028 C 
BRANCH   6   7
ATOM      7  C   UNL     1     108.120  49.396  60.487  1.00  0.00    -0.028 C 
ATOM      8  C   UNL     1     109.138  48.590  60.871  1.00  0.00    -0.070 CG0
ATOM      9  C   UNL     1     109.047  47.126  60.520  1.00  0.00     0.039 C 
ATOM     10  G   UNL     1     110.339  49.074  61.664  1.00  0.00     0.000 G0
ENDBRANCH   6   7
ENDBRANCH   5   6
ENDBRANCH   3   5
ENDBRANCH   1   3
BRANCH   1  11
ATOM     11  C   UNL     1     108.021  49.214  64.756  1.00  0.00     0.087 C 
BRANCH  11  12
ATOM     12  C   UNL     1     108.974  48.373  63.867  1.00  0.00     0.066 C 
BRANCH  12  13
ATOM     13  C   UNL     1     109.975  49.258  63.127  1.00  0.00     0.140 C 
ATOM     14  O   UNL     1     110.501  50.178  63.739  1.00  0.00    -0.299 OA
BRANCH  13  15
ATOM     15  C   UNL     1     110.332  49.071  61.671  1.00  0.00     0.106 CG0
ATOM     16  G   UNL     1     109.142  48.577  60.867  1.00  0.00     0.000 G0
ENDBRANCH  13  15
ENDBRANCH  12  13
BRANCH  12  17
ATOM     17  C   UNL     1     109.662  47.209  64.649  1.00  0.00    -0.006 C 
ATOM     18  C   UNL     1     109.128  45.838  64.195  1.00  0.00     0.008 C 
ATOM     19  C   UNL     1     109.462  47.338  66.169  1.00  0.00     0.008 C 
ENDBRANCH  12  17
ENDBRANCH  11  12
ENDBRANCH   1  11
TORSDOF 1
ENDMDL
MODEL 5
REMARK VINA RESULT:    -3.898      1.821      3.603
REMARK INTER + INTRA:          -4.761
REMARK INTER:                  -5.937
REMARK INTRA:                   1.175
REMARK UNBOUND:                 1.188
REMARK SMILES CC1=CCC[C@@H](C)C(=O)C[C@H](C(C)C)C(=O)C1
REMARK SMILES IDX 8 1 9 2 6 3 7 4 5 5 4 6 3 7 2 8 1 9 10 11 11 12 15 13 16 14
REMARK SMILES IDX 17 15 12 17 13 18 14 19
REMARK H PARENT
REMARK Flexibility Score: 70.00
ROOT
ATOM      1  C   UNL     1     106.772  50.200  62.635  1.00  0.00     0.136 C 
ATOM      2  O   UNL     1     105.720  50.824  62.606  1.00  0.00    -0.299 OA
ENDROOT
BRANCH   1   3
ATOM      3  C   UNL     1     107.684  50.294  61.417  1.00  0.00     0.053 C 
ATOM      4  C   UNL     1     107.308  51.506  60.546  1.00  0.00     0.016 C 
BRANCH   3   5
ATOM      5  C   UNL     1     107.937  49.000  60.585  1.00  0.00     0.015 C 
BRANCH   5   6
ATOM      6  C   UNL     1     109.252  48.209  60.770  1.00  0.00     0.028 C 
BRANCH   6   7
ATOM      7  C   UNL     1     109.140  46.994  61.652  1.00  0.00    -0.028 C 
ATOM      8  C   UNL     1     109.591  46.904  62.925  1.00  0.00    -0.070 CG0
ATOM      9  C   UNL     1     109.379  45.601  63.656  1.00  0.00     0.039 C 
ATOM     10  G   UNL     1     110.259  48.051  63.663  1.00  0.00     0.000 G0
ENDBRANCH   6   7
ENDBRANCH   5   6
ENDBRANCH   3   5
ENDBRANCH   1   3
BRANCH   1  11
ATOM     11  C   UNL     1     107.094  49.450  63.908  1.00  0.00     0.087 C 
BRANCH  11  12
ATOM     12  C   UNL     1     108.472  49.847  64.497  1.00  0.00     0.066 C 
BRANCH  12  13
ATOM     13  C   UNL     1     109.355  48.624  64.729  1.00  0.00     0.140 C 
ATOM     14  O   UNL     1     109.344  48.100  65.835  1.00  0.00    -0.299 OA
BRANCH  13  15
ATOM     15  C   UNL     1     110.259  48.038  63.669  1.00  0.00     0.106 CG0
ATOM     16  G   UNL     1     109.587  46.889  62.939  1.00  0.00     0.000 G0
ENDBRANCH  13  15
ENDBRANCH  12  13
BRANCH  12  17
ATOM     17  C   UNL     1     109.189  50.959  63.666  1.00  0.00    -0.006 C 
ATOM     18  C   UNL     1     110.720  50.847  63.785  1.00  0.00     0.008 C 
ATOM     19  C   UNL     1     108.761  52.372  64.102  1.00  0.00     0.008 C 
ENDBRANCH  12  17
ENDBRANCH  11  12
ENDBRANCH   1  11
TORSDOF 1
ENDMDL
MODEL 6
REMARK VINA RESULT:    -3.860      1.669      3.829
REMARK INTER + INTRA:          -4.703
REMARK INTER:                  -5.154
REMARK INTRA:                   0.451
REMARK UNBOUND:                 1.188
REMARK SMILES CC1=CCC[C@@H](C)C(=O)C[C@H](C(C)C)C(=O)C1
REMARK SMILES IDX 8 1 9 2 6 3 7 4 5 5 4 6 3 7 2 8 1 9 10 11 11 12 15 13 16 14
REMARK SMILES IDX 17 15 12 17 13 18 14 19
REMARK H PARENT
REMARK Flexibility Score: 70.00
ROOT
ATOM      1  C   UNL     1     109.769  50.994  63.083  1.00  0.00     0.136 C 
ATOM      2  O   UNL     1     110.613  50.839  63.955  1.00  0.00    -0.299 OA
ENDROOT
BRANCH   1   3
ATOM      3  C   UNL     1     108.466  51.681  63.473  1.00  0.00     0.053 C 
ATOM      4  C   UNL     1     108.729  53.121  63.946  1.00  0.00     0.016 C 
BRANCH   3   5
ATOM      5  C   UNL     1     107.473  50.908  64.393  1.00  0.00     0.015 C 
BRANCH   5   6
ATOM      6  C   UNL     1     107.267  49.388  64.203  1.00  0.00     0.028 C 
BRANCH   6   7
ATOM      7  C   UNL     1     108.144  48.519  65.063  1.00  0.00    -0.028 C 
ATOM      8  C   UNL     1     108.954  47.531  64.613  1.00  0.00    -0.070 CG0
ATOM      9  C   UNL     1     109.768  46.770  65.629  1.00  0.00     0.039 C 
ATOM     10  G   UNL     1     109.113  47.179  63.144  1.00  0.00     0.000 G0
ENDBRANCH   6   7
ENDBRANCH   5   6
ENDBRANCH   3   5
ENDBRANCH   1   3
BRANCH   1  11
ATOM     11  C   UNL     1     110.133  50.546  61.685  1.00  0.00     0.087 C 
BRANCH  11  12
ATOM     12  C   UNL     1     109.629  49.112  61.373  1.00  0.00     0.066 C 
BRANCH  12  13
ATOM     13  C   UNL     1     110.075  48.118  62.441  1.00  0.00     0.140 C 
ATOM     14  O   UNL     1     111.262  48.070  62.732  1.00  0.00    -0.299 OA
BRANCH  13  15
ATOM     15  C   UNL     1     109.128  47.172  63.143  1.00  0.00     0.106 CG0
ATOM     16  G   UNL     1     108.953  47.545  64.605  1.00  0.00     0.000 G0
ENDBRANCH  13  15
ENDBRANCH  12  13
BRANCH  12  17
ATOM     17  C   UNL     1     108.091  49.057  61.102  1.00  0.00    -0.006 C 
ATOM     18  C   UNL     1     107.736  47.924  60.122  1.00  0.00     0.008 C 
ATOM     19  C   UNL     1     107.557  50.385  60.536  1.00  0.00     0.008 C 
ENDBRANCH  12  17
ENDBRANCH  11  12
ENDBRANCH   1  11
TORSDOF 1
ENDMDL
MODEL 7
REMARK VINA RESULT:    -3.531      1.810      4.168
REMARK INTER + INTRA:          -4.201
REMARK INTER:                  -6.636
REMARK INTRA:                   2.435
REMARK UNBOUND:                 1.188
REMARK SMILES CC1=CCC[C@@H](C)C(=O)C[C@H](C(C)C)C(=O)C1
REMARK SMILES IDX 8 1 9 2 6 3 7 4 5 5 4 6 3 7 2 8 1 9 10 11 11 12 15 13 16 14
REMARK SMILES IDX 17 15 12 17 13 18 14 19
REMARK H PARENT
REMARK Flexibility Score: 70.00
ROOT
ATOM      1  C   UNL     1     109.655  50.299  63.766  1.00  0.00     0.136 C 
ATOM      2  O   UNL     1     110.069  51.180  64.508  1.00  0.00    -0.299 OA
ENDROOT
BRANCH   1   3
ATOM      3  C   UNL     1     108.697  49.270  64.356  1.00  0.00     0.053 C 
ATOM      4  C   UNL     1     107.607  49.957  65.195  1.00  0.00     0.016 C 
BRANCH   3   5
ATOM      5  C   UNL     1     109.303  48.014  65.053  1.00  0.00     0.015 C 
BRANCH   5   6
ATOM      6  C   UNL     1     109.145  46.619  64.405  1.00  0.00     0.028 C 
BRANCH   6   7
ATOM      7  C   UNL     1     109.632  46.523  62.983  1.00  0.00    -0.028 C 
ATOM      8  C   UNL     1     109.121  47.204  61.931  1.00  0.00    -0.070 CG0
ATOM      9  C   UNL     1     109.749  46.983  60.577  1.00  0.00     0.039 C 
ATOM     10  G   UNL     1     107.982  48.202  62.049  1.00  0.00     0.000 G0
ENDBRANCH   6   7
ENDBRANCH   5   6
ENDBRANCH   3   5
ENDBRANCH   1   3
BRANCH   1  11
ATOM     11  C   UNL     1     110.086  50.359  62.318  1.00  0.00     0.087 C 
BRANCH  11  12
ATOM     12  C   UNL     1     108.898  50.629  61.358  1.00  0.00     0.066 C 
BRANCH  12  13
ATOM     13  C   UNL     1     108.141  49.345  61.031  1.00  0.00     0.140 C 
ATOM     14  O   UNL     1     107.630  49.236  59.924  1.00  0.00    -0.299 OA
BRANCH  13  15
ATOM     15  C   UNL     1     107.968  48.209  62.013  1.00  0.00     0.106 CG0
ATOM     16  G   UNL     1     109.115  47.217  61.920  1.00  0.00     0.000 G0
ENDBRANCH  13  15
ENDBRANCH  12  13
BRANCH  12  17
ATOM     17  C   UNL     1     107.959  51.771  61.862  1.00  0.00    -0.006 C 
ATOM     18  C   UNL     1     106.555  51.235  62.196  1.00  0.00     0.008 C 
ATOM     19  C   UNL     1     107.822  52.904  60.829  1.00  0.00     0.008 C 
ENDBRANCH  12  17
ENDBRANCH  11  12
ENDBRANCH   1  11
TORSDOF 1
ENDMDL
MODEL 8
REMARK VINA RESULT:    -3.418      1.664      3.282
REMARK INTER + INTRA:          -4.029
REMARK INTER:                  -5.956
REMARK INTRA:                   1.927
REMARK UNBOUND:                 1.188
REMARK SMILES CC1=CCC[C@@H](C)C(=O)C[C@H](C(C)C)C(=O)C1
REMARK SMILES IDX 8 1 9 2 6 3 7 4 5 5 4 6 3 7 2 8 1 9 10 11 11 12 15 13 16 14
REMARK SMILES IDX 17 15 12 17 13 18 14 19
REMARK H PARENT
REMARK Flexibility Score: 70.00
ROOT
ATOM      1  C   UNL     1     108.746  48.231  61.392  1.00  0.00     0.136 C 
ATOM      2  O   UNL     1     108.475  47.466  60.476  1.00  0.00    -0.299 OA
ENDROOT
BRANCH   1   3
ATOM      3  C   UNL     1     107.721  49.302  61.745  1.00  0.00     0.053 C 
ATOM      4  C   UNL     1     106.396  48.663  62.194  1.00  0.00     0.016 C 
BRANCH   3   5
ATOM      5  C   UNL     1     107.522  50.486  60.751  1.00  0.00     0.015 C 
BRANCH   5   6
ATOM      6  C   UNL     1     108.458  51.715  60.815  1.00  0.00     0.028 C 
BRANCH   6   7
ATOM      7  C   UNL     1     108.435  52.460  62.124  1.00  0.00    -0.028 C 
ATOM      8  C   UNL     1     109.138  52.124  63.230  1.00  0.00    -0.070 CG0
ATOM      9  C   UNL     1     108.992  53.000  64.450  1.00  0.00     0.039 C 
ATOM     10  G   UNL     1     110.091  50.943  63.295  1.00  0.00     0.000 G0
ENDBRANCH   6   7
ENDBRANCH   5   6
ENDBRANCH   3   5
ENDBRANCH   1   3
BRANCH   1  11
ATOM     11  C   UNL     1     110.046  47.991  62.128  1.00  0.00     0.087 C 
BRANCH  11  12
ATOM     12  C   UNL     1     109.933  48.297  63.644  1.00  0.00     0.066 C 
BRANCH  12  13
ATOM     13  C   UNL     1     109.435  49.718  63.892  1.00  0.00     0.140 C 
ATOM     14  O   UNL     1     108.424  49.871  64.565  1.00  0.00    -0.299 OA
BRANCH  13  15
ATOM     15  C   UNL     1     110.113  50.947  63.331  1.00  0.00     0.106 CG0
ATOM     16  G   UNL     1     109.148  52.115  63.229  1.00  0.00     0.000 G0
ENDBRANCH  13  15
ENDBRANCH  12  13
BRANCH  12  17
ATOM     17  C   UNL     1     109.102  47.224  64.419  1.00  0.00    -0.006 C 
ATOM     18  C   UNL     1     109.498  47.174  65.905  1.00  0.00     0.008 C 
ATOM     19  C   UNL     1     109.270  45.818  63.814  1.00  0.00     0.008 C 
ENDBRANCH  12  17
ENDBRANCH  11  12
ENDBRANCH   1  11
TORSDOF 1
ENDMDL
MODEL 9
REMARK VINA RESULT:    -3.362      1.689      4.195
REMARK INTER + INTRA:          -3.943
REMARK INTER:                  -6.431
REMARK INTRA:                   2.488
REMARK UNBOUND:                 1.188
REMARK SMILES CC1=CCC[C@@H](C)C(=O)C[C@H](C(C)C)C(=O)C1
REMARK SMILES IDX 8 1 9 2 6 3 7 4 5 5 4 6 3 7 2 8 1 9 10 11 11 12 15 13 16 14
REMARK SMILES IDX 17 15 12 17 13 18 14 19
REMARK H PARENT
REMARK Flexibility Score: 70.00
ROOT
ATOM      1  C   UNL     1     107.963  48.344  64.532  1.00  0.00     0.136 C 
ATOM      2  O   UNL     1     107.706  48.715  65.669  1.00  0.00    -0.299 OA
ENDROOT
BRANCH   1   3
ATOM      3  C   UNL     1     108.809  47.087  64.372  1.00  0.00     0.053 C 
ATOM      4  C   UNL     1     109.378  46.636  65.728  1.00  0.00     0.016 C 
BRANCH   3   5
ATOM      5  C   UNL     1     109.865  47.050  63.225  1.00  0.00     0.015 C 
BRANCH   5   6
ATOM      6  C   UNL     1     109.409  47.166  61.752  1.00  0.00     0.028 C 
BRANCH   6   7
ATOM      7  C   UNL     1     109.875  48.410  61.043  1.00  0.00    -0.028 C 
ATOM      8  C   UNL     1     110.240  49.566  61.644  1.00  0.00    -0.070 CG0
ATOM      9  C   UNL     1     110.689  50.706  60.764  1.00  0.00     0.039 C 
ATOM     10  G   UNL     1     110.257  49.762  63.150  1.00  0.00     0.000 G0
ENDBRANCH   6   7
ENDBRANCH   5   6
ENDBRANCH   3   5
ENDBRANCH   1   3
BRANCH   1  11
ATOM     11  C   UNL     1     107.356  49.137  63.395  1.00  0.00     0.087 C 
BRANCH  11  12
ATOM     12  C   UNL     1     107.742  50.638  63.448  1.00  0.00     0.066 C 
BRANCH  12  13
ATOM     13  C   UNL     1     109.251  50.822  63.586  1.00  0.00     0.140 C 
ATOM     14  O   UNL     1     109.668  51.869  64.063  1.00  0.00    -0.299 OA
BRANCH  13  15
ATOM     15  C   UNL     1     110.259  49.787  63.143  1.00  0.00     0.106 CG0
ATOM     16  G   UNL     1     110.224  49.587  61.638  1.00  0.00     0.000 G0
ENDBRANCH  13  15
ENDBRANCH  12  13
BRANCH  12  17
ATOM     17  C   UNL     1     107.141  51.461  62.263  1.00  0.00    -0.006 C 
ATOM     18  C   UNL     1     107.257  50.694  60.934  1.00  0.00     0.008 C 
ATOM     19  C   UNL     1     107.826  52.830  62.106  1.00  0.00     0.008 C 
ENDBRANCH  12  17
ENDBRANCH  11  12
ENDBRANCH   1  11
TORSDOF 1
ENDMDL
