MODEL 1
REMARK VINA RESULT:    -3.070      0.000      0.000
REMARK INTER + INTRA:          -3.864
REMARK INTER:                  -4.326
REMARK INTRA:                   0.462
REMARK UNBOUND:                 0.462
REMARK SMILES CC1=CCC(=C(C)C)C(=O)CC(C)=CCC1
REMARK SMILES IDX 12 1 14 2 13 3 15 4 16 5 2 6 1 7 3 8 11 10 9 11 10 12 5 13
REMARK SMILES IDX 6 14 7 15 8 16 4 17
REMARK H PARENT
REMARK Flexibility Score: 60.00
ROOT
ATOM      1  C   UNL     1     190.597 189.630 240.761  1.00  0.00    -0.070 C 
ATOM      2  C   UNL     1     190.908 188.347 241.051  1.00  0.00    -0.027 C 
ATOM      3  C   UNL     1     189.150 190.044 240.863  1.00  0.00     0.039 C 
ENDROOT
BRANCH   2   4
ATOM      4  C   UNL     1     192.278 187.719 240.916  1.00  0.00     0.032 C 
BRANCH   4   5
ATOM      5  C   UNL     1     192.401 186.668 239.793  1.00  0.00     0.034 C 
BRANCH   5   6
ATOM      6  C   UNL     1     191.660 187.056 238.526  1.00  0.00    -0.077 C 
ATOM      7  C   UNL     1     190.412 186.284 238.180  1.00  0.00     0.039 C 
ATOM      8  C   UNL     1     192.085 188.000 237.652  1.00  0.00    -0.023 CG0
ATOM      9  G   UNL     1     193.291 188.908 237.800  1.00  0.00     0.000 G0
ENDBRANCH   5   6
ENDBRANCH   4   5
ENDBRANCH   2   4
BRANCH   1  10
ATOM     10  C   UNL     1     191.609 190.637 240.254  1.00  0.00     0.111 C 
BRANCH  10  11
ATOM     11  C   UNL     1     191.654 190.669 238.749  1.00  0.00     0.163 C 
ATOM     12  O   UNL     1     190.579 190.892 238.127  1.00  0.00    -0.294 OA
BRANCH  11  13
ATOM     13  C   UNL     1     192.900 190.386 237.978  1.00  0.00    -0.002 C 
ATOM     14  C   UNL     1     193.603 191.399 237.386  1.00  0.00    -0.069 C 
ATOM     15  C   UNL     1     193.235 192.849 237.620  1.00  0.00     0.039 C 
ATOM     16  C   UNL     1     194.777 191.131 236.470  1.00  0.00     0.039 C 
BRANCH  13  17
ATOM     17  C   UNL     1     193.294 188.928 237.803  1.00  0.00     0.066 CG0
ATOM     18  G   UNL     1     192.088 188.021 237.647  1.00  0.00     0.000 G0
ENDBRANCH  13  17
ENDBRANCH  11  13
ENDBRANCH  10  11
ENDBRANCH   1  10
TORSDOF 0
ENDMDL
MODEL 2
REMARK VINA RESULT:    -3.063     15.871     18.037
REMARK INTER + INTRA:          -3.855
REMARK INTER:                  -3.979
REMARK INTRA:                   0.124
REMARK UNBOUND:                 0.462
REMARK SMILES CC1=CCC(=C(C)C)C(=O)CC(C)=CCC1
REMARK SMILES IDX 12 1 14 2 13 3 15 4 16 5 2 6 1 7 3 8 11 10 9 11 10 12 5 13
REMARK SMILES IDX 6 14 7 15 8 16 4 17
REMARK H PARENT
REMARK Flexibility Score: 60.00
ROOT
ATOM      1  C   UNL     1     181.125 177.653 234.935  1.00  0.00    -0.070 C 
ATOM      2  C   UNL     1     180.687 176.658 234.132  1.00  0.00    -0.027 C 
ATOM      3  C   UNL     1     182.388 177.417 235.725  1.00  0.00     0.039 C 
ENDROOT
BRANCH   2   4
ATOM      4  C   UNL     1     179.398 176.666 233.339  1.00  0.00     0.032 C 
BRANCH   4   5
ATOM      5  C   UNL     1     178.134 176.330 234.156  1.00  0.00     0.034 C 
BRANCH   5   6
ATOM      6  C   UNL     1     177.013 177.337 233.966  1.00  0.00    -0.077 C 
ATOM      7  C   UNL     1     176.362 177.411 232.608  1.00  0.00     0.039 C 
ATOM      8  C   UNL     1     176.610 178.219 234.912  1.00  0.00    -0.023 CG0
ATOM      9  G   UNL     1     177.104 178.316 236.342  1.00  0.00     0.000 G0
ENDBRANCH   5   6
ENDBRANCH   4   5
ENDBRANCH   2   4
BRANCH   1  10
ATOM     10  C   UNL     1     180.365 178.947 235.146  1.00  0.00     0.111 C 
BRANCH  10  11
ATOM     11  C   UNL     1     179.606 178.938 236.447  1.00  0.00     0.163 C 
ATOM     12  O   UNL     1     180.188 178.485 237.470  1.00  0.00    -0.294 OA
BRANCH  11  13
ATOM     13  C   UNL     1     178.185 179.383 236.549  1.00  0.00    -0.002 C 
ATOM     14  C   UNL     1     177.878 180.674 236.881  1.00  0.00    -0.069 C 
ATOM     15  C   UNL     1     178.955 181.730 237.002  1.00  0.00     0.039 C 
ATOM     16  C   UNL     1     176.455 181.115 237.147  1.00  0.00     0.039 C 
BRANCH  13  17
ATOM     17  C   UNL     1     177.110 178.325 236.363  1.00  0.00     0.066 CG0
ATOM     18  G   UNL     1     176.628 178.238 234.928  1.00  0.00     0.000 G0
ENDBRANCH  13  17
ENDBRANCH  11  13
ENDBRANCH  10  11
ENDBRANCH   1  10
TORSDOF 0
ENDMDL
MODEL 3
REMARK VINA RESULT:    -3.043     11.115     13.702
REMARK INTER + INTRA:          -3.827
REMARK INTER:                  -4.238
REMARK INTRA:                   0.412
REMARK UNBOUND:                 0.462
REMARK SMILES CC1=CCC(=C(C)C)C(=O)CC(C)=CCC1
REMARK SMILES IDX 12 1 14 2 13 3 15 4 16 5 2 6 1 7 3 8 11 10 9 11 10 12 5 13
REMARK SMILES IDX 6 14 7 15 8 16 4 17
REMARK H PARENT
REMARK Flexibility Score: 60.00
ROOT
ATOM      1  C   UNL     1     182.174 182.980 240.581  1.00  0.00    -0.070 C 
ATOM      2  C   UNL     1     181.842 184.255 240.881  1.00  0.00    -0.027 C 
ATOM      3  C   UNL     1     183.636 182.612 240.587  1.00  0.00     0.039 C 
ENDROOT
BRANCH   2   4
ATOM      4  C   UNL     1     180.447 184.839 240.834  1.00  0.00     0.032 C 
BRANCH   4   5
ATOM      5  C   UNL     1     180.245 185.950 239.783  1.00  0.00     0.034 C 
BRANCH   5   6
ATOM      6  C   UNL     1     180.800 185.590 238.417  1.00  0.00    -0.077 C 
ATOM      7  C   UNL     1     181.935 186.424 237.880  1.00  0.00     0.039 C 
ATOM      8  C   UNL     1     180.297 184.616 237.620  1.00  0.00    -0.023 CG0
ATOM      9  G   UNL     1     179.179 183.646 237.954  1.00  0.00     0.000 G0
ENDBRANCH   5   6
ENDBRANCH   4   5
ENDBRANCH   2   4
BRANCH   1  10
ATOM     10  C   UNL     1     181.162 181.936 240.154  1.00  0.00     0.111 C 
BRANCH  10  11
ATOM     11  C   UNL     1     180.993 181.906 238.658  1.00  0.00     0.163 C 
ATOM     12  O   UNL     1     182.014 181.689 237.949  1.00  0.00    -0.294 OA
BRANCH  11  13
ATOM     13  C   UNL     1     179.686 182.186 237.993  1.00  0.00    -0.002 C 
ATOM     14  C   UNL     1     179.002 181.192 237.348  1.00  0.00    -0.069 C 
ATOM     15  C   UNL     1     179.462 179.752 237.419  1.00  0.00     0.039 C 
ATOM     16  C   UNL     1     177.760 181.475 236.533  1.00  0.00     0.039 C 
BRANCH  13  17
ATOM     17  C   UNL     1     179.206 183.628 237.984  1.00  0.00     0.066 CG0
ATOM     18  G   UNL     1     180.310 184.601 237.616  1.00  0.00     0.000 G0
ENDBRANCH  13  17
ENDBRANCH  11  13
ENDBRANCH  10  11
ENDBRANCH   1  10
TORSDOF 0
ENDMDL
MODEL 4
REMARK VINA RESULT:    -3.000      1.799      3.034
REMARK INTER + INTRA:          -3.766
REMARK INTER:                  -4.148
REMARK INTRA:                   0.382
REMARK UNBOUND:                 0.462
REMARK SMILES CC1=CCC(=C(C)C)C(=O)CC(C)=CCC1
REMARK SMILES IDX 12 1 14 2 13 3 15 4 16 5 2 6 1 7 3 8 11 10 9 11 10 12 5 13
REMARK SMILES IDX 6 14 7 15 8 16 4 17
REMARK H PARENT
REMARK Flexibility Score: 60.00
ROOT
ATOM      1  C   UNL     1     191.917 188.228 240.347  1.00  0.00    -0.070 C 
ATOM      2  C   UNL     1     190.728 188.593 240.876  1.00  0.00    -0.027 C 
ATOM      3  C   UNL     1     192.229 186.754 240.267  1.00  0.00     0.039 C 
ENDROOT
BRANCH   2   4
ATOM      4  C   UNL     1     190.274 190.014 241.130  1.00  0.00     0.032 C 
BRANCH   4   5
ATOM      5  C   UNL     1     189.017 190.442 240.345  1.00  0.00     0.034 C 
BRANCH   5   6
ATOM      6  C   UNL     1     189.091 190.104 238.866  1.00  0.00    -0.077 C 
ATOM      7  C   UNL     1     188.081 189.127 238.320  1.00  0.00     0.039 C 
ATOM      8  C   UNL     1     190.045 190.567 238.023  1.00  0.00    -0.023 CG0
ATOM      9  G   UNL     1     191.142 191.566 238.342  1.00  0.00     0.000 G0
ENDBRANCH   5   6
ENDBRANCH   4   5
ENDBRANCH   2   4
BRANCH   1  10
ATOM     10  C   UNL     1     192.978 189.221 239.920  1.00  0.00     0.111 C 
BRANCH  10  11
ATOM     11  C   UNL     1     192.811 189.627 238.480  1.00  0.00     0.163 C 
ATOM     12  O   UNL     1     192.959 188.743 237.593  1.00  0.00    -0.294 OA
BRANCH  11  13
ATOM     13  C   UNL     1     192.542 191.038 238.070  1.00  0.00    -0.002 C 
ATOM     14  C   UNL     1     193.543 191.826 237.575  1.00  0.00    -0.069 C 
ATOM     15  C   UNL     1     194.915 191.257 237.279  1.00  0.00     0.039 C 
ATOM     16  C   UNL     1     193.341 193.299 237.299  1.00  0.00     0.039 C 
BRANCH  13  17
ATOM     17  C   UNL     1     191.142 191.578 238.315  1.00  0.00     0.066 CG0
ATOM     18  G   UNL     1     190.068 190.546 238.027  1.00  0.00     0.000 G0
ENDBRANCH  13  17
ENDBRANCH  11  13
ENDBRANCH  10  11
ENDBRANCH   1  10
TORSDOF 0
ENDMDL
MODEL 5
REMARK VINA RESULT:    -2.963     14.219     15.381
REMARK INTER + INTRA:          -3.714
REMARK INTER:                  -4.143
REMARK INTRA:                   0.429
REMARK UNBOUND:                 0.462
REMARK SMILES CC1=CCC(=C(C)C)C(=O)CC(C)=CCC1
REMARK SMILES IDX 12 1 14 2 13 3 15 4 16 5 2 6 1 7 3 8 11 10 9 11 10 12 5 13
REMARK SMILES IDX 6 14 7 15 8 16 4 17
REMARK H PARENT
REMARK Flexibility Score: 60.00
ROOT
ATOM      1  C   UNL     1     187.158 189.981 224.802  1.00  0.00    -0.070 C 
ATOM      2  C   UNL     1     186.662 190.521 223.667  1.00  0.00    -0.027 C 
ATOM      3  C   UNL     1     187.732 188.588 224.727  1.00  0.00     0.039 C 
ENDROOT
BRANCH   2   4
ATOM      4  C   UNL     1     185.961 191.857 223.559  1.00  0.00     0.032 C 
BRANCH   4   5
ATOM      5  C   UNL     1     184.456 191.774 223.229  1.00  0.00     0.034 C 
BRANCH   5   6
ATOM      6  C   UNL     1     183.741 190.661 223.972  1.00  0.00    -0.077 C 
ATOM      7  C   UNL     1     183.261 189.478 223.170  1.00  0.00     0.039 C 
ATOM      8  C   UNL     1     183.443 190.693 225.294  1.00  0.00    -0.023 CG0
ATOM      9  G   UNL     1     183.837 191.762 226.295  1.00  0.00     0.000 G0
ENDBRANCH   5   6
ENDBRANCH   4   5
ENDBRANCH   2   4
BRANCH   1  10
ATOM     10  C   UNL     1     187.081 190.665 226.152  1.00  0.00     0.111 C 
BRANCH  10  11
ATOM     11  C   UNL     1     185.844 190.261 226.909  1.00  0.00     0.163 C 
ATOM     12  O   UNL     1     185.654 189.032 227.123  1.00  0.00    -0.294 OA
BRANCH  11  13
ATOM     13  C   UNL     1     184.817 191.249 227.353  1.00  0.00    -0.002 C 
ATOM     14  C   UNL     1     184.723 191.617 228.667  1.00  0.00    -0.069 C 
ATOM     15  C   UNL     1     185.746 191.162 229.684  1.00  0.00     0.039 C 
ATOM     16  C   UNL     1     183.597 192.492 229.174  1.00  0.00     0.039 C 
BRANCH  13  17
ATOM     17  C   UNL     1     183.833 191.747 226.307  1.00  0.00     0.066 CG0
ATOM     18  G   UNL     1     183.474 190.674 225.297  1.00  0.00     0.000 G0
ENDBRANCH  13  17
ENDBRANCH  11  13
ENDBRANCH  10  11
ENDBRANCH   1  10
TORSDOF 0
ENDMDL
MODEL 6
REMARK VINA RESULT:    -2.935     13.610     15.279
REMARK INTER + INTRA:          -3.675
REMARK INTER:                  -3.850
REMARK INTRA:                   0.175
REMARK UNBOUND:                 0.462
REMARK SMILES CC1=CCC(=C(C)C)C(=O)CC(C)=CCC1
REMARK SMILES IDX 12 1 14 2 13 3 15 4 16 5 2 6 1 7 3 8 11 10 9 11 10 12 5 13
REMARK SMILES IDX 6 14 7 15 8 16 4 17
REMARK H PARENT
REMARK Flexibility Score: 60.00
ROOT
ATOM      1  C   UNL     1     191.079 182.780 223.295  1.00  0.00    -0.070 C 
ATOM      2  C   UNL     1     192.313 182.314 223.005  1.00  0.00    -0.027 C 
ATOM      3  C   UNL     1     189.931 181.802 223.259  1.00  0.00     0.039 C 
ENDROOT
BRANCH   2   4
ATOM      4  C   UNL     1     193.569 183.151 222.894  1.00  0.00     0.032 C 
BRANCH   4   5
ATOM      5  C   UNL     1     194.142 183.641 224.239  1.00  0.00     0.034 C 
BRANCH   5   6
ATOM      6  C   UNL     1     194.377 185.141 224.279  1.00  0.00    -0.077 C 
ATOM      7  C   UNL     1     195.406 185.713 223.338  1.00  0.00     0.039 C 
ATOM      8  C   UNL     1     193.776 185.986 225.151  1.00  0.00    -0.023 CG0
ATOM      9  G   UNL     1     192.703 185.642 226.167  1.00  0.00     0.000 G0
ENDBRANCH   5   6
ENDBRANCH   4   5
ENDBRANCH   2   4
BRANCH   1  10
ATOM     10  C   UNL     1     190.782 184.241 223.561  1.00  0.00     0.111 C 
BRANCH  10  11
ATOM     11  C   UNL     1     190.693 184.530 225.036  1.00  0.00     0.163 C 
ATOM     12  O   UNL     1     190.042 183.727 225.760  1.00  0.00    -0.294 OA
BRANCH  11  13
ATOM     13  C   UNL     1     191.287 185.754 225.651  1.00  0.00    -0.002 C 
ATOM     14  C   UNL     1     190.604 186.938 225.654  1.00  0.00    -0.069 C 
ATOM     15  C   UNL     1     189.169 187.017 225.177  1.00  0.00     0.039 C 
ATOM     16  C   UNL     1     191.238 188.228 226.126  1.00  0.00     0.039 C 
BRANCH  13  17
ATOM     17  C   UNL     1     192.707 185.645 226.183  1.00  0.00     0.066 CG0
ATOM     18  G   UNL     1     193.744 186.000 225.135  1.00  0.00     0.000 G0
ENDBRANCH  13  17
ENDBRANCH  11  13
ENDBRANCH  10  11
ENDBRANCH   1  10
TORSDOF 0
ENDMDL
MODEL 7
REMARK VINA RESULT:    -2.896     15.532     16.716
REMARK INTER + INTRA:          -3.619
REMARK INTER:                  -4.190
REMARK INTRA:                   0.570
REMARK UNBOUND:                 0.462
REMARK SMILES CC1=CCC(=C(C)C)C(=O)CC(C)=CCC1
REMARK SMILES IDX 12 1 14 2 13 3 15 4 16 5 2 6 1 7 3 8 11 10 9 11 10 12 5 13
REMARK SMILES IDX 6 14 7 15 8 16 4 17
REMARK H PARENT
REMARK Flexibility Score: 60.00
ROOT
ATOM      1  C   UNL     1     184.817 191.342 226.579  1.00  0.00    -0.070 C 
ATOM      2  C   UNL     1     185.763 191.532 225.633  1.00  0.00    -0.027 C 
ATOM      3  C   UNL     1     185.272 191.183 228.008  1.00  0.00     0.039 C 
ENDROOT
BRANCH   2   4
ATOM      4  C   UNL     1     185.516 191.616 224.142  1.00  0.00     0.032 C 
BRANCH   4   5
ATOM      5  C   UNL     1     186.319 190.608 223.295  1.00  0.00     0.034 C 
BRANCH   5   6
ATOM      6  C   UNL     1     185.884 189.168 223.507  1.00  0.00    -0.077 C 
ATOM      7  C   UNL     1     186.961 188.137 223.729  1.00  0.00     0.039 C 
ATOM      8  C   UNL     1     184.600 188.740 223.439  1.00  0.00    -0.023 CG0
ATOM      9  G   UNL     1     183.360 189.592 223.246  1.00  0.00     0.000 G0
ENDBRANCH   5   6
ENDBRANCH   4   5
ENDBRANCH   2   4
BRANCH   1  10
ATOM     10  C   UNL     1     183.343 191.191 226.263  1.00  0.00     0.111 C 
BRANCH  10  11
ATOM     11  C   UNL     1     183.014 189.796 225.804  1.00  0.00     0.163 C 
ATOM     12  O   UNL     1     183.298 188.835 226.571  1.00  0.00    -0.294 OA
BRANCH  11  13
ATOM     13  C   UNL     1     182.428 189.511 224.460  1.00  0.00    -0.002 C 
ATOM     14  C   UNL     1     181.127 189.108 224.335  1.00  0.00    -0.069 C 
ATOM     15  C   UNL     1     180.195 189.087 225.528  1.00  0.00     0.039 C 
ATOM     16  C   UNL     1     180.551 188.662 223.010  1.00  0.00     0.039 C 
BRANCH  13  17
ATOM     17  C   UNL     1     183.360 189.597 223.263  1.00  0.00     0.066 CG0
ATOM     18  G   UNL     1     184.589 188.722 223.425  1.00  0.00     0.000 G0
ENDBRANCH  13  17
ENDBRANCH  11  13
ENDBRANCH  10  11
ENDBRANCH   1  10
TORSDOF 0
ENDMDL
MODEL 8
REMARK VINA RESULT:    -2.798     13.749     15.336
REMARK INTER + INTRA:          -3.481
REMARK INTER:                  -3.680
REMARK INTRA:                   0.199
REMARK UNBOUND:                 0.462
REMARK SMILES CC1=CCC(=C(C)C)C(=O)CC(C)=CCC1
REMARK SMILES IDX 12 1 14 2 13 3 15 4 16 5 2 6 1 7 3 8 11 10 9 11 10 12 5 13
REMARK SMILES IDX 6 14 7 15 8 16 4 17
REMARK H PARENT
REMARK Flexibility Score: 60.00
ROOT
ATOM      1  C   UNL     1     188.365 180.665 228.430  1.00  0.00    -0.070 C 
ATOM      2  C   UNL     1     187.445 181.011 229.358  1.00  0.00    -0.027 C 
ATOM      3  C   UNL     1     189.805 180.568 228.868  1.00  0.00     0.039 C 
ENDROOT
BRANCH   2   4
ATOM      4  C   UNL     1     185.975 181.254 229.096  1.00  0.00     0.032 C 
BRANCH   4   5
ATOM      5  C   UNL     1     185.589 182.734 228.892  1.00  0.00     0.034 C 
BRANCH   5   6
ATOM      6  C   UNL     1     184.784 182.974 227.628  1.00  0.00    -0.077 C 
ATOM      7  C   UNL     1     183.296 182.741 227.690  1.00  0.00     0.039 C 
ATOM      8  C   UNL     1     185.323 183.314 226.432  1.00  0.00    -0.023 CG0
ATOM      9  G   UNL     1     186.780 183.616 226.137  1.00  0.00     0.000 G0
ENDBRANCH   5   6
ENDBRANCH   4   5
ENDBRANCH   2   4
BRANCH   1  10
ATOM     10  C   UNL     1     188.034 180.464 226.966  1.00  0.00     0.111 C 
BRANCH  10  11
ATOM     11  C   UNL     1     188.450 181.647 226.134  1.00  0.00     0.163 C 
ATOM     12  O   UNL     1     189.669 181.972 226.131  1.00  0.00    -0.294 OA
BRANCH  11  13
ATOM     13  C   UNL     1     187.470 182.478 225.373  1.00  0.00    -0.002 C 
ATOM     14  C   UNL     1     187.265 182.271 224.037  1.00  0.00    -0.069 C 
ATOM     15  C   UNL     1     187.902 181.100 223.319  1.00  0.00     0.039 C 
ATOM     16  C   UNL     1     186.401 183.194 223.207  1.00  0.00     0.039 C 
BRANCH  13  17
ATOM     17  C   UNL     1     186.791 183.612 226.123  1.00  0.00     0.066 CG0
ATOM     18  G   UNL     1     185.328 183.324 226.401  1.00  0.00     0.000 G0
ENDBRANCH  13  17
ENDBRANCH  11  13
ENDBRANCH  10  11
ENDBRANCH   1  10
TORSDOF 0
ENDMDL
MODEL 9
REMARK VINA RESULT:    -2.715     12.790     14.539
REMARK INTER + INTRA:          -3.365
REMARK INTER:                  -3.633
REMARK INTRA:                   0.268
REMARK UNBOUND:                 0.462
REMARK SMILES CC1=CCC(=C(C)C)C(=O)CC(C)=CCC1
REMARK SMILES IDX 12 1 14 2 13 3 15 4 16 5 2 6 1 7 3 8 11 10 9 11 10 12 5 13
REMARK SMILES IDX 6 14 7 15 8 16 4 17
REMARK H PARENT
REMARK Flexibility Score: 60.00
ROOT
ATOM      1  C   UNL     1     193.245 184.362 223.467  1.00  0.00    -0.070 C 
ATOM      2  C   UNL     1     191.912 184.253 223.272  1.00  0.00    -0.027 C 
ATOM      3  C   UNL     1     194.050 183.090 223.557  1.00  0.00     0.039 C 
ENDROOT
BRANCH   2   4
ATOM      4  C   UNL     1     190.926 185.400 223.251  1.00  0.00     0.032 C 
BRANCH   4   5
ATOM      5  C   UNL     1     190.324 185.761 224.625  1.00  0.00     0.034 C 
BRANCH   5   6
ATOM      6  C   UNL     1     190.517 187.220 224.998  1.00  0.00    -0.077 C 
ATOM      7  C   UNL     1     189.609 188.235 224.352  1.00  0.00     0.039 C 
ATOM      8  C   UNL     1     191.496 187.675 225.817  1.00  0.00    -0.023 CG0
ATOM      9  G   UNL     1     192.506 186.845 226.587  1.00  0.00     0.000 G0
ENDBRANCH   5   6
ENDBRANCH   4   5
ENDBRANCH   2   4
BRANCH   1  10
ATOM     10  C   UNL     1     193.947 185.686 223.690  1.00  0.00     0.111 C 
BRANCH  10  11
ATOM     11  C   UNL     1     194.383 185.848 225.122  1.00  0.00     0.163 C 
ATOM     12  O   UNL     1     195.134 184.965 225.619  1.00  0.00    -0.294 OA
BRANCH  11  13
ATOM     13  C   UNL     1     193.909 186.973 225.982  1.00  0.00    -0.002 C 
ATOM     14  C   UNL     1     194.734 188.023 226.278  1.00  0.00    -0.069 C 
ATOM     15  C   UNL     1     196.092 188.161 225.625  1.00  0.00     0.039 C 
ATOM     16  C   UNL     1     194.340 189.096 227.270  1.00  0.00     0.039 C 
BRANCH  13  17
ATOM     17  C   UNL     1     192.518 186.852 226.582  1.00  0.00     0.066 CG0
ATOM     18  G   UNL     1     191.491 187.676 225.828  1.00  0.00     0.000 G0
ENDBRANCH  13  17
ENDBRANCH  11  13
ENDBRANCH  10  11
ENDBRANCH   1  10
TORSDOF 0
ENDMDL
