MODEL 1
REMARK VINA RESULT:    -5.205      0.000      0.000
REMARK INTER + INTRA:          -6.045
REMARK INTER:                  -5.814
REMARK INTRA:                  -0.231
REMARK UNBOUND:                -0.231
REMARK SMILES O=C([O-])c1ccccc1C(=O)[O-]
REMARK SMILES IDX 4 1 9 2 5 3 8 4 6 5 7 6 2 7 1 8 3 9 10 10 11 11 12 12
REMARK H PARENT
REMARK Flexibility Score: inf
ROOT
ATOM      1  C   UNL     1      -4.905  -6.282   5.758  1.00  0.00     0.006 A 
ATOM      2  C   UNL     1      -5.283  -5.280   6.696  1.00  0.00     0.006 A 
ATOM      3  C   UNL     1      -5.683  -6.464   4.600  1.00  0.00     0.010 A 
ATOM      4  C   UNL     1      -6.386  -4.456   6.409  1.00  0.00     0.010 A 
ATOM      5  C   UNL     1      -6.787  -5.650   4.347  1.00  0.00     0.001 A 
ATOM      6  C   UNL     1      -7.131  -4.641   5.244  1.00  0.00     0.001 A 
ENDROOT
BRANCH   1   7
ATOM      7  C   UNL     1      -3.679  -7.100   5.912  1.00  0.00     0.072 C 
ATOM      8  O   UNL     1      -2.575  -6.674   5.481  1.00  0.00    -0.545 OA
ATOM      9  O   UNL     1      -3.717  -8.312   6.589  1.00  0.00    -0.545 OA
ENDBRANCH   1   7
BRANCH   2  10
ATOM     10  C   UNL     1      -4.610  -5.106   8.004  1.00  0.00     0.072 C 
ATOM     11  O   UNL     1      -3.732  -4.218   8.164  1.00  0.00    -0.545 OA
ATOM     12  O   UNL     1      -4.897  -5.969   9.056  1.00  0.00    -0.545 OA
ENDBRANCH   2  10
TORSDOF 2
ENDMDL
MODEL 2
REMARK VINA RESULT:    -5.191      0.091      2.868
REMARK INTER + INTRA:          -6.029
REMARK INTER:                  -5.813
REMARK INTRA:                  -0.217
REMARK UNBOUND:                -0.231
REMARK SMILES O=C([O-])c1ccccc1C(=O)[O-]
REMARK SMILES IDX 4 1 9 2 5 3 8 4 6 5 7 6 2 7 1 8 3 9 10 10 11 11 12 12
REMARK H PARENT
REMARK Flexibility Score: inf
ROOT
ATOM      1  C   UNL     1      -5.252  -5.243   6.676  1.00  0.00     0.006 A 
ATOM      2  C   UNL     1      -4.891  -6.243   5.730  1.00  0.00     0.006 A 
ATOM      3  C   UNL     1      -6.337  -4.393   6.394  1.00  0.00     0.010 A 
ATOM      4  C   UNL     1      -5.669  -6.397   4.568  1.00  0.00     0.010 A 
ATOM      5  C   UNL     1      -7.081  -4.550   5.224  1.00  0.00     0.001 A 
ATOM      6  C   UNL     1      -6.754  -5.556   4.319  1.00  0.00     0.001 A 
ENDROOT
BRANCH   1   7
ATOM      7  C   UNL     1      -4.576  -5.101   7.987  1.00  0.00     0.072 C 
ATOM      8  O   UNL     1      -3.738  -4.179   8.171  1.00  0.00    -0.545 OA
ATOM      9  O   UNL     1      -4.905  -5.937   9.048  1.00  0.00    -0.545 OA
ENDBRANCH   1   7
BRANCH   2  10
ATOM     10  C   UNL     1      -3.685  -7.091   5.874  1.00  0.00     0.072 C 
ATOM     11  O   UNL     1      -2.559  -6.682   5.486  1.00  0.00    -0.545 OA
ATOM     12  O   UNL     1      -3.796  -8.381   6.382  1.00  0.00    -0.545 OA
ENDBRANCH   2  10
TORSDOF 2
ENDMDL
MODEL 3
REMARK VINA RESULT:    -5.112     10.807     11.786
REMARK INTER + INTRA:          -5.941
REMARK INTER:                  -5.782
REMARK INTRA:                  -0.159
REMARK UNBOUND:                -0.231
REMARK SMILES O=C([O-])c1ccccc1C(=O)[O-]
REMARK SMILES IDX 4 1 9 2 5 3 8 4 6 5 7 6 2 7 1 8 3 9 10 10 11 11 12 12
REMARK H PARENT
REMARK Flexibility Score: inf
ROOT
ATOM      1  C   UNL     1      -4.743  -4.810  -5.253  1.00  0.00     0.006 A 
ATOM      2  C   UNL     1      -5.740  -3.965  -4.690  1.00  0.00     0.006 A 
ATOM      3  C   UNL     1      -4.870  -6.205  -5.115  1.00  0.00     0.010 A 
ATOM      4  C   UNL     1      -6.860  -4.548  -4.069  1.00  0.00     0.010 A 
ATOM      5  C   UNL     1      -5.979  -6.760  -4.475  1.00  0.00     0.001 A 
ATOM      6  C   UNL     1      -6.976  -5.934  -3.963  1.00  0.00     0.001 A 
ENDROOT
BRANCH   1   7
ATOM      7  C   UNL     1      -3.604  -4.287  -6.043  1.00  0.00     0.072 C 
ATOM      8  O   UNL     1      -2.422  -4.487  -5.659  1.00  0.00    -0.545 OA
ATOM      9  O   UNL     1      -3.821  -3.630  -7.248  1.00  0.00    -0.545 OA
ENDBRANCH   1   7
BRANCH   2  10
ATOM     10  C   UNL     1      -5.624  -2.488  -4.664  1.00  0.00     0.072 C 
ATOM     11  O   UNL     1      -6.139  -1.785  -5.572  1.00  0.00    -0.545 OA
ATOM     12  O   UNL     1      -4.885  -1.865  -3.664  1.00  0.00    -0.545 OA
ENDBRANCH   2  10
TORSDOF 2
ENDMDL
MODEL 4
REMARK VINA RESULT:    -5.079      1.751      3.172
REMARK INTER + INTRA:          -5.904
REMARK INTER:                  -5.842
REMARK INTRA:                  -0.062
REMARK UNBOUND:                -0.231
REMARK SMILES O=C([O-])c1ccccc1C(=O)[O-]
REMARK SMILES IDX 4 1 9 2 5 3 8 4 6 5 7 6 2 7 1 8 3 9 10 10 11 11 12 12
REMARK H PARENT
REMARK Flexibility Score: inf
ROOT
ATOM      1  C   UNL     1      -5.515  -5.830   5.767  1.00  0.00     0.006 A 
ATOM      2  C   UNL     1      -4.757  -6.373   6.842  1.00  0.00     0.006 A 
ATOM      3  C   UNL     1      -5.605  -6.549   4.561  1.00  0.00     0.010 A 
ATOM      4  C   UNL     1      -4.172  -7.644   6.693  1.00  0.00     0.010 A 
ATOM      5  C   UNL     1      -4.998  -7.798   4.428  1.00  0.00     0.001 A 
ATOM      6  C   UNL     1      -4.292  -8.349   5.495  1.00  0.00     0.001 A 
ENDROOT
BRANCH   1   7
ATOM      7  C   UNL     1      -6.279  -4.566   5.885  1.00  0.00     0.072 C 
ATOM      8  O   UNL     1      -5.685  -3.458   5.808  1.00  0.00    -0.545 OA
ATOM      9  O   UNL     1      -7.662  -4.583   6.015  1.00  0.00    -0.545 OA
ENDBRANCH   1   7
BRANCH   2  10
ATOM     10  C   UNL     1      -4.491  -5.631   8.096  1.00  0.00     0.072 C 
ATOM     11  O   UNL     1      -5.017  -5.991   9.182  1.00  0.00    -0.545 OA
ATOM     12  O   UNL     1      -3.707  -4.483   8.074  1.00  0.00    -0.545 OA
ENDBRANCH   2  10
TORSDOF 2
ENDMDL
MODEL 5
REMARK VINA RESULT:    -5.075     10.808     12.190
REMARK INTER + INTRA:          -5.899
REMARK INTER:                  -5.726
REMARK INTRA:                  -0.173
REMARK UNBOUND:                -0.231
REMARK SMILES O=C([O-])c1ccccc1C(=O)[O-]
REMARK SMILES IDX 4 1 9 2 5 3 8 4 6 5 7 6 2 7 1 8 3 9 10 10 11 11 12 12
REMARK H PARENT
REMARK Flexibility Score: inf
ROOT
ATOM      1  C   UNL     1      -5.922  -4.007  -4.640  1.00  0.00     0.006 A 
ATOM      2  C   UNL     1      -4.942  -4.654  -5.444  1.00  0.00     0.006 A 
ATOM      3  C   UNL     1      -6.859  -4.790  -3.940  1.00  0.00     0.010 A 
ATOM      4  C   UNL     1      -4.895  -6.060  -5.467  1.00  0.00     0.010 A 
ATOM      5  C   UNL     1      -6.807  -6.183  -3.995  1.00  0.00     0.001 A 
ATOM      6  C   UNL     1      -5.822  -6.817  -4.748  1.00  0.00     0.001 A 
ENDROOT
BRANCH   1   7
ATOM      7  C   UNL     1      -5.956  -2.539  -4.447  1.00  0.00     0.072 C 
ATOM      8  O   UNL     1      -6.943  -1.870  -4.852  1.00  0.00    -0.545 OA
ATOM      9  O   UNL     1      -4.936  -1.890  -3.763  1.00  0.00    -0.545 OA
ENDBRANCH   1   7
BRANCH   2  10
ATOM     10  C   UNL     1      -4.004  -3.916  -6.322  1.00  0.00     0.072 C 
ATOM     11  O   UNL     1      -2.806  -3.739  -5.980  1.00  0.00    -0.545 OA
ATOM     12  O   UNL     1      -4.459  -3.351  -7.509  1.00  0.00    -0.545 OA
ENDBRANCH   2  10
TORSDOF 2
ENDMDL
MODEL 6
REMARK VINA RESULT:    -5.023      1.721      3.271
REMARK INTER + INTRA:          -5.841
REMARK INTER:                  -5.797
REMARK INTRA:                  -0.044
REMARK UNBOUND:                -0.231
REMARK SMILES O=C([O-])c1ccccc1C(=O)[O-]
REMARK SMILES IDX 4 1 9 2 5 3 8 4 6 5 7 6 2 7 1 8 3 9 10 10 11 11 12 12
REMARK H PARENT
REMARK Flexibility Score: inf
ROOT
ATOM      1  C   UNL     1      -4.756  -6.301   6.882  1.00  0.00     0.006 A 
ATOM      2  C   UNL     1      -5.510  -5.752   5.807  1.00  0.00     0.006 A 
ATOM      3  C   UNL     1      -4.182  -7.578   6.733  1.00  0.00     0.010 A 
ATOM      4  C   UNL     1      -5.606  -6.471   4.602  1.00  0.00     0.010 A 
ATOM      5  C   UNL     1      -4.309  -8.282   5.536  1.00  0.00     0.001 A 
ATOM      6  C   UNL     1      -5.010  -7.726   4.469  1.00  0.00     0.001 A 
ENDROOT
BRANCH   1   7
ATOM      7  C   UNL     1      -4.487  -5.555   8.133  1.00  0.00     0.072 C 
ATOM      8  O   UNL     1      -4.915  -5.990   9.235  1.00  0.00    -0.545 OA
ATOM      9  O   UNL     1      -3.705  -4.407   8.119  1.00  0.00    -0.545 OA
ENDBRANCH   1   7
BRANCH   2  10
ATOM     10  C   UNL     1      -6.264  -4.482   5.918  1.00  0.00     0.072 C 
ATOM     11  O   UNL     1      -5.669  -3.373   5.869  1.00  0.00    -0.545 OA
ATOM     12  O   UNL     1      -7.636  -4.503   6.143  1.00  0.00    -0.545 OA
ENDBRANCH   2  10
TORSDOF 2
ENDMDL
MODEL 7
REMARK VINA RESULT:    -4.907      1.809      3.208
REMARK INTER + INTRA:          -5.712
REMARK INTER:                  -5.502
REMARK INTRA:                  -0.210
REMARK UNBOUND:                -0.231
REMARK SMILES O=C([O-])c1ccccc1C(=O)[O-]
REMARK SMILES IDX 4 1 9 2 5 3 8 4 6 5 7 6 2 7 1 8 3 9 10 10 11 11 12 12
REMARK H PARENT
REMARK Flexibility Score: inf
ROOT
ATOM      1  C   UNL     1      -5.721  -6.058   5.710  1.00  0.00     0.006 A 
ATOM      2  C   UNL     1      -4.807  -6.429   6.737  1.00  0.00     0.006 A 
ATOM      3  C   UNL     1      -5.807  -6.851   4.551  1.00  0.00     0.010 A 
ATOM      4  C   UNL     1      -4.063  -7.614   6.593  1.00  0.00     0.010 A 
ATOM      5  C   UNL     1      -5.042  -8.010   4.421  1.00  0.00     0.001 A 
ATOM      6  C   UNL     1      -4.180  -8.397   5.444  1.00  0.00     0.001 A 
ENDROOT
BRANCH   1   7
ATOM      7  C   UNL     1      -6.643  -4.906   5.839  1.00  0.00     0.072 C 
ATOM      8  O   UNL     1      -7.801  -5.070   6.306  1.00  0.00    -0.545 OA
ATOM      9  O   UNL     1      -6.224  -3.622   5.510  1.00  0.00    -0.545 OA
ENDBRANCH   1   7
BRANCH   2  10
ATOM     10  C   UNL     1      -4.546  -5.586   7.927  1.00  0.00     0.072 C 
ATOM     11  O   UNL     1      -3.779  -4.591   7.856  1.00  0.00    -0.545 OA
ATOM     12  O   UNL     1      -5.098  -5.928   9.157  1.00  0.00    -0.545 OA
ENDBRANCH   2  10
TORSDOF 2
ENDMDL
MODEL 8
REMARK VINA RESULT:    -4.816      2.730      4.006
REMARK INTER + INTRA:          -5.610
REMARK INTER:                  -5.385
REMARK INTRA:                  -0.225
REMARK UNBOUND:                -0.231
REMARK SMILES O=C([O-])c1ccccc1C(=O)[O-]
REMARK SMILES IDX 4 1 9 2 5 3 8 4 6 5 7 6 2 7 1 8 3 9 10 10 11 11 12 12
REMARK H PARENT
REMARK Flexibility Score: inf
ROOT
ATOM      1  C   UNL     1      -5.273  -5.092   8.014  1.00  0.00     0.006 A 
ATOM      2  C   UNL     1      -5.638  -4.657   6.709  1.00  0.00     0.006 A 
ATOM      3  C   UNL     1      -4.537  -6.283   8.158  1.00  0.00     0.010 A 
ATOM      4  C   UNL     1      -5.199  -5.395   5.594  1.00  0.00     0.010 A 
ATOM      5  C   UNL     1      -4.132  -7.011   7.039  1.00  0.00     0.001 A 
ATOM      6  C   UNL     1      -4.452  -6.562   5.760  1.00  0.00     0.001 A 
ENDROOT
BRANCH   1   7
ATOM      7  C   UNL     1      -5.572  -4.304   9.232  1.00  0.00     0.072 C 
ATOM      8  O   UNL     1      -4.795  -3.382   9.597  1.00  0.00    -0.545 OA
ATOM      9  O   UNL     1      -6.742  -4.525   9.949  1.00  0.00    -0.545 OA
ENDBRANCH   1   7
BRANCH   2  10
ATOM     10  C   UNL     1      -6.525  -3.496   6.465  1.00  0.00     0.072 C 
ATOM     11  O   UNL     1      -7.763  -3.653   6.303  1.00  0.00    -0.545 OA
ATOM     12  O   UNL     1      -5.985  -2.220   6.345  1.00  0.00    -0.545 OA
ENDBRANCH   2  10
TORSDOF 2
ENDMDL
MODEL 9
REMARK VINA RESULT:    -4.778      1.932      3.242
REMARK INTER + INTRA:          -5.567
REMARK INTER:                  -5.361
REMARK INTRA:                  -0.206
REMARK UNBOUND:                -0.231
REMARK SMILES O=C([O-])c1ccccc1C(=O)[O-]
REMARK SMILES IDX 4 1 9 2 5 3 8 4 6 5 7 6 2 7 1 8 3 9 10 10 11 11 12 12
REMARK H PARENT
REMARK Flexibility Score: inf
ROOT
ATOM      1  C   UNL     1      -5.772  -6.404   6.403  1.00  0.00     0.006 A 
ATOM      2  C   UNL     1      -4.500  -6.554   7.024  1.00  0.00     0.006 A 
ATOM      3  C   UNL     1      -6.821  -5.806   7.126  1.00  0.00     0.010 A 
ATOM      4  C   UNL     1      -4.308  -6.042   8.321  1.00  0.00     0.010 A 
ATOM      5  C   UNL     1      -6.614  -5.326   8.419  1.00  0.00     0.001 A 
ATOM      6  C   UNL     1      -5.357  -5.434   9.011  1.00  0.00     0.001 A 
ENDROOT
BRANCH   1   7
ATOM      7  C   UNL     1      -6.023  -6.787   4.994  1.00  0.00     0.072 C 
ATOM      8  O   UNL     1      -5.779  -5.974   4.064  1.00  0.00    -0.545 OA
ATOM      9  O   UNL     1      -6.468  -8.064   4.676  1.00  0.00    -0.545 OA
ENDBRANCH   1   7
BRANCH   2  10
ATOM     10  C   UNL     1      -3.378  -7.290   6.397  1.00  0.00     0.072 C 
ATOM     11  O   UNL     1      -2.622  -6.725   5.564  1.00  0.00    -0.545 OA
ATOM     12  O   UNL     1      -3.188  -8.639   6.675  1.00  0.00    -0.545 OA
ENDBRANCH   2  10
TORSDOF 2
ENDMDL
