MODEL 1
REMARK VINA RESULT:    22.955      0.000      0.000
REMARK INTER + INTRA:          26.759
REMARK INTER:                  26.980
REMARK INTRA:                  -0.222
REMARK UNBOUND:                -0.222
REMARK SMILES O=c1c(O)c(-c2ccc(O)c(O)c2)oc2cc(O)ccc12
REMARK SMILES IDX 5 1 3 2 2 3 1 4 21 5 15 6 14 7 16 8 17 9 19 10 20 11 6 12
REMARK SMILES IDX 7 13 8 14 9 15 13 16 11 17 10 18 12 20 4 22 18 24
REMARK H PARENT 10 19 12 21 4 23 18 25
REMARK Flexibility Score: inf
ROOT
ATOM      1  C   UNL     1      14.486  50.294  24.138  1.00  0.00     0.180 A 
ATOM      2  C   UNL     1      14.975  51.599  23.925  1.00  0.00     0.208 A 
ATOM      3  C   UNL     1      16.020  52.071  24.735  1.00  0.00     0.235 A 
ATOM      4  O   UNL     1      16.467  53.239  24.570  1.00  0.00    -0.285 OA
ATOM      5  C   UNL     1      16.562  51.230  25.720  1.00  0.00     0.069 A 
ATOM      6  C   UNL     1      16.033  49.929  25.855  1.00  0.00     0.142 A 
ATOM      7  O   UNL     1      15.038  49.524  25.074  1.00  0.00    -0.452 OA
ATOM      8  C   UNL     1      16.553  49.058  26.819  1.00  0.00     0.094 A 
ATOM      9  C   UNL     1      17.599  49.474  27.653  1.00  0.00     0.119 A 
ATOM     10  C   UNL     1      18.125  50.763  27.522  1.00  0.00     0.047 A 
ATOM     11  C   UNL     1      17.612  51.640  26.562  1.00  0.00     0.020 A 
ENDROOT
BRANCH   1  12
ATOM     12  C   UNL     1      13.375  49.730  23.337  1.00  0.00     0.025 A 
ATOM     13  C   UNL     1      13.620  48.641  22.487  1.00  0.00     0.016 A 
ATOM     14  C   UNL     1      12.583  48.080  21.738  1.00  0.00     0.051 A 
ATOM     15  C   UNL     1      11.283  48.587  21.838  1.00  0.00     0.157 A 
ATOM     16  C   UNL     1      12.063  50.225  23.453  1.00  0.00     0.062 A 
ATOM     17  C   UNL     1      11.020  49.662  22.704  1.00  0.00     0.158 A 
BRANCH  15  18
ATOM     18  O   UNL     1      10.270  48.009  21.076  1.00  0.00    -0.504 OA
ATOM     19  H   UNL     1      10.412  47.154  20.550  1.00  0.00     0.293 HD
ENDBRANCH  15  18
BRANCH  17  20
ATOM     20  O   UNL     1       9.724  50.163  22.820  1.00  0.00    -0.504 OA
ATOM     21  H   UNL     1       9.490  50.874  23.502  1.00  0.00     0.293 HD
ENDBRANCH  17  20
ENDBRANCH   1  12
BRANCH   2  22
ATOM     22  O   UNL     1      14.448  52.394  22.904  1.00  0.00    -0.502 OA
ATOM     23  H   UNL     1      14.505  52.130  21.928  1.00  0.00     0.293 HD
ENDBRANCH   2  22
BRANCH   9  24
ATOM     24  O   UNL     1      18.124  48.614  28.616  1.00  0.00    -0.508 OA
ATOM     25  H   UNL     1      17.691  48.513  29.527  1.00  0.00     0.293 HD
ENDBRANCH   9  24
TORSDOF 5
ENDMDL
MODEL 2
REMARK VINA RESULT:    25.916      3.729      5.265
REMARK INTER + INTRA:          30.240
REMARK INTER:                  30.112
REMARK INTRA:                   0.128
REMARK UNBOUND:                -0.222
REMARK SMILES O=c1c(O)c(-c2ccc(O)c(O)c2)oc2cc(O)ccc12
REMARK SMILES IDX 5 1 3 2 2 3 1 4 21 5 15 6 14 7 16 8 17 9 19 10 20 11 6 12
REMARK SMILES IDX 7 13 8 14 9 15 13 16 11 17 10 18 12 20 4 22 18 24
REMARK H PARENT 10 19 12 21 4 23 18 25
REMARK Flexibility Score: inf
ROOT
ATOM      1  C   UNL     1      16.604  52.160  24.106  1.00  0.00     0.180 A 
ATOM      2  C   UNL     1      16.797  51.127  23.167  1.00  0.00     0.208 A 
ATOM      3  C   UNL     1      17.241  49.874  23.620  1.00  0.00     0.235 A 
ATOM      4  O   UNL     1      17.430  48.937  22.797  1.00  0.00    -0.285 OA
ATOM      5  C   UNL     1      17.461  49.676  24.992  1.00  0.00     0.069 A 
ATOM      6  C   UNL     1      17.222  50.755  25.871  1.00  0.00     0.142 A 
ATOM      7  O   UNL     1      16.812  51.927  25.400  1.00  0.00    -0.452 OA
ATOM      8  C   UNL     1      17.422  50.594  27.247  1.00  0.00     0.094 A 
ATOM      9  C   UNL     1      17.860  49.365  27.757  1.00  0.00     0.119 A 
ATOM     10  C   UNL     1      18.098  48.295  26.888  1.00  0.00     0.047 A 
ATOM     11  C   UNL     1      17.901  48.446  25.512  1.00  0.00     0.020 A 
ENDROOT
BRANCH   1  12
ATOM     12  C   UNL     1      16.156  53.514  23.704  1.00  0.00     0.025 A 
ATOM     13  C   UNL     1      15.280  54.227  24.538  1.00  0.00     0.016 A 
ATOM     14  C   UNL     1      14.860  55.512  24.189  1.00  0.00     0.051 A 
ATOM     15  C   UNL     1      15.321  56.113  23.013  1.00  0.00     0.157 A 
ATOM     16  C   UNL     1      16.635  54.127  22.533  1.00  0.00     0.062 A 
ATOM     17  C   UNL     1      16.217  55.419  22.182  1.00  0.00     0.158 A 
BRANCH  15  18
ATOM     18  O   UNL     1      14.882  57.396  22.690  1.00  0.00    -0.504 OA
ATOM     19  H   UNL     1      15.464  58.214  22.827  1.00  0.00     0.293 HD
ENDBRANCH  15  18
BRANCH  17  20
ATOM     20  O   UNL     1      16.691  56.017  21.015  1.00  0.00    -0.504 OA
ATOM     21  H   UNL     1      16.362  56.926  20.715  1.00  0.00     0.293 HD
ENDBRANCH  17  20
ENDBRANCH   1  12
BRANCH   2  22
ATOM     22  O   UNL     1      16.521  51.339  21.813  1.00  0.00    -0.502 OA
ATOM     23  H   UNL     1      15.677  50.996  21.372  1.00  0.00     0.293 HD
ENDBRANCH   2  22
BRANCH   9  24
ATOM     24  O   UNL     1      18.061  49.195  29.125  1.00  0.00    -0.508 OA
ATOM     25  H   UNL     1      18.916  49.502  29.576  1.00  0.00     0.293 HD
ENDBRANCH   9  24
TORSDOF 5
ENDMDL
