MODEL 1
REMARK VINA RESULT:    -6.672      0.000      0.000
REMARK INTER + INTRA:          -6.672
REMARK INTER:                  -6.672
REMARK INTRA:                   0.000
REMARK UNBOUND:                 0.000
REMARK SMILES CC1=CC(=O)[C@H]2C[C@@H]1C2(C)C
REMARK SMILES IDX 1 1 2 2 3 3 4 4 5 5 6 6 7 7 8 8 9 9 10 10 11 11
REMARK H PARENT
REMARK Flexibility Score: inf
ROOT
ATOM      1  C   UNL     1      23.340  56.116 139.489  1.00  0.00     0.040 C 
ATOM      2  C   UNL     1      24.813  56.332 139.345  1.00  0.00    -0.066 C 
ATOM      3  C   UNL     1      25.701  55.317 139.538  1.00  0.00     0.047 C 
ATOM      4  C   UNL     1      27.151  55.668 139.395  1.00  0.00     0.159 C 
ATOM      5  O   UNL     1      28.068  54.829 139.586  1.00  0.00    -0.295 OA
ATOM      6  C   UNL     1      27.437  57.118 139.001  1.00  0.00     0.067 C 
ATOM      7  C   UNL     1      26.442  57.403 137.856  1.00  0.00     0.021 C 
ATOM      8  C   UNL     1      25.398  57.706 138.955  1.00  0.00     0.022 C 
ATOM      9  C   UNL     1      26.582  58.053 139.903  1.00  0.00    -0.019 C 
ATOM     10  C   UNL     1      26.443  57.701 141.412  1.00  0.00     0.012 C 
ATOM     11  C   UNL     1      27.013  59.537 139.789  1.00  0.00     0.012 C 
ENDROOT
TORSDOF 0
ENDMDL
MODEL 2
REMARK VINA RESULT:    -6.348      1.756      2.926
REMARK INTER + INTRA:          -6.348
REMARK INTER:                  -6.348
REMARK INTRA:                   0.000
REMARK UNBOUND:                 0.000
REMARK SMILES CC1=CC(=O)[C@H]2C[C@@H]1C2(C)C
REMARK SMILES IDX 1 1 2 2 3 3 4 4 5 5 6 6 7 7 8 8 9 9 10 10 11 11
REMARK H PARENT
REMARK Flexibility Score: inf
ROOT
ATOM      1  C   UNL     1      25.956  56.670 143.150  1.00  0.00     0.040 C 
ATOM      2  C   UNL     1      26.848  56.730 141.950  1.00  0.00    -0.066 C 
ATOM      3  C   UNL     1      28.163  57.066 142.061  1.00  0.00     0.047 C 
ATOM      4  C   UNL     1      28.944  57.121 140.783  1.00  0.00     0.159 C 
ATOM      5  O   UNL     1      30.156  57.457 140.750  1.00  0.00    -0.295 OA
ATOM      6  C   UNL     1      28.164  56.742 139.523  1.00  0.00     0.067 C 
ATOM      7  C   UNL     1      27.398  55.463 139.924  1.00  0.00     0.021 C 
ATOM      8  C   UNL     1      26.331  56.397 140.535  1.00  0.00     0.022 C 
ATOM      9  C   UNL     1      26.804  57.495 139.539  1.00  0.00    -0.019 C 
ATOM     10  C   UNL     1      26.784  58.977 140.013  1.00  0.00     0.012 C 
ATOM     11  C   UNL     1      26.069  57.412 138.177  1.00  0.00     0.012 C 
ENDROOT
TORSDOF 0
ENDMDL
MODEL 3
REMARK VINA RESULT:    -6.309      1.425      1.911
REMARK INTER + INTRA:          -6.309
REMARK INTER:                  -6.309
REMARK INTRA:                   0.000
REMARK UNBOUND:                 0.000
REMARK SMILES CC1=CC(=O)[C@H]2C[C@@H]1C2(C)C
REMARK SMILES IDX 1 1 2 2 3 3 4 4 5 5 6 6 7 7 8 8 9 9 10 10 11 11
REMARK H PARENT
REMARK Flexibility Score: inf
ROOT
ATOM      1  C   UNL     1      23.443  56.258 139.421  1.00  0.00     0.040 C 
ATOM      2  C   UNL     1      24.894  56.504 139.688  1.00  0.00    -0.066 C 
ATOM      3  C   UNL     1      25.382  56.559 140.958  1.00  0.00     0.047 C 
ATOM      4  C   UNL     1      26.848  56.843 141.094  1.00  0.00     0.159 C 
ATOM      5  O   UNL     1      27.409  56.957 142.214  1.00  0.00    -0.295 OA
ATOM      6  C   UNL     1      27.611  56.987 139.776  1.00  0.00     0.067 C 
ATOM      7  C   UNL     1      27.115  55.802 138.921  1.00  0.00     0.021 C 
ATOM      8  C   UNL     1      25.910  56.692 138.541  1.00  0.00     0.022 C 
ATOM      9  C   UNL     1      26.805  57.930 138.839  1.00  0.00    -0.019 C 
ATOM     10  C   UNL     1      26.134  59.191 139.456  1.00  0.00     0.012 C 
ATOM     11  C   UNL     1      27.626  58.374 137.602  1.00  0.00     0.012 C 
ENDROOT
TORSDOF 0
ENDMDL
MODEL 4
REMARK VINA RESULT:    -6.300      1.650      2.426
REMARK INTER + INTRA:          -6.300
REMARK INTER:                  -6.300
REMARK INTRA:                   0.000
REMARK UNBOUND:                 0.000
REMARK SMILES CC1=CC(=O)[C@H]2C[C@@H]1C2(C)C
REMARK SMILES IDX 1 1 2 2 3 3 4 4 5 5 6 6 7 7 8 8 9 9 10 10 11 11
REMARK H PARENT
REMARK Flexibility Score: inf
ROOT
ATOM      1  C   UNL     1      23.941  56.264 139.671  1.00  0.00     0.040 C 
ATOM      2  C   UNL     1      25.243  56.953 139.413  1.00  0.00    -0.066 C 
ATOM      3  C   UNL     1      25.696  57.162 138.146  1.00  0.00     0.047 C 
ATOM      4  C   UNL     1      27.030  57.835 138.021  1.00  0.00     0.159 C 
ATOM      5  O   UNL     1      27.573  58.048 136.906  1.00  0.00    -0.295 OA
ATOM      6  C   UNL     1      27.683  58.244 139.342  1.00  0.00     0.067 C 
ATOM      7  C   UNL     1      26.539  58.904 140.140  1.00  0.00     0.021 C 
ATOM      8  C   UNL     1      26.127  57.477 140.565  1.00  0.00     0.022 C 
ATOM      9  C   UNL     1      27.602  57.042 140.325  1.00  0.00    -0.019 C 
ATOM     10  C   UNL     1      27.866  55.613 139.771  1.00  0.00     0.012 C 
ATOM     11  C   UNL     1      28.488  57.247 141.580  1.00  0.00     0.012 C 
ENDROOT
TORSDOF 0
ENDMDL
MODEL 5
REMARK VINA RESULT:    -6.211      1.202      2.403
REMARK INTER + INTRA:          -6.211
REMARK INTER:                  -6.211
REMARK INTRA:                   0.000
REMARK UNBOUND:                 0.000
REMARK SMILES CC1=CC(=O)[C@H]2C[C@@H]1C2(C)C
REMARK SMILES IDX 1 1 2 2 3 3 4 4 5 5 6 6 7 7 8 8 9 9 10 10 11 11
REMARK H PARENT
REMARK Flexibility Score: inf
ROOT
ATOM      1  C   UNL     1      26.796  58.000 142.324  1.00  0.00     0.040 C 
ATOM      2  C   UNL     1      26.661  57.409 140.956  1.00  0.00    -0.066 C 
ATOM      3  C   UNL     1      26.708  56.062 140.758  1.00  0.00     0.047 C 
ATOM      4  C   UNL     1      26.592  55.596 139.339  1.00  0.00     0.159 C 
ATOM      5  O   UNL     1      26.661  54.380 139.023  1.00  0.00    -0.295 OA
ATOM      6  C   UNL     1      26.386  56.701 138.302  1.00  0.00     0.067 C 
ATOM      7  C   UNL     1      25.301  57.606 138.925  1.00  0.00     0.021 C 
ATOM      8  C   UNL     1      26.444  58.290 139.708  1.00  0.00     0.022 C 
ATOM      9  C   UNL     1      27.413  57.835 138.578  1.00  0.00    -0.019 C 
ATOM     10  C   UNL     1      28.865  57.439 138.970  1.00  0.00     0.012 C 
ATOM     11  C   UNL     1      27.486  58.859 137.417  1.00  0.00     0.012 C 
ENDROOT
TORSDOF 0
ENDMDL
MODEL 6
REMARK VINA RESULT:    -6.170      1.798      3.556
REMARK INTER + INTRA:          -6.170
REMARK INTER:                  -6.170
REMARK INTRA:                   0.000
REMARK UNBOUND:                 0.000
REMARK SMILES CC1=CC(=O)[C@H]2C[C@@H]1C2(C)C
REMARK SMILES IDX 1 1 2 2 3 3 4 4 5 5 6 6 7 7 8 8 9 9 10 10 11 11
REMARK H PARENT
REMARK Flexibility Score: inf
ROOT
ATOM      1  C   UNL     1      27.510  59.110 136.786  1.00  0.00     0.040 C 
ATOM      2  C   UNL     1      27.033  58.520 138.076  1.00  0.00    -0.066 C 
ATOM      3  C   UNL     1      27.196  59.175 139.258  1.00  0.00     0.047 C 
ATOM      4  C   UNL     1      26.703  58.465 140.483  1.00  0.00     0.159 C 
ATOM      5  O   UNL     1      26.832  58.948 141.637  1.00  0.00    -0.295 OA
ATOM      6  C   UNL     1      26.035  57.113 140.231  1.00  0.00     0.067 C 
ATOM      7  C   UNL     1      25.090  57.374 139.039  1.00  0.00     0.021 C 
ATOM      8  C   UNL     1      26.318  57.153 138.128  1.00  0.00     0.022 C 
ATOM      9  C   UNL     1      26.935  56.289 139.266  1.00  0.00    -0.019 C 
ATOM     10  C   UNL     1      28.476  56.335 139.472  1.00  0.00     0.012 C 
ATOM     11  C   UNL     1      26.501  54.804 139.180  1.00  0.00     0.012 C 
ENDROOT
TORSDOF 0
ENDMDL
MODEL 7
REMARK VINA RESULT:    -6.150      1.775      3.002
REMARK INTER + INTRA:          -6.150
REMARK INTER:                  -6.150
REMARK INTRA:                   0.000
REMARK UNBOUND:                 0.000
REMARK SMILES CC1=CC(=O)[C@H]2C[C@@H]1C2(C)C
REMARK SMILES IDX 1 1 2 2 3 3 4 4 5 5 6 6 7 7 8 8 9 9 10 10 11 11
REMARK H PARENT
REMARK Flexibility Score: inf
ROOT
ATOM      1  C   UNL     1      26.127  56.532 143.236  1.00  0.00     0.040 C 
ATOM      2  C   UNL     1      26.219  56.927 141.797  1.00  0.00    -0.066 C 
ATOM      3  C   UNL     1      25.189  56.706 140.934  1.00  0.00     0.047 C 
ATOM      4  C   UNL     1      25.415  57.119 139.511  1.00  0.00     0.159 C 
ATOM      5  O   UNL     1      24.556  56.932 138.612  1.00  0.00    -0.295 OA
ATOM      6  C   UNL     1      26.764  57.783 139.229  1.00  0.00     0.067 C 
ATOM      7  C   UNL     1      26.934  58.797 140.380  1.00  0.00     0.021 C 
ATOM      8  C   UNL     1      27.473  57.620 141.223  1.00  0.00     0.022 C 
ATOM      9  C   UNL     1      27.883  56.929 139.890  1.00  0.00    -0.019 C 
ATOM     10  C   UNL     1      27.779  55.379 139.804  1.00  0.00     0.012 C 
ATOM     11  C   UNL     1      29.299  57.347 139.420  1.00  0.00     0.012 C 
ENDROOT
TORSDOF 0
ENDMDL
MODEL 8
REMARK VINA RESULT:    -6.070      2.044      3.601
REMARK INTER + INTRA:          -6.070
REMARK INTER:                  -6.070
REMARK INTRA:                   0.000
REMARK UNBOUND:                 0.000
REMARK SMILES CC1=CC(=O)[C@H]2C[C@@H]1C2(C)C
REMARK SMILES IDX 1 1 2 2 3 3 4 4 5 5 6 6 7 7 8 8 9 9 10 10 11 11
REMARK H PARENT
REMARK Flexibility Score: inf
ROOT
ATOM      1  C   UNL     1      29.422  56.560 139.955  1.00  0.00     0.040 C 
ATOM      2  C   UNL     1      28.120  57.251 139.701  1.00  0.00    -0.066 C 
ATOM      3  C   UNL     1      27.980  58.592 139.887  1.00  0.00     0.047 C 
ATOM      4  C   UNL     1      26.618  59.160 139.627  1.00  0.00     0.159 C 
ATOM      5  O   UNL     1      26.353  60.378 139.801  1.00  0.00    -0.295 OA
ATOM      6  C   UNL     1      25.573  58.156 139.139  1.00  0.00     0.067 C 
ATOM      7  C   UNL     1      26.308  57.345 138.050  1.00  0.00     0.021 C 
ATOM      8  C   UNL     1      26.878  56.484 139.199  1.00  0.00     0.022 C 
ATOM      9  C   UNL     1      25.638  56.894 140.045  1.00  0.00    -0.019 C 
ATOM     10  C   UNL     1      25.826  57.092 141.577  1.00  0.00     0.012 C 
ATOM     11  C   UNL     1      24.433  55.947 139.823  1.00  0.00     0.012 C 
ENDROOT
TORSDOF 0
ENDMDL
MODEL 9
REMARK VINA RESULT:    -6.018      2.059      3.739
REMARK INTER + INTRA:          -6.018
REMARK INTER:                  -6.018
REMARK INTRA:                   0.000
REMARK UNBOUND:                 0.000
REMARK SMILES CC1=CC(=O)[C@H]2C[C@@H]1C2(C)C
REMARK SMILES IDX 1 1 2 2 3 3 4 4 5 5 6 6 7 7 8 8 9 9 10 10 11 11
REMARK H PARENT
REMARK Flexibility Score: inf
ROOT
ATOM      1  C   UNL     1      26.761  60.517 140.081  1.00  0.00     0.040 C 
ATOM      2  C   UNL     1      27.302  59.251 140.668  1.00  0.00    -0.066 C 
ATOM      3  C   UNL     1      28.059  58.394 139.929  1.00  0.00     0.047 C 
ATOM      4  C   UNL     1      28.515  57.146 140.622  1.00  0.00     0.159 C 
ATOM      5  O   UNL     1      29.186  56.258 140.036  1.00  0.00    -0.295 OA
ATOM      6  C   UNL     1      28.106  57.027 142.091  1.00  0.00     0.067 C 
ATOM      7  C   UNL     1      28.420  58.416 142.685  1.00  0.00     0.021 C 
ATOM      8  C   UNL     1      27.045  58.864 142.140  1.00  0.00     0.022 C 
ATOM      9  C   UNL     1      26.596  57.376 142.213  1.00  0.00    -0.019 C 
ATOM     10  C   UNL     1      25.623  56.847 141.121  1.00  0.00     0.012 C 
ATOM     11  C   UNL     1      26.015  57.004 143.601  1.00  0.00     0.012 C 
ENDROOT
TORSDOF 0
ENDMDL
