MODEL 1
REMARK VINA RESULT:    -2.553      0.000      0.000
REMARK INTER + INTRA:          -5.654
REMARK INTER:                  -4.493
REMARK INTRA:                  -1.161
REMARK UNBOUND:                -1.161
REMARK SMILES CCCCCCCCCCCCCCC(=O)[O-]
REMARK SMILES IDX 9 1 10 2 11 3 12 4 13 5 14 6 15 7 16 8 17 9 8 10 7 11 6 12
REMARK SMILES IDX 5 13 4 14 3 15 2 16 1 17
REMARK H PARENT
REMARK Flexibility Score: inf
ROOT
ATOM      1  C   UNL     1      -4.585  -9.127   1.980  1.00  0.00     0.000 C 
ENDROOT
BRANCH   1   2
ATOM      2  C   UNL     1      -6.052  -9.192   1.518  1.00  0.00     0.000 C 
BRANCH   2   3
ATOM      3  C   UNL     1      -6.985  -8.355   2.405  1.00  0.00     0.000 C 
BRANCH   3   4
ATOM      4  C   UNL     1      -6.859  -8.711   3.896  1.00  0.00     0.000 C 
BRANCH   4   5
ATOM      5  C   UNL     1      -6.387  -7.522   4.754  1.00  0.00     0.006 C 
BRANCH   5   6
ATOM      6  C   UNL     1      -6.608  -6.149   4.102  1.00  0.00     0.053 C 
BRANCH   6   7
ATOM      7  C   UNL     1      -5.316  -5.490   3.726  1.00  0.00     0.041 C 
ATOM      8  O   UNL     1      -5.286  -4.262   3.454  1.00  0.00    -0.550 OA
ATOM      9  O   UNL     1      -4.139  -6.228   3.710  1.00  0.00    -0.550 OA
ENDBRANCH   6   7
ENDBRANCH   5   6
ENDBRANCH   4   5
ENDBRANCH   3   4
ENDBRANCH   2   3
ENDBRANCH   1   2
BRANCH   1  10
ATOM     10  C   UNL     1      -4.023 -10.508   2.358  1.00  0.00     0.000 C 
BRANCH  10  11
ATOM     11  C   UNL     1      -3.246 -10.486   3.684  1.00  0.00    -0.000 C 
BRANCH  11  12
ATOM     12  C   UNL     1      -1.859 -11.125   3.517  1.00  0.00    -0.000 C 
BRANCH  12  13
ATOM     13  C   UNL     1      -0.830 -10.153   2.910  1.00  0.00    -0.000 C 
BRANCH  13  14
ATOM     14  C   UNL     1      -0.959  -8.711   3.439  1.00  0.00    -0.000 C 
BRANCH  14  15
ATOM     15  C   UNL     1      -0.057  -8.429   4.662  1.00  0.00    -0.000 C 
BRANCH  15  16
ATOM     16  C   UNL     1       0.533  -7.009   4.673  1.00  0.00    -0.003 C 
ATOM     17  C   UNL     1      -0.528  -5.928   4.864  1.00  0.00     0.004 C 
ENDBRANCH  15  16
ENDBRANCH  14  15
ENDBRANCH  13  14
ENDBRANCH  12  13
ENDBRANCH  11  12
ENDBRANCH  10  11
ENDBRANCH   1  10
TORSDOF 13
ENDMDL
MODEL 2
REMARK VINA RESULT:    -2.407      1.344      4.210
REMARK INTER + INTRA:          -5.396
REMARK INTER:                  -3.835
REMARK INTRA:                  -1.561
REMARK UNBOUND:                -1.161
REMARK SMILES CCCCCCCCCCCCCCC(=O)[O-]
REMARK SMILES IDX 9 1 10 2 11 3 12 4 13 5 14 6 15 7 16 8 17 9 8 10 7 11 6 12
REMARK SMILES IDX 5 13 4 14 3 15 2 16 1 17
REMARK H PARENT
REMARK Flexibility Score: inf
ROOT
ATOM      1  C   UNL     1      -0.324  -8.073   4.136  1.00  0.00     0.000 C 
ENDROOT
BRANCH   1   2
ATOM      2  C   UNL     1      -1.373  -7.215   4.867  1.00  0.00     0.000 C 
BRANCH   2   3
ATOM      3  C   UNL     1      -2.715  -7.943   5.035  1.00  0.00     0.000 C 
BRANCH   3   4
ATOM      4  C   UNL     1      -3.748  -7.528   3.973  1.00  0.00     0.000 C 
BRANCH   4   5
ATOM      5  C   UNL     1      -5.192  -7.549   4.507  1.00  0.00     0.006 C 
BRANCH   5   6
ATOM      6  C   UNL     1      -6.173  -6.682   3.703  1.00  0.00     0.053 C 
BRANCH   6   7
ATOM      7  C   UNL     1      -6.106  -5.239   4.100  1.00  0.00     0.041 C 
ATOM      8  O   UNL     1      -6.833  -4.804   5.030  1.00  0.00    -0.550 OA
ATOM      9  O   UNL     1      -5.214  -4.385   3.465  1.00  0.00    -0.550 OA
ENDBRANCH   6   7
ENDBRANCH   5   6
ENDBRANCH   4   5
ENDBRANCH   3   4
ENDBRANCH   2   3
ENDBRANCH   1   2
BRANCH   1  10
ATOM     10  C   UNL     1      -0.408  -9.560   4.519  1.00  0.00     0.000 C 
BRANCH  10  11
ATOM     11  C   UNL     1      -0.163 -10.492   3.322  1.00  0.00    -0.000 C 
BRANCH  11  12
ATOM     12  C   UNL     1      -1.486 -11.070   2.798  1.00  0.00    -0.000 C 
BRANCH  12  13
ATOM     13  C   UNL     1      -2.625 -10.968   3.831  1.00  0.00    -0.000 C 
BRANCH  13  14
ATOM     14  C   UNL     1      -4.029 -11.123   3.214  1.00  0.00    -0.000 C 
BRANCH  14  15
ATOM     15  C   UNL     1      -4.168 -10.438   1.836  1.00  0.00    -0.000 C 
BRANCH  15  16
ATOM     16  C   UNL     1      -5.627 -10.263   1.384  1.00  0.00    -0.003 C 
ATOM     17  C   UNL     1      -5.908  -8.875   0.811  1.00  0.00     0.004 C 
ENDBRANCH  15  16
ENDBRANCH  14  15
ENDBRANCH  13  14
ENDBRANCH  12  13
ENDBRANCH  11  12
ENDBRANCH  10  11
ENDBRANCH   1  10
TORSDOF 13
ENDMDL
MODEL 3
REMARK VINA RESULT:    -2.334      2.266      3.396
REMARK INTER + INTRA:          -5.268
REMARK INTER:                  -3.787
REMARK INTRA:                  -1.481
REMARK UNBOUND:                -1.161
REMARK SMILES CCCCCCCCCCCCCCC(=O)[O-]
REMARK SMILES IDX 9 1 10 2 11 3 12 4 13 5 14 6 15 7 16 8 17 9 8 10 7 11 6 12
REMARK SMILES IDX 5 13 4 14 3 15 2 16 1 17
REMARK H PARENT
REMARK Flexibility Score: inf
ROOT
ATOM      1  C   UNL     1      -5.125  -7.412   4.221  1.00  0.00     0.000 C 
ENDROOT
BRANCH   1   2
ATOM      2  C   UNL     1      -6.331  -7.878   3.386  1.00  0.00     0.000 C 
BRANCH   2   3
ATOM      3  C   UNL     1      -6.749  -9.320   3.711  1.00  0.00     0.000 C 
BRANCH   3   4
ATOM      4  C   UNL     1      -7.069 -10.140   2.449  1.00  0.00     0.000 C 
BRANCH   4   5
ATOM      5  C   UNL     1      -5.907 -11.059   2.026  1.00  0.00     0.006 C 
BRANCH   5   6
ATOM      6  C   UNL     1      -5.476 -10.894   0.561  1.00  0.00     0.053 C 
BRANCH   6   7
ATOM      7  C   UNL     1      -5.871  -9.561   0.004  1.00  0.00     0.041 C 
ATOM      8  O   UNL     1      -5.161  -8.546   0.228  1.00  0.00    -0.550 OA
ATOM      9  O   UNL     1      -7.004  -9.448  -0.791  1.00  0.00    -0.550 OA
ENDBRANCH   6   7
ENDBRANCH   5   6
ENDBRANCH   4   5
ENDBRANCH   3   4
ENDBRANCH   2   3
ENDBRANCH   1   2
BRANCH   1  10
ATOM     10  C   UNL     1      -3.779  -7.772   3.569  1.00  0.00     0.000 C 
BRANCH  10  11
ATOM     11  C   UNL     1      -3.268  -9.156   3.996  1.00  0.00    -0.000 C 
BRANCH  11  12
ATOM     12  C   UNL     1      -2.389  -9.778   2.900  1.00  0.00    -0.000 C 
BRANCH  12  13
ATOM     13  C   UNL     1      -0.912  -9.896   3.323  1.00  0.00    -0.000 C 
BRANCH  13  14
ATOM     14  C   UNL     1      -0.684  -9.664   4.829  1.00  0.00    -0.000 C 
BRANCH  14  15
ATOM     15  C   UNL     1       0.287  -8.498   5.125  1.00  0.00    -0.000 C 
BRANCH  15  16
ATOM     16  C   UNL     1      -0.214  -7.139   4.610  1.00  0.00    -0.003 C 
ATOM     17  C   UNL     1       0.780  -6.456   3.672  1.00  0.00     0.004 C 
ENDBRANCH  15  16
ENDBRANCH  14  15
ENDBRANCH  13  14
ENDBRANCH  12  13
ENDBRANCH  11  12
ENDBRANCH  10  11
ENDBRANCH   1  10
TORSDOF 13
ENDMDL
MODEL 4
REMARK VINA RESULT:    -2.306      1.878      5.268
REMARK INTER + INTRA:          -5.218
REMARK INTER:                  -3.864
REMARK INTRA:                  -1.354
REMARK UNBOUND:                -1.161
REMARK SMILES CCCCCCCCCCCCCCC(=O)[O-]
REMARK SMILES IDX 9 1 10 2 11 3 12 4 13 5 14 6 15 7 16 8 17 9 8 10 7 11 6 12
REMARK SMILES IDX 5 13 4 14 3 15 2 16 1 17
REMARK H PARENT
REMARK Flexibility Score: inf
ROOT
ATOM      1  C   UNL     1      -2.692 -11.027   3.481  1.00  0.00     0.000 C 
ENDROOT
BRANCH   1   2
ATOM      2  C   UNL     1      -1.345 -10.577   2.886  1.00  0.00     0.000 C 
BRANCH   2   3
ATOM      3  C   UNL     1      -0.756  -9.362   3.618  1.00  0.00     0.000 C 
BRANCH   3   4
ATOM      4  C   UNL     1      -1.729  -8.765   4.648  1.00  0.00     0.000 C 
BRANCH   4   5
ATOM      5  C   UNL     1      -1.305  -7.363   5.124  1.00  0.00     0.006 C 
BRANCH   5   6
ATOM      6  C   UNL     1       0.182  -7.046   4.902  1.00  0.00     0.053 C 
BRANCH   6   7
ATOM      7  C   UNL     1       0.378  -5.775   4.133  1.00  0.00     0.041 C 
ATOM      8  O   UNL     1       1.121  -5.756   3.118  1.00  0.00    -0.550 OA
ATOM      9  O   UNL     1      -0.290  -4.619   4.520  1.00  0.00    -0.550 OA
ENDBRANCH   6   7
ENDBRANCH   5   6
ENDBRANCH   4   5
ENDBRANCH   3   4
ENDBRANCH   2   3
ENDBRANCH   1   2
BRANCH   1  10
ATOM     10  C   UNL     1      -3.855 -10.880   2.486  1.00  0.00     0.000 C 
BRANCH  10  11
ATOM     11  C   UNL     1      -4.248  -9.414   2.249  1.00  0.00    -0.000 C 
BRANCH  11  12
ATOM     12  C   UNL     1      -5.676  -9.142   2.745  1.00  0.00    -0.000 C 
BRANCH  12  13
ATOM     13  C   UNL     1      -5.767  -9.087   4.282  1.00  0.00    -0.000 C 
BRANCH  13  14
ATOM     14  C   UNL     1      -5.559  -7.674   4.861  1.00  0.00    -0.000 C 
BRANCH  14  15
ATOM     15  C   UNL     1      -6.828  -6.795   4.793  1.00  0.00    -0.000 C 
BRANCH  15  16
ATOM     16  C   UNL     1      -6.567  -5.385   4.238  1.00  0.00    -0.003 C 
ATOM     17  C   UNL     1      -5.175  -5.236   3.629  1.00  0.00     0.004 C 
ENDBRANCH  15  16
ENDBRANCH  14  15
ENDBRANCH  13  14
ENDBRANCH  12  13
ENDBRANCH  11  12
ENDBRANCH  10  11
ENDBRANCH   1  10
TORSDOF 13
ENDMDL
MODEL 5
REMARK VINA RESULT:    -2.155      2.161      3.091
REMARK INTER + INTRA:          -4.953
REMARK INTER:                  -4.060
REMARK INTRA:                  -0.893
REMARK UNBOUND:                -1.161
REMARK SMILES CCCCCCCCCCCCCCC(=O)[O-]
REMARK SMILES IDX 9 1 10 2 11 3 12 4 13 5 14 6 15 7 16 8 17 9 8 10 7 11 6 12
REMARK SMILES IDX 5 13 4 14 3 15 2 16 1 17
REMARK H PARENT
REMARK Flexibility Score: inf
ROOT
ATOM      1  C   UNL     1      -3.780  -9.616   3.363  1.00  0.00     0.000 C 
ENDROOT
BRANCH   1   2
ATOM      2  C   UNL     1      -4.838 -10.283   4.261  1.00  0.00     0.000 C 
BRANCH   2   3
ATOM      3  C   UNL     1      -6.158  -9.498   4.297  1.00  0.00     0.000 C 
BRANCH   3   4
ATOM      4  C   UNL     1      -6.071  -8.162   3.537  1.00  0.00     0.000 C 
BRANCH   4   5
ATOM      5  C   UNL     1      -6.917  -8.154   2.250  1.00  0.00     0.006 C 
BRANCH   5   6
ATOM      6  C   UNL     1      -6.835  -9.454   1.435  1.00  0.00     0.053 C 
BRANCH   6   7
ATOM      7  C   UNL     1      -6.215  -9.236   0.088  1.00  0.00     0.041 C 
ATOM      8  O   UNL     1      -5.243  -8.449  -0.041  1.00  0.00    -0.550 OA
ATOM      9  O   UNL     1      -6.692  -9.930  -1.017  1.00  0.00    -0.550 OA
ENDBRANCH   6   7
ENDBRANCH   5   6
ENDBRANCH   4   5
ENDBRANCH   3   4
ENDBRANCH   2   3
ENDBRANCH   1   2
BRANCH   1  10
ATOM     10  C   UNL     1      -2.721 -10.610   2.859  1.00  0.00     0.000 C 
BRANCH  10  11
ATOM     11  C   UNL     1      -1.801 -11.112   3.983  1.00  0.00    -0.000 C 
BRANCH  11  12
ATOM     12  C   UNL     1      -0.324 -10.906   3.615  1.00  0.00    -0.000 C 
BRANCH  12  13
ATOM     13  C   UNL     1       0.448 -10.115   4.688  1.00  0.00    -0.000 C 
BRANCH  13  14
ATOM     14  C   UNL     1      -0.236  -8.793   5.088  1.00  0.00    -0.000 C 
BRANCH  14  15
ATOM     15  C   UNL     1       0.735  -7.592   5.125  1.00  0.00    -0.000 C 
BRANCH  15  16
ATOM     16  C   UNL     1       0.327  -6.446   4.184  1.00  0.00    -0.003 C 
ATOM     17  C   UNL     1      -0.573  -5.415   4.861  1.00  0.00     0.004 C 
ENDBRANCH  15  16
ENDBRANCH  14  15
ENDBRANCH  13  14
ENDBRANCH  12  13
ENDBRANCH  11  12
ENDBRANCH  10  11
ENDBRANCH   1  10
TORSDOF 13
ENDMDL
MODEL 6
REMARK VINA RESULT:    -1.964      2.301      6.311
REMARK INTER + INTRA:          -4.617
REMARK INTER:                  -3.175
REMARK INTRA:                  -1.443
REMARK UNBOUND:                -1.161
REMARK SMILES CCCCCCCCCCCCCCC(=O)[O-]
REMARK SMILES IDX 9 1 10 2 11 3 12 4 13 5 14 6 15 7 16 8 17 9 8 10 7 11 6 12
REMARK SMILES IDX 5 13 4 14 3 15 2 16 1 17
REMARK H PARENT
REMARK Flexibility Score: inf
ROOT
ATOM      1  C   UNL     1      -1.175  -6.547   4.748  1.00  0.00     0.000 C 
ENDROOT
BRANCH   1   2
ATOM      2  C   UNL     1       0.139  -7.290   4.448  1.00  0.00     0.000 C 
BRANCH   2   3
ATOM      3  C   UNL     1      -0.062  -8.806   4.308  1.00  0.00     0.000 C 
BRANCH   3   4
ATOM      4  C   UNL     1      -0.365  -9.230   2.860  1.00  0.00     0.000 C 
BRANCH   4   5
ATOM      5  C   UNL     1      -0.899 -10.672   2.762  1.00  0.00     0.006 C 
BRANCH   5   6
ATOM      6  C   UNL     1      -1.716 -11.124   3.982  1.00  0.00     0.053 C 
BRANCH   6   7
ATOM      7  C   UNL     1      -3.191 -11.073   3.723  1.00  0.00     0.041 C 
ATOM      8  O   UNL     1      -4.004 -11.080   4.683  1.00  0.00    -0.550 OA
ATOM      9  O   UNL     1      -3.664 -10.982   2.420  1.00  0.00    -0.550 OA
ENDBRANCH   6   7
ENDBRANCH   5   6
ENDBRANCH   4   5
ENDBRANCH   3   4
ENDBRANCH   2   3
ENDBRANCH   1   2
BRANCH   1  10
ATOM     10  C   UNL     1      -2.352  -7.505   4.997  1.00  0.00     0.000 C 
BRANCH  10  11
ATOM     11  C   UNL     1      -3.409  -7.442   3.884  1.00  0.00    -0.000 C 
BRANCH  11  12
ATOM     12  C   UNL     1      -4.809  -7.740   4.441  1.00  0.00    -0.000 C 
BRANCH  12  13
ATOM     13  C   UNL     1      -5.880  -6.778   3.892  1.00  0.00    -0.000 C 
BRANCH  13  14
ATOM     14  C   UNL     1      -7.045  -7.494   3.181  1.00  0.00    -0.000 C 
BRANCH  14  15
ATOM     15  C   UNL     1      -6.971  -9.034   3.294  1.00  0.00    -0.000 C 
BRANCH  15  16
ATOM     16  C   UNL     1      -6.908  -9.744   1.932  1.00  0.00    -0.003 C 
ATOM     17  C   UNL     1      -6.177  -8.926   0.870  1.00  0.00     0.004 C 
ENDBRANCH  15  16
ENDBRANCH  14  15
ENDBRANCH  13  14
ENDBRANCH  12  13
ENDBRANCH  11  12
ENDBRANCH  10  11
ENDBRANCH   1  10
TORSDOF 13
ENDMDL
MODEL 7
REMARK VINA RESULT:    -1.937      2.666      6.432
REMARK INTER + INTRA:          -4.569
REMARK INTER:                  -3.530
REMARK INTRA:                  -1.039
REMARK UNBOUND:                -1.161
REMARK SMILES CCCCCCCCCCCCCCC(=O)[O-]
REMARK SMILES IDX 9 1 10 2 11 3 12 4 13 5 14 6 15 7 16 8 17 9 8 10 7 11 6 12
REMARK SMILES IDX 5 13 4 14 3 15 2 16 1 17
REMARK H PARENT
REMARK Flexibility Score: inf
ROOT
ATOM      1  C   UNL     1      -3.287  -7.525   3.998  1.00  0.00     0.000 C 
ENDROOT
BRANCH   1   2
ATOM      2  C   UNL     1      -2.255  -7.709   5.125  1.00  0.00     0.000 C 
BRANCH   2   3
ATOM      3  C   UNL     1      -0.882  -7.122   4.766  1.00  0.00     0.000 C 
BRANCH   3   4
ATOM      4  C   UNL     1       0.001  -8.116   3.991  1.00  0.00     0.000 C 
BRANCH   4   5
ATOM      5  C   UNL     1       0.396  -9.343   4.833  1.00  0.00     0.006 C 
BRANCH   5   6
ATOM      6  C   UNL     1      -0.411 -10.612   4.513  1.00  0.00     0.053 C 
BRANCH   6   7
ATOM      7  C   UNL     1      -0.786 -10.690   3.065  1.00  0.00     0.041 C 
ATOM      8  O   UNL     1      -1.996 -10.654   2.722  1.00  0.00    -0.550 OA
ATOM      9  O   UNL     1       0.204 -10.766   2.094  1.00  0.00    -0.550 OA
ENDBRANCH   6   7
ENDBRANCH   5   6
ENDBRANCH   4   5
ENDBRANCH   3   4
ENDBRANCH   2   3
ENDBRANCH   1   2
BRANCH   1  10
ATOM     10  C   UNL     1      -4.551  -8.375   4.209  1.00  0.00     0.000 C 
BRANCH  10  11
ATOM     11  C   UNL     1      -5.520  -8.297   3.019  1.00  0.00    -0.000 C 
BRANCH  11  12
ATOM     12  C   UNL     1      -6.694  -9.271   3.204  1.00  0.00    -0.000 C 
BRANCH  12  13
ATOM     13  C   UNL     1      -6.486 -10.596   2.447  1.00  0.00    -0.000 C 
BRANCH  13  14
ATOM     14  C   UNL     1      -5.265 -10.583   1.507  1.00  0.00    -0.000 C 
BRANCH  14  15
ATOM     15  C   UNL     1      -5.601 -11.030   0.066  1.00  0.00    -0.000 C 
BRANCH  15  16
ATOM     16  C   UNL     1      -6.684 -10.169  -0.604  1.00  0.00    -0.003 C 
ATOM     17  C   UNL     1      -6.346  -8.679  -0.598  1.00  0.00     0.004 C 
ENDBRANCH  15  16
ENDBRANCH  14  15
ENDBRANCH  13  14
ENDBRANCH  12  13
ENDBRANCH  11  12
ENDBRANCH  10  11
ENDBRANCH   1  10
TORSDOF 13
ENDMDL
