MODEL 1
REMARK VINA RESULT:    -3.763      0.000      0.000
REMARK INTER + INTRA:          -5.241
REMARK INTER:                  -5.083
REMARK INTRA:                  -0.159
REMARK UNBOUND:                -0.159
REMARK SMILES [NH3+]CCCC[C@H]([NH3+])C(=O)[O-]
REMARK SMILES IDX 4 1 3 2 2 3 1 4 5 8 6 9 7 10 8 14 9 15 10 16
REMARK H PARENT 1 5 1 6 1 7 7 11 7 12 7 13
REMARK Flexibility Score: inf
ROOT
ATOM      1  C   UNL     1      28.025   5.318 141.927  1.00  0.00     0.012 C 
ENDROOT
BRANCH   1   2
ATOM      2  C   UNL     1      28.597   4.129 142.719  1.00  0.00     0.061 C 
BRANCH   2   3
ATOM      3  C   UNL     1      30.135   4.109 142.721  1.00  0.00     0.258 C 
BRANCH   3   4
ATOM      4  N   UNL     1      30.673   2.872 143.294  1.00  0.00    -0.358 N 
ATOM      5  H   UNL     1      30.051   2.523 144.058  1.00  0.00     0.344 HD
ATOM      6  H   UNL     1      30.777   2.141 142.554  1.00  0.00     0.344 HD
ATOM      7  H   UNL     1      31.614   3.071 143.704  1.00  0.00     0.344 HD
ENDBRANCH   3   4
ENDBRANCH   2   3
ENDBRANCH   1   2
BRANCH   1   8
ATOM      8  C   UNL     1      27.575   6.481 142.829  1.00  0.00     0.072 C 
BRANCH   8   9
ATOM      9  C   UNL     1      28.610   7.621 142.995  1.00  0.00     0.227 C 
BRANCH   9  10
ATOM     10  N   UNL     1      29.526   7.371 144.116  1.00  0.00    -0.350 N 
ATOM     11  H   UNL     1      29.193   7.878 144.969  1.00  0.00     0.345 HD
ATOM     12  H   UNL     1      29.585   6.348 144.328  1.00  0.00     0.345 HD
ATOM     13  H   UNL     1      30.478   7.736 143.889  1.00  0.00     0.345 HD
ENDBRANCH   9  10
BRANCH   9  14
ATOM     14  C   UNL     1      27.886   8.926 143.194  1.00  0.00     0.099 C 
ATOM     15  O   UNL     1      26.664   9.030 142.904  1.00  0.00    -0.544 OA
ATOM     16  O   UNL     1      28.573  10.036 143.670  1.00  0.00    -0.544 OA
ENDBRANCH   9  14
ENDBRANCH   8   9
ENDBRANCH   1   8
TORSDOF 7
ENDMDL
MODEL 2
REMARK VINA RESULT:    -3.761      3.222      4.248
REMARK INTER + INTRA:          -5.239
REMARK INTER:                  -4.812
REMARK INTRA:                  -0.427
REMARK UNBOUND:                -0.159
REMARK SMILES [NH3+]CCCC[C@H]([NH3+])C(=O)[O-]
REMARK SMILES IDX 4 1 3 2 2 3 1 4 5 8 6 9 7 10 8 14 9 15 10 16
REMARK H PARENT 1 5 1 6 1 7 7 11 7 12 7 13
REMARK Flexibility Score: inf
ROOT
ATOM      1  C   UNL     1      29.238   1.985 141.146  1.00  0.00     0.012 C 
ENDROOT
BRANCH   1   2
ATOM      2  C   UNL     1      28.143   1.130 140.486  1.00  0.00     0.061 C 
BRANCH   2   3
ATOM      3  C   UNL     1      26.731   1.516 140.956  1.00  0.00     0.258 C 
BRANCH   3   4
ATOM      4  N   UNL     1      26.434   1.007 142.297  1.00  0.00    -0.358 N 
ATOM      5  H   UNL     1      26.020   1.761 142.892  1.00  0.00     0.344 HD
ATOM      6  H   UNL     1      25.779   0.194 142.243  1.00  0.00     0.344 HD
ATOM      7  H   UNL     1      27.325   0.690 142.744  1.00  0.00     0.344 HD
ENDBRANCH   3   4
ENDBRANCH   2   3
ENDBRANCH   1   2
BRANCH   1   8
ATOM      8  C   UNL     1      28.846   3.469 141.274  1.00  0.00     0.072 C 
BRANCH   8   9
ATOM      9  C   UNL     1      29.312   4.160 142.578  1.00  0.00     0.227 C 
BRANCH   9  10
ATOM     10  N   UNL     1      30.203   3.298 143.368  1.00  0.00    -0.350 N 
ATOM     11  H   UNL     1      30.443   3.766 144.272  1.00  0.00     0.345 HD
ATOM     12  H   UNL     1      29.748   2.378 143.570  1.00  0.00     0.345 HD
ATOM     13  H   UNL     1      31.097   3.139 142.852  1.00  0.00     0.345 HD
ENDBRANCH   9  10
BRANCH   9  14
ATOM     14  C   UNL     1      28.108   4.551 143.393  1.00  0.00     0.099 C 
ATOM     15  O   UNL     1      27.122   3.772 143.490  1.00  0.00    -0.544 OA
ATOM     16  O   UNL     1      28.064   5.790 144.019  1.00  0.00    -0.544 OA
ENDBRANCH   9  14
ENDBRANCH   8   9
ENDBRANCH   1   8
TORSDOF 7
ENDMDL
MODEL 3
REMARK VINA RESULT:    -3.678     11.919     13.081
REMARK INTER + INTRA:          -5.126
REMARK INTER:                  -4.722
REMARK INTRA:                  -0.404
REMARK UNBOUND:                -0.159
REMARK SMILES [NH3+]CCCC[C@H]([NH3+])C(=O)[O-]
REMARK SMILES IDX 4 1 3 2 2 3 1 4 5 8 6 9 7 10 8 14 9 15 10 16
REMARK H PARENT 1 5 1 6 1 7 7 11 7 12 7 13
REMARK Flexibility Score: inf
ROOT
ATOM      1  C   UNL     1      35.558  16.084 135.401  1.00  0.00     0.012 C 
ENDROOT
BRANCH   1   2
ATOM      2  C   UNL     1      36.995  16.029 135.949  1.00  0.00     0.061 C 
BRANCH   2   3
ATOM      3  C   UNL     1      37.042  15.651 137.439  1.00  0.00     0.258 C 
BRANCH   3   4
ATOM      4  N   UNL     1      36.349  14.389 137.713  1.00  0.00    -0.358 N 
ATOM      5  H   UNL     1      36.714  13.955 138.592  1.00  0.00     0.344 HD
ATOM      6  H   UNL     1      35.319  14.547 137.793  1.00  0.00     0.344 HD
ATOM      7  H   UNL     1      36.527  13.727 136.923  1.00  0.00     0.344 HD
ENDBRANCH   3   4
ENDBRANCH   2   3
ENDBRANCH   1   2
BRANCH   1   8
ATOM      8  C   UNL     1      34.644  17.029 136.203  1.00  0.00     0.072 C 
BRANCH   8   9
ATOM      9  C   UNL     1      33.169  16.573 136.318  1.00  0.00     0.227 C 
BRANCH   9  10
ATOM     10  N   UNL     1      32.239  17.596 135.821  1.00  0.00    -0.350 N 
ATOM     11  H   UNL     1      32.774  18.407 135.433  1.00  0.00     0.345 HD
ATOM     12  H   UNL     1      31.622  17.205 135.072  1.00  0.00     0.345 HD
ATOM     13  H   UNL     1      31.650  17.957 136.604  1.00  0.00     0.345 HD
ENDBRANCH   9  10
BRANCH   9  14
ATOM     14  C   UNL     1      32.860  16.241 137.754  1.00  0.00     0.099 C 
ATOM     15  O   UNL     1      33.724  15.681 138.481  1.00  0.00    -0.544 OA
ATOM     16  O   UNL     1      31.605  16.524 138.278  1.00  0.00    -0.544 OA
ENDBRANCH   9  14
ENDBRANCH   8   9
ENDBRANCH   1   8
TORSDOF 7
ENDMDL
MODEL 4
REMARK VINA RESULT:    -3.648     12.065     13.111
REMARK INTER + INTRA:          -5.086
REMARK INTER:                  -4.593
REMARK INTRA:                  -0.493
REMARK UNBOUND:                -0.159
REMARK SMILES [NH3+]CCCC[C@H]([NH3+])C(=O)[O-]
REMARK SMILES IDX 4 1 3 2 2 3 1 4 5 8 6 9 7 10 8 14 9 15 10 16
REMARK H PARENT 1 5 1 6 1 7 7 11 7 12 7 13
REMARK Flexibility Score: inf
ROOT
ATOM      1  C   UNL     1      37.108  15.874 135.545  1.00  0.00     0.012 C 
ENDROOT
BRANCH   1   2
ATOM      2  C   UNL     1      36.610  15.401 134.168  1.00  0.00     0.061 C 
BRANCH   2   3
ATOM      3  C   UNL     1      36.433  13.875 134.099  1.00  0.00     0.258 C 
BRANCH   3   4
ATOM      4  N   UNL     1      35.156  13.438 134.669  1.00  0.00    -0.358 N 
ATOM      5  H   UNL     1      35.232  12.459 135.028  1.00  0.00     0.344 HD
ATOM      6  H   UNL     1      34.860  14.080 135.439  1.00  0.00     0.344 HD
ATOM      7  H   UNL     1      34.428  13.455 133.919  1.00  0.00     0.344 HD
ENDBRANCH   3   4
ENDBRANCH   2   3
ENDBRANCH   1   2
BRANCH   1   8
ATOM      8  C   UNL     1      35.987  16.462 136.421  1.00  0.00     0.072 C 
BRANCH   8   9
ATOM      9  C   UNL     1      35.667  15.657 137.705  1.00  0.00     0.227 C 
BRANCH   9  10
ATOM     10  N   UNL     1      36.435  14.406 137.773  1.00  0.00    -0.350 N 
ATOM     11  H   UNL     1      36.020  13.697 137.124  1.00  0.00     0.345 HD
ATOM     12  H   UNL     1      37.434  14.567 137.507  1.00  0.00     0.345 HD
ATOM     13  H   UNL     1      36.390  14.009 138.738  1.00  0.00     0.345 HD
ENDBRANCH   9  10
BRANCH   9  14
ATOM     14  C   UNL     1      34.191  15.367 137.757  1.00  0.00     0.099 C 
ATOM     15  O   UNL     1      33.391  16.208 138.246  1.00  0.00    -0.544 OA
ATOM     16  O   UNL     1      33.705  14.151 137.292  1.00  0.00    -0.544 OA
ENDBRANCH   9  14
ENDBRANCH   8   9
ENDBRANCH   1   8
TORSDOF 7
ENDMDL
MODEL 5
REMARK VINA RESULT:    -3.562     11.810     12.591
REMARK INTER + INTRA:          -4.971
REMARK INTER:                  -4.871
REMARK INTRA:                  -0.099
REMARK UNBOUND:                -0.159
REMARK SMILES [NH3+]CCCC[C@H]([NH3+])C(=O)[O-]
REMARK SMILES IDX 4 1 3 2 2 3 1 4 5 8 6 9 7 10 8 14 9 15 10 16
REMARK H PARENT 1 5 1 6 1 7 7 11 7 12 7 13
REMARK Flexibility Score: inf
ROOT
ATOM      1  C   UNL     1      32.006  16.392 138.310  1.00  0.00     0.012 C 
ENDROOT
BRANCH   1   2
ATOM      2  C   UNL     1      30.603  16.524 137.693  1.00  0.00     0.061 C 
BRANCH   2   3
ATOM      3  C   UNL     1      29.973  17.904 137.954  1.00  0.00     0.258 C 
BRANCH   3   4
ATOM      4  N   UNL     1      29.940  18.237 139.380  1.00  0.00    -0.358 N 
ATOM      5  H   UNL     1      30.910  18.276 139.770  1.00  0.00     0.344 HD
ATOM      6  H   UNL     1      29.458  19.153 139.531  1.00  0.00     0.344 HD
ATOM      7  H   UNL     1      29.412  17.492 139.890  1.00  0.00     0.344 HD
ENDBRANCH   3   4
ENDBRANCH   2   3
ENDBRANCH   1   2
BRANCH   1   8
ATOM      8  C   UNL     1      33.112  16.211 137.253  1.00  0.00     0.072 C 
BRANCH   8   9
ATOM      9  C   UNL     1      34.530  15.968 137.824  1.00  0.00     0.227 C 
BRANCH   9  10
ATOM     10  N   UNL     1      35.554  16.726 137.090  1.00  0.00    -0.350 N 
ATOM     11  H   UNL     1      35.290  16.796 136.080  1.00  0.00     0.345 HD
ATOM     12  H   UNL     1      35.657  17.689 137.484  1.00  0.00     0.345 HD
ATOM     13  H   UNL     1      36.471  16.229 137.139  1.00  0.00     0.345 HD
ENDBRANCH   9  10
BRANCH   9  14
ATOM     14  C   UNL     1      34.840  14.495 137.781  1.00  0.00     0.099 C 
ATOM     15  O   UNL     1      35.959  14.066 138.172  1.00  0.00    -0.544 OA
ATOM     16  O   UNL     1      33.902  13.603 137.277  1.00  0.00    -0.544 OA
ENDBRANCH   9  14
ENDBRANCH   8   9
ENDBRANCH   1   8
TORSDOF 7
ENDMDL
MODEL 6
REMARK VINA RESULT:    -3.561     11.463     12.667
REMARK INTER + INTRA:          -4.968
REMARK INTER:                  -4.554
REMARK INTRA:                  -0.414
REMARK UNBOUND:                -0.159
REMARK SMILES [NH3+]CCCC[C@H]([NH3+])C(=O)[O-]
REMARK SMILES IDX 4 1 3 2 2 3 1 4 5 8 6 9 7 10 8 14 9 15 10 16
REMARK H PARENT 1 5 1 6 1 7 7 11 7 12 7 13
REMARK Flexibility Score: inf
ROOT
ATOM      1  C   UNL     1      35.642  16.761 136.590  1.00  0.00     0.012 C 
ENDROOT
BRANCH   1   2
ATOM      2  C   UNL     1      37.022  16.163 136.264  1.00  0.00     0.061 C 
BRANCH   2   3
ATOM      3  C   UNL     1      36.979  15.208 135.058  1.00  0.00     0.258 C 
BRANCH   3   4
ATOM      4  N   UNL     1      36.887  13.804 135.466  1.00  0.00    -0.358 N 
ATOM      5  H   UNL     1      36.312  13.712 136.334  1.00  0.00     0.344 HD
ATOM      6  H   UNL     1      36.473  13.226 134.700  1.00  0.00     0.344 HD
ATOM      7  H   UNL     1      37.849  13.449 135.673  1.00  0.00     0.344 HD
ENDBRANCH   3   4
ENDBRANCH   2   3
ENDBRANCH   1   2
BRANCH   1   8
ATOM      8  C   UNL     1      34.950  16.065 137.776  1.00  0.00     0.072 C 
BRANCH   8   9
ATOM      9  C   UNL     1      33.432  15.819 137.597  1.00  0.00     0.227 C 
BRANCH   9  10
ATOM     10  N   UNL     1      32.673  16.168 138.806  1.00  0.00    -0.350 N 
ATOM     11  H   UNL     1      33.309  16.174 139.637  1.00  0.00     0.345 HD
ATOM     12  H   UNL     1      32.230  17.110 138.708  1.00  0.00     0.345 HD
ATOM     13  H   UNL     1      31.935  15.451 138.985  1.00  0.00     0.345 HD
ENDBRANCH   9  10
BRANCH   9  14
ATOM     14  C   UNL     1      33.201  14.376 137.234  1.00  0.00     0.099 C 
ATOM     15  O   UNL     1      34.175  13.605 137.027  1.00  0.00    -0.544 OA
ATOM     16  O   UNL     1      31.905  13.894 137.093  1.00  0.00    -0.544 OA
ENDBRANCH   9  14
ENDBRANCH   8   9
ENDBRANCH   1   8
TORSDOF 7
ENDMDL
MODEL 7
REMARK VINA RESULT:    -3.480     11.653     12.762
REMARK INTER + INTRA:          -4.859
REMARK INTER:                  -4.385
REMARK INTRA:                  -0.473
REMARK UNBOUND:                -0.159
REMARK SMILES [NH3+]CCCC[C@H]([NH3+])C(=O)[O-]
REMARK SMILES IDX 4 1 3 2 2 3 1 4 5 8 6 9 7 10 8 14 9 15 10 16
REMARK H PARENT 1 5 1 6 1 7 7 11 7 12 7 13
REMARK Flexibility Score: inf
ROOT
ATOM      1  C   UNL     1      35.640  14.362 137.367  1.00  0.00     0.012 C 
ENDROOT
BRANCH   1   2
ATOM      2  C   UNL     1      36.393  15.703 137.419  1.00  0.00     0.061 C 
BRANCH   2   3
ATOM      3  C   UNL     1      36.954  16.116 136.047  1.00  0.00     0.258 C 
BRANCH   3   4
ATOM      4  N   UNL     1      36.154  15.587 134.939  1.00  0.00    -0.358 N 
ATOM      5  H   UNL     1      36.030  16.314 134.199  1.00  0.00     0.344 HD
ATOM      6  H   UNL     1      36.608  14.737 134.534  1.00  0.00     0.344 HD
ATOM      7  H   UNL     1      35.209  15.323 135.300  1.00  0.00     0.344 HD
ENDBRANCH   3   4
ENDBRANCH   2   3
ENDBRANCH   1   2
BRANCH   1   8
ATOM      8  C   UNL     1      34.158  14.490 137.764  1.00  0.00     0.072 C 
BRANCH   8   9
ATOM      9  C   UNL     1      33.607  15.937 137.785  1.00  0.00     0.227 C 
BRANCH   9  10
ATOM     10  N   UNL     1      32.697  16.162 138.917  1.00  0.00    -0.350 N 
ATOM     11  H   UNL     1      32.982  17.023 139.439  1.00  0.00     0.345 HD
ATOM     12  H   UNL     1      31.711  16.274 138.586  1.00  0.00     0.345 HD
ATOM     13  H   UNL     1      32.752  15.361 139.586  1.00  0.00     0.345 HD
ENDBRANCH   9  10
BRANCH   9  14
ATOM     14  C   UNL     1      32.902  16.221 136.485  1.00  0.00     0.099 C 
ATOM     15  O   UNL     1      32.112  17.198 136.387  1.00  0.00    -0.544 OA
ATOM     16  O   UNL     1      33.095  15.384 135.393  1.00  0.00    -0.544 OA
ENDBRANCH   9  14
ENDBRANCH   8   9
ENDBRANCH   1   8
TORSDOF 7
ENDMDL
MODEL 8
REMARK VINA RESULT:    -3.475     12.464     13.343
REMARK INTER + INTRA:          -4.852
REMARK INTER:                  -4.391
REMARK INTRA:                  -0.460
REMARK UNBOUND:                -0.159
REMARK SMILES [NH3+]CCCC[C@H]([NH3+])C(=O)[O-]
REMARK SMILES IDX 4 1 3 2 2 3 1 4 5 8 6 9 7 10 8 14 9 15 10 16
REMARK H PARENT 1 5 1 6 1 7 7 11 7 12 7 13
REMARK Flexibility Score: inf
ROOT
ATOM      1  C   UNL     1      37.118  15.042 134.301  1.00  0.00     0.012 C 
ENDROOT
BRANCH   1   2
ATOM      2  C   UNL     1      37.125  13.505 134.239  1.00  0.00     0.061 C 
BRANCH   2   3
ATOM      3  C   UNL     1      36.069  12.951 133.266  1.00  0.00     0.258 C 
BRANCH   3   4
ATOM      4  N   UNL     1      34.752  12.820 133.893  1.00  0.00    -0.358 N 
ATOM      5  H   UNL     1      34.060  13.449 133.425  1.00  0.00     0.344 HD
ATOM      6  H   UNL     1      34.422  11.829 133.848  1.00  0.00     0.344 HD
ATOM      7  H   UNL     1      34.825  13.104 134.896  1.00  0.00     0.344 HD
ENDBRANCH   3   4
ENDBRANCH   2   3
ENDBRANCH   1   2
BRANCH   1   8
ATOM      8  C   UNL     1      36.969  15.584 135.735  1.00  0.00     0.072 C 
BRANCH   8   9
ATOM      9  C   UNL     1      35.510  15.740 136.229  1.00  0.00     0.227 C 
BRANCH   9  10
ATOM     10  N   UNL     1      35.319  16.979 136.994  1.00  0.00    -0.350 N 
ATOM     11  H   UNL     1      34.521  17.526 136.595  1.00  0.00     0.345 HD
ATOM     12  H   UNL     1      35.119  16.769 137.999  1.00  0.00     0.345 HD
ATOM     13  H   UNL     1      36.172  17.578 136.926  1.00  0.00     0.345 HD
ENDBRANCH   9  10
BRANCH   9  14
ATOM     14  C   UNL     1      35.138  14.546 137.068  1.00  0.00     0.099 C 
ATOM     15  O   UNL     1      35.768  14.289 138.128  1.00  0.00    -0.544 OA
ATOM     16  O   UNL     1      34.114  13.700 136.658  1.00  0.00    -0.544 OA
ENDBRANCH   9  14
ENDBRANCH   8   9
ENDBRANCH   1   8
TORSDOF 7
ENDMDL
MODEL 9
REMARK VINA RESULT:    -3.465     12.645     13.538
REMARK INTER + INTRA:          -4.839
REMARK INTER:                  -4.346
REMARK INTRA:                  -0.493
REMARK UNBOUND:                -0.159
REMARK SMILES [NH3+]CCCC[C@H]([NH3+])C(=O)[O-]
REMARK SMILES IDX 4 1 3 2 2 3 1 4 5 8 6 9 7 10 8 14 9 15 10 16
REMARK H PARENT 1 5 1 6 1 7 7 11 7 12 7 13
REMARK Flexibility Score: inf
ROOT
ATOM      1  C   UNL     1      34.126  16.164 137.846  1.00  0.00     0.012 C 
ENDROOT
BRANCH   1   2
ATOM      2  C   UNL     1      32.795  15.929 137.109  1.00  0.00     0.061 C 
BRANCH   2   3
ATOM      3  C   UNL     1      32.602  16.891 135.925  1.00  0.00     0.258 C 
BRANCH   3   4
ATOM      4  N   UNL     1      33.830  17.616 135.592  1.00  0.00    -0.358 N 
ATOM      5  H   UNL     1      34.467  17.013 135.021  1.00  0.00     0.344 HD
ATOM      6  H   UNL     1      33.608  18.495 135.071  1.00  0.00     0.344 HD
ATOM      7  H   UNL     1      34.326  17.867 136.478  1.00  0.00     0.344 HD
ENDBRANCH   3   4
ENDBRANCH   2   3
ENDBRANCH   1   2
BRANCH   1   8
ATOM      8  C   UNL     1      34.967  14.882 137.989  1.00  0.00     0.072 C 
BRANCH   8   9
ATOM      9  C   UNL     1      36.367  14.940 137.330  1.00  0.00     0.227 C 
BRANCH   9  10
ATOM     10  N   UNL     1      37.124  16.127 137.754  1.00  0.00    -0.350 N 
ATOM     11  H   UNL     1      37.836  15.858 138.472  1.00  0.00     0.345 HD
ATOM     12  H   UNL     1      37.610  16.568 136.939  1.00  0.00     0.345 HD
ATOM     13  H   UNL     1      36.483  16.822 138.196  1.00  0.00     0.345 HD
ENDBRANCH   9  10
BRANCH   9  14
ATOM     14  C   UNL     1      36.214  14.927 135.832  1.00  0.00     0.099 C 
ATOM     15  O   UNL     1      36.434  15.968 135.158  1.00  0.00    -0.544 OA
ATOM     16  O   UNL     1      35.796  13.769 135.187  1.00  0.00    -0.544 OA
ENDBRANCH   9  14
ENDBRANCH   8   9
ENDBRANCH   1   8
TORSDOF 7
ENDMDL
