MODEL 1
REMARK VINA RESULT:    -4.140      0.000      0.000
REMARK INTER + INTRA:          -4.140
REMARK INTER:                  -4.140
REMARK INTRA:                   0.000
REMARK UNBOUND:                 0.000
REMARK SMILES CC1(C)C(=O)[C@]2(C)CC[C@H]1C2
REMARK SMILES IDX 1 1 2 2 10 3 9 4 8 5 6 6 11 7 4 8 5 9 7 10 3 11
REMARK H PARENT
REMARK Flexibility Score: inf
ROOT
ATOM      1  C   UNL     1     116.569 119.202 112.199  1.00  0.00     0.020 C 
ATOM      2  C   UNL     1     117.013 117.936 112.964  1.00  0.00     0.027 C 
ATOM      3  C   UNL     1     118.214 117.169 112.302  1.00  0.00     0.003 C 
ATOM      4  C   UNL     1     119.365 118.141 111.936  1.00  0.00     0.005 C 
ATOM      5  C   UNL     1     119.899 118.586 113.317  1.00  0.00     0.015 C 
ATOM      6  C   UNL     1     119.058 117.739 114.291  1.00  0.00     0.027 C 
ATOM      7  C   UNL     1     118.860 116.465 113.495  1.00  0.00     0.019 C 
ATOM      8  C   UNL     1     117.656 118.284 114.276  1.00  0.00     0.144 C 
ATOM      9  O   UNL     1     117.149 118.965 115.155  1.00  0.00    -0.298 OA
ATOM     10  C   UNL     1     119.667 117.539 115.681  1.00  0.00     0.020 C 
ATOM     11  C   UNL     1     115.792 117.014 113.168  1.00  0.00     0.020 C 
ENDROOT
TORSDOF 0
ENDMDL
MODEL 2
REMARK VINA RESULT:    -4.122      2.895      5.039
REMARK INTER + INTRA:          -4.122
REMARK INTER:                  -4.122
REMARK INTRA:                   0.000
REMARK UNBOUND:                 0.000
REMARK SMILES CC1(C)C(=O)[C@]2(C)CC[C@H]1C2
REMARK SMILES IDX 1 1 2 2 10 3 9 4 8 5 6 6 11 7 4 8 5 9 7 10 3 11
REMARK H PARENT
REMARK Flexibility Score: inf
ROOT
ATOM      1  C   UNL     1     116.590 114.015 112.076  1.00  0.00     0.020 C 
ATOM      2  C   UNL     1     116.178 115.261 112.892  1.00  0.00     0.027 C 
ATOM      3  C   UNL     1     114.953 116.046 112.297  1.00  0.00     0.003 C 
ATOM      4  C   UNL     1     113.787 115.085 111.951  1.00  0.00     0.005 C 
ATOM      5  C   UNL     1     113.307 114.603 113.339  1.00  0.00     0.015 C 
ATOM      6  C   UNL     1     114.186 115.424 114.302  1.00  0.00     0.027 C 
ATOM      7  C   UNL     1     114.355 116.718 113.533  1.00  0.00     0.019 C 
ATOM      8  C   UNL     1     115.586 114.879 114.218  1.00  0.00     0.144 C 
ATOM      9  O   UNL     1     116.126 114.174 115.057  1.00  0.00    -0.298 OA
ATOM     10  C   UNL     1     113.632 115.587 115.719  1.00  0.00     0.020 C 
ATOM     11  C   UNL     1     117.408 116.176 113.072  1.00  0.00     0.020 C 
ENDROOT
TORSDOF 0
ENDMDL
MODEL 3
REMARK VINA RESULT:    -4.112      2.558      3.558
REMARK INTER + INTRA:          -4.112
REMARK INTER:                  -4.112
REMARK INTRA:                   0.000
REMARK UNBOUND:                 0.000
REMARK SMILES CC1(C)C(=O)[C@]2(C)CC[C@H]1C2
REMARK SMILES IDX 1 1 2 2 10 3 9 4 8 5 6 6 11 7 4 8 5 9 7 10 3 11
REMARK H PARENT
REMARK Flexibility Score: inf
ROOT
ATOM      1  C   UNL     1     113.999 116.552 112.223  1.00  0.00     0.020 C 
ATOM      2  C   UNL     1     115.274 117.011 112.965  1.00  0.00     0.027 C 
ATOM      3  C   UNL     1     116.027 118.205 112.274  1.00  0.00     0.003 C 
ATOM      4  C   UNL     1     115.045 119.347 111.905  1.00  0.00     0.005 C 
ATOM      5  C   UNL     1     114.618 119.900 113.284  1.00  0.00     0.015 C 
ATOM      6  C   UNL     1     115.482 119.076 114.259  1.00  0.00     0.027 C 
ATOM      7  C   UNL     1     116.745 118.871 113.448  1.00  0.00     0.019 C 
ATOM      8  C   UNL     1     114.942 117.672 114.271  1.00  0.00     0.144 C 
ATOM      9  O   UNL     1     114.275 117.175 115.167  1.00  0.00    -0.298 OA
ATOM     10  C   UNL     1     115.699 119.707 115.636  1.00  0.00     0.020 C 
ATOM     11  C   UNL     1     116.203 115.796 113.173  1.00  0.00     0.020 C 
ENDROOT
TORSDOF 0
ENDMDL
MODEL 4
REMARK VINA RESULT:    -4.039      2.522      3.550
REMARK INTER + INTRA:          -4.039
REMARK INTER:                  -4.039
REMARK INTRA:                   0.000
REMARK UNBOUND:                 0.000
REMARK SMILES CC1(C)C(=O)[C@]2(C)CC[C@H]1C2
REMARK SMILES IDX 1 1 2 2 10 3 9 4 8 5 6 6 11 7 4 8 5 9 7 10 3 11
REMARK H PARENT
REMARK Flexibility Score: inf
ROOT
ATOM      1  C   UNL     1     119.225 116.613 112.116  1.00  0.00     0.020 C 
ATOM      2  C   UNL     1     117.939 116.263 112.898  1.00  0.00     0.027 C 
ATOM      3  C   UNL     1     117.084 115.114 112.252  1.00  0.00     0.003 C 
ATOM      4  C   UNL     1     117.970 113.896 111.883  1.00  0.00     0.005 C 
ATOM      5  C   UNL     1     118.392 113.341 113.263  1.00  0.00     0.015 C 
ATOM      6  C   UNL     1     117.616 114.244 114.240  1.00  0.00     0.027 C 
ATOM      7  C   UNL     1     116.350 114.525 113.456  1.00  0.00     0.019 C 
ATOM      8  C   UNL     1     118.256 115.604 114.210  1.00  0.00     0.144 C 
ATOM      9  O   UNL     1     118.980 116.069 115.078  1.00  0.00    -0.298 OA
ATOM     10  C   UNL     1     117.389 113.658 115.636  1.00  0.00     0.020 C 
ATOM     11  C   UNL     1     117.107 117.546 113.103  1.00  0.00     0.020 C 
ENDROOT
TORSDOF 0
ENDMDL
MODEL 5
REMARK VINA RESULT:    -4.003      1.609      2.951
REMARK INTER + INTRA:          -4.003
REMARK INTER:                  -4.003
REMARK INTRA:                   0.000
REMARK UNBOUND:                 0.000
REMARK SMILES CC1(C)C(=O)[C@]2(C)CC[C@H]1C2
REMARK SMILES IDX 1 1 2 2 10 3 9 4 8 5 6 6 11 7 4 8 5 9 7 10 3 11
REMARK H PARENT
REMARK Flexibility Score: inf
ROOT
ATOM      1  C   UNL     1     118.578 115.064 112.272  1.00  0.00     0.020 C 
ATOM      2  C   UNL     1     118.318 116.035 113.445  1.00  0.00     0.027 C 
ATOM      3  C   UNL     1     119.195 117.339 113.412  1.00  0.00     0.003 C 
ATOM      4  C   UNL     1     119.166 117.996 112.008  1.00  0.00     0.005 C 
ATOM      5  C   UNL     1     117.710 118.502 111.890  1.00  0.00     0.015 C 
ATOM      6  C   UNL     1     117.123 118.162 113.273  1.00  0.00     0.027 C 
ATOM      7  C   UNL     1     118.330 118.344 114.170  1.00  0.00     0.019 C 
ATOM      8  C   UNL     1     116.960 116.668 113.344  1.00  0.00     0.144 C 
ATOM      9  O   UNL     1     115.902 116.063 113.256  1.00  0.00    -0.298 OA
ATOM     10  C   UNL     1     115.892 118.974 113.681  1.00  0.00     0.020 C 
ATOM     11  C   UNL     1     118.482 115.273 114.778  1.00  0.00     0.020 C 
ENDROOT
TORSDOF 0
ENDMDL
MODEL 6
REMARK VINA RESULT:    -3.985      2.347      4.155
REMARK INTER + INTRA:          -3.985
REMARK INTER:                  -3.985
REMARK INTRA:                   0.000
REMARK UNBOUND:                 0.000
REMARK SMILES CC1(C)C(=O)[C@]2(C)CC[C@H]1C2
REMARK SMILES IDX 1 1 2 2 10 3 9 4 8 5 6 6 11 7 4 8 5 9 7 10 3 11
REMARK H PARENT
REMARK Flexibility Score: inf
ROOT
ATOM      1  C   UNL     1     118.874 116.811 114.346  1.00  0.00     0.020 C 
ATOM      2  C   UNL     1     118.338 115.950 113.182  1.00  0.00     0.027 C 
ATOM      3  C   UNL     1     118.441 114.400 113.424  1.00  0.00     0.003 C 
ATOM      4  C   UNL     1     117.892 114.014 114.821  1.00  0.00     0.005 C 
ATOM      5  C   UNL     1     116.376 114.289 114.689  1.00  0.00     0.015 C 
ATOM      6  C   UNL     1     116.237 114.697 113.210  1.00  0.00     0.027 C 
ATOM      7  C   UNL     1     117.309 113.850 112.557  1.00  0.00     0.019 C 
ATOM      8  C   UNL     1     116.845 116.064 113.055  1.00  0.00     0.144 C 
ATOM      9  O   UNL     1     116.224 117.108 112.925  1.00  0.00    -0.298 OA
ATOM     10  C   UNL     1     114.837 114.533 112.613  1.00  0.00     0.020 C 
ATOM     11  C   UNL     1     119.043 116.370 111.875  1.00  0.00     0.020 C 
ENDROOT
TORSDOF 0
ENDMDL
MODEL 7
REMARK VINA RESULT:    -3.981      1.514      2.578
REMARK INTER + INTRA:          -3.981
REMARK INTER:                  -3.981
REMARK INTRA:                   0.000
REMARK UNBOUND:                 0.000
REMARK SMILES CC1(C)C(=O)[C@]2(C)CC[C@H]1C2
REMARK SMILES IDX 1 1 2 2 10 3 9 4 8 5 6 6 11 7 4 8 5 9 7 10 3 11
REMARK H PARENT
REMARK Flexibility Score: inf
ROOT
ATOM      1  C   UNL     1     116.385 118.829 114.349  1.00  0.00     0.020 C 
ATOM      2  C   UNL     1     117.225 118.325 113.155  1.00  0.00     0.027 C 
ATOM      3  C   UNL     1     118.779 118.429 113.369  1.00  0.00     0.003 C 
ATOM      4  C   UNL     1     119.194 117.848 114.745  1.00  0.00     0.005 C 
ATOM      5  C   UNL     1     118.923 116.334 114.581  1.00  0.00     0.015 C 
ATOM      6  C   UNL     1     118.486 116.229 113.107  1.00  0.00     0.027 C 
ATOM      7  C   UNL     1     119.316 117.321 112.464  1.00  0.00     0.019 C 
ATOM      8  C   UNL     1     117.114 116.836 112.995  1.00  0.00     0.144 C 
ATOM      9  O   UNL     1     116.070 116.213 112.871  1.00  0.00    -0.298 OA
ATOM     10  C   UNL     1     118.644 114.845 112.473  1.00  0.00     0.020 C 
ATOM     11  C   UNL     1     116.776 119.060 111.875  1.00  0.00     0.020 C 
ENDROOT
TORSDOF 0
ENDMDL
MODEL 8
REMARK VINA RESULT:    -3.981      3.105      4.784
REMARK INTER + INTRA:          -3.981
REMARK INTER:                  -3.981
REMARK INTRA:                   0.000
REMARK UNBOUND:                 0.000
REMARK SMILES CC1(C)C(=O)[C@]2(C)CC[C@H]1C2
REMARK SMILES IDX 1 1 2 2 10 3 9 4 8 5 6 6 11 7 4 8 5 9 7 10 3 11
REMARK H PARENT
REMARK Flexibility Score: inf
ROOT
ATOM      1  C   UNL     1     116.860 114.270 114.373  1.00  0.00     0.020 C 
ATOM      2  C   UNL     1     116.020 114.814 113.197  1.00  0.00     0.027 C 
ATOM      3  C   UNL     1     114.466 114.688 113.400  1.00  0.00     0.003 C 
ATOM      4  C   UNL     1     114.041 115.211 114.796  1.00  0.00     0.005 C 
ATOM      5  C   UNL     1     114.300 116.732 114.693  1.00  0.00     0.015 C 
ATOM      6  C   UNL     1     114.742 116.899 113.227  1.00  0.00     0.027 C 
ATOM      7  C   UNL     1     113.923 115.827 112.537  1.00  0.00     0.019 C 
ATOM      8  C   UNL     1     116.119 116.309 113.095  1.00  0.00     0.144 C 
ATOM      9  O   UNL     1     117.158 116.944 113.000  1.00  0.00    -0.298 OA
ATOM     10  C   UNL     1     114.575 118.306 112.647  1.00  0.00     0.020 C 
ATOM     11  C   UNL     1     116.479 114.133 111.890  1.00  0.00     0.020 C 
ENDROOT
TORSDOF 0
ENDMDL
MODEL 9
REMARK VINA RESULT:    -3.963      2.000      3.479
REMARK INTER + INTRA:          -3.963
REMARK INTER:                  -3.963
REMARK INTRA:                   0.000
REMARK UNBOUND:                 0.000
REMARK SMILES CC1(C)C(=O)[C@]2(C)CC[C@H]1C2
REMARK SMILES IDX 1 1 2 2 10 3 9 4 8 5 6 6 11 7 4 8 5 9 7 10 3 11
REMARK H PARENT
REMARK Flexibility Score: inf
ROOT
ATOM      1  C   UNL     1     114.380 116.358 114.366  1.00  0.00     0.020 C 
ATOM      2  C   UNL     1     114.915 117.194 113.182  1.00  0.00     0.027 C 
ATOM      3  C   UNL     1     114.760 118.747 113.367  1.00  0.00     0.003 C 
ATOM      4  C   UNL     1     115.268 119.199 114.760  1.00  0.00     0.005 C 
ATOM      5  C   UNL     1     116.794 118.966 114.667  1.00  0.00     0.015 C 
ATOM      6  C   UNL     1     116.976 118.511 113.207  1.00  0.00     0.027 C 
ATOM      7  C   UNL     1     115.892 119.301 112.503  1.00  0.00     0.019 C 
ATOM      8  C   UNL     1     116.412 117.121 113.089  1.00  0.00     0.144 C 
ATOM      9  O   UNL     1     117.067 116.093 113.009  1.00  0.00    -0.298 OA
ATOM     10  C   UNL     1     118.382 118.697 112.632  1.00  0.00     0.020 C 
ATOM     11  C   UNL     1     114.249 116.707 111.878  1.00  0.00     0.020 C 
ENDROOT
TORSDOF 0
ENDMDL
