MODEL 1
REMARK VINA RESULT:    -4.795      0.000      0.000
REMARK INTER + INTRA:         -10.494
REMARK INTER:                  -8.719
REMARK INTRA:                  -1.776
REMARK UNBOUND:                -1.776
REMARK SMILES CCCCCC=CCC=CCCCCCCCC(=O)[O-]
REMARK SMILES IDX 11 1 12 2 13 3 14 4 15 5 16 6 17 7 18 8 19 9 20 10 10 11
REMARK SMILES IDX 9 12 8 13 7 14 6 15 5 16 4 17 3 18 2 19 1 20
REMARK H PARENT
REMARK Flexibility Score: inf
ROOT
ATOM      1  C   UNL     1       5.725  -5.259 -17.296  1.00  0.00     0.027 C 
ENDROOT
BRANCH   1   2
ATOM      2  C   UNL     1       5.722  -4.923 -15.797  1.00  0.00     0.004 C 
BRANCH   2   3
ATOM      3  C   UNL     1       7.018  -5.376 -15.103  1.00  0.00     0.000 C 
BRANCH   3   4
ATOM      4  C   UNL     1       6.757  -6.307 -13.909  1.00  0.00     0.000 C 
BRANCH   4   5
ATOM      5  C   UNL     1       7.055  -7.783 -14.232  1.00  0.00     0.000 C 
BRANCH   5   6
ATOM      6  C   UNL     1       5.787  -8.650 -14.247  1.00  0.00     0.006 C 
BRANCH   6   7
ATOM      7  C   UNL     1       4.513  -7.830 -14.489  1.00  0.00     0.053 C 
BRANCH   7   8
ATOM      8  C   UNL     1       3.547  -8.016 -13.362  1.00  0.00     0.041 C 
ATOM      9  O   UNL     1       3.237  -9.175 -12.979  1.00  0.00    -0.550 OA
ATOM     10  O   UNL     1       2.954  -6.912 -12.763  1.00  0.00    -0.550 OA
ENDBRANCH   7   8
ENDBRANCH   6   7
ENDBRANCH   5   6
ENDBRANCH   4   5
ENDBRANCH   3   4
ENDBRANCH   2   3
ENDBRANCH   1   2
BRANCH   1  11
ATOM     11  C   UNL     1       6.267  -6.636 -17.567  1.00  0.00    -0.031 C 
ATOM     12  C   UNL     1       7.395  -6.820 -18.271  1.00  0.00    -0.027 C 
BRANCH  12  13
ATOM     13  C   UNL     1       7.956  -8.192 -18.523  1.00  0.00     0.054 C 
BRANCH  13  14
ATOM     14  C   UNL     1       7.254  -9.222 -17.676  1.00  0.00    -0.027 C 
ATOM     15  C   UNL     1       6.584 -10.294 -18.140  1.00  0.00    -0.031 C 
BRANCH  15  16
ATOM     16  C   UNL     1       6.357 -10.627 -19.597  1.00  0.00     0.027 C 
BRANCH  16  17
ATOM     17  C   UNL     1       4.884 -10.952 -19.879  1.00  0.00     0.004 C 
BRANCH  17  18
ATOM     18  C   UNL     1       4.255 -11.817 -18.774  1.00  0.00     0.000 C 
BRANCH  18  19
ATOM     19  C   UNL     1       2.723 -11.860 -18.859  1.00  0.00    -0.003 C 
ATOM     20  C   UNL     1       2.167 -13.284 -18.822  1.00  0.00     0.004 C 
ENDBRANCH  18  19
ENDBRANCH  17  18
ENDBRANCH  16  17
ENDBRANCH  15  16
ENDBRANCH  13  14
ENDBRANCH  12  13
ENDBRANCH   1  11
TORSDOF 14
ENDMDL
MODEL 2
REMARK VINA RESULT:    -4.260      2.905      5.813
REMARK INTER + INTRA:          -9.521
REMARK INTER:                  -7.721
REMARK INTRA:                  -1.801
REMARK UNBOUND:                -1.776
REMARK SMILES CCCCCC=CCC=CCCCCCCCC(=O)[O-]
REMARK SMILES IDX 11 1 12 2 13 3 14 4 15 5 16 6 17 7 18 8 19 9 20 10 10 11
REMARK SMILES IDX 9 12 8 13 7 14 6 15 5 16 4 17 3 18 2 19 1 20
REMARK H PARENT
REMARK Flexibility Score: inf
ROOT
ATOM      1  C   UNL     1       7.557  -6.668 -18.997  1.00  0.00     0.027 C 
ENDROOT
BRANCH   1   2
ATOM      2  C   UNL     1       8.060  -8.076 -18.644  1.00  0.00     0.004 C 
BRANCH   2   3
ATOM      3  C   UNL     1       8.411  -8.205 -17.152  1.00  0.00     0.000 C 
BRANCH   3   4
ATOM      4  C   UNL     1       7.581  -9.284 -16.439  1.00  0.00     0.000 C 
BRANCH   4   5
ATOM      5  C   UNL     1       6.334  -9.698 -17.240  1.00  0.00     0.000 C 
BRANCH   5   6
ATOM      6  C   UNL     1       6.373 -11.172 -17.672  1.00  0.00     0.006 C 
BRANCH   6   7
ATOM      7  C   UNL     1       5.252 -11.528 -18.657  1.00  0.00     0.053 C 
BRANCH   7   8
ATOM      8  C   UNL     1       5.489 -10.871 -19.980  1.00  0.00     0.041 C 
ATOM      9  O   UNL     1       4.521 -10.410 -20.641  1.00  0.00    -0.550 OA
ATOM     10  O   UNL     1       6.773 -10.809 -20.507  1.00  0.00    -0.550 OA
ENDBRANCH   7   8
ENDBRANCH   6   7
ENDBRANCH   5   6
ENDBRANCH   4   5
ENDBRANCH   3   4
ENDBRANCH   2   3
ENDBRANCH   1   2
BRANCH   1  11
ATOM     11  C   UNL     1       7.010  -5.945 -17.796  1.00  0.00    -0.031 C 
ATOM     12  C   UNL     1       5.730  -6.082 -17.417  1.00  0.00    -0.027 C 
BRANCH  12  13
ATOM     13  C   UNL     1       5.183  -5.383 -16.204  1.00  0.00     0.054 C 
BRANCH  13  14
ATOM     14  C   UNL     1       6.293  -4.738 -15.412  1.00  0.00    -0.027 C 
ATOM     15  C   UNL     1       7.167  -5.385 -14.618  1.00  0.00    -0.031 C 
BRANCH  15  16
ATOM     16  C   UNL     1       7.159  -6.866 -14.322  1.00  0.00     0.027 C 
BRANCH  16  17
ATOM     17  C   UNL     1       6.170  -7.214 -13.203  1.00  0.00     0.004 C 
BRANCH  17  18
ATOM     18  C   UNL     1       5.363  -8.486 -13.511  1.00  0.00     0.000 C 
BRANCH  18  19
ATOM     19  C   UNL     1       3.922  -8.181 -13.947  1.00  0.00    -0.003 C 
ATOM     20  C   UNL     1       3.292  -7.039 -13.149  1.00  0.00     0.004 C 
ENDBRANCH  18  19
ENDBRANCH  17  18
ENDBRANCH  16  17
ENDBRANCH  15  16
ENDBRANCH  13  14
ENDBRANCH  12  13
ENDBRANCH   1  11
TORSDOF 14
ENDMDL
MODEL 3
REMARK VINA RESULT:    -4.214      0.879      1.885
REMARK INTER + INTRA:          -9.438
REMARK INTER:                  -7.866
REMARK INTRA:                  -1.573
REMARK UNBOUND:                -1.776
REMARK SMILES CCCCCC=CCC=CCCCCCCCC(=O)[O-]
REMARK SMILES IDX 11 1 12 2 13 3 14 4 15 5 16 6 17 7 18 8 19 9 20 10 10 11
REMARK SMILES IDX 9 12 8 13 7 14 6 15 5 16 4 17 3 18 2 19 1 20
REMARK H PARENT
REMARK Flexibility Score: inf
ROOT
ATOM      1  C   UNL     1       7.352  -6.335 -18.073  1.00  0.00     0.027 C 
ENDROOT
BRANCH   1   2
ATOM      2  C   UNL     1       5.948  -5.926 -17.602  1.00  0.00     0.004 C 
BRANCH   2   3
ATOM      3  C   UNL     1       5.983  -5.216 -16.238  1.00  0.00     0.000 C 
BRANCH   3   4
ATOM      4  C   UNL     1       7.211  -5.604 -15.399  1.00  0.00     0.000 C 
BRANCH   4   5
ATOM      5  C   UNL     1       6.832  -6.317 -14.089  1.00  0.00     0.000 C 
BRANCH   5   6
ATOM      6  C   UNL     1       6.810  -7.847 -14.235  1.00  0.00     0.006 C 
BRANCH   6   7
ATOM      7  C   UNL     1       5.654  -8.497 -13.463  1.00  0.00     0.053 C 
BRANCH   7   8
ATOM      8  C   UNL     1       4.348  -7.886 -13.864  1.00  0.00     0.041 C 
ATOM      9  O   UNL     1       3.596  -7.372 -12.994  1.00  0.00    -0.550 OA
ATOM     10  O   UNL     1       3.939  -7.924 -15.191  1.00  0.00    -0.550 OA
ENDBRANCH   7   8
ENDBRANCH   6   7
ENDBRANCH   5   6
ENDBRANCH   4   5
ENDBRANCH   3   4
ENDBRANCH   2   3
ENDBRANCH   1   2
BRANCH   1  11
ATOM     11  C   UNL     1       7.506  -7.829 -18.163  1.00  0.00    -0.031 C 
ATOM     12  C   UNL     1       6.572  -8.662 -17.680  1.00  0.00    -0.027 C 
BRANCH  12  13
ATOM     13  C   UNL     1       6.708 -10.155 -17.790  1.00  0.00     0.054 C 
BRANCH  13  14
ATOM     14  C   UNL     1       6.889 -10.572 -19.227  1.00  0.00    -0.027 C 
ATOM     15  C   UNL     1       5.896 -10.820 -20.102  1.00  0.00    -0.031 C 
BRANCH  15  16
ATOM     16  C   UNL     1       4.418 -10.789 -19.789  1.00  0.00     0.027 C 
BRANCH  16  17
ATOM     17  C   UNL     1       4.028 -11.891 -18.796  1.00  0.00     0.004 C 
BRANCH  17  18
ATOM     18  C   UNL     1       2.511 -12.143 -18.770  1.00  0.00     0.000 C 
BRANCH  18  19
ATOM     19  C   UNL     1       2.147 -13.591 -19.129  1.00  0.00    -0.003 C 
ATOM     20  C   UNL     1       1.702 -14.409 -17.917  1.00  0.00     0.004 C 
ENDBRANCH  18  19
ENDBRANCH  17  18
ENDBRANCH  16  17
ENDBRANCH  15  16
ENDBRANCH  13  14
ENDBRANCH  12  13
ENDBRANCH   1  11
TORSDOF 14
ENDMDL
MODEL 4
REMARK VINA RESULT:    -4.143      2.321      5.913
REMARK INTER + INTRA:          -9.310
REMARK INTER:                  -7.487
REMARK INTRA:                  -1.823
REMARK UNBOUND:                -1.776
REMARK SMILES CCCCCC=CCC=CCCCCCCCC(=O)[O-]
REMARK SMILES IDX 11 1 12 2 13 3 14 4 15 5 16 6 17 7 18 8 19 9 20 10 10 11
REMARK SMILES IDX 9 12 8 13 7 14 6 15 5 16 4 17 3 18 2 19 1 20
REMARK H PARENT
REMARK Flexibility Score: inf
ROOT
ATOM      1  C   UNL     1       7.875  -6.761 -18.728  1.00  0.00     0.027 C 
ENDROOT
BRANCH   1   2
ATOM      2  C   UNL     1       7.908  -8.296 -18.693  1.00  0.00     0.004 C 
BRANCH   2   3
ATOM      3  C   UNL     1       7.210  -8.858 -17.443  1.00  0.00     0.000 C 
BRANCH   3   4
ATOM      4  C   UNL     1       6.407 -10.135 -17.736  1.00  0.00     0.000 C 
BRANCH   4   5
ATOM      5  C   UNL     1       6.403 -10.503 -19.231  1.00  0.00     0.000 C 
BRANCH   5   6
ATOM      6  C   UNL     1       5.044 -11.043 -19.702  1.00  0.00     0.006 C 
BRANCH   6   7
ATOM      7  C   UNL     1       4.472 -12.108 -18.755  1.00  0.00     0.053 C 
BRANCH   7   8
ATOM      8  C   UNL     1       2.979 -12.145 -18.851  1.00  0.00     0.041 C 
ATOM      9  O   UNL     1       2.318 -11.073 -18.854  1.00  0.00    -0.550 OA
ATOM     10  O   UNL     1       2.314 -13.364 -18.889  1.00  0.00    -0.550 OA
ENDBRANCH   7   8
ENDBRANCH   6   7
ENDBRANCH   5   6
ENDBRANCH   4   5
ENDBRANCH   3   4
ENDBRANCH   2   3
ENDBRANCH   1   2
BRANCH   1  11
ATOM     11  C   UNL     1       6.831  -6.195 -17.805  1.00  0.00    -0.031 C 
ATOM     12  C   UNL     1       7.156  -5.672 -16.613  1.00  0.00    -0.027 C 
BRANCH  12  13
ATOM     13  C   UNL     1       6.120  -5.082 -15.697  1.00  0.00     0.054 C 
BRANCH  13  14
ATOM     14  C   UNL     1       4.752  -5.142 -16.326  1.00  0.00    -0.027 C 
ATOM     15  C   UNL     1       3.685  -5.792 -15.822  1.00  0.00    -0.031 C 
BRANCH  15  16
ATOM     16  C   UNL     1       3.679  -6.633 -14.567  1.00  0.00     0.027 C 
BRANCH  16  17
ATOM     17  C   UNL     1       4.203  -8.050 -14.834  1.00  0.00     0.004 C 
BRANCH  17  18
ATOM     18  C   UNL     1       5.196  -8.517 -13.756  1.00  0.00     0.000 C 
BRANCH  18  19
ATOM     19  C   UNL     1       6.311  -7.494 -13.498  1.00  0.00    -0.003 C 
ATOM     20  C   UNL     1       7.690  -8.003 -13.918  1.00  0.00     0.004 C 
ENDBRANCH  18  19
ENDBRANCH  17  18
ENDBRANCH  16  17
ENDBRANCH  15  16
ENDBRANCH  13  14
ENDBRANCH  12  13
ENDBRANCH   1  11
TORSDOF 14
ENDMDL
MODEL 5
REMARK VINA RESULT:    -4.018      1.045      2.051
REMARK INTER + INTRA:          -9.081
REMARK INTER:                  -7.803
REMARK INTRA:                  -1.279
REMARK UNBOUND:                -1.776
REMARK SMILES CCCCCC=CCC=CCCCCCCCC(=O)[O-]
REMARK SMILES IDX 11 1 12 2 13 3 14 4 15 5 16 6 17 7 18 8 19 9 20 10 10 11
REMARK SMILES IDX 9 12 8 13 7 14 6 15 5 16 4 17 3 18 2 19 1 20
REMARK H PARENT
REMARK Flexibility Score: inf
ROOT
ATOM      1  C   UNL     1       7.975  -6.821 -15.378  1.00  0.00     0.027 C 
ENDROOT
BRANCH   1   2
ATOM      2  C   UNL     1       7.503  -5.443 -15.866  1.00  0.00     0.004 C 
BRANCH   2   3
ATOM      3  C   UNL     1       6.905  -5.508 -17.281  1.00  0.00     0.000 C 
BRANCH   3   4
ATOM      4  C   UNL     1       5.369  -5.482 -17.277  1.00  0.00     0.000 C 
BRANCH   4   5
ATOM      5  C   UNL     1       4.784  -5.195 -15.882  1.00  0.00     0.000 C 
BRANCH   5   6
ATOM      6  C   UNL     1       3.757  -6.251 -15.445  1.00  0.00     0.006 C 
BRANCH   6   7
ATOM      7  C   UNL     1       4.405  -7.443 -14.727  1.00  0.00     0.053 C 
BRANCH   7   8
ATOM      8  C   UNL     1       3.648  -7.780 -13.482  1.00  0.00     0.041 C 
ATOM      9  O   UNL     1       3.575  -8.974 -13.089  1.00  0.00    -0.550 OA
ATOM     10  O   UNL     1       2.982  -6.782 -12.780  1.00  0.00    -0.550 OA
ENDBRANCH   7   8
ENDBRANCH   6   7
ENDBRANCH   5   6
ENDBRANCH   4   5
ENDBRANCH   3   4
ENDBRANCH   2   3
ENDBRANCH   1   2
BRANCH   1  11
ATOM     11  C   UNL     1       7.841  -7.876 -16.442  1.00  0.00    -0.031 C 
ATOM     12  C   UNL     1       6.930  -8.858 -16.348  1.00  0.00    -0.027 C 
BRANCH  12  13
ATOM     13  C   UNL     1       6.774  -9.899 -17.421  1.00  0.00     0.054 C 
BRANCH  13  14
ATOM     14  C   UNL     1       7.407  -9.440 -18.709  1.00  0.00    -0.027 C 
ATOM     15  C   UNL     1       7.152  -9.945 -19.931  1.00  0.00    -0.031 C 
BRANCH  15  16
ATOM     16  C   UNL     1       6.234 -11.107 -20.230  1.00  0.00     0.027 C 
BRANCH  16  17
ATOM     17  C   UNL     1       4.772 -10.768 -19.912  1.00  0.00     0.004 C 
BRANCH  17  18
ATOM     18  C   UNL     1       4.196 -11.658 -18.798  1.00  0.00     0.000 C 
BRANCH  18  19
ATOM     19  C   UNL     1       2.669 -11.796 -18.883  1.00  0.00    -0.003 C 
ATOM     20  C   UNL     1       2.203 -13.252 -18.851  1.00  0.00     0.004 C 
ENDBRANCH  18  19
ENDBRANCH  17  18
ENDBRANCH  16  17
ENDBRANCH  15  16
ENDBRANCH  13  14
ENDBRANCH  12  13
ENDBRANCH   1  11
TORSDOF 14
ENDMDL
MODEL 6
REMARK VINA RESULT:    -3.961      1.525      2.052
REMARK INTER + INTRA:          -8.979
REMARK INTER:                  -7.466
REMARK INTRA:                  -1.513
REMARK UNBOUND:                -1.776
REMARK SMILES CCCCCC=CCC=CCCCCCCCC(=O)[O-]
REMARK SMILES IDX 11 1 12 2 13 3 14 4 15 5 16 6 17 7 18 8 19 9 20 10 10 11
REMARK SMILES IDX 9 12 8 13 7 14 6 15 5 16 4 17 3 18 2 19 1 20
REMARK H PARENT
REMARK Flexibility Score: inf
ROOT
ATOM      1  C   UNL     1       6.227  -5.348 -17.431  1.00  0.00     0.027 C 
ENDROOT
BRANCH   1   2
ATOM      2  C   UNL     1       5.592  -5.134 -16.048  1.00  0.00     0.004 C 
BRANCH   2   3
ATOM      3  C   UNL     1       4.057  -5.197 -16.104  1.00  0.00     0.000 C 
BRANCH   3   4
ATOM      4  C   UNL     1       3.463  -6.135 -15.041  1.00  0.00     0.000 C 
BRANCH   4   5
ATOM      5  C   UNL     1       4.083  -7.544 -15.080  1.00  0.00     0.000 C 
BRANCH   5   6
ATOM      6  C   UNL     1       4.104  -8.217 -13.700  1.00  0.00     0.006 C 
BRANCH   6   7
ATOM      7  C   UNL     1       5.467  -8.838 -13.366  1.00  0.00     0.053 C 
BRANCH   7   8
ATOM      8  C   UNL     1       6.573  -7.899 -13.730  1.00  0.00     0.041 C 
ATOM      9  O   UNL     1       7.433  -8.235 -14.587  1.00  0.00    -0.550 OA
ATOM     10  O   UNL     1       6.683  -6.670 -13.091  1.00  0.00    -0.550 OA
ENDBRANCH   7   8
ENDBRANCH   6   7
ENDBRANCH   5   6
ENDBRANCH   4   5
ENDBRANCH   3   4
ENDBRANCH   2   3
ENDBRANCH   1   2
BRANCH   1  11
ATOM     11  C   UNL     1       6.731  -6.754 -17.611  1.00  0.00    -0.031 C 
ATOM     12  C   UNL     1       7.617  -7.066 -18.570  1.00  0.00    -0.027 C 
BRANCH  12  13
ATOM     13  C   UNL     1       8.144  -8.463 -18.738  1.00  0.00     0.054 C 
BRANCH  13  14
ATOM     14  C   UNL     1       7.371  -9.434 -17.881  1.00  0.00    -0.027 C 
ATOM     15  C   UNL     1       6.549 -10.398 -18.336  1.00  0.00    -0.031 C 
BRANCH  15  16
ATOM     16  C   UNL     1       6.198 -10.645 -19.785  1.00  0.00     0.027 C 
BRANCH  16  17
ATOM     17  C   UNL     1       4.871 -11.402 -19.924  1.00  0.00     0.004 C 
BRANCH  17  18
ATOM     18  C   UNL     1       4.090 -11.458 -18.600  1.00  0.00     0.000 C 
BRANCH  18  19
ATOM     19  C   UNL     1       2.603 -11.782 -18.806  1.00  0.00    -0.003 C 
ATOM     20  C   UNL     1       2.326 -13.284 -18.860  1.00  0.00     0.004 C 
ENDBRANCH  18  19
ENDBRANCH  17  18
ENDBRANCH  16  17
ENDBRANCH  15  16
ENDBRANCH  13  14
ENDBRANCH  12  13
ENDBRANCH   1  11
TORSDOF 14
ENDMDL
MODEL 7
REMARK VINA RESULT:    -3.888      2.277      5.808
REMARK INTER + INTRA:          -8.846
REMARK INTER:                  -7.044
REMARK INTRA:                  -1.802
REMARK UNBOUND:                -1.776
REMARK SMILES CCCCCC=CCC=CCCCCCCCC(=O)[O-]
REMARK SMILES IDX 11 1 12 2 13 3 14 4 15 5 16 6 17 7 18 8 19 9 20 10 10 11
REMARK SMILES IDX 9 12 8 13 7 14 6 15 5 16 4 17 3 18 2 19 1 20
REMARK H PARENT
REMARK Flexibility Score: inf
ROOT
ATOM      1  C   UNL     1       7.948  -6.992 -19.026  1.00  0.00     0.027 C 
ENDROOT
BRANCH   1   2
ATOM      2  C   UNL     1       8.031  -8.525 -19.064  1.00  0.00     0.004 C 
BRANCH   2   3
ATOM      3  C   UNL     1       7.119  -9.177 -18.012  1.00  0.00     0.000 C 
BRANCH   3   4
ATOM      4  C   UNL     1       6.740 -10.623 -18.370  1.00  0.00     0.000 C 
BRANCH   4   5
ATOM      5  C   UNL     1       6.296 -10.774 -19.837  1.00  0.00     0.000 C 
BRANCH   5   6
ATOM      6  C   UNL     1       4.817 -11.168 -19.968  1.00  0.00     0.006 C 
BRANCH   6   7
ATOM      7  C   UNL     1       4.278 -11.863 -18.710  1.00  0.00     0.053 C 
BRANCH   7   8
ATOM      8  C   UNL     1       2.804 -12.089 -18.827  1.00  0.00     0.041 C 
ATOM      9  O   UNL     1       2.014 -11.108 -18.858  1.00  0.00    -0.550 OA
ATOM     10  O   UNL     1       2.297 -13.382 -18.856  1.00  0.00    -0.550 OA
ENDBRANCH   7   8
ENDBRANCH   6   7
ENDBRANCH   5   6
ENDBRANCH   4   5
ENDBRANCH   3   4
ENDBRANCH   2   3
ENDBRANCH   1   2
BRANCH   1  11
ATOM     11  C   UNL     1       6.953  -6.503 -18.008  1.00  0.00    -0.031 C 
ATOM     12  C   UNL     1       7.286  -5.590 -17.083  1.00  0.00    -0.027 C 
BRANCH  12  13
ATOM     13  C   UNL     1       6.290  -5.079 -16.080  1.00  0.00     0.054 C 
BRANCH  13  14
ATOM     14  C   UNL     1       6.830  -5.203 -14.678  1.00  0.00    -0.027 C 
ATOM     15  C   UNL     1       7.173  -6.354 -14.070  1.00  0.00    -0.031 C 
BRANCH  15  16
ATOM     16  C   UNL     1       7.020  -7.739 -14.654  1.00  0.00     0.027 C 
BRANCH  16  17
ATOM     17  C   UNL     1       5.683  -8.377 -14.256  1.00  0.00     0.004 C 
BRANCH  17  18
ATOM     18  C   UNL     1       4.556  -8.033 -15.244  1.00  0.00     0.000 C 
BRANCH  18  19
ATOM     19  C   UNL     1       3.520  -7.069 -14.647  1.00  0.00    -0.003 C 
ATOM     20  C   UNL     1       3.459  -7.137 -13.121  1.00  0.00     0.004 C 
ENDBRANCH  18  19
ENDBRANCH  17  18
ENDBRANCH  16  17
ENDBRANCH  15  16
ENDBRANCH  13  14
ENDBRANCH  12  13
ENDBRANCH   1  11
TORSDOF 14
ENDMDL
MODEL 8
REMARK VINA RESULT:    -3.867      2.090      3.532
REMARK INTER + INTRA:          -8.807
REMARK INTER:                  -7.057
REMARK INTRA:                  -1.750
REMARK UNBOUND:                -1.776
REMARK SMILES CCCCCC=CCC=CCCCCCCCC(=O)[O-]
REMARK SMILES IDX 11 1 12 2 13 3 14 4 15 5 16 6 17 7 18 8 19 9 20 10 10 11
REMARK SMILES IDX 9 12 8 13 7 14 6 15 5 16 4 17 3 18 2 19 1 20
REMARK H PARENT
REMARK Flexibility Score: inf
ROOT
ATOM      1  C   UNL     1       6.418  -7.805 -13.432  1.00  0.00     0.027 C 
ENDROOT
BRANCH   1   2
ATOM      2  C   UNL     1       5.425  -8.950 -13.179  1.00  0.00     0.004 C 
BRANCH   2   3
ATOM      3  C   UNL     1       3.970  -8.511 -13.412  1.00  0.00     0.000 C 
BRANCH   3   4
ATOM      4  C   UNL     1       3.854  -7.033 -13.814  1.00  0.00     0.000 C 
BRANCH   4   5
ATOM      5  C   UNL     1       3.809  -6.835 -15.340  1.00  0.00     0.000 C 
BRANCH   5   6
ATOM      6  C   UNL     1       4.234  -5.420 -15.764  1.00  0.00     0.006 C 
BRANCH   6   7
ATOM      7  C   UNL     1       5.268  -5.430 -16.898  1.00  0.00     0.053 C 
BRANCH   7   8
ATOM      8  C   UNL     1       6.642  -5.191 -16.357  1.00  0.00     0.041 C 
ATOM      9  O   UNL     1       7.653  -5.418 -17.072  1.00  0.00    -0.550 OA
ATOM     10  O   UNL     1       6.809  -4.760 -15.046  1.00  0.00    -0.550 OA
ENDBRANCH   7   8
ENDBRANCH   6   7
ENDBRANCH   5   6
ENDBRANCH   4   5
ENDBRANCH   3   4
ENDBRANCH   2   3
ENDBRANCH   1   2
BRANCH   1  11
ATOM     11  C   UNL     1       7.352  -8.107 -14.572  1.00  0.00    -0.031 C 
ATOM     12  C   UNL     1       6.910  -8.647 -15.719  1.00  0.00    -0.027 C 
BRANCH  12  13
ATOM     13  C   UNL     1       7.834  -8.927 -16.871  1.00  0.00     0.054 C 
BRANCH  13  14
ATOM     14  C   UNL     1       7.192  -8.540 -18.179  1.00  0.00    -0.027 C 
ATOM     15  C   UNL     1       6.644  -9.393 -19.065  1.00  0.00    -0.031 C 
BRANCH  15  16
ATOM     16  C   UNL     1       6.629 -10.899 -18.944  1.00  0.00     0.027 C 
BRANCH  16  17
ATOM     17  C   UNL     1       5.301 -11.407 -18.367  1.00  0.00     0.004 C 
BRANCH  17  18
ATOM     18  C   UNL     1       4.198 -11.498 -19.435  1.00  0.00     0.000 C 
BRANCH  18  19
ATOM     19  C   UNL     1       2.807 -11.732 -18.827  1.00  0.00    -0.003 C 
ATOM     20  C   UNL     1       2.378 -13.199 -18.875  1.00  0.00     0.004 C 
ENDBRANCH  18  19
ENDBRANCH  17  18
ENDBRANCH  16  17
ENDBRANCH  15  16
ENDBRANCH  13  14
ENDBRANCH  12  13
ENDBRANCH   1  11
TORSDOF 14
ENDMDL
MODEL 9
REMARK VINA RESULT:    -3.853      3.803      7.811
REMARK INTER + INTRA:          -8.781
REMARK INTER:                  -7.500
REMARK INTRA:                  -1.282
REMARK UNBOUND:                -1.776
REMARK SMILES CCCCCC=CCC=CCCCCCCCC(=O)[O-]
REMARK SMILES IDX 11 1 12 2 13 3 14 4 15 5 16 6 17 7 18 8 19 9 20 10 10 11
REMARK SMILES IDX 9 12 8 13 7 14 6 15 5 16 4 17 3 18 2 19 1 20
REMARK H PARENT
REMARK Flexibility Score: inf
ROOT
ATOM      1  C   UNL     1       5.595 -11.298 -18.462  1.00  0.00     0.027 C 
ENDROOT
BRANCH   1   2
ATOM      2  C   UNL     1       4.400 -11.290 -19.427  1.00  0.00     0.004 C 
BRANCH   2   3
ATOM      3  C   UNL     1       3.117 -11.816 -18.761  1.00  0.00     0.000 C 
BRANCH   3   4
ATOM      4  C   UNL     1       2.873 -13.307 -19.041  1.00  0.00     0.000 C 
BRANCH   4   5
ATOM      5  C   UNL     1       1.409 -13.721 -18.810  1.00  0.00     0.000 C 
BRANCH   5   6
ATOM      6  C   UNL     1       1.285 -15.091 -18.124  1.00  0.00     0.006 C 
BRANCH   6   7
ATOM      7  C   UNL     1      -0.112 -15.707 -18.285  1.00  0.00     0.053 C 
BRANCH   7   8
ATOM      8  C   UNL     1      -0.011 -17.099 -18.825  1.00  0.00     0.041 C 
ATOM      9  O   UNL     1       0.892 -17.874 -18.412  1.00  0.00    -0.550 OA
ATOM     10  O   UNL     1      -0.884 -17.526 -19.818  1.00  0.00    -0.550 OA
ENDBRANCH   7   8
ENDBRANCH   6   7
ENDBRANCH   5   6
ENDBRANCH   4   5
ENDBRANCH   3   4
ENDBRANCH   2   3
ENDBRANCH   1   2
BRANCH   1  11
ATOM     11  C   UNL     1       6.477 -10.092 -18.641  1.00  0.00    -0.031 C 
ATOM     12  C   UNL     1       6.638  -9.188 -17.663  1.00  0.00    -0.027 C 
BRANCH  12  13
ATOM     13  C   UNL     1       7.538  -7.995 -17.827  1.00  0.00     0.054 C 
BRANCH  13  14
ATOM     14  C   UNL     1       6.731  -6.733 -17.991  1.00  0.00    -0.027 C 
ATOM     15  C   UNL     1       6.758  -5.672 -17.162  1.00  0.00    -0.031 C 
BRANCH  15  16
ATOM     16  C   UNL     1       7.552  -5.577 -15.880  1.00  0.00     0.027 C 
BRANCH  16  17
ATOM     17  C   UNL     1       6.691  -5.912 -14.655  1.00  0.00     0.004 C 
BRANCH  17  18
ATOM     18  C   UNL     1       6.772  -7.400 -14.276  1.00  0.00     0.000 C 
BRANCH  18  19
ATOM     19  C   UNL     1       5.387  -8.034 -14.075  1.00  0.00    -0.003 C 
ATOM     20  C   UNL     1       4.311  -7.397 -14.955  1.00  0.00     0.004 C 
ENDBRANCH  18  19
ENDBRANCH  17  18
ENDBRANCH  16  17
ENDBRANCH  15  16
ENDBRANCH  13  14
ENDBRANCH  12  13
ENDBRANCH   1  11
TORSDOF 14
ENDMDL
