MODEL 1
REMARK VINA RESULT:    -2.975      0.000      0.000
REMARK INTER + INTRA:          -3.062
REMARK INTER:                  -3.062
REMARK INTRA:                   0.000
REMARK UNBOUND:                 0.000
REMARK SMILES Cc1ccccc1O
REMARK SMILES IDX 1 1 2 2 3 3 4 4 5 5 6 6 7 7 8 8
REMARK H PARENT 8 9
REMARK Flexibility Score: inf
ROOT
ATOM      1  C   UNL     1     -24.955  56.047  44.617  1.00  0.00     0.048 C 
ATOM      2  C   UNL     1     -25.622  54.763  44.208  1.00  0.00    -0.009 A 
ATOM      3  C   UNL     1     -25.287  54.166  42.980  1.00  0.00     0.007 A 
ATOM      4  C   UNL     1     -25.895  52.972  42.583  1.00  0.00     0.001 A 
ATOM      5  C   UNL     1     -26.844  52.363  43.406  1.00  0.00     0.004 A 
ATOM      6  C   UNL     1     -27.186  52.945  44.627  1.00  0.00     0.046 A 
ATOM      7  C   UNL     1     -26.585  54.141  45.039  1.00  0.00     0.118 A 
ENDROOT
BRANCH   7   8
ATOM      8  O   UNL     1     -26.960  54.682  46.269  1.00  0.00    -0.508 OA
ATOM      9  H   UNL     1     -27.815  55.209  46.402  1.00  0.00     0.293 HD
ENDBRANCH   7   8
TORSDOF 1
ENDMDL
MODEL 2
REMARK VINA RESULT:    -2.965      2.072      2.796
REMARK INTER + INTRA:          -3.051
REMARK INTER:                  -3.051
REMARK INTRA:                   0.000
REMARK UNBOUND:                 0.000
REMARK SMILES Cc1ccccc1O
REMARK SMILES IDX 1 1 2 2 3 3 4 4 5 5 6 6 7 7 8 8
REMARK H PARENT 8 9
REMARK Flexibility Score: inf
ROOT
ATOM      1  C   UNL     1     -24.549  55.261  41.960  1.00  0.00     0.048 C 
ATOM      2  C   UNL     1     -25.398  54.431  42.883  1.00  0.00    -0.009 A 
ATOM      3  C   UNL     1     -25.565  54.831  44.222  1.00  0.00     0.007 A 
ATOM      4  C   UNL     1     -26.350  54.074  45.094  1.00  0.00     0.001 A 
ATOM      5  C   UNL     1     -26.975  52.911  44.643  1.00  0.00     0.004 A 
ATOM      6  C   UNL     1     -26.818  52.502  43.318  1.00  0.00     0.046 A 
ATOM      7  C   UNL     1     -26.035  53.251  42.431  1.00  0.00     0.118 A 
ENDROOT
BRANCH   7   8
ATOM      8  O   UNL     1     -25.910  52.801  41.115  1.00  0.00    -0.508 OA
ATOM      9  H   UNL     1     -26.212  53.344  40.316  1.00  0.00     0.293 HD
ENDBRANCH   7   8
TORSDOF 1
ENDMDL
MODEL 3
REMARK VINA RESULT:    -2.911     10.840     11.443
REMARK INTER + INTRA:          -2.996
REMARK INTER:                  -2.996
REMARK INTRA:                   0.000
REMARK UNBOUND:                 0.000
REMARK SMILES Cc1ccccc1O
REMARK SMILES IDX 1 1 2 2 3 3 4 4 5 5 6 6 7 7 8 8
REMARK H PARENT 8 9
REMARK Flexibility Score: inf
ROOT
ATOM      1  C   UNL     1     -27.550  53.158  33.808  1.00  0.00     0.048 C 
ATOM      2  C   UNL     1     -28.043  51.738  33.750  1.00  0.00    -0.009 A 
ATOM      3  C   UNL     1     -27.251  50.705  34.284  1.00  0.00     0.007 A 
ATOM      4  C   UNL     1     -27.692  49.381  34.240  1.00  0.00     0.001 A 
ATOM      5  C   UNL     1     -28.925  49.072  33.664  1.00  0.00     0.004 A 
ATOM      6  C   UNL     1     -29.721  50.087  33.130  1.00  0.00     0.046 A 
ATOM      7  C   UNL     1     -29.292  51.420  33.167  1.00  0.00     0.118 A 
ENDROOT
BRANCH   7   8
ATOM      8  O   UNL     1     -30.125  52.399  32.622  1.00  0.00    -0.508 OA
ATOM      9  H   UNL     1     -30.389  53.239  33.121  1.00  0.00     0.293 HD
ENDBRANCH   7   8
TORSDOF 1
ENDMDL
MODEL 4
REMARK VINA RESULT:    -2.896      0.805      2.612
REMARK INTER + INTRA:          -2.980
REMARK INTER:                  -2.980
REMARK INTRA:                   0.000
REMARK UNBOUND:                 0.000
REMARK SMILES Cc1ccccc1O
REMARK SMILES IDX 1 1 2 2 3 3 4 4 5 5 6 6 7 7 8 8
REMARK H PARENT 8 9
REMARK Flexibility Score: inf
ROOT
ATOM      1  C   UNL     1     -27.319  52.694  44.475  1.00  0.00     0.048 C 
ATOM      2  C   UNL     1     -26.352  53.807  44.178  1.00  0.00    -0.009 A 
ATOM      3  C   UNL     1     -25.472  53.691  43.087  1.00  0.00     0.007 A 
ATOM      4  C   UNL     1     -24.567  54.714  42.795  1.00  0.00     0.001 A 
ATOM      5  C   UNL     1     -24.529  55.862  43.588  1.00  0.00     0.004 A 
ATOM      6  C   UNL     1     -25.397  55.991  44.674  1.00  0.00     0.046 A 
ATOM      7  C   UNL     1     -26.310  54.974  44.979  1.00  0.00     0.118 A 
ENDROOT
BRANCH   7   8
ATOM      8  O   UNL     1     -27.157  55.150  46.074  1.00  0.00    -0.508 OA
ATOM      9  H   UNL     1     -28.153  54.973  46.035  1.00  0.00     0.293 HD
ENDBRANCH   7   8
TORSDOF 1
ENDMDL
MODEL 5
REMARK VINA RESULT:    -2.841      2.269      3.685
REMARK INTER + INTRA:          -2.924
REMARK INTER:                  -2.924
REMARK INTRA:                   0.000
REMARK UNBOUND:                 0.000
REMARK SMILES Cc1ccccc1O
REMARK SMILES IDX 1 1 2 2 3 3 4 4 5 5 6 6 7 7 8 8
REMARK H PARENT 8 9
REMARK Flexibility Score: inf
ROOT
ATOM      1  C   UNL     1     -26.966  52.398  43.904  1.00  0.00     0.048 C 
ATOM      2  C   UNL     1     -26.103  53.483  43.321  1.00  0.00    -0.009 A 
ATOM      3  C   UNL     1     -25.657  54.534  44.142  1.00  0.00     0.007 A 
ATOM      4  C   UNL     1     -24.854  55.550  43.619  1.00  0.00     0.001 A 
ATOM      5  C   UNL     1     -24.488  55.529  42.272  1.00  0.00     0.004 A 
ATOM      6  C   UNL     1     -24.924  54.492  41.445  1.00  0.00     0.046 A 
ATOM      7  C   UNL     1     -25.729  53.466  41.956  1.00  0.00     0.118 A 
ENDROOT
BRANCH   7   8
ATOM      8  O   UNL     1     -26.138  52.451  41.089  1.00  0.00    -0.508 OA
ATOM      9  H   UNL     1     -26.063  52.523  40.082  1.00  0.00     0.293 HD
ENDBRANCH   7   8
TORSDOF 1
ENDMDL
MODEL 6
REMARK VINA RESULT:    -2.838      5.786      7.106
REMARK INTER + INTRA:          -2.921
REMARK INTER:                  -2.921
REMARK INTRA:                   0.000
REMARK UNBOUND:                 0.000
REMARK SMILES Cc1ccccc1O
REMARK SMILES IDX 1 1 2 2 3 3 4 4 5 5 6 6 7 7 8 8
REMARK H PARENT 8 9
REMARK Flexibility Score: inf
ROOT
ATOM      1  C   UNL     1     -26.310  48.803  42.631  1.00  0.00     0.048 C 
ATOM      2  C   UNL     1     -27.253  48.417  41.525  1.00  0.00    -0.009 A 
ATOM      3  C   UNL     1     -27.955  47.201  41.602  1.00  0.00     0.007 A 
ATOM      4  C   UNL     1     -28.836  46.825  40.585  1.00  0.00     0.001 A 
ATOM      5  C   UNL     1     -29.025  47.657  39.480  1.00  0.00     0.004 A 
ATOM      6  C   UNL     1     -28.334  48.867  39.390  1.00  0.00     0.046 A 
ATOM      7  C   UNL     1     -27.448  49.257  40.402  1.00  0.00     0.118 A 
ENDROOT
BRANCH   7   8
ATOM      8  O   UNL     1     -26.782  50.476  40.266  1.00  0.00    -0.508 OA
ATOM      9  H   UNL     1     -26.582  50.898  39.367  1.00  0.00     0.293 HD
ENDBRANCH   7   8
TORSDOF 1
ENDMDL
MODEL 7
REMARK VINA RESULT:    -2.777      6.824      8.101
REMARK INTER + INTRA:          -2.859
REMARK INTER:                  -2.859
REMARK INTRA:                   0.000
REMARK UNBOUND:                 0.000
REMARK SMILES Cc1ccccc1O
REMARK SMILES IDX 1 1 2 2 3 3 4 4 5 5 6 6 7 7 8 8
REMARK H PARENT 8 9
REMARK Flexibility Score: inf
ROOT
ATOM      1  C   UNL     1     -29.317  46.004  41.903  1.00  0.00     0.048 C 
ATOM      2  C   UNL     1     -28.581  47.141  41.251  1.00  0.00    -0.009 A 
ATOM      3  C   UNL     1     -27.447  47.686  41.880  1.00  0.00     0.007 A 
ATOM      4  C   UNL     1     -26.749  48.742  41.290  1.00  0.00     0.001 A 
ATOM      5  C   UNL     1     -27.174  49.267  40.068  1.00  0.00     0.004 A 
ATOM      6  C   UNL     1     -28.298  48.735  39.433  1.00  0.00     0.046 A 
ATOM      7  C   UNL     1     -29.008  47.676  40.012  1.00  0.00     0.118 A 
ENDROOT
BRANCH   7   8
ATOM      8  O   UNL     1     -30.124  47.179  39.338  1.00  0.00    -0.508 OA
ATOM      9  H   UNL     1     -30.854  47.774  38.966  1.00  0.00     0.293 HD
ENDBRANCH   7   8
TORSDOF 1
ENDMDL
MODEL 8
REMARK VINA RESULT:    -2.762      1.334      2.727
REMARK INTER + INTRA:          -2.843
REMARK INTER:                  -2.843
REMARK INTRA:                   0.000
REMARK UNBOUND:                 0.000
REMARK SMILES Cc1ccccc1O
REMARK SMILES IDX 1 1 2 2 3 3 4 4 5 5 6 6 7 7 8 8
REMARK H PARENT 8 9
REMARK Flexibility Score: inf
ROOT
ATOM      1  C   UNL     1     -25.611  52.284  42.320  1.00  0.00     0.048 C 
ATOM      2  C   UNL     1     -25.744  53.429  43.287  1.00  0.00    -0.009 A 
ATOM      3  C   UNL     1     -24.960  54.583  43.109  1.00  0.00     0.007 A 
ATOM      4  C   UNL     1     -25.070  55.657  43.996  1.00  0.00     0.001 A 
ATOM      5  C   UNL     1     -25.961  55.590  45.069  1.00  0.00     0.004 A 
ATOM      6  C   UNL     1     -26.745  54.451  45.257  1.00  0.00     0.046 A 
ATOM      7  C   UNL     1     -26.646  53.367  44.376  1.00  0.00     0.118 A 
ENDROOT
BRANCH   7   8
ATOM      8  O   UNL     1     -27.452  52.250  44.606  1.00  0.00    -0.508 OA
ATOM      9  H   UNL     1     -27.868  52.047  45.506  1.00  0.00     0.293 HD
ENDBRANCH   7   8
TORSDOF 1
ENDMDL
MODEL 9
REMARK VINA RESULT:    -2.714      7.989      8.791
REMARK INTER + INTRA:          -2.794
REMARK INTER:                  -2.794
REMARK INTRA:                   0.000
REMARK UNBOUND:                 0.000
REMARK SMILES Cc1ccccc1O
REMARK SMILES IDX 1 1 2 2 3 3 4 4 5 5 6 6 7 7 8 8
REMARK H PARENT 8 9
REMARK Flexibility Score: inf
ROOT
ATOM      1  C   UNL     1     -26.434  56.102  35.731  1.00  0.00     0.048 C 
ATOM      2  C   UNL     1     -27.195  57.278  36.278  1.00  0.00    -0.009 A 
ATOM      3  C   UNL     1     -27.602  58.307  35.411  1.00  0.00     0.007 A 
ATOM      4  C   UNL     1     -28.310  59.407  35.900  1.00  0.00     0.001 A 
ATOM      5  C   UNL     1     -28.619  59.493  37.259  1.00  0.00     0.004 A 
ATOM      6  C   UNL     1     -28.221  58.479  38.131  1.00  0.00     0.046 A 
ATOM      7  C   UNL     1     -27.511  57.369  37.655  1.00  0.00     0.118 A 
ENDROOT
BRANCH   7   8
ATOM      8  O   UNL     1     -27.137  56.381  38.567  1.00  0.00    -0.508 OA
ATOM      9  H   UNL     1     -27.110  55.397  38.333  1.00  0.00     0.293 HD
ENDBRANCH   7   8
TORSDOF 1
ENDMDL
