MODEL 1
REMARK VINA RESULT:    -3.082      0.000      0.000
REMARK INTER + INTRA:          -3.907
REMARK INTER:                  -3.803
REMARK INTRA:                  -0.104
REMARK UNBOUND:                -0.104
REMARK SMILES CCCCCC(=O)[O-]
REMARK SMILES IDX 4 1 5 2 6 3 7 4 8 5 3 6 2 7 1 8
REMARK H PARENT
REMARK Flexibility Score: inf
ROOT
ATOM      1  C   UNL     1      55.916  28.497  50.640  1.00  0.00     0.006 C 
ENDROOT
BRANCH   1   2
ATOM      2  C   UNL     1      57.249  27.882  50.205  1.00  0.00     0.053 C 
BRANCH   2   3
ATOM      3  C   UNL     1      58.315  28.930  50.148  1.00  0.00     0.041 C 
ATOM      4  O   UNL     1      58.918  29.162  49.067  1.00  0.00    -0.550 OA
ATOM      5  O   UNL     1      58.609  29.685  51.276  1.00  0.00    -0.550 OA
ENDBRANCH   2   3
ENDBRANCH   1   2
BRANCH   1   6
ATOM      6  C   UNL     1      54.733  27.678  50.110  1.00  0.00     0.000 C 
BRANCH   6   7
ATOM      7  C   UNL     1      55.161  26.242  49.781  1.00  0.00    -0.003 C 
ATOM      8  C   UNL     1      54.044  25.483  49.072  1.00  0.00     0.004 C 
ENDBRANCH   6   7
ENDBRANCH   1   6
TORSDOF 4
ENDMDL
MODEL 2
REMARK VINA RESULT:    -3.031     12.360     14.278
REMARK INTER + INTRA:          -3.844
REMARK INTER:                  -3.736
REMARK INTRA:                  -0.108
REMARK UNBOUND:                -0.104
REMARK SMILES CCCCCC(=O)[O-]
REMARK SMILES IDX 4 1 5 2 6 3 7 4 8 5 3 6 2 7 1 8
REMARK H PARENT
REMARK Flexibility Score: inf
ROOT
ATOM      1  C   UNL     1      61.750  34.590  60.545  1.00  0.00     0.006 C 
ENDROOT
BRANCH   1   2
ATOM      2  C   UNL     1      62.292  33.159  60.575  1.00  0.00     0.053 C 
BRANCH   2   3
ATOM      3  C   UNL     1      61.168  32.173  60.602  1.00  0.00     0.041 C 
ATOM      4  O   UNL     1      60.919  31.524  61.652  1.00  0.00    -0.550 OA
ATOM      5  O   UNL     1      60.362  32.006  59.483  1.00  0.00    -0.550 OA
ENDBRANCH   2   3
ENDBRANCH   1   2
BRANCH   1   6
ATOM      6  C   UNL     1      62.807  35.589  61.031  1.00  0.00     0.000 C 
BRANCH   6   7
ATOM      7  C   UNL     1      64.146  34.889  61.294  1.00  0.00    -0.003 C 
ATOM      8  C   UNL     1      65.199  35.880  61.780  1.00  0.00     0.004 C 
ENDBRANCH   6   7
ENDBRANCH   1   6
TORSDOF 4
ENDMDL
MODEL 3
REMARK VINA RESULT:    -3.007     13.148     14.190
REMARK INTER + INTRA:          -3.814
REMARK INTER:                  -3.679
REMARK INTRA:                  -0.135
REMARK UNBOUND:                -0.104
REMARK SMILES CCCCCC(=O)[O-]
REMARK SMILES IDX 4 1 5 2 6 3 7 4 8 5 3 6 2 7 1 8
REMARK H PARENT
REMARK Flexibility Score: inf
ROOT
ATOM      1  C   UNL     1      61.758  33.111  60.526  1.00  0.00     0.006 C 
ENDROOT
BRANCH   1   2
ATOM      2  C   UNL     1      62.631  31.872  60.742  1.00  0.00     0.053 C 
BRANCH   2   3
ATOM      3  C   UNL     1      61.914  30.868  61.587  1.00  0.00     0.041 C 
ATOM      4  O   UNL     1      60.761  31.117  62.027  1.00  0.00    -0.550 OA
ATOM      5  O   UNL     1      62.500  29.636  61.850  1.00  0.00    -0.550 OA
ENDBRANCH   2   3
ENDBRANCH   1   2
BRANCH   1   6
ATOM      6  C   UNL     1      62.589  34.396  60.636  1.00  0.00     0.000 C 
BRANCH   6   7
ATOM      7  C   UNL     1      64.044  34.080  61.006  1.00  0.00    -0.003 C 
ATOM      8  C   UNL     1      64.726  35.289  61.639  1.00  0.00     0.004 C 
ENDBRANCH   6   7
ENDBRANCH   1   6
TORSDOF 4
ENDMDL
MODEL 4
REMARK VINA RESULT:    -2.921     13.013     13.743
REMARK INTER + INTRA:          -3.708
REMARK INTER:                  -3.637
REMARK INTRA:                  -0.070
REMARK UNBOUND:                -0.104
REMARK SMILES CCCCCC(=O)[O-]
REMARK SMILES IDX 4 1 5 2 6 3 7 4 8 5 3 6 2 7 1 8
REMARK H PARENT
REMARK Flexibility Score: inf
ROOT
ATOM      1  C   UNL     1      62.339  32.898  60.659  1.00  0.00     0.006 C 
ENDROOT
BRANCH   1   2
ATOM      2  C   UNL     1      62.018  34.378  60.436  1.00  0.00     0.053 C 
BRANCH   2   3
ATOM      3  C   UNL     1      63.047  35.243  61.092  1.00  0.00     0.041 C 
ATOM      4  O   UNL     1      64.178  34.772  61.382  1.00  0.00    -0.550 OA
ATOM      5  O   UNL     1      62.773  36.582  61.341  1.00  0.00    -0.550 OA
ENDBRANCH   2   3
ENDBRANCH   1   2
BRANCH   1   6
ATOM      6  C   UNL     1      61.066  32.044  60.601  1.00  0.00     0.000 C 
BRANCH   6   7
ATOM      7  C   UNL     1      61.009  31.062  61.777  1.00  0.00    -0.003 C 
ATOM      8  C   UNL     1      62.231  30.150  61.794  1.00  0.00     0.004 C 
ENDBRANCH   6   7
ENDBRANCH   1   6
TORSDOF 4
ENDMDL
MODEL 5
REMARK VINA RESULT:    -2.901      2.039      2.625
REMARK INTER + INTRA:          -3.683
REMARK INTER:                  -3.541
REMARK INTRA:                  -0.143
REMARK UNBOUND:                -0.104
REMARK SMILES CCCCCC(=O)[O-]
REMARK SMILES IDX 4 1 5 2 6 3 7 4 8 5 3 6 2 7 1 8
REMARK H PARENT
REMARK Flexibility Score: inf
ROOT
ATOM      1  C   UNL     1      58.386  28.844  50.683  1.00  0.00     0.006 C 
ENDROOT
BRANCH   1   2
ATOM      2  C   UNL     1      59.120  28.749  49.343  1.00  0.00     0.053 C 
BRANCH   2   3
ATOM      3  C   UNL     1      60.006  27.544  49.315  1.00  0.00     0.041 C 
ATOM      4  O   UNL     1      59.504  26.389  49.305  1.00  0.00    -0.550 OA
ATOM      5  O   UNL     1      61.385  27.697  49.250  1.00  0.00    -0.550 OA
ENDBRANCH   2   3
ENDBRANCH   1   2
BRANCH   1   6
ATOM      6  C   UNL     1      56.866  28.870  50.478  1.00  0.00     0.000 C 
BRANCH   6   7
ATOM      7  C   UNL     1      56.313  27.452  50.293  1.00  0.00    -0.003 C 
ATOM      8  C   UNL     1      54.818  27.480  49.990  1.00  0.00     0.004 C 
ENDBRANCH   6   7
ENDBRANCH   1   6
TORSDOF 4
ENDMDL
MODEL 6
REMARK VINA RESULT:    -2.858      2.020      2.312
REMARK INTER + INTRA:          -3.631
REMARK INTER:                  -3.514
REMARK INTRA:                  -0.117
REMARK UNBOUND:                -0.104
REMARK SMILES CCCCCC(=O)[O-]
REMARK SMILES IDX 4 1 5 2 6 3 7 4 8 5 3 6 2 7 1 8
REMARK H PARENT
REMARK Flexibility Score: inf
ROOT
ATOM      1  C   UNL     1      56.800  27.308  50.340  1.00  0.00     0.006 C 
ENDROOT
BRANCH   1   2
ATOM      2  C   UNL     1      57.474  25.956  50.094  1.00  0.00     0.053 C 
BRANCH   2   3
ATOM      3  C   UNL     1      58.935  26.139  49.834  1.00  0.00     0.041 C 
ATOM      4  O   UNL     1      59.733  25.178  49.995  1.00  0.00    -0.550 OA
ATOM      5  O   UNL     1      59.411  27.358  49.367  1.00  0.00    -0.550 OA
ENDBRANCH   2   3
ENDBRANCH   1   2
BRANCH   1   6
ATOM      6  C   UNL     1      55.292  27.230  50.069  1.00  0.00     0.000 C 
BRANCH   6   7
ATOM      7  C   UNL     1      54.916  25.881  49.444  1.00  0.00    -0.003 C 
ATOM      8  C   UNL     1      53.438  25.844  49.064  1.00  0.00     0.004 C 
ENDBRANCH   6   7
ENDBRANCH   1   6
TORSDOF 4
ENDMDL
MODEL 7
REMARK VINA RESULT:    -2.857      2.643      4.089
REMARK INTER + INTRA:          -3.629
REMARK INTER:                  -3.441
REMARK INTRA:                  -0.187
REMARK UNBOUND:                -0.104
REMARK SMILES CCCCCC(=O)[O-]
REMARK SMILES IDX 4 1 5 2 6 3 7 4 8 5 3 6 2 7 1 8
REMARK H PARENT
REMARK Flexibility Score: inf
ROOT
ATOM      1  C   UNL     1      57.663  28.181  50.741  1.00  0.00     0.006 C 
ENDROOT
BRANCH   1   2
ATOM      2  C   UNL     1      56.170  28.497  50.614  1.00  0.00     0.053 C 
BRANCH   2   3
ATOM      3  C   UNL     1      55.432  27.324  50.051  1.00  0.00     0.041 C 
ATOM      4  O   UNL     1      56.002  26.205  49.953  1.00  0.00    -0.550 OA
ATOM      5  O   UNL     1      54.101  27.454  49.679  1.00  0.00    -0.550 OA
ENDBRANCH   2   3
ENDBRANCH   1   2
BRANCH   1   6
ATOM      6  C   UNL     1      58.488  29.018  49.755  1.00  0.00     0.000 C 
BRANCH   6   7
ATOM      7  C   UNL     1      59.660  28.205  49.192  1.00  0.00    -0.003 C 
ATOM      8  C   UNL     1      59.514  26.724  49.526  1.00  0.00     0.004 C 
ENDBRANCH   6   7
ENDBRANCH   1   6
TORSDOF 4
ENDMDL
MODEL 8
REMARK VINA RESULT:    -2.749     13.401     14.688
REMARK INTER + INTRA:          -3.496
REMARK INTER:                  -3.415
REMARK INTRA:                  -0.082
REMARK UNBOUND:                -0.104
REMARK SMILES CCCCCC(=O)[O-]
REMARK SMILES IDX 4 1 5 2 6 3 7 4 8 5 3 6 2 7 1 8
REMARK H PARENT
REMARK Flexibility Score: inf
ROOT
ATOM      1  C   UNL     1      63.847  33.508  60.742  1.00  0.00     0.006 C 
ENDROOT
BRANCH   1   2
ATOM      2  C   UNL     1      63.099  32.199  60.473  1.00  0.00     0.053 C 
BRANCH   2   3
ATOM      3  C   UNL     1      63.888  31.032  60.976  1.00  0.00     0.041 C 
ATOM      4  O   UNL     1      65.106  30.915  60.679  1.00  0.00    -0.550 OA
ATOM      5  O   UNL     1      63.291  30.099  61.814  1.00  0.00    -0.550 OA
ENDBRANCH   2   3
ENDBRANCH   1   2
BRANCH   1   6
ATOM      6  C   UNL     1      62.869  34.678  60.903  1.00  0.00     0.000 C 
BRANCH   6   7
ATOM      7  C   UNL     1      63.617  35.982  61.208  1.00  0.00    -0.003 C 
ATOM      8  C   UNL     1      64.979  35.701  61.836  1.00  0.00     0.004 C 
ENDBRANCH   6   7
ENDBRANCH   1   6
TORSDOF 4
ENDMDL
MODEL 9
REMARK VINA RESULT:    -2.658      3.258      4.660
REMARK INTER + INTRA:          -3.383
REMARK INTER:                  -3.271
REMARK INTRA:                  -0.113
REMARK UNBOUND:                -0.104
REMARK SMILES CCCCCC(=O)[O-]
REMARK SMILES IDX 4 1 5 2 6 3 7 4 8 5 3 6 2 7 1 8
REMARK H PARENT
REMARK Flexibility Score: inf
ROOT
ATOM      1  C   UNL     1      57.097  25.960  50.168  1.00  0.00     0.006 C 
ENDROOT
BRANCH   1   2
ATOM      2  C   UNL     1      55.784  26.743  50.078  1.00  0.00     0.053 C 
BRANCH   2   3
ATOM      3  C   UNL     1      54.621  25.808  49.988  1.00  0.00     0.041 C 
ATOM      4  O   UNL     1      54.180  25.451  48.864  1.00  0.00    -0.550 OA
ATOM      5  O   UNL     1      54.053  25.291  51.146  1.00  0.00    -0.550 OA
ENDBRANCH   2   3
ENDBRANCH   1   2
BRANCH   1   6
ATOM      6  C   UNL     1      58.295  26.907  50.303  1.00  0.00     0.000 C 
BRANCH   6   7
ATOM      7  C   UNL     1      57.864  28.368  50.128  1.00  0.00    -0.003 C 
ATOM      8  C   UNL     1      58.903  29.158  49.338  1.00  0.00     0.004 C 
ENDBRANCH   6   7
ENDBRANCH   1   6
TORSDOF 4
ENDMDL
