MODEL 1
REMARK VINA RESULT:    -3.951      0.000      0.000
REMARK INTER + INTRA:         -10.118
REMARK INTER:                  -7.647
REMARK INTRA:                  -2.471
REMARK UNBOUND:                -2.471
REMARK SMILES CCCCCCCCCCCCCCCCCC(=O)[O-]
REMARK SMILES IDX 10 1 11 2 12 3 13 4 14 5 15 6 16 7 17 8 18 9 19 10 20 11
REMARK SMILES IDX 9 12 8 13 7 14 6 15 5 16 4 17 3 18 2 19 1 20
REMARK H PARENT
REMARK Flexibility Score: inf
ROOT
ATOM      1  C   UNL     1       9.064 -27.828 -29.590  1.00  0.00     0.000 C 
ENDROOT
BRANCH   1   2
ATOM      2  C   UNL     1      10.459 -27.741 -30.227  1.00  0.00     0.000 C 
BRANCH   2   3
ATOM      3  C   UNL     1      10.930 -26.291 -30.444  1.00  0.00     0.000 C 
BRANCH   3   4
ATOM      4  C   UNL     1       9.937 -25.211 -29.978  1.00  0.00     0.000 C 
BRANCH   4   5
ATOM      5  C   UNL     1       9.433 -24.324 -31.131  1.00  0.00     0.000 C 
BRANCH   5   6
ATOM      6  C   UNL     1      10.208 -24.557 -32.436  1.00  0.00     0.000 C 
BRANCH   6   7
ATOM      7  C   UNL     1      11.458 -23.666 -32.546  1.00  0.00     0.006 C 
BRANCH   7   8
ATOM      8  C   UNL     1      11.295 -22.344 -31.783  1.00  0.00     0.053 C 
BRANCH   8   9
ATOM      9  C   UNL     1      12.331 -22.189 -30.712  1.00  0.00     0.041 C 
ATOM     10  O   UNL     1      12.906 -23.203 -30.236  1.00  0.00    -0.550 OA
ATOM     11  O   UNL     1      12.690 -20.922 -30.270  1.00  0.00    -0.550 OA
ENDBRANCH   8   9
ENDBRANCH   7   8
ENDBRANCH   6   7
ENDBRANCH   5   6
ENDBRANCH   4   5
ENDBRANCH   3   4
ENDBRANCH   2   3
ENDBRANCH   1   2
BRANCH   1  12
ATOM     12  C   UNL     1       9.160 -28.233 -28.114  1.00  0.00     0.000 C 
BRANCH  12  13
ATOM     13  C   UNL     1       8.267 -27.337 -27.242  1.00  0.00    -0.000 C 
BRANCH  13  14
ATOM     14  C   UNL     1       9.066 -26.541 -26.197  1.00  0.00    -0.000 C 
BRANCH  14  15
ATOM     15  C   UNL     1      10.576 -26.834 -26.255  1.00  0.00    -0.000 C 
BRANCH  15  16
ATOM     16  C   UNL     1      11.399 -25.576 -26.608  1.00  0.00    -0.000 C 
BRANCH  16  17
ATOM     17  C   UNL     1      12.737 -25.893 -27.299  1.00  0.00    -0.000 C 
BRANCH  17  18
ATOM     18  C   UNL     1      12.947 -27.398 -27.531  1.00  0.00    -0.000 C 
BRANCH  18  19
ATOM     19  C   UNL     1      14.277 -27.904 -26.947  1.00  0.00    -0.003 C 
ATOM     20  C   UNL     1      14.494 -27.456 -25.502  1.00  0.00     0.004 C 
ENDBRANCH  18  19
ENDBRANCH  17  18
ENDBRANCH  16  17
ENDBRANCH  15  16
ENDBRANCH  14  15
ENDBRANCH  13  14
ENDBRANCH  12  13
ENDBRANCH   1  12
TORSDOF 16
ENDMDL
MODEL 2
REMARK VINA RESULT:    -3.911      4.080      6.650
REMARK INTER + INTRA:         -10.039
REMARK INTER:                  -8.091
REMARK INTRA:                  -1.948
REMARK UNBOUND:                -2.471
REMARK SMILES CCCCCCCCCCCCCCCCCC(=O)[O-]
REMARK SMILES IDX 10 1 11 2 12 3 13 4 14 5 15 6 16 7 17 8 18 9 19 10 20 11
REMARK SMILES IDX 9 12 8 13 7 14 6 15 5 16 4 17 3 18 2 19 1 20
REMARK H PARENT
REMARK Flexibility Score: inf
ROOT
ATOM      1  C   UNL     1       8.526 -28.109 -28.721  1.00  0.00     0.000 C 
ENDROOT
BRANCH   1   2
ATOM      2  C   UNL     1       8.140 -27.330 -27.455  1.00  0.00     0.000 C 
BRANCH   2   3
ATOM      3  C   UNL     1       9.353 -26.969 -26.579  1.00  0.00     0.000 C 
BRANCH   3   4
ATOM      4  C   UNL     1       9.051 -26.001 -25.421  1.00  0.00     0.000 C 
BRANCH   4   5
ATOM      5  C   UNL     1      10.283 -25.714 -24.544  1.00  0.00     0.000 C 
BRANCH   5   6
ATOM      6  C   UNL     1      10.410 -24.228 -24.175  1.00  0.00     0.000 C 
BRANCH   6   7
ATOM      7  C   UNL     1       9.202 -23.715 -23.371  1.00  0.00     0.006 C 
BRANCH   7   8
ATOM      8  C   UNL     1       9.617 -23.132 -22.013  1.00  0.00     0.053 C 
BRANCH   8   9
ATOM      9  C   UNL     1       9.341 -24.085 -20.891  1.00  0.00     0.041 C 
ATOM     10  O   UNL     1       8.855 -23.665 -19.808  1.00  0.00    -0.550 OA
ATOM     11  O   UNL     1       9.583 -25.443 -21.056  1.00  0.00    -0.550 OA
ENDBRANCH   8   9
ENDBRANCH   7   8
ENDBRANCH   6   7
ENDBRANCH   5   6
ENDBRANCH   4   5
ENDBRANCH   3   4
ENDBRANCH   2   3
ENDBRANCH   1   2
BRANCH   1  12
ATOM     12  C   UNL     1       9.941 -28.687 -28.600  1.00  0.00     0.000 C 
BRANCH  12  13
ATOM     13  C   UNL     1      10.850 -28.150 -29.716  1.00  0.00    -0.000 C 
BRANCH  13  14
ATOM     14  C   UNL     1      10.065 -27.426 -30.823  1.00  0.00    -0.000 C 
BRANCH  14  15
ATOM     15  C   UNL     1      10.971 -26.590 -31.744  1.00  0.00    -0.000 C 
BRANCH  15  16
ATOM     16  C   UNL     1      10.355 -25.214 -32.073  1.00  0.00    -0.000 C 
BRANCH  16  17
ATOM     17  C   UNL     1      10.028 -24.373 -30.826  1.00  0.00    -0.000 C 
BRANCH  17  18
ATOM     18  C   UNL     1      11.250 -24.150 -29.920  1.00  0.00    -0.000 C 
BRANCH  18  19
ATOM     19  C   UNL     1      11.064 -24.753 -28.519  1.00  0.00    -0.003 C 
ATOM     20  C   UNL     1      12.370 -25.279 -27.924  1.00  0.00     0.004 C 
ENDBRANCH  18  19
ENDBRANCH  17  18
ENDBRANCH  16  17
ENDBRANCH  15  16
ENDBRANCH  14  15
ENDBRANCH  13  14
ENDBRANCH  12  13
ENDBRANCH   1  12
TORSDOF 16
ENDMDL
MODEL 3
REMARK VINA RESULT:    -3.853      2.998      5.800
REMARK INTER + INTRA:          -9.927
REMARK INTER:                  -7.536
REMARK INTRA:                  -2.392
REMARK UNBOUND:                -2.471
REMARK SMILES CCCCCCCCCCCCCCCCCC(=O)[O-]
REMARK SMILES IDX 10 1 11 2 12 3 13 4 14 5 15 6 16 7 17 8 18 9 19 10 20 11
REMARK SMILES IDX 9 12 8 13 7 14 6 15 5 16 4 17 3 18 2 19 1 20
REMARK H PARENT
REMARK Flexibility Score: inf
ROOT
ATOM      1  C   UNL     1      10.927 -30.160 -27.818  1.00  0.00     0.000 C 
ENDROOT
BRANCH   1   2
ATOM      2  C   UNL     1      11.741 -28.997 -28.405  1.00  0.00     0.000 C 
BRANCH   2   3
ATOM      3  C   UNL     1      12.454 -28.160 -27.329  1.00  0.00     0.000 C 
BRANCH   3   4
ATOM      4  C   UNL     1      12.543 -28.826 -25.943  1.00  0.00     0.000 C 
BRANCH   4   5
ATOM      5  C   UNL     1      11.466 -28.321 -24.966  1.00  0.00     0.000 C 
BRANCH   5   6
ATOM      6  C   UNL     1      11.355 -26.789 -24.952  1.00  0.00     0.000 C 
BRANCH   6   7
ATOM      7  C   UNL     1      10.421 -26.276 -23.842  1.00  0.00     0.006 C 
BRANCH   7   8
ATOM      8  C   UNL     1       9.463 -25.188 -24.347  1.00  0.00     0.053 C 
BRANCH   8   9
ATOM      9  C   UNL     1       9.753 -23.858 -23.722  1.00  0.00     0.041 C 
ATOM     10  O   UNL     1      10.781 -23.211 -24.057  1.00  0.00    -0.550 OA
ATOM     11  O   UNL     1       8.868 -23.315 -22.800  1.00  0.00    -0.550 OA
ENDBRANCH   8   9
ENDBRANCH   7   8
ENDBRANCH   6   7
ENDBRANCH   5   6
ENDBRANCH   4   5
ENDBRANCH   3   4
ENDBRANCH   2   3
ENDBRANCH   1   2
BRANCH   1  12
ATOM     12  C   UNL     1       9.428 -29.970 -28.082  1.00  0.00     0.000 C 
BRANCH  12  13
ATOM     13  C   UNL     1       9.197 -29.007 -29.257  1.00  0.00    -0.000 C 
BRANCH  13  14
ATOM     14  C   UNL     1       8.227 -27.867 -28.908  1.00  0.00    -0.000 C 
BRANCH  14  15
ATOM     15  C   UNL     1       8.711 -27.020 -27.717  1.00  0.00    -0.000 C 
BRANCH  15  16
ATOM     16  C   UNL     1       9.777 -25.985 -28.134  1.00  0.00    -0.000 C 
BRANCH  16  17
ATOM     17  C   UNL     1       9.556 -25.412 -29.546  1.00  0.00    -0.000 C 
BRANCH  17  18
ATOM     18  C   UNL     1      10.851 -24.884 -30.185  1.00  0.00    -0.000 C 
BRANCH  18  19
ATOM     19  C   UNL     1      11.048 -25.392 -31.623  1.00  0.00    -0.003 C 
ATOM     20  C   UNL     1      10.958 -26.914 -31.728  1.00  0.00     0.004 C 
ENDBRANCH  18  19
ENDBRANCH  17  18
ENDBRANCH  16  17
ENDBRANCH  15  16
ENDBRANCH  14  15
ENDBRANCH  13  14
ENDBRANCH  12  13
ENDBRANCH   1  12
TORSDOF 16
ENDMDL
MODEL 4
REMARK VINA RESULT:    -3.831      1.956      3.429
REMARK INTER + INTRA:          -9.886
REMARK INTER:                  -7.426
REMARK INTRA:                  -2.460
REMARK UNBOUND:                -2.471
REMARK SMILES CCCCCCCCCCCCCCCCCC(=O)[O-]
REMARK SMILES IDX 10 1 11 2 12 3 13 4 14 5 15 6 16 7 17 8 18 9 19 10 20 11
REMARK SMILES IDX 9 12 8 13 7 14 6 15 5 16 4 17 3 18 2 19 1 20
REMARK H PARENT
REMARK Flexibility Score: inf
ROOT
ATOM      1  C   UNL     1       9.004 -29.913 -29.028  1.00  0.00     0.000 C 
ENDROOT
BRANCH   1   2
ATOM      2  C   UNL     1       8.279 -28.570 -29.201  1.00  0.00     0.000 C 
BRANCH   2   3
ATOM      3  C   UNL     1       8.345 -27.686 -27.942  1.00  0.00     0.000 C 
BRANCH   3   4
ATOM      4  C   UNL     1       9.127 -26.371 -28.114  1.00  0.00     0.000 C 
BRANCH   4   5
ATOM      5  C   UNL     1       9.451 -26.055 -29.585  1.00  0.00     0.000 C 
BRANCH   5   6
ATOM      6  C   UNL     1      10.961 -26.003 -29.859  1.00  0.00     0.000 C 
BRANCH   6   7
ATOM      7  C   UNL     1      11.519 -24.568 -29.816  1.00  0.00     0.006 C 
BRANCH   7   8
ATOM      8  C   UNL     1      10.756 -23.623 -30.755  1.00  0.00     0.053 C 
BRANCH   8   9
ATOM      9  C   UNL     1      10.929 -24.008 -32.192  1.00  0.00     0.041 C 
ATOM     10  O   UNL     1      12.028 -23.808 -32.773  1.00  0.00    -0.550 OA
ATOM     11  O   UNL     1       9.890 -24.624 -32.877  1.00  0.00    -0.550 OA
ENDBRANCH   8   9
ENDBRANCH   7   8
ENDBRANCH   6   7
ENDBRANCH   5   6
ENDBRANCH   4   5
ENDBRANCH   3   4
ENDBRANCH   2   3
ENDBRANCH   1   2
BRANCH   1  12
ATOM     12  C   UNL     1       9.917 -29.890 -27.796  1.00  0.00     0.000 C 
BRANCH  12  13
ATOM     13  C   UNL     1      11.358 -29.530 -28.189  1.00  0.00    -0.000 C 
BRANCH  13  14
ATOM     14  C   UNL     1      12.177 -28.986 -27.006  1.00  0.00    -0.000 C 
BRANCH  14  15
ATOM     15  C   UNL     1      12.805 -27.613 -27.301  1.00  0.00    -0.000 C 
BRANCH  15  16
ATOM     16  C   UNL     1      12.300 -26.522 -26.332  1.00  0.00    -0.000 C 
BRANCH  16  17
ATOM     17  C   UNL     1      11.673 -27.087 -25.045  1.00  0.00    -0.000 C 
BRANCH  17  18
ATOM     18  C   UNL     1      10.269 -26.526 -24.769  1.00  0.00    -0.000 C 
BRANCH  18  19
ATOM     19  C   UNL     1      10.203 -24.999 -24.931  1.00  0.00    -0.003 C 
ATOM     20  C   UNL     1       9.407 -24.322 -23.815  1.00  0.00     0.004 C 
ENDBRANCH  18  19
ENDBRANCH  17  18
ENDBRANCH  16  17
ENDBRANCH  15  16
ENDBRANCH  14  15
ENDBRANCH  13  14
ENDBRANCH  12  13
ENDBRANCH   1  12
TORSDOF 16
ENDMDL
MODEL 5
REMARK VINA RESULT:    -3.826      1.419      2.108
REMARK INTER + INTRA:          -9.876
REMARK INTER:                  -7.490
REMARK INTRA:                  -2.386
REMARK UNBOUND:                -2.471
REMARK SMILES CCCCCCCCCCCCCCCCCC(=O)[O-]
REMARK SMILES IDX 10 1 11 2 12 3 13 4 14 5 15 6 16 7 17 8 18 9 19 10 20 11
REMARK SMILES IDX 9 12 8 13 7 14 6 15 5 16 4 17 3 18 2 19 1 20
REMARK H PARENT
REMARK Flexibility Score: inf
ROOT
ATOM      1  C   UNL     1       8.757 -28.391 -27.977  1.00  0.00     0.000 C 
ENDROOT
BRANCH   1   2
ATOM      2  C   UNL     1       9.091 -28.207 -29.465  1.00  0.00     0.000 C 
BRANCH   2   3
ATOM      3  C   UNL     1       9.553 -26.778 -29.804  1.00  0.00     0.000 C 
BRANCH   3   4
ATOM      4  C   UNL     1      10.942 -26.686 -30.462  1.00  0.00     0.000 C 
BRANCH   4   5
ATOM      5  C   UNL     1      10.871 -26.405 -31.974  1.00  0.00     0.000 C 
BRANCH   5   6
ATOM      6  C   UNL     1      10.425 -24.968 -32.286  1.00  0.00     0.000 C 
BRANCH   6   7
ATOM      7  C   UNL     1      11.515 -23.930 -31.965  1.00  0.00     0.006 C 
BRANCH   7   8
ATOM      8  C   UNL     1      11.023 -22.860 -30.981  1.00  0.00     0.053 C 
BRANCH   8   9
ATOM      9  C   UNL     1      11.210 -21.476 -31.525  1.00  0.00     0.041 C 
ATOM     10  O   UNL     1      11.003 -20.474 -30.791  1.00  0.00    -0.550 OA
ATOM     11  O   UNL     1      11.652 -21.295 -32.828  1.00  0.00    -0.550 OA
ENDBRANCH   8   9
ENDBRANCH   7   8
ENDBRANCH   6   7
ENDBRANCH   5   6
ENDBRANCH   4   5
ENDBRANCH   3   4
ENDBRANCH   2   3
ENDBRANCH   1   2
BRANCH   1  12
ATOM     12  C   UNL     1       8.431 -27.046 -27.317  1.00  0.00     0.000 C 
BRANCH  12  13
ATOM     13  C   UNL     1       9.369 -26.775 -26.131  1.00  0.00    -0.000 C 
BRANCH  13  14
ATOM     14  C   UNL     1      10.269 -25.550 -26.355  1.00  0.00    -0.000 C 
BRANCH  14  15
ATOM     15  C   UNL     1      11.743 -25.823 -26.002  1.00  0.00    -0.000 C 
BRANCH  15  16
ATOM     16  C   UNL     1      12.618 -26.006 -27.261  1.00  0.00    -0.000 C 
BRANCH  16  17
ATOM     17  C   UNL     1      13.347 -27.360 -27.309  1.00  0.00    -0.000 C 
BRANCH  17  18
ATOM     18  C   UNL     1      12.444 -28.507 -27.793  1.00  0.00    -0.000 C 
BRANCH  18  19
ATOM     19  C   UNL     1      12.046 -29.463 -26.657  1.00  0.00    -0.003 C 
ATOM     20  C   UNL     1      11.464 -30.779 -27.171  1.00  0.00     0.004 C 
ENDBRANCH  18  19
ENDBRANCH  17  18
ENDBRANCH  16  17
ENDBRANCH  15  16
ENDBRANCH  14  15
ENDBRANCH  13  14
ENDBRANCH  12  13
ENDBRANCH   1  12
TORSDOF 16
ENDMDL
MODEL 6
REMARK VINA RESULT:    -3.819      1.885      2.869
REMARK INTER + INTRA:          -9.862
REMARK INTER:                  -8.024
REMARK INTRA:                  -1.839
REMARK UNBOUND:                -2.471
REMARK SMILES CCCCCCCCCCCCCCCCCC(=O)[O-]
REMARK SMILES IDX 10 1 11 2 12 3 13 4 14 5 15 6 16 7 17 8 18 9 19 10 20 11
REMARK SMILES IDX 9 12 8 13 7 14 6 15 5 16 4 17 3 18 2 19 1 20
REMARK H PARENT
REMARK Flexibility Score: inf
ROOT
ATOM      1  C   UNL     1      11.007 -25.993 -30.019  1.00  0.00     0.000 C 
ENDROOT
BRANCH   1   2
ATOM      2  C   UNL     1       9.781 -25.078 -29.877  1.00  0.00     0.000 C 
BRANCH   2   3
ATOM      3  C   UNL     1       9.501 -24.249 -31.143  1.00  0.00     0.000 C 
BRANCH   3   4
ATOM      4  C   UNL     1      10.419 -24.562 -32.339  1.00  0.00     0.000 C 
BRANCH   4   5
ATOM      5  C   UNL     1      11.264 -23.353 -32.778  1.00  0.00     0.000 C 
BRANCH   5   6
ATOM      6  C   UNL     1      11.067 -23.003 -34.260  1.00  0.00     0.000 C 
BRANCH   6   7
ATOM      7  C   UNL     1      12.379 -22.580 -34.945  1.00  0.00     0.006 C 
BRANCH   7   8
ATOM      8  C   UNL     1      13.592 -23.344 -34.395  1.00  0.00     0.053 C 
BRANCH   8   9
ATOM      9  C   UNL     1      14.647 -22.415 -33.878  1.00  0.00     0.041 C 
ATOM     10  O   UNL     1      14.872 -21.323 -34.465  1.00  0.00    -0.550 OA
ATOM     11  O   UNL     1      15.353 -22.736 -32.726  1.00  0.00    -0.550 OA
ENDBRANCH   8   9
ENDBRANCH   7   8
ENDBRANCH   6   7
ENDBRANCH   5   6
ENDBRANCH   4   5
ENDBRANCH   3   4
ENDBRANCH   2   3
ENDBRANCH   1   2
BRANCH   1  12
ATOM     12  C   UNL     1      10.584 -27.463 -30.130  1.00  0.00     0.000 C 
BRANCH  12  13
ATOM     13  C   UNL     1       9.132 -27.653 -29.665  1.00  0.00    -0.000 C 
BRANCH  13  14
ATOM     14  C   UNL     1       9.034 -28.315 -28.281  1.00  0.00    -0.000 C 
BRANCH  14  15
ATOM     15  C   UNL     1       8.422 -27.383 -27.220  1.00  0.00    -0.000 C 
BRANCH  15  16
ATOM     16  C   UNL     1       9.500 -26.589 -26.452  1.00  0.00    -0.000 C 
BRANCH  16  17
ATOM     17  C   UNL     1      10.756 -27.417 -26.125  1.00  0.00    -0.000 C 
BRANCH  17  18
ATOM     18  C   UNL     1      12.052 -26.755 -26.619  1.00  0.00    -0.000 C 
BRANCH  18  19
ATOM     19  C   UNL     1      12.941 -27.724 -27.415  1.00  0.00    -0.003 C 
ATOM     20  C   UNL     1      14.378 -27.768 -26.895  1.00  0.00     0.004 C 
ENDBRANCH  18  19
ENDBRANCH  17  18
ENDBRANCH  16  17
ENDBRANCH  15  16
ENDBRANCH  14  15
ENDBRANCH  13  14
ENDBRANCH  12  13
ENDBRANCH   1  12
TORSDOF 16
ENDMDL
MODEL 7
REMARK VINA RESULT:    -3.793      2.324      3.394
REMARK INTER + INTRA:          -9.812
REMARK INTER:                  -8.153
REMARK INTRA:                  -1.659
REMARK UNBOUND:                -2.471
REMARK SMILES CCCCCCCCCCCCCCCCCC(=O)[O-]
REMARK SMILES IDX 10 1 11 2 12 3 13 4 14 5 15 6 16 7 17 8 18 9 19 10 20 11
REMARK SMILES IDX 9 12 8 13 7 14 6 15 5 16 4 17 3 18 2 19 1 20
REMARK H PARENT
REMARK Flexibility Score: inf
ROOT
ATOM      1  C   UNL     1       9.306 -28.355 -28.599  1.00  0.00     0.000 C 
ENDROOT
BRANCH   1   2
ATOM      2  C   UNL     1       9.673 -27.814 -29.989  1.00  0.00     0.000 C 
BRANCH   2   3
ATOM      3  C   UNL     1      10.982 -27.003 -29.991  1.00  0.00     0.000 C 
BRANCH   3   4
ATOM      4  C   UNL     1      10.820 -25.511 -29.646  1.00  0.00     0.000 C 
BRANCH   4   5
ATOM      5  C   UNL     1       9.643 -24.850 -30.384  1.00  0.00     0.000 C 
BRANCH   5   6
ATOM      6  C   UNL     1       9.904 -24.693 -31.889  1.00  0.00     0.000 C 
BRANCH   6   7
ATOM      7  C   UNL     1      11.324 -24.180 -32.190  1.00  0.00     0.006 C 
BRANCH   7   8
ATOM      8  C   UNL     1      11.313 -22.780 -32.821  1.00  0.00     0.053 C 
BRANCH   8   9
ATOM      9  C   UNL     1      11.441 -21.704 -31.787  1.00  0.00     0.041 C 
ATOM     10  O   UNL     1      11.734 -22.000 -30.598  1.00  0.00    -0.550 OA
ATOM     11  O   UNL     1      11.278 -20.372 -32.145  1.00  0.00    -0.550 OA
ENDBRANCH   8   9
ENDBRANCH   7   8
ENDBRANCH   6   7
ENDBRANCH   5   6
ENDBRANCH   4   5
ENDBRANCH   3   4
ENDBRANCH   2   3
ENDBRANCH   1   2
BRANCH   1  12
ATOM     12  C   UNL     1       8.106 -27.600 -28.015  1.00  0.00     0.000 C 
BRANCH  12  13
ATOM     13  C   UNL     1       8.445 -27.013 -26.637  1.00  0.00    -0.000 C 
BRANCH  13  14
ATOM     14  C   UNL     1       9.959 -26.949 -26.376  1.00  0.00    -0.000 C 
BRANCH  14  15
ATOM     15  C   UNL     1      10.386 -25.645 -25.679  1.00  0.00    -0.000 C 
BRANCH  15  16
ATOM     16  C   UNL     1       9.388 -25.217 -24.583  1.00  0.00    -0.000 C 
BRANCH  16  17
ATOM     17  C   UNL     1       9.957 -25.330 -23.157  1.00  0.00    -0.000 C 
BRANCH  17  18
ATOM     18  C   UNL     1      10.070 -23.969 -22.450  1.00  0.00    -0.000 C 
BRANCH  18  19
ATOM     19  C   UNL     1       9.169 -22.898 -23.085  1.00  0.00    -0.003 C 
ATOM     20  C   UNL     1       9.829 -21.520 -23.126  1.00  0.00     0.004 C 
ENDBRANCH  18  19
ENDBRANCH  17  18
ENDBRANCH  16  17
ENDBRANCH  15  16
ENDBRANCH  14  15
ENDBRANCH  13  14
ENDBRANCH  12  13
ENDBRANCH   1  12
TORSDOF 16
ENDMDL
MODEL 8
REMARK VINA RESULT:    -3.791      1.127      2.427
REMARK INTER + INTRA:          -9.808
REMARK INTER:                  -7.449
REMARK INTRA:                  -2.359
REMARK UNBOUND:                -2.471
REMARK SMILES CCCCCCCCCCCCCCCCCC(=O)[O-]
REMARK SMILES IDX 10 1 11 2 12 3 13 4 14 5 15 6 16 7 17 8 18 9 19 10 20 11
REMARK SMILES IDX 9 12 8 13 7 14 6 15 5 16 4 17 3 18 2 19 1 20
REMARK H PARENT
REMARK Flexibility Score: inf
ROOT
ATOM      1  C   UNL     1       8.348 -29.099 -29.530  1.00  0.00     0.000 C 
ENDROOT
BRANCH   1   2
ATOM      2  C   UNL     1       8.833 -27.694 -29.142  1.00  0.00     0.000 C 
BRANCH   2   3
ATOM      3  C   UNL     1       9.924 -27.154 -30.084  1.00  0.00     0.000 C 
BRANCH   3   4
ATOM      4  C   UNL     1      10.336 -25.693 -29.829  1.00  0.00     0.000 C 
BRANCH   4   5
ATOM      5  C   UNL     1       9.514 -24.686 -30.653  1.00  0.00     0.000 C 
BRANCH   5   6
ATOM      6  C   UNL     1       9.953 -24.630 -32.123  1.00  0.00     0.000 C 
BRANCH   6   7
ATOM      7  C   UNL     1      11.135 -23.671 -32.350  1.00  0.00     0.006 C 
BRANCH   7   8
ATOM      8  C   UNL     1      11.094 -22.467 -31.398  1.00  0.00     0.053 C 
BRANCH   8   9
ATOM      9  C   UNL     1      12.390 -22.292 -30.667  1.00  0.00     0.041 C 
ATOM     10  O   UNL     1      12.986 -21.183 -30.692  1.00  0.00    -0.550 OA
ATOM     11  O   UNL     1      12.919 -23.341 -29.927  1.00  0.00    -0.550 OA
ENDBRANCH   8   9
ENDBRANCH   7   8
ENDBRANCH   6   7
ENDBRANCH   5   6
ENDBRANCH   4   5
ENDBRANCH   3   4
ENDBRANCH   2   3
ENDBRANCH   1   2
BRANCH   1  12
ATOM     12  C   UNL     1       9.125 -30.178 -28.767  1.00  0.00     0.000 C 
BRANCH  12  13
ATOM     13  C   UNL     1       9.887 -29.569 -27.580  1.00  0.00    -0.000 C 
BRANCH  13  14
ATOM     14  C   UNL     1      11.389 -29.895 -27.610  1.00  0.00    -0.000 C 
BRANCH  14  15
ATOM     15  C   UNL     1      12.239 -28.848 -26.866  1.00  0.00    -0.000 C 
BRANCH  15  16
ATOM     16  C   UNL     1      12.793 -27.766 -27.817  1.00  0.00    -0.000 C 
BRANCH  16  17
ATOM     17  C   UNL     1      12.801 -26.355 -27.203  1.00  0.00    -0.000 C 
BRANCH  17  18
ATOM     18  C   UNL     1      11.938 -26.252 -25.935  1.00  0.00    -0.000 C 
BRANCH  18  19
ATOM     19  C   UNL     1      10.630 -25.481 -26.173  1.00  0.00    -0.003 C 
ATOM     20  C   UNL     1       9.389 -26.303 -25.824  1.00  0.00     0.004 C 
ENDBRANCH  18  19
ENDBRANCH  17  18
ENDBRANCH  16  17
ENDBRANCH  15  16
ENDBRANCH  14  15
ENDBRANCH  13  14
ENDBRANCH  12  13
ENDBRANCH   1  12
TORSDOF 16
ENDMDL
MODEL 9
REMARK VINA RESULT:    -3.786      1.953      2.237
REMARK INTER + INTRA:          -9.798
REMARK INTER:                  -7.290
REMARK INTRA:                  -2.508
REMARK UNBOUND:                -2.471
REMARK SMILES CCCCCCCCCCCCCCCCCC(=O)[O-]
REMARK SMILES IDX 10 1 11 2 12 3 13 4 14 5 15 6 16 7 17 8 18 9 19 10 20 11
REMARK SMILES IDX 9 12 8 13 7 14 6 15 5 16 4 17 3 18 2 19 1 20
REMARK H PARENT
REMARK Flexibility Score: inf
ROOT
ATOM      1  C   UNL     1       9.751 -28.080 -29.776  1.00  0.00     0.000 C 
ENDROOT
BRANCH   1   2
ATOM      2  C   UNL     1      10.489 -27.013 -30.598  1.00  0.00     0.000 C 
BRANCH   2   3
ATOM      3  C   UNL     1       9.995 -25.584 -30.309  1.00  0.00     0.000 C 
BRANCH   3   4
ATOM      4  C   UNL     1      11.085 -24.607 -29.831  1.00  0.00     0.000 C 
BRANCH   4   5
ATOM      5  C   UNL     1      11.751 -23.841 -30.988  1.00  0.00     0.000 C 
BRANCH   5   6
ATOM      6  C   UNL     1      10.908 -23.862 -32.272  1.00  0.00     0.000 C 
BRANCH   6   7
ATOM      7  C   UNL     1      11.455 -22.911 -33.351  1.00  0.00     0.006 C 
BRANCH   7   8
ATOM      8  C   UNL     1      12.784 -22.265 -32.934  1.00  0.00     0.053 C 
BRANCH   8   9
ATOM      9  C   UNL     1      13.923 -22.742 -33.782  1.00  0.00     0.041 C 
ATOM     10  O   UNL     1      13.701 -23.427 -34.815  1.00  0.00    -0.550 OA
ATOM     11  O   UNL     1      15.227 -22.396 -33.452  1.00  0.00    -0.550 OA
ENDBRANCH   8   9
ENDBRANCH   7   8
ENDBRANCH   6   7
ENDBRANCH   5   6
ENDBRANCH   4   5
ENDBRANCH   3   4
ENDBRANCH   2   3
ENDBRANCH   1   2
BRANCH   1  12
ATOM     12  C   UNL     1       8.649 -27.447 -28.917  1.00  0.00     0.000 C 
BRANCH  12  13
ATOM     13  C   UNL     1       8.758 -27.911 -27.457  1.00  0.00    -0.000 C 
BRANCH  13  14
ATOM     14  C   UNL     1       8.752 -26.741 -26.461  1.00  0.00    -0.000 C 
BRANCH  14  15
ATOM     15  C   UNL     1      10.023 -25.877 -26.553  1.00  0.00    -0.000 C 
BRANCH  15  16
ATOM     16  C   UNL     1      11.272 -26.621 -26.035  1.00  0.00    -0.000 C 
BRANCH  16  17
ATOM     17  C   UNL     1      12.444 -26.618 -27.032  1.00  0.00    -0.000 C 
BRANCH  17  18
ATOM     18  C   UNL     1      12.670 -27.988 -27.692  1.00  0.00    -0.000 C 
BRANCH  18  19
ATOM     19  C   UNL     1      12.367 -29.157 -26.741  1.00  0.00    -0.003 C 
ATOM     20  C   UNL     1      11.535 -30.255 -27.403  1.00  0.00     0.004 C 
ENDBRANCH  18  19
ENDBRANCH  17  18
ENDBRANCH  16  17
ENDBRANCH  15  16
ENDBRANCH  14  15
ENDBRANCH  13  14
ENDBRANCH  12  13
ENDBRANCH   1  12
TORSDOF 16
ENDMDL
