MODEL 1
REMARK VINA RESULT:    -4.836      0.000      0.000
REMARK INTER + INTRA:          -7.347
REMARK INTER:                  -7.098
REMARK INTRA:                  -0.249
REMARK UNBOUND:                -0.249
REMARK SMILES O=C([O-])CCCCCCCC(=O)[O-]
REMARK SMILES IDX 7 1 6 2 5 3 4 4 2 5 1 6 3 7 8 8 9 9 10 10 11 11 12 12 13 13
REMARK H PARENT
REMARK Flexibility Score: inf
ROOT
ATOM      1  C   UNL     1     -11.163  11.499   5.818  1.00  0.00     0.000 C 
ENDROOT
BRANCH   1   2
ATOM      2  C   UNL     1     -12.554  11.018   6.279  1.00  0.00     0.000 C 
BRANCH   2   3
ATOM      3  C   UNL     1     -12.544   9.781   7.193  1.00  0.00     0.006 C 
BRANCH   3   4
ATOM      4  C   UNL     1     -13.349   8.609   6.617  1.00  0.00     0.053 C 
BRANCH   4   5
ATOM      5  C   UNL     1     -14.132   7.933   7.697  1.00  0.00     0.041 C 
ATOM      6  O   UNL     1     -14.387   8.540   8.771  1.00  0.00    -0.550 OA
ATOM      7  O   UNL     1     -14.539   6.614   7.539  1.00  0.00    -0.550 OA
ENDBRANCH   4   5
ENDBRANCH   3   4
ENDBRANCH   2   3
ENDBRANCH   1   2
BRANCH   1   8
ATOM      8  C   UNL     1     -10.844  11.251   4.330  1.00  0.00     0.000 C 
BRANCH   8   9
ATOM      9  C   UNL     1     -10.401  12.500   3.542  1.00  0.00     0.006 C 
BRANCH   9  10
ATOM     10  C   UNL     1      -9.183  13.226   4.136  1.00  0.00     0.053 C 
BRANCH  10  11
ATOM     11  C   UNL     1      -7.968  13.082   3.273  1.00  0.00     0.041 C 
ATOM     12  O   UNL     1      -7.399  11.965   3.162  1.00  0.00    -0.550 OA
ATOM     13  O   UNL     1      -7.444  14.190   2.619  1.00  0.00    -0.550 OA
ENDBRANCH  10  11
ENDBRANCH   9  10
ENDBRANCH   8   9
ENDBRANCH   1   8
TORSDOF 8
ENDMDL
MODEL 2
REMARK VINA RESULT:    -4.825      1.275      7.567
REMARK INTER + INTRA:          -7.330
REMARK INTER:                  -7.105
REMARK INTRA:                  -0.225
REMARK UNBOUND:                -0.249
REMARK SMILES O=C([O-])CCCCCCCC(=O)[O-]
REMARK SMILES IDX 7 1 6 2 5 3 4 4 2 5 1 6 3 7 8 8 9 9 10 10 11 11 12 12 13 13
REMARK H PARENT
REMARK Flexibility Score: inf
ROOT
ATOM      1  C   UNL     1     -11.998  10.289   5.914  1.00  0.00     0.000 C 
ENDROOT
BRANCH   1   2
ATOM      2  C   UNL     1     -11.283  11.503   5.289  1.00  0.00     0.000 C 
BRANCH   2   3
ATOM      3  C   UNL     1     -10.592  11.228   3.942  1.00  0.00     0.006 C 
BRANCH   3   4
ATOM      4  C   UNL     1     -10.823  12.346   2.916  1.00  0.00     0.053 C 
BRANCH   4   5
ATOM      5  C   UNL     1      -9.656  13.281   2.892  1.00  0.00     0.041 C 
ATOM      6  O   UNL     1      -8.532  12.902   3.315  1.00  0.00    -0.550 OA
ATOM      7  O   UNL     1      -9.819  14.586   2.448  1.00  0.00    -0.550 OA
ENDBRANCH   4   5
ENDBRANCH   3   4
ENDBRANCH   2   3
ENDBRANCH   1   2
BRANCH   1   8
ATOM      8  C   UNL     1     -12.383  10.448   7.398  1.00  0.00     0.000 C 
BRANCH   8   9
ATOM      9  C   UNL     1     -13.082   9.225   8.026  1.00  0.00     0.006 C 
BRANCH   9  10
ATOM     10  C   UNL     1     -13.594   8.195   7.006  1.00  0.00     0.053 C 
BRANCH  10  11
ATOM     11  C   UNL     1     -13.669   6.818   7.590  1.00  0.00     0.041 C 
ATOM     12  O   UNL     1     -12.964   6.514   8.589  1.00  0.00    -0.550 OA
ATOM     13  O   UNL     1     -14.491   5.860   7.011  1.00  0.00    -0.550 OA
ENDBRANCH  10  11
ENDBRANCH   9  10
ENDBRANCH   8   9
ENDBRANCH   1   8
TORSDOF 8
ENDMDL
MODEL 3
REMARK VINA RESULT:    -4.823      1.771      2.176
REMARK INTER + INTRA:          -7.328
REMARK INTER:                  -7.027
REMARK INTRA:                  -0.300
REMARK UNBOUND:                -0.249
REMARK SMILES O=C([O-])CCCCCCCC(=O)[O-]
REMARK SMILES IDX 7 1 6 2 5 3 4 4 2 5 1 6 3 7 8 8 9 9 10 10 11 11 12 12 13 13
REMARK H PARENT
REMARK Flexibility Score: inf
ROOT
ATOM      1  C   UNL     1     -12.125  11.469   6.042  1.00  0.00     0.000 C 
ENDROOT
BRANCH   1   2
ATOM      2  C   UNL     1     -11.613  11.115   7.453  1.00  0.00     0.000 C 
BRANCH   2   3
ATOM      3  C   UNL     1     -12.505  10.143   8.244  1.00  0.00     0.006 C 
BRANCH   3   4
ATOM      4  C   UNL     1     -12.933   8.923   7.418  1.00  0.00     0.053 C 
BRANCH   4   5
ATOM      5  C   UNL     1     -14.032   8.183   8.112  1.00  0.00     0.041 C 
ATOM      6  O   UNL     1     -14.504   8.619   9.195  1.00  0.00    -0.550 OA
ATOM      7  O   UNL     1     -14.501   6.985   7.590  1.00  0.00    -0.550 OA
ENDBRANCH   4   5
ENDBRANCH   3   4
ENDBRANCH   2   3
ENDBRANCH   1   2
BRANCH   1   8
ATOM      8  C   UNL     1     -11.198  11.048   4.885  1.00  0.00     0.000 C 
BRANCH   8   9
ATOM      9  C   UNL     1     -10.347  12.186   4.284  1.00  0.00     0.006 C 
BRANCH   9  10
ATOM     10  C   UNL     1     -10.604  12.450   2.792  1.00  0.00     0.053 C 
BRANCH  10  11
ATOM     11  C   UNL     1     -10.449  11.209   1.969  1.00  0.00     0.041 C 
ATOM     12  O   UNL     1      -9.302  10.757   1.714  1.00  0.00    -0.550 OA
ATOM     13  O   UNL     1     -11.571  10.571   1.453  1.00  0.00    -0.550 OA
ENDBRANCH  10  11
ENDBRANCH   9  10
ENDBRANCH   8   9
ENDBRANCH   1   8
TORSDOF 8
ENDMDL
MODEL 4
REMARK VINA RESULT:    -4.820      2.555      7.220
REMARK INTER + INTRA:          -7.324
REMARK INTER:                  -7.045
REMARK INTRA:                  -0.279
REMARK UNBOUND:                -0.249
REMARK SMILES O=C([O-])CCCCCCCC(=O)[O-]
REMARK SMILES IDX 7 1 6 2 5 3 4 4 2 5 1 6 3 7 8 8 9 9 10 10 11 11 12 12 13 13
REMARK H PARENT
REMARK Flexibility Score: inf
ROOT
ATOM      1  C   UNL     1     -10.887  11.190   3.783  1.00  0.00     0.000 C 
ENDROOT
BRANCH   1   2
ATOM      2  C   UNL     1      -9.456  11.555   3.340  1.00  0.00     0.000 C 
BRANCH   2   3
ATOM      3  C   UNL     1      -8.878  12.825   3.987  1.00  0.00     0.006 C 
BRANCH   3   4
ATOM      4  C   UNL     1      -7.890  13.562   3.073  1.00  0.00     0.053 C 
BRANCH   4   5
ATOM      5  C   UNL     1      -8.624  14.437   2.109  1.00  0.00     0.041 C 
ATOM      6  O   UNL     1      -8.172  14.619   0.947  1.00  0.00    -0.550 OA
ATOM      7  O   UNL     1      -9.782  15.093   2.506  1.00  0.00    -0.550 OA
ENDBRANCH   4   5
ENDBRANCH   3   4
ENDBRANCH   2   3
ENDBRANCH   1   2
BRANCH   1   8
ATOM      8  C   UNL     1     -11.211  11.491   5.260  1.00  0.00     0.000 C 
BRANCH   8   9
ATOM      9  C   UNL     1     -12.182  10.498   5.930  1.00  0.00     0.006 C 
BRANCH   9  10
ATOM     10  C   UNL     1     -12.002  10.361   7.450  1.00  0.00     0.053 C 
BRANCH  10  11
ATOM     11  C   UNL     1     -12.076  11.684   8.145  1.00  0.00     0.041 C 
ATOM     12  O   UNL     1     -13.195  12.197   8.413  1.00  0.00    -0.550 OA
ATOM     13  O   UNL     1     -10.910  12.369   8.467  1.00  0.00    -0.550 OA
ENDBRANCH  10  11
ENDBRANCH   9  10
ENDBRANCH   8   9
ENDBRANCH   1   8
TORSDOF 8
ENDMDL
MODEL 5
REMARK VINA RESULT:    -4.816      3.996      5.279
REMARK INTER + INTRA:          -7.318
REMARK INTER:                  -6.890
REMARK INTRA:                  -0.428
REMARK UNBOUND:                -0.249
REMARK SMILES O=C([O-])CCCCCCCC(=O)[O-]
REMARK SMILES IDX 7 1 6 2 5 3 4 4 2 5 1 6 3 7 8 8 9 9 10 10 11 11 12 12 13 13
REMARK H PARENT
REMARK Flexibility Score: inf
ROOT
ATOM      1  C   UNL     1     -12.948  11.490   7.987  1.00  0.00     0.000 C 
ENDROOT
BRANCH   1   2
ATOM      2  C   UNL     1     -12.384  12.753   8.669  1.00  0.00     0.000 C 
BRANCH   2   3
ATOM      3  C   UNL     1     -10.909  12.658   9.096  1.00  0.00     0.006 C 
BRANCH   3   4
ATOM      4  C   UNL     1     -10.272  14.031   9.347  1.00  0.00     0.053 C 
BRANCH   4   5
ATOM      5  C   UNL     1      -9.109  13.905  10.278  1.00  0.00     0.041 C 
ATOM      6  O   UNL     1      -8.110  14.662  10.150  1.00  0.00    -0.550 OA
ATOM      7  O   UNL     1      -9.104  12.919  11.256  1.00  0.00    -0.550 OA
ENDBRANCH   4   5
ENDBRANCH   3   4
ENDBRANCH   2   3
ENDBRANCH   1   2
BRANCH   1   8
ATOM      8  C   UNL     1     -11.925  10.675   7.171  1.00  0.00     0.000 C 
BRANCH   8   9
ATOM      9  C   UNL     1     -11.912  10.975   5.658  1.00  0.00     0.006 C 
BRANCH   9  10
ATOM     10  C   UNL     1     -10.730  11.841   5.193  1.00  0.00     0.053 C 
BRANCH  10  11
ATOM     11  C   UNL     1     -10.471  11.694   3.725  1.00  0.00     0.041 C 
ATOM     12  O   UNL     1      -9.607  10.876   3.313  1.00  0.00    -0.550 OA
ATOM     13  O   UNL     1     -11.160  12.486   2.814  1.00  0.00    -0.550 OA
ENDBRANCH  10  11
ENDBRANCH   9  10
ENDBRANCH   8   9
ENDBRANCH   1   8
TORSDOF 8
ENDMDL
MODEL 6
REMARK VINA RESULT:    -4.807      2.614      3.103
REMARK INTER + INTRA:          -7.303
REMARK INTER:                  -7.055
REMARK INTRA:                  -0.249
REMARK UNBOUND:                -0.249
REMARK SMILES O=C([O-])CCCCCCCC(=O)[O-]
REMARK SMILES IDX 7 1 6 2 5 3 4 4 2 5 1 6 3 7 8 8 9 9 10 10 11 11 12 12 13 13
REMARK H PARENT
REMARK Flexibility Score: inf
ROOT
ATOM      1  C   UNL     1     -11.141  11.456   4.203  1.00  0.00     0.000 C 
ENDROOT
BRANCH   1   2
ATOM      2  C   UNL     1     -11.188  11.475   5.744  1.00  0.00     0.000 C 
BRANCH   2   3
ATOM      3  C   UNL     1     -12.141  10.448   6.379  1.00  0.00     0.006 C 
BRANCH   3   4
ATOM      4  C   UNL     1     -12.051  10.419   7.910  1.00  0.00     0.053 C 
BRANCH   4   5
ATOM      5  C   UNL     1     -12.088  11.808   8.461  1.00  0.00     0.041 C 
ATOM      6  O   UNL     1     -11.058  12.310   8.985  1.00  0.00    -0.550 OA
ATOM      7  O   UNL     1     -13.272  12.533   8.443  1.00  0.00    -0.550 OA
ENDBRANCH   4   5
ENDBRANCH   3   4
ENDBRANCH   2   3
ENDBRANCH   1   2
BRANCH   1   8
ATOM      8  C   UNL     1      -9.754  11.722   3.587  1.00  0.00     0.000 C 
BRANCH   8   9
ATOM      9  C   UNL     1      -9.033  12.977   4.121  1.00  0.00     0.006 C 
BRANCH   9  10
ATOM     10  C   UNL     1      -7.960  13.543   3.177  1.00  0.00     0.053 C 
BRANCH  10  11
ATOM     11  C   UNL     1      -8.524  14.560   2.234  1.00  0.00     0.041 C 
ATOM     12  O   UNL     1      -7.833  14.980   1.268  1.00  0.00    -0.550 OA
ATOM     13  O   UNL     1      -9.800  15.070   2.440  1.00  0.00    -0.550 OA
ENDBRANCH  10  11
ENDBRANCH   9  10
ENDBRANCH   8   9
ENDBRANCH   1   8
TORSDOF 8
ENDMDL
MODEL 7
REMARK VINA RESULT:    -4.803      3.649      4.378
REMARK INTER + INTRA:          -7.298
REMARK INTER:                  -6.966
REMARK INTRA:                  -0.332
REMARK UNBOUND:                -0.249
REMARK SMILES O=C([O-])CCCCCCCC(=O)[O-]
REMARK SMILES IDX 7 1 6 2 5 3 4 4 2 5 1 6 3 7 8 8 9 9 10 10 11 11 12 12 13 13
REMARK H PARENT
REMARK Flexibility Score: inf
ROOT
ATOM      1  C   UNL     1     -11.891  10.679   5.797  1.00  0.00     0.000 C 
ENDROOT
BRANCH   1   2
ATOM      2  C   UNL     1     -11.772  10.894   7.320  1.00  0.00     0.000 C 
BRANCH   2   3
ATOM      3  C   UNL     1     -10.923  12.107   7.740  1.00  0.00     0.006 C 
BRANCH   3   4
ATOM      4  C   UNL     1     -11.034  12.420   9.238  1.00  0.00     0.053 C 
BRANCH   4   5
ATOM      5  C   UNL     1     -10.323  13.696   9.559  1.00  0.00     0.041 C 
ATOM      6  O   UNL     1      -9.164  13.669  10.052  1.00  0.00    -0.550 OA
ATOM      7  O   UNL     1     -10.957  14.915   9.359  1.00  0.00    -0.550 OA
ENDBRANCH   4   5
ENDBRANCH   3   4
ENDBRANCH   2   3
ENDBRANCH   1   2
BRANCH   1   8
ATOM      8  C   UNL     1     -10.979  11.575   4.936  1.00  0.00     0.000 C 
BRANCH   8   9
ATOM      9  C   UNL     1     -10.720  11.059   3.506  1.00  0.00     0.006 C 
BRANCH   9  10
ATOM     10  C   UNL     1      -9.307  11.346   2.974  1.00  0.00     0.053 C 
BRANCH  10  11
ATOM     11  C   UNL     1      -8.932  12.788   3.128  1.00  0.00     0.041 C 
ATOM     12  O   UNL     1      -9.548  13.675   2.482  1.00  0.00    -0.550 OA
ATOM     13  O   UNL     1      -7.879  13.148   3.960  1.00  0.00    -0.550 OA
ENDBRANCH  10  11
ENDBRANCH   9  10
ENDBRANCH   8   9
ENDBRANCH   1   8
TORSDOF 8
ENDMDL
MODEL 8
REMARK VINA RESULT:    -4.744      1.667      7.640
REMARK INTER + INTRA:          -7.212
REMARK INTER:                  -6.932
REMARK INTRA:                  -0.280
REMARK UNBOUND:                -0.249
REMARK SMILES O=C([O-])CCCCCCCC(=O)[O-]
REMARK SMILES IDX 7 1 6 2 5 3 4 4 2 5 1 6 3 7 8 8 9 9 10 10 11 11 12 12 13 13
REMARK H PARENT
REMARK Flexibility Score: inf
ROOT
ATOM      1  C   UNL     1     -12.460  10.681   7.142  1.00  0.00     0.000 C 
ENDROOT
BRANCH   1   2
ATOM      2  C   UNL     1     -11.308  11.479   6.498  1.00  0.00     0.000 C 
BRANCH   2   3
ATOM      3  C   UNL     1     -11.183  11.322   4.972  1.00  0.00     0.006 C 
BRANCH   3   4
ATOM      4  C   UNL     1     -10.067  12.189   4.375  1.00  0.00     0.053 C 
BRANCH   4   5
ATOM      5  C   UNL     1     -10.406  12.581   2.972  1.00  0.00     0.041 C 
ATOM      6  O   UNL     1     -10.956  11.753   2.197  1.00  0.00    -0.550 OA
ATOM      7  O   UNL     1     -10.070  13.844   2.502  1.00  0.00    -0.550 OA
ENDBRANCH   4   5
ENDBRANCH   3   4
ENDBRANCH   2   3
ENDBRANCH   1   2
BRANCH   1   8
ATOM      8  C   UNL     1     -12.964   9.480   6.319  1.00  0.00     0.000 C 
BRANCH   8   9
ATOM      9  C   UNL     1     -13.394   8.254   7.151  1.00  0.00     0.006 C 
BRANCH   9  10
ATOM     10  C   UNL     1     -13.426   8.496   8.668  1.00  0.00     0.053 C 
BRANCH  10  11
ATOM     11  C   UNL     1     -14.720   8.056   9.279  1.00  0.00     0.041 C 
ATOM     12  O   UNL     1     -15.118   8.568  10.358  1.00  0.00    -0.550 OA
ATOM     13  O   UNL     1     -15.470   7.054   8.674  1.00  0.00    -0.550 OA
ENDBRANCH  10  11
ENDBRANCH   9  10
ENDBRANCH   8   9
ENDBRANCH   1   8
TORSDOF 8
ENDMDL
MODEL 9
REMARK VINA RESULT:    -4.699      3.680      6.434
REMARK INTER + INTRA:          -7.145
REMARK INTER:                  -6.807
REMARK INTRA:                  -0.338
REMARK UNBOUND:                -0.249
REMARK SMILES O=C([O-])CCCCCCCC(=O)[O-]
REMARK SMILES IDX 7 1 6 2 5 3 4 4 2 5 1 6 3 7 8 8 9 9 10 10 11 11 12 12 13 13
REMARK H PARENT
REMARK Flexibility Score: inf
ROOT
ATOM      1  C   UNL     1     -12.644  11.447   6.390  1.00  0.00     0.000 C 
ENDROOT
BRANCH   1   2
ATOM      2  C   UNL     1     -11.261  11.171   5.766  1.00  0.00     0.000 C 
BRANCH   2   3
ATOM      3  C   UNL     1     -11.051  11.764   4.362  1.00  0.00     0.006 C 
BRANCH   3   4
ATOM      4  C   UNL     1      -9.800  12.648   4.270  1.00  0.00     0.053 C 
BRANCH   4   5
ATOM      5  C   UNL     1      -9.589  13.110   2.864  1.00  0.00     0.041 C 
ATOM      6  O   UNL     1      -9.130  12.318   1.998  1.00  0.00    -0.550 OA
ATOM      7  O   UNL     1      -9.852  14.429   2.518  1.00  0.00    -0.550 OA
ENDBRANCH   4   5
ENDBRANCH   3   4
ENDBRANCH   2   3
ENDBRANCH   1   2
BRANCH   1   8
ATOM      8  C   UNL     1     -12.635  11.722   7.906  1.00  0.00     0.000 C 
BRANCH   8   9
ATOM      9  C   UNL     1     -11.248  12.035   8.504  1.00  0.00     0.006 C 
BRANCH   9  10
ATOM     10  C   UNL     1     -11.135  13.424   9.153  1.00  0.00     0.053 C 
BRANCH  10  11
ATOM     11  C   UNL     1      -9.742  13.714   9.619  1.00  0.00     0.041 C 
ATOM     12  O   UNL     1      -9.323  13.229  10.703  1.00  0.00    -0.550 OA
ATOM     13  O   UNL     1      -8.918  14.548   8.873  1.00  0.00    -0.550 OA
ENDBRANCH  10  11
ENDBRANCH   9  10
ENDBRANCH   8   9
ENDBRANCH   1   8
TORSDOF 8
ENDMDL
