MODEL 1
REMARK VINA RESULT:    -5.535      0.000      0.000
REMARK INTER + INTRA:          -6.491
REMARK INTER:                  -6.344
REMARK INTRA:                  -0.147
REMARK UNBOUND:                -0.147
REMARK SMILES O=C([O-])C=Cc1ccc(O)cc1
REMARK SMILES IDX 6 1 7 2 12 3 8 4 11 5 9 6 5 7 4 8 2 9 1 10 3 11 10 12
REMARK H PARENT 10 13
REMARK Flexibility Score: inf
ROOT
ATOM      1  C   UNL     1       9.136   0.499  35.420  1.00  0.00    -0.025 A 
ATOM      2  C   UNL     1       9.486  -0.191  34.247  1.00  0.00     0.012 A 
ATOM      3  C   UNL     1      10.140   1.202  36.119  1.00  0.00     0.012 A 
ATOM      4  C   UNL     1      10.809  -0.202  33.795  1.00  0.00     0.047 A 
ATOM      5  C   UNL     1      11.461   1.188  35.663  1.00  0.00     0.047 A 
ATOM      6  C   UNL     1      11.799   0.483  34.501  1.00  0.00     0.115 A 
ENDROOT
BRANCH   1   7
ATOM      7  C   UNL     1       7.717   0.490  35.853  1.00  0.00     0.010 C 
ATOM      8  C   UNL     1       6.943  -0.603  35.844  1.00  0.00     0.025 C 
BRANCH   8   9
ATOM      9  C   UNL     1       5.535  -0.562  36.273  1.00  0.00     0.064 C 
ATOM     10  O   UNL     1       4.926   0.539  36.299  1.00  0.00    -0.545 OA
ATOM     11  O   UNL     1       4.866  -1.721  36.647  1.00  0.00    -0.545 OA
ENDBRANCH   8   9
ENDBRANCH   1   7
BRANCH   6  12
ATOM     12  O   UNL     1      13.114   0.463  34.039  1.00  0.00    -0.508 OA
ATOM     13  H   UNL     1      13.473   1.191  33.433  1.00  0.00     0.293 HD
ENDBRANCH   6  12
TORSDOF 3
ENDMDL
MODEL 2
REMARK VINA RESULT:    -5.420      0.236      1.416
REMARK INTER + INTRA:          -6.359
REMARK INTER:                  -6.216
REMARK INTRA:                  -0.143
REMARK UNBOUND:                -0.147
REMARK SMILES O=C([O-])C=Cc1ccc(O)cc1
REMARK SMILES IDX 6 1 7 2 12 3 8 4 11 5 9 6 5 7 4 8 2 9 1 10 3 11 10 12
REMARK H PARENT 10 13
REMARK Flexibility Score: inf
ROOT
ATOM      1  C   UNL     1       9.130   0.656  35.468  1.00  0.00    -0.025 A 
ATOM      2  C   UNL     1      10.079   1.406  36.183  1.00  0.00     0.012 A 
ATOM      3  C   UNL     1       9.546  -0.048  34.319  1.00  0.00     0.012 A 
ATOM      4  C   UNL     1      11.406   1.475  35.748  1.00  0.00     0.047 A 
ATOM      5  C   UNL     1      10.874   0.023  33.889  1.00  0.00     0.047 A 
ATOM      6  C   UNL     1      11.807   0.787  34.601  1.00  0.00     0.115 A 
ENDROOT
BRANCH   1   7
ATOM      7  C   UNL     1       7.736   0.606  35.975  1.00  0.00     0.010 C 
ATOM      8  C   UNL     1       6.907  -0.426  35.774  1.00  0.00     0.025 C 
BRANCH   8   9
ATOM      9  C   UNL     1       5.527  -0.427  36.286  1.00  0.00     0.064 C 
ATOM     10  O   UNL     1       4.897   0.659  36.373  1.00  0.00    -0.545 OA
ATOM     11  O   UNL     1       4.907  -1.609  36.675  1.00  0.00    -0.545 OA
ENDBRANCH   8   9
ENDBRANCH   1   7
BRANCH   6  12
ATOM     12  O   UNL     1      13.133   0.865  34.180  1.00  0.00    -0.508 OA
ATOM     13  H   UNL     1      13.544   1.743  33.886  1.00  0.00     0.293 HD
ENDBRANCH   6  12
TORSDOF 3
ENDMDL
MODEL 3
REMARK VINA RESULT:    -5.276      2.206      6.058
REMARK INTER + INTRA:          -6.194
REMARK INTER:                  -6.048
REMARK INTRA:                  -0.146
REMARK UNBOUND:                -0.147
REMARK SMILES O=C([O-])C=Cc1ccc(O)cc1
REMARK SMILES IDX 6 1 7 2 12 3 8 4 11 5 9 6 5 7 4 8 2 9 1 10 3 11 10 12
REMARK H PARENT 10 13
REMARK Flexibility Score: inf
ROOT
ATOM      1  C   UNL     1       6.714  -0.720  35.921  1.00  0.00    -0.025 A 
ATOM      2  C   UNL     1       5.616   0.024  36.385  1.00  0.00     0.012 A 
ATOM      3  C   UNL     1       6.657  -2.128  35.986  1.00  0.00     0.012 A 
ATOM      4  C   UNL     1       4.498  -0.618  36.924  1.00  0.00     0.047 A 
ATOM      5  C   UNL     1       5.536  -2.766  36.525  1.00  0.00     0.047 A 
ATOM      6  C   UNL     1       4.455  -2.012  36.998  1.00  0.00     0.115 A 
ENDROOT
BRANCH   1   7
ATOM      7  C   UNL     1       7.874   0.008  35.348  1.00  0.00     0.010 C 
ATOM      8  C   UNL     1       8.339   1.166  35.832  1.00  0.00     0.025 C 
BRANCH   8   9
ATOM      9  C   UNL     1       9.487   1.859  35.223  1.00  0.00     0.064 C 
ATOM     10  O   UNL     1       9.404   2.273  34.038  1.00  0.00    -0.545 OA
ATOM     11  O   UNL     1      10.662   2.065  35.937  1.00  0.00    -0.545 OA
ENDBRANCH   8   9
ENDBRANCH   1   7
BRANCH   6  12
ATOM     12  O   UNL     1       3.334  -2.639  37.539  1.00  0.00    -0.508 OA
ATOM     13  H   UNL     1       2.395  -2.371  37.266  1.00  0.00     0.293 HD
ENDBRANCH   6  12
TORSDOF 3
ENDMDL
MODEL 4
REMARK VINA RESULT:    -5.194      3.615      5.411
REMARK INTER + INTRA:          -6.100
REMARK INTER:                  -5.963
REMARK INTRA:                  -0.137
REMARK UNBOUND:                -0.147
REMARK SMILES O=C([O-])C=Cc1ccc(O)cc1
REMARK SMILES IDX 6 1 7 2 12 3 8 4 11 5 9 6 5 7 4 8 2 9 1 10 3 11 10 12
REMARK H PARENT 10 13
REMARK Flexibility Score: inf
ROOT
ATOM      1  C   UNL     1       5.151  -2.238  36.747  1.00  0.00    -0.025 A 
ATOM      2  C   UNL     1       6.393  -2.470  36.132  1.00  0.00     0.012 A 
ATOM      3  C   UNL     1       4.689  -0.911  36.866  1.00  0.00     0.012 A 
ATOM      4  C   UNL     1       7.168  -1.403  35.670  1.00  0.00     0.047 A 
ATOM      5  C   UNL     1       5.468   0.153  36.401  1.00  0.00     0.047 A 
ATOM      6  C   UNL     1       6.711  -0.091  35.804  1.00  0.00     0.115 A 
ENDROOT
BRANCH   1   7
ATOM      7  C   UNL     1       4.360  -3.405  37.213  1.00  0.00     0.010 C 
ATOM      8  C   UNL     1       3.738  -3.457  38.398  1.00  0.00     0.025 C 
BRANCH   8   9
ATOM      9  C   UNL     1       2.973  -4.641  38.823  1.00  0.00     0.064 C 
ATOM     10  O   UNL     1       3.408  -5.791  38.552  1.00  0.00    -0.545 OA
ATOM     11  O   UNL     1       1.779  -4.510  39.522  1.00  0.00    -0.545 OA
ENDBRANCH   8   9
ENDBRANCH   1   7
BRANCH   6  12
ATOM     12  O   UNL     1       7.495   0.963  35.339  1.00  0.00    -0.508 OA
ATOM     13  H   UNL     1       8.019   0.891  34.474  1.00  0.00     0.293 HD
ENDBRANCH   6  12
TORSDOF 3
ENDMDL
MODEL 5
REMARK VINA RESULT:    -5.151      1.421      6.152
REMARK INTER + INTRA:          -6.051
REMARK INTER:                  -5.908
REMARK INTRA:                  -0.143
REMARK UNBOUND:                -0.147
REMARK SMILES O=C([O-])C=Cc1ccc(O)cc1
REMARK SMILES IDX 6 1 7 2 12 3 8 4 11 5 9 6 5 7 4 8 2 9 1 10 3 11 10 12
REMARK H PARENT 10 13
REMARK Flexibility Score: inf
ROOT
ATOM      1  C   UNL     1       9.877   0.776  35.123  1.00  0.00    -0.025 A 
ATOM      2  C   UNL     1       9.432   1.531  36.221  1.00  0.00     0.012 A 
ATOM      3  C   UNL     1       8.952  -0.042  34.441  1.00  0.00     0.012 A 
ATOM      4  C   UNL     1       8.102   1.454  36.646  1.00  0.00     0.047 A 
ATOM      5  C   UNL     1       7.623  -0.114  34.868  1.00  0.00     0.047 A 
ATOM      6  C   UNL     1       7.196   0.631  35.974  1.00  0.00     0.115 A 
ENDROOT
BRANCH   1   7
ATOM      7  C   UNL     1      11.296   0.899  34.704  1.00  0.00     0.010 C 
ATOM      8  C   UNL     1      11.854   2.045  34.296  1.00  0.00     0.025 C 
BRANCH   8   9
ATOM      9  C   UNL     1      13.264   2.118  33.878  1.00  0.00     0.064 C 
ATOM     10  O   UNL     1      13.914   1.055  33.699  1.00  0.00    -0.545 OA
ATOM     11  O   UNL     1      13.890   3.342  33.676  1.00  0.00    -0.545 OA
ENDBRANCH   8   9
ENDBRANCH   1   7
BRANCH   6  12
ATOM     12  O   UNL     1       5.874   0.564  36.409  1.00  0.00    -0.508 OA
ATOM     13  H   UNL     1       5.269   1.378  36.391  1.00  0.00     0.293 HD
ENDBRANCH   6  12
TORSDOF 3
ENDMDL
MODEL 6
REMARK VINA RESULT:    -5.100      2.775      6.829
REMARK INTER + INTRA:          -5.992
REMARK INTER:                  -5.841
REMARK INTRA:                  -0.151
REMARK UNBOUND:                -0.147
REMARK SMILES O=C([O-])C=Cc1ccc(O)cc1
REMARK SMILES IDX 6 1 7 2 12 3 8 4 11 5 9 6 5 7 4 8 2 9 1 10 3 11 10 12
REMARK H PARENT 10 13
REMARK Flexibility Score: inf
ROOT
ATOM      1  C   UNL     1       4.923  -0.619  36.747  1.00  0.00    -0.025 A 
ATOM      2  C   UNL     1       4.916  -2.024  36.752  1.00  0.00     0.012 A 
ATOM      3  C   UNL     1       3.909   0.067  37.447  1.00  0.00     0.012 A 
ATOM      4  C   UNL     1       3.908  -2.729  37.415  1.00  0.00     0.047 A 
ATOM      5  C   UNL     1       2.903  -0.642  38.110  1.00  0.00     0.047 A 
ATOM      6  C   UNL     1       2.898  -2.042  38.093  1.00  0.00     0.115 A 
ENDROOT
BRANCH   1   7
ATOM      7  C   UNL     1       6.021   0.084  36.037  1.00  0.00     0.010 C 
ATOM      8  C   UNL     1       7.157  -0.510  35.650  1.00  0.00     0.025 C 
BRANCH   8   9
ATOM      9  C   UNL     1       8.224   0.231  34.958  1.00  0.00     0.064 C 
ATOM     10  O   UNL     1       8.855  -0.322  34.019  1.00  0.00    -0.545 OA
ATOM     11  O   UNL     1       8.546   1.534  35.322  1.00  0.00    -0.545 OA
ENDBRANCH   8   9
ENDBRANCH   1   7
BRANCH   6  12
ATOM     12  O   UNL     1       1.899  -2.758  38.749  1.00  0.00    -0.508 OA
ATOM     13  H   UNL     1       2.122  -3.477  39.428  1.00  0.00     0.293 HD
ENDBRANCH   6  12
TORSDOF 3
ENDMDL
MODEL 7
REMARK VINA RESULT:    -5.043      5.582      8.122
REMARK INTER + INTRA:          -5.927
REMARK INTER:                  -5.793
REMARK INTRA:                  -0.135
REMARK UNBOUND:                -0.147
REMARK SMILES O=C([O-])C=Cc1ccc(O)cc1
REMARK SMILES IDX 6 1 7 2 12 3 8 4 11 5 9 6 5 7 4 8 2 9 1 10 3 11 10 12
REMARK H PARENT 10 13
REMARK Flexibility Score: inf
ROOT
ATOM      1  C   UNL     1       3.627  -2.734  38.123  1.00  0.00    -0.025 A 
ATOM      2  C   UNL     1       3.451  -3.516  39.277  1.00  0.00     0.012 A 
ATOM      3  C   UNL     1       3.222  -1.383  38.150  1.00  0.00     0.012 A 
ATOM      4  C   UNL     1       2.861  -2.972  40.422  1.00  0.00     0.047 A 
ATOM      5  C   UNL     1       2.633  -0.843  39.298  1.00  0.00     0.047 A 
ATOM      6  C   UNL     1       2.449  -1.638  40.436  1.00  0.00     0.115 A 
ENDROOT
BRANCH   1   7
ATOM      7  C   UNL     1       4.266  -3.353  36.936  1.00  0.00     0.010 C 
ATOM      8  C   UNL     1       5.591  -3.419  36.754  1.00  0.00     0.025 C 
BRANCH   8   9
ATOM      9  C   UNL     1       6.182  -4.033  35.553  1.00  0.00     0.064 C 
ATOM     10  O   UNL     1       6.514  -3.304  34.582  1.00  0.00    -0.545 OA
ATOM     11  O   UNL     1       6.381  -5.407  35.475  1.00  0.00    -0.545 OA
ENDBRANCH   8   9
ENDBRANCH   1   7
BRANCH   6  12
ATOM     12  O   UNL     1       1.863  -1.110  41.584  1.00  0.00    -0.508 OA
ATOM     13  H   UNL     1       0.911  -1.341  41.847  1.00  0.00     0.293 HD
ENDBRANCH   6  12
TORSDOF 3
ENDMDL
MODEL 8
REMARK VINA RESULT:    -5.023      1.650      2.281
REMARK INTER + INTRA:          -5.904
REMARK INTER:                  -5.768
REMARK INTRA:                  -0.136
REMARK UNBOUND:                -0.147
REMARK SMILES O=C([O-])C=Cc1ccc(O)cc1
REMARK SMILES IDX 6 1 7 2 12 3 8 4 11 5 9 6 5 7 4 8 2 9 1 10 3 11 10 12
REMARK H PARENT 10 13
REMARK Flexibility Score: inf
ROOT
ATOM      1  C   UNL     1       9.576   1.683  35.295  1.00  0.00    -0.025 A 
ATOM      2  C   UNL     1      10.731   1.663  36.097  1.00  0.00     0.012 A 
ATOM      3  C   UNL     1       9.658   2.234  33.999  1.00  0.00     0.012 A 
ATOM      4  C   UNL     1      11.932   2.203  35.628  1.00  0.00     0.047 A 
ATOM      5  C   UNL     1      10.863   2.772  33.535  1.00  0.00     0.047 A 
ATOM      6  C   UNL     1      12.001   2.760  34.349  1.00  0.00     0.115 A 
ENDROOT
BRANCH   1   7
ATOM      7  C   UNL     1       8.327   1.088  35.833  1.00  0.00     0.010 C 
ATOM      8  C   UNL     1       7.824  -0.083  35.424  1.00  0.00     0.025 C 
BRANCH   8   9
ATOM      9  C   UNL     1       6.575  -0.629  35.979  1.00  0.00     0.064 C 
ATOM     10  O   UNL     1       6.429  -1.876  36.070  1.00  0.00    -0.545 OA
ATOM     11  O   UNL     1       5.553   0.211  36.407  1.00  0.00    -0.545 OA
ENDBRANCH   8   9
ENDBRANCH   1   7
BRANCH   6  12
ATOM     12  O   UNL     1      13.205   3.295  33.896  1.00  0.00    -0.508 OA
ATOM     13  H   UNL     1      13.232   4.138  33.333  1.00  0.00     0.293 HD
ENDBRANCH   6  12
TORSDOF 3
ENDMDL
MODEL 9
REMARK VINA RESULT:    -5.014      2.821      5.932
REMARK INTER + INTRA:          -5.894
REMARK INTER:                  -5.754
REMARK INTRA:                  -0.140
REMARK UNBOUND:                -0.147
REMARK SMILES O=C([O-])C=Cc1ccc(O)cc1
REMARK SMILES IDX 6 1 7 2 12 3 8 4 11 5 9 6 5 7 4 8 2 9 1 10 3 11 10 12
REMARK H PARENT 10 13
REMARK Flexibility Score: inf
ROOT
ATOM      1  C   UNL     1      10.254   1.690  34.653  1.00  0.00    -0.025 A 
ATOM      2  C   UNL     1      10.017   0.662  33.724  1.00  0.00     0.012 A 
ATOM      3  C   UNL     1       9.560   1.667  35.882  1.00  0.00     0.012 A 
ATOM      4  C   UNL     1       9.092  -0.349  34.000  1.00  0.00     0.047 A 
ATOM      5  C   UNL     1       8.637   0.653  36.154  1.00  0.00     0.047 A 
ATOM      6  C   UNL     1       8.399  -0.356  35.212  1.00  0.00     0.115 A 
ENDROOT
BRANCH   1   7
ATOM      7  C   UNL     1      11.252   2.735  34.318  1.00  0.00     0.010 C 
ATOM      8  C   UNL     1      11.192   3.497  33.218  1.00  0.00     0.025 C 
BRANCH   8   9
ATOM      9  C   UNL     1      12.212   4.515  32.921  1.00  0.00     0.064 C 
ATOM     10  O   UNL     1      11.887   5.731  32.898  1.00  0.00    -0.545 OA
ATOM     11  O   UNL     1      13.531   4.156  32.667  1.00  0.00    -0.545 OA
ENDBRANCH   8   9
ENDBRANCH   1   7
BRANCH   6  12
ATOM     12  O   UNL     1       7.480  -1.370  35.474  1.00  0.00    -0.508 OA
ATOM     13  H   UNL     1       6.543  -1.164  35.800  1.00  0.00     0.293 HD
ENDBRANCH   6  12
TORSDOF 3
ENDMDL
