MODEL 1
REMARK VINA RESULT:    -5.738      0.000      0.000
REMARK INTER + INTRA:          -7.228
REMARK INTER:                  -6.913
REMARK INTRA:                  -0.315
REMARK UNBOUND:                -0.315
REMARK SMILES O=c1c(O)c(-c2ccc(O)c(O)c2)oc2cc(O)cc(O)c12
REMARK SMILES IDX 5 1 3 2 2 3 1 4 22 5 20 6 19 7 17 8 16 9 15 10 14 11 6 12
REMARK SMILES IDX 7 13 8 14 9 15 13 16 11 17 10 18 12 20 4 22 21 24 18 26
REMARK H PARENT 10 19 12 21 4 23 21 25 18 27
REMARK Flexibility Score: inf
ROOT
ATOM      1  C   UNL     1       3.467   6.833  10.925  1.00  0.00     0.180 A 
ATOM      2  C   UNL     1       3.991   6.567   9.649  1.00  0.00     0.208 A 
ATOM      3  C   UNL     1       3.107   6.409   8.569  1.00  0.00     0.238 A 
ATOM      4  O   UNL     1       3.583   6.224   7.419  1.00  0.00    -0.285 OA
ATOM      5  C   UNL     1       1.711   6.503   8.784  1.00  0.00     0.111 A 
ATOM      6  C   UNL     1       0.721   6.320   7.770  1.00  0.00     0.134 A 
ATOM      7  C   UNL     1      -0.625   6.565   8.068  1.00  0.00     0.093 A 
ATOM      8  C   UNL     1      -1.024   6.923   9.358  1.00  0.00     0.123 A 
ATOM      9  C   UNL     1      -0.073   7.046  10.366  1.00  0.00     0.094 A 
ATOM     10  C   UNL     1       1.282   6.843  10.093  1.00  0.00     0.146 A 
ATOM     11  O   UNL     1       2.157   6.981  11.081  1.00  0.00    -0.452 OA
ENDROOT
BRANCH   1  12
ATOM     12  C   UNL     1       4.334   6.986  12.116  1.00  0.00     0.025 A 
ATOM     13  C   UNL     1       4.618   8.273  12.603  1.00  0.00     0.016 A 
ATOM     14  C   UNL     1       5.417   8.440  13.736  1.00  0.00     0.051 A 
ATOM     15  C   UNL     1       5.932   7.328  14.409  1.00  0.00     0.157 A 
ATOM     16  C   UNL     1       4.836   5.869  12.806  1.00  0.00     0.062 A 
ATOM     17  C   UNL     1       5.637   6.035  13.946  1.00  0.00     0.158 A 
BRANCH  15  18
ATOM     18  O   UNL     1       6.729   7.526  15.536  1.00  0.00    -0.504 OA
ATOM     19  H   UNL     1       7.196   8.407  15.717  1.00  0.00     0.293 HD
ENDBRANCH  15  18
BRANCH  17  20
ATOM     20  O   UNL     1       6.135   4.921  14.620  1.00  0.00    -0.504 OA
ATOM     21  H   UNL     1       6.854   5.007  15.329  1.00  0.00     0.293 HD
ENDBRANCH  17  20
ENDBRANCH   1  12
BRANCH   2  22
ATOM     22  O   UNL     1       5.374   6.499   9.456  1.00  0.00    -0.502 OA
ATOM     23  H   UNL     1       5.839   6.966   8.687  1.00  0.00     0.293 HD
ENDBRANCH   2  22
BRANCH   6  24
ATOM     24  O   UNL     1       1.004   5.875   6.475  1.00  0.00    -0.507 OA
ATOM     25  H   UNL     1       1.065   4.907   6.201  1.00  0.00     0.293 HD
ENDBRANCH   6  24
BRANCH   8  26
ATOM     26  O   UNL     1      -2.368   7.150   9.648  1.00  0.00    -0.508 OA
ATOM     27  H   UNL     1      -3.074   6.445   9.474  1.00  0.00     0.293 HD
ENDBRANCH   8  26
TORSDOF 6
ENDMDL
MODEL 2
REMARK VINA RESULT:    -5.572      1.325      1.364
REMARK INTER + INTRA:          -7.028
REMARK INTER:                  -6.695
REMARK INTRA:                  -0.333
REMARK UNBOUND:                -0.315
REMARK SMILES O=c1c(O)c(-c2ccc(O)c(O)c2)oc2cc(O)cc(O)c12
REMARK SMILES IDX 5 1 3 2 2 3 1 4 22 5 20 6 19 7 17 8 16 9 15 10 14 11 6 12
REMARK SMILES IDX 7 13 8 14 9 15 13 16 11 17 10 18 12 20 4 22 21 24 18 26
REMARK H PARENT 10 19 12 21 4 23 21 25 18 27
REMARK Flexibility Score: inf
ROOT
ATOM      1  C   UNL     1       3.253   7.073  11.791  1.00  0.00     0.180 A 
ATOM      2  C   UNL     1       4.121   6.689  10.754  1.00  0.00     0.208 A 
ATOM      3  C   UNL     1       3.583   6.393   9.491  1.00  0.00     0.238 A 
ATOM      4  O   UNL     1       4.370   6.103   8.552  1.00  0.00    -0.285 OA
ATOM      5  C   UNL     1       2.185   6.470   9.286  1.00  0.00     0.111 A 
ATOM      6  C   UNL     1       1.528   6.153   8.058  1.00  0.00     0.134 A 
ATOM      7  C   UNL     1       0.153   6.390   7.930  1.00  0.00     0.093 A 
ATOM      8  C   UNL     1      -0.598   6.870   9.005  1.00  0.00     0.123 A 
ATOM      9  C   UNL     1       0.023   7.126  10.224  1.00  0.00     0.094 A 
ATOM     10  C   UNL     1       1.399   6.933  10.373  1.00  0.00     0.146 A 
ATOM     11  O   UNL     1       1.954   7.199  11.549  1.00  0.00    -0.452 OA
ENDROOT
BRANCH   1  12
ATOM     12  C   UNL     1       3.743   7.375  13.155  1.00  0.00     0.025 A 
ATOM     13  C   UNL     1       4.002   8.707  13.517  1.00  0.00     0.016 A 
ATOM     14  C   UNL     1       4.445   9.017  14.805  1.00  0.00     0.051 A 
ATOM     15  C   UNL     1       4.621   8.007  15.755  1.00  0.00     0.157 A 
ATOM     16  C   UNL     1       3.900   6.363  14.119  1.00  0.00     0.062 A 
ATOM     17  C   UNL     1       4.343   6.673  15.413  1.00  0.00     0.158 A 
BRANCH  15  18
ATOM     18  O   UNL     1       5.066   8.347  17.032  1.00  0.00    -0.504 OA
ATOM     19  H   UNL     1       5.423   7.654  17.680  1.00  0.00     0.293 HD
ENDBRANCH  15  18
BRANCH  17  20
ATOM     20  O   UNL     1       4.502   5.662  16.360  1.00  0.00    -0.504 OA
ATOM     21  H   UNL     1       5.352   5.113  16.413  1.00  0.00     0.293 HD
ENDBRANCH  17  20
ENDBRANCH   1  12
BRANCH   2  22
ATOM     22  O   UNL     1       5.500   6.641  10.973  1.00  0.00    -0.502 OA
ATOM     23  H   UNL     1       5.900   6.462  11.886  1.00  0.00     0.293 HD
ENDBRANCH   2  22
BRANCH   6  24
ATOM     24  O   UNL     1       2.169   5.583   6.954  1.00  0.00    -0.507 OA
ATOM     25  H   UNL     1       1.708   5.043   6.238  1.00  0.00     0.293 HD
ENDBRANCH   6  24
BRANCH   8  26
ATOM     26  O   UNL     1      -1.968   7.088   8.873  1.00  0.00    -0.508 OA
ATOM     27  H   UNL     1      -2.364   8.020   8.928  1.00  0.00     0.293 HD
ENDBRANCH   8  26
TORSDOF 6
ENDMDL
MODEL 3
REMARK VINA RESULT:    -5.509      1.724      6.629
REMARK INTER + INTRA:          -6.952
REMARK INTER:                  -6.629
REMARK INTRA:                  -0.323
REMARK UNBOUND:                -0.315
REMARK SMILES O=c1c(O)c(-c2ccc(O)c(O)c2)oc2cc(O)cc(O)c12
REMARK SMILES IDX 5 1 3 2 2 3 1 4 22 5 20 6 19 7 17 8 16 9 15 10 14 11 6 12
REMARK SMILES IDX 7 13 8 14 9 15 13 16 11 17 10 18 12 20 4 22 21 24 18 26
REMARK H PARENT 10 19 12 21 4 23 21 25 18 27
REMARK Flexibility Score: inf
ROOT
ATOM      1  C   UNL     1       3.174   6.635  10.573  1.00  0.00     0.180 A 
ATOM      2  C   UNL     1       4.165   5.672  10.315  1.00  0.00     0.208 A 
ATOM      3  C   UNL     1       5.010   5.269  11.361  1.00  0.00     0.238 A 
ATOM      4  O   UNL     1       5.860   4.368  11.138  1.00  0.00    -0.285 OA
ATOM      5  C   UNL     1       4.864   5.845  12.646  1.00  0.00     0.111 A 
ATOM      6  C   UNL     1       5.692   5.541  13.769  1.00  0.00     0.134 A 
ATOM      7  C   UNL     1       5.374   6.073  15.025  1.00  0.00     0.093 A 
ATOM      8  C   UNL     1       4.298   6.949  15.185  1.00  0.00     0.123 A 
ATOM      9  C   UNL     1       3.521   7.298  14.084  1.00  0.00     0.094 A 
ATOM     10  C   UNL     1       3.791   6.756  12.825  1.00  0.00     0.146 A 
ATOM     11  O   UNL     1       3.020   7.107  11.804  1.00  0.00    -0.452 OA
ENDROOT
BRANCH   1  12
ATOM     12  C   UNL     1       2.262   7.128   9.515  1.00  0.00     0.025 A 
ATOM     13  C   UNL     1       2.655   8.215   8.717  1.00  0.00     0.016 A 
ATOM     14  C   UNL     1       1.820   8.685   7.700  1.00  0.00     0.051 A 
ATOM     15  C   UNL     1       0.589   8.069   7.454  1.00  0.00     0.157 A 
ATOM     16  C   UNL     1       1.033   6.497   9.253  1.00  0.00     0.062 A 
ATOM     17  C   UNL     1       0.195   6.966   8.231  1.00  0.00     0.158 A 
BRANCH  15  18
ATOM     18  O   UNL     1      -0.224   8.561   6.434  1.00  0.00    -0.504 OA
ATOM     19  H   UNL     1       0.132   9.175   5.711  1.00  0.00     0.293 HD
ENDBRANCH  15  18
BRANCH  17  20
ATOM     20  O   UNL     1      -1.025   6.338   7.982  1.00  0.00    -0.504 OA
ATOM     21  H   UNL     1      -1.232   5.916   7.085  1.00  0.00     0.293 HD
ENDBRANCH  17  20
ENDBRANCH   1  12
BRANCH   2  22
ATOM     22  O   UNL     1       4.277   5.102   9.044  1.00  0.00    -0.502 OA
ATOM     23  H   UNL     1       4.490   5.649   8.219  1.00  0.00     0.293 HD
ENDBRANCH   2  22
BRANCH   6  24
ATOM     24  O   UNL     1       6.844   4.751  13.699  1.00  0.00    -0.507 OA
ATOM     25  H   UNL     1       7.737   5.001  14.095  1.00  0.00     0.293 HD
ENDBRANCH   6  24
BRANCH   8  26
ATOM     26  O   UNL     1       3.998   7.485  16.435  1.00  0.00    -0.508 OA
ATOM     27  H   UNL     1       3.642   6.908  17.188  1.00  0.00     0.293 HD
ENDBRANCH   8  26
TORSDOF 6
ENDMDL
MODEL 4
REMARK VINA RESULT:    -5.496      1.981      2.292
REMARK INTER + INTRA:          -6.936
REMARK INTER:                  -6.991
REMARK INTRA:                   0.055
REMARK UNBOUND:                -0.315
REMARK SMILES O=c1c(O)c(-c2ccc(O)c(O)c2)oc2cc(O)cc(O)c12
REMARK SMILES IDX 5 1 3 2 2 3 1 4 22 5 20 6 19 7 17 8 16 9 15 10 14 11 6 12
REMARK SMILES IDX 7 13 8 14 9 15 13 16 11 17 10 18 12 20 4 22 21 24 18 26
REMARK H PARENT 10 19 12 21 4 23 21 25 18 27
REMARK Flexibility Score: inf
ROOT
ATOM      1  C   UNL     1       3.840   5.980  11.838  1.00  0.00     0.180 A 
ATOM      2  C   UNL     1       3.816   4.885  10.957  1.00  0.00     0.208 A 
ATOM      3  C   UNL     1       3.060   4.977   9.777  1.00  0.00     0.238 A 
ATOM      4  O   UNL     1       3.085   4.015   8.967  1.00  0.00    -0.285 OA
ATOM      5  C   UNL     1       2.326   6.156   9.502  1.00  0.00     0.111 A 
ATOM      6  C   UNL     1       1.494   6.343   8.357  1.00  0.00     0.134 A 
ATOM      7  C   UNL     1       0.918   7.597   8.119  1.00  0.00     0.093 A 
ATOM      8  C   UNL     1       1.091   8.651   9.020  1.00  0.00     0.123 A 
ATOM      9  C   UNL     1       1.852   8.461  10.169  1.00  0.00     0.094 A 
ATOM     10  C   UNL     1       2.469   7.232  10.416  1.00  0.00     0.146 A 
ATOM     11  O   UNL     1       3.194   7.096  11.519  1.00  0.00    -0.452 OA
ENDROOT
BRANCH   1  12
ATOM     12  C   UNL     1       4.593   5.949  13.113  1.00  0.00     0.025 A 
ATOM     13  C   UNL     1       5.938   5.544  13.111  1.00  0.00     0.016 A 
ATOM     14  C   UNL     1       6.674   5.526  14.298  1.00  0.00     0.051 A 
ATOM     15  C   UNL     1       6.084   5.924  15.501  1.00  0.00     0.157 A 
ATOM     16  C   UNL     1       4.008   6.369  14.320  1.00  0.00     0.062 A 
ATOM     17  C   UNL     1       4.746   6.353  15.513  1.00  0.00     0.158 A 
BRANCH  15  18
ATOM     18  O   UNL     1       6.842   5.893  16.671  1.00  0.00    -0.504 OA
ATOM     19  H   UNL     1       7.791   6.246  16.708  1.00  0.00     0.293 HD
ENDBRANCH  15  18
BRANCH  17  20
ATOM     20  O   UNL     1       4.156   6.765  16.707  1.00  0.00    -0.504 OA
ATOM     21  H   UNL     1       3.335   6.304  17.081  1.00  0.00     0.293 HD
ENDBRANCH  17  20
ENDBRANCH   1  12
BRANCH   2  22
ATOM     22  O   UNL     1       4.565   3.740  11.239  1.00  0.00    -0.502 OA
ATOM     23  H   UNL     1       4.948   3.148  10.511  1.00  0.00     0.293 HD
ENDBRANCH   2  22
BRANCH   6  24
ATOM     24  O   UNL     1       1.182   5.330   7.445  1.00  0.00    -0.507 OA
ATOM     25  H   UNL     1       0.463   5.393   6.740  1.00  0.00     0.293 HD
ENDBRANCH   6  24
BRANCH   8  26
ATOM     26  O   UNL     1       0.502   9.892   8.783  1.00  0.00    -0.508 OA
ATOM     27  H   UNL     1       1.038  10.751   8.830  1.00  0.00     0.293 HD
ENDBRANCH   8  26
TORSDOF 6
ENDMDL
MODEL 5
REMARK VINA RESULT:    -5.477      1.506      6.967
REMARK INTER + INTRA:          -6.912
REMARK INTER:                  -6.589
REMARK INTRA:                  -0.323
REMARK UNBOUND:                -0.315
REMARK SMILES O=c1c(O)c(-c2ccc(O)c(O)c2)oc2cc(O)cc(O)c12
REMARK SMILES IDX 5 1 3 2 2 3 1 4 22 5 20 6 19 7 17 8 16 9 15 10 14 11 6 12
REMARK SMILES IDX 7 13 8 14 9 15 13 16 11 17 10 18 12 20 4 22 21 24 18 26
REMARK H PARENT 10 19 12 21 4 23 21 25 18 27
REMARK Flexibility Score: inf
ROOT
ATOM      1  C   UNL     1       2.920   7.400  10.869  1.00  0.00     0.180 A 
ATOM      2  C   UNL     1       3.520   8.669  10.801  1.00  0.00     0.208 A 
ATOM      3  C   UNL     1       4.623   8.946  11.626  1.00  0.00     0.238 A 
ATOM      4  O   UNL     1       5.189  10.064  11.521  1.00  0.00    -0.285 OA
ATOM      5  C   UNL     1       5.099   7.956  12.519  1.00  0.00     0.111 A 
ATOM      6  C   UNL     1       6.184   8.141  13.429  1.00  0.00     0.134 A 
ATOM      7  C   UNL     1       6.655   7.052  14.172  1.00  0.00     0.093 A 
ATOM      8  C   UNL     1       6.038   5.802  14.087  1.00  0.00     0.123 A 
ATOM      9  C   UNL     1       4.943   5.627  13.247  1.00  0.00     0.094 A 
ATOM     10  C   UNL     1       4.472   6.684  12.465  1.00  0.00     0.146 A 
ATOM     11  O   UNL     1       3.431   6.472  11.670  1.00  0.00    -0.452 OA
ENDROOT
BRANCH   1  12
ATOM     12  C   UNL     1       1.738   7.043  10.051  1.00  0.00     0.025 A 
ATOM     13  C   UNL     1       0.450   7.297  10.549  1.00  0.00     0.016 A 
ATOM     14  C   UNL     1      -0.678   6.988   9.786  1.00  0.00     0.051 A 
ATOM     15  C   UNL     1      -0.538   6.434   8.509  1.00  0.00     0.157 A 
ATOM     16  C   UNL     1       1.877   6.506   8.758  1.00  0.00     0.062 A 
ATOM     17  C   UNL     1       0.745   6.196   7.990  1.00  0.00     0.158 A 
BRANCH  15  18
ATOM     18  O   UNL     1      -1.683   6.133   7.772  1.00  0.00    -0.504 OA
ATOM     19  H   UNL     1      -1.664   6.039   6.763  1.00  0.00     0.293 HD
ENDBRANCH  15  18
BRANCH  17  20
ATOM     20  O   UNL     1       0.892   5.657   6.712  1.00  0.00    -0.504 OA
ATOM     21  H   UNL     1       1.161   6.231   5.922  1.00  0.00     0.293 HD
ENDBRANCH  17  20
ENDBRANCH   1  12
BRANCH   2  22
ATOM     22  O   UNL     1       3.046   9.623   9.897  1.00  0.00    -0.502 OA
ATOM     23  H   UNL     1       2.059   9.815   9.777  1.00  0.00     0.293 HD
ENDBRANCH   2  22
BRANCH   6  24
ATOM     24  O   UNL     1       6.810   9.371  13.657  1.00  0.00    -0.507 OA
ATOM     25  H   UNL     1       7.397   9.578  14.451  1.00  0.00     0.293 HD
ENDBRANCH   6  24
BRANCH   8  26
ATOM     26  O   UNL     1       6.504   4.727  14.843  1.00  0.00    -0.508 OA
ATOM     27  H   UNL     1       6.716   3.833  14.416  1.00  0.00     0.293 HD
ENDBRANCH   8  26
TORSDOF 6
ENDMDL
MODEL 6
REMARK VINA RESULT:    -5.439      0.582      1.449
REMARK INTER + INTRA:          -6.866
REMARK INTER:                  -6.544
REMARK INTRA:                  -0.322
REMARK UNBOUND:                -0.315
REMARK SMILES O=c1c(O)c(-c2ccc(O)c(O)c2)oc2cc(O)cc(O)c12
REMARK SMILES IDX 5 1 3 2 2 3 1 4 22 5 20 6 19 7 17 8 16 9 15 10 14 11 6 12
REMARK SMILES IDX 7 13 8 14 9 15 13 16 11 17 10 18 12 20 4 22 21 24 18 26
REMARK H PARENT 10 19 12 21 4 23 21 25 18 27
REMARK Flexibility Score: inf
ROOT
ATOM      1  C   UNL     1       3.442   6.884  10.994  1.00  0.00     0.180 A 
ATOM      2  C   UNL     1       3.991   6.652   9.721  1.00  0.00     0.208 A 
ATOM      3  C   UNL     1       3.126   6.498   8.626  1.00  0.00     0.238 A 
ATOM      4  O   UNL     1       3.623   6.344   7.480  1.00  0.00    -0.285 OA
ATOM      5  C   UNL     1       1.725   6.562   8.820  1.00  0.00     0.111 A 
ATOM      6  C   UNL     1       0.755   6.380   7.788  1.00  0.00     0.134 A 
ATOM      7  C   UNL     1      -0.600   6.595   8.069  1.00  0.00     0.093 A 
ATOM      8  C   UNL     1      -1.025   6.921   9.359  1.00  0.00     0.123 A 
ATOM      9  C   UNL     1      -0.092   7.042  10.385  1.00  0.00     0.094 A 
ATOM     10  C   UNL     1       1.270   6.869  10.129  1.00  0.00     0.146 A 
ATOM     11  O   UNL     1       2.127   7.004  11.133  1.00  0.00    -0.452 OA
ENDROOT
BRANCH   1  12
ATOM     12  C   UNL     1       4.288   7.031  12.201  1.00  0.00     0.025 A 
ATOM     13  C   UNL     1       4.680   5.885  12.914  1.00  0.00     0.016 A 
ATOM     14  C   UNL     1       5.494   5.998  14.043  1.00  0.00     0.051 A 
ATOM     15  C   UNL     1       5.943   7.251  14.469  1.00  0.00     0.157 A 
ATOM     16  C   UNL     1       4.758   8.289  12.619  1.00  0.00     0.062 A 
ATOM     17  C   UNL     1       5.578   8.403  13.752  1.00  0.00     0.158 A 
BRANCH  15  18
ATOM     18  O   UNL     1       6.753   7.333  15.601  1.00  0.00    -0.504 OA
ATOM     19  H   UNL     1       7.284   6.540  15.942  1.00  0.00     0.293 HD
ENDBRANCH  15  18
BRANCH  17  20
ATOM     20  O   UNL     1       6.034   9.655  14.163  1.00  0.00    -0.504 OA
ATOM     21  H   UNL     1       5.402  10.354  14.534  1.00  0.00     0.293 HD
ENDBRANCH  17  20
ENDBRANCH   1  12
BRANCH   2  22
ATOM     22  O   UNL     1       5.377   6.614   9.549  1.00  0.00    -0.502 OA
ATOM     23  H   UNL     1       5.829   6.938   8.703  1.00  0.00     0.293 HD
ENDBRANCH   2  22
BRANCH   6  24
ATOM     24  O   UNL     1       1.065   5.966   6.489  1.00  0.00    -0.507 OA
ATOM     25  H   UNL     1       0.963   6.538   5.665  1.00  0.00     0.293 HD
ENDBRANCH   6  24
BRANCH   8  26
ATOM     26  O   UNL     1      -2.377   7.117   9.633  1.00  0.00    -0.508 OA
ATOM     27  H   UNL     1      -2.822   8.017   9.488  1.00  0.00     0.293 HD
ENDBRANCH   8  26
TORSDOF 6
ENDMDL
MODEL 7
REMARK VINA RESULT:    -5.382      1.735      7.164
REMARK INTER + INTRA:          -6.799
REMARK INTER:                  -6.625
REMARK INTRA:                  -0.174
REMARK UNBOUND:                -0.315
REMARK SMILES O=c1c(O)c(-c2ccc(O)c(O)c2)oc2cc(O)cc(O)c12
REMARK SMILES IDX 5 1 3 2 2 3 1 4 22 5 20 6 19 7 17 8 16 9 15 10 14 11 6 12
REMARK SMILES IDX 7 13 8 14 9 15 13 16 11 17 10 18 12 20 4 22 21 24 18 26
REMARK H PARENT 10 19 12 21 4 23 21 25 18 27
REMARK Flexibility Score: inf
ROOT
ATOM      1  C   UNL     1       2.748   7.342  11.483  1.00  0.00     0.180 A 
ATOM      2  C   UNL     1       2.556   8.632  12.007  1.00  0.00     0.208 A 
ATOM      3  C   UNL     1       3.127   8.953  13.250  1.00  0.00     0.238 A 
ATOM      4  O   UNL     1       2.997  10.125  13.689  1.00  0.00    -0.285 OA
ATOM      5  C   UNL     1       3.866   7.976  13.959  1.00  0.00     0.111 A 
ATOM      6  C   UNL     1       4.454   8.179  15.244  1.00  0.00     0.134 A 
ATOM      7  C   UNL     1       5.274   7.186  15.793  1.00  0.00     0.093 A 
ATOM      8  C   UNL     1       5.474   5.971  15.133  1.00  0.00     0.123 A 
ATOM      9  C   UNL     1       4.858   5.741  13.906  1.00  0.00     0.094 A 
ATOM     10  C   UNL     1       4.063   6.726  13.316  1.00  0.00     0.146 A 
ATOM     11  O   UNL     1       3.502   6.469  12.141  1.00  0.00    -0.452 OA
ENDROOT
BRANCH   1  12
ATOM     12  C   UNL     1       2.157   6.921  10.192  1.00  0.00     0.025 A 
ATOM     13  C   UNL     1       3.000   6.510   9.147  1.00  0.00     0.016 A 
ATOM     14  C   UNL     1       2.464   6.090   7.928  1.00  0.00     0.051 A 
ATOM     15  C   UNL     1       1.079   6.059   7.737  1.00  0.00     0.157 A 
ATOM     16  C   UNL     1       0.764   6.870  10.005  1.00  0.00     0.062 A 
ATOM     17  C   UNL     1       0.224   6.447   8.782  1.00  0.00     0.158 A 
BRANCH  15  18
ATOM     18  O   UNL     1       0.573   5.638   6.508  1.00  0.00    -0.504 OA
ATOM     19  H   UNL     1       0.192   6.288   5.831  1.00  0.00     0.293 HD
ENDBRANCH  15  18
BRANCH  17  20
ATOM     20  O   UNL     1      -1.159   6.405   8.604  1.00  0.00    -0.504 OA
ATOM     21  H   UNL     1      -1.789   6.233   9.378  1.00  0.00     0.293 HD
ENDBRANCH  17  20
ENDBRANCH   1  12
BRANCH   2  22
ATOM     22  O   UNL     1       1.841   9.587  11.281  1.00  0.00    -0.502 OA
ATOM     23  H   UNL     1       2.260  10.129  10.534  1.00  0.00     0.293 HD
ENDBRANCH   2  22
BRANCH   6  24
ATOM     24  O   UNL     1       4.242   9.318  16.027  1.00  0.00    -0.507 OA
ATOM     25  H   UNL     1       3.338   9.645  16.332  1.00  0.00     0.293 HD
ENDBRANCH   6  24
BRANCH   8  26
ATOM     26  O   UNL     1       6.280   4.982  15.694  1.00  0.00    -0.508 OA
ATOM     27  H   UNL     1       7.202   5.193  16.057  1.00  0.00     0.293 HD
ENDBRANCH   8  26
TORSDOF 6
ENDMDL
MODEL 8
REMARK VINA RESULT:    -5.321      1.876      2.671
REMARK INTER + INTRA:          -6.725
REMARK INTER:                  -6.505
REMARK INTRA:                  -0.220
REMARK UNBOUND:                -0.315
REMARK SMILES O=c1c(O)c(-c2ccc(O)c(O)c2)oc2cc(O)cc(O)c12
REMARK SMILES IDX 5 1 3 2 2 3 1 4 22 5 20 6 19 7 17 8 16 9 15 10 14 11 6 12
REMARK SMILES IDX 7 13 8 14 9 15 13 16 11 17 10 18 12 20 4 22 21 24 18 26
REMARK H PARENT 10 19 12 21 4 23 21 25 18 27
REMARK Flexibility Score: inf
ROOT
ATOM      1  C   UNL     1       4.153   6.467  12.211  1.00  0.00     0.180 A 
ATOM      2  C   UNL     1       4.898   5.344  11.814  1.00  0.00     0.208 A 
ATOM      3  C   UNL     1       4.564   4.695  10.613  1.00  0.00     0.238 A 
ATOM      4  O   UNL     1       5.269   3.724  10.235  1.00  0.00    -0.285 OA
ATOM      5  C   UNL     1       3.479   5.168   9.836  1.00  0.00     0.111 A 
ATOM      6  C   UNL     1       3.027   4.564   8.624  1.00  0.00     0.134 A 
ATOM      7  C   UNL     1       2.029   5.193   7.870  1.00  0.00     0.093 A 
ATOM      8  C   UNL     1       1.421   6.368   8.318  1.00  0.00     0.123 A 
ATOM      9  C   UNL     1       1.814   6.933   9.528  1.00  0.00     0.094 A 
ATOM     10  C   UNL     1       2.832   6.349  10.285  1.00  0.00     0.146 A 
ATOM     11  O   UNL     1       3.184   6.925  11.428  1.00  0.00    -0.452 OA
ENDROOT
BRANCH   1  12
ATOM     12  C   UNL     1       4.429   7.187  13.476  1.00  0.00     0.025 A 
ATOM     13  C   UNL     1       4.876   8.517  13.430  1.00  0.00     0.016 A 
ATOM     14  C   UNL     1       5.124   9.222  14.609  1.00  0.00     0.051 A 
ATOM     15  C   UNL     1       4.914   8.617  15.852  1.00  0.00     0.157 A 
ATOM     16  C   UNL     1       4.199   6.587  14.727  1.00  0.00     0.062 A 
ATOM     17  C   UNL     1       4.445   7.295  15.913  1.00  0.00     0.158 A 
BRANCH  15  18
ATOM     18  O   UNL     1       5.172   9.345  17.013  1.00  0.00    -0.504 OA
ATOM     19  H   UNL     1       5.557   8.913  17.845  1.00  0.00     0.293 HD
ENDBRANCH  15  18
BRANCH  17  20
ATOM     20  O   UNL     1       4.220   6.690  17.148  1.00  0.00    -0.504 OA
ATOM     21  H   UNL     1       3.808   7.198  17.922  1.00  0.00     0.293 HD
ENDBRANCH  17  20
ENDBRANCH   1  12
BRANCH   2  22
ATOM     22  O   UNL     1       5.978   4.907  12.585  1.00  0.00    -0.502 OA
ATOM     23  H   UNL     1       6.350   3.967  12.519  1.00  0.00     0.293 HD
ENDBRANCH   2  22
BRANCH   6  24
ATOM     24  O   UNL     1       3.503   3.343   8.136  1.00  0.00    -0.507 OA
ATOM     25  H   UNL     1       3.521   2.482   8.661  1.00  0.00     0.293 HD
ENDBRANCH   6  24
BRANCH   8  26
ATOM     26  O   UNL     1       0.418   6.979   7.568  1.00  0.00    -0.508 OA
ATOM     27  H   UNL     1       0.634   7.558   6.765  1.00  0.00     0.293 HD
ENDBRANCH   8  26
TORSDOF 6
ENDMDL
MODEL 9
REMARK VINA RESULT:    -5.205     16.809     18.648
REMARK INTER + INTRA:          -6.586
REMARK INTER:                  -6.275
REMARK INTRA:                  -0.311
REMARK UNBOUND:                -0.315
REMARK SMILES O=c1c(O)c(-c2ccc(O)c(O)c2)oc2cc(O)cc(O)c12
REMARK SMILES IDX 5 1 3 2 2 3 1 4 22 5 20 6 19 7 17 8 16 9 15 10 14 11 6 12
REMARK SMILES IDX 7 13 8 14 9 15 13 16 11 17 10 18 12 20 4 22 21 24 18 26
REMARK H PARENT 10 19 12 21 4 23 21 25 18 27
REMARK Flexibility Score: inf
ROOT
ATOM      1  C   UNL     1      -6.301  -8.009  11.219  1.00  0.00     0.180 A 
ATOM      2  C   UNL     1      -6.229  -7.992  12.623  1.00  0.00     0.208 A 
ATOM      3  C   UNL     1      -5.066  -8.468  13.250  1.00  0.00     0.238 A 
ATOM      4  O   UNL     1      -4.986  -8.401  14.504  1.00  0.00    -0.285 OA
ATOM      5  C   UNL     1      -3.998  -8.969  12.467  1.00  0.00     0.111 A 
ATOM      6  C   UNL     1      -2.790  -9.513  12.999  1.00  0.00     0.134 A 
ATOM      7  C   UNL     1      -1.747  -9.857  12.130  1.00  0.00     0.093 A 
ATOM      8  C   UNL     1      -1.895  -9.739  10.746  1.00  0.00     0.123 A 
ATOM      9  C   UNL     1      -3.091  -9.265  10.215  1.00  0.00     0.094 A 
ATOM     10  C   UNL     1      -4.136  -8.879  11.058  1.00  0.00     0.146 A 
ATOM     11  O   UNL     1      -5.257  -8.423  10.512  1.00  0.00    -0.452 OA
ENDROOT
BRANCH   1  12
ATOM     12  C   UNL     1      -7.503  -7.548  10.488  1.00  0.00     0.025 A 
ATOM     13  C   UNL     1      -8.592  -8.421  10.330  1.00  0.00     0.016 A 
ATOM     14  C   UNL     1      -9.744  -8.001   9.661  1.00  0.00     0.051 A 
ATOM     15  C   UNL     1      -9.834  -6.702   9.153  1.00  0.00     0.157 A 
ATOM     16  C   UNL     1      -7.603  -6.235   9.995  1.00  0.00     0.062 A 
ATOM     17  C   UNL     1      -8.761  -5.811   9.324  1.00  0.00     0.158 A 
BRANCH  15  18
ATOM     18  O   UNL     1     -10.995  -6.312   8.488  1.00  0.00    -0.504 OA
ATOM     19  H   UNL     1     -11.701  -6.979   8.200  1.00  0.00     0.293 HD
ENDBRANCH  15  18
BRANCH  17  20
ATOM     20  O   UNL     1      -8.848  -4.510   8.833  1.00  0.00    -0.504 OA
ATOM     21  H   UNL     1      -9.418  -4.284   8.026  1.00  0.00     0.293 HD
ENDBRANCH  17  20
ENDBRANCH   1  12
BRANCH   2  22
ATOM     22  O   UNL     1      -7.286  -7.474  13.375  1.00  0.00    -0.502 OA
ATOM     23  H   UNL     1      -8.035  -6.932  12.960  1.00  0.00     0.293 HD
ENDBRANCH   2  22
BRANCH   6  24
ATOM     24  O   UNL     1      -2.576  -9.758  14.359  1.00  0.00    -0.507 OA
ATOM     25  H   UNL     1      -3.307  -9.914  15.036  1.00  0.00     0.293 HD
ENDBRANCH   6  24
BRANCH   8  26
ATOM     26  O   UNL     1      -0.858 -10.099   9.887  1.00  0.00    -0.508 OA
ATOM     27  H   UNL     1      -0.558  -9.491   9.133  1.00  0.00     0.293 HD
ENDBRANCH   8  26
TORSDOF 6
ENDMDL
