MODEL 1
REMARK VINA RESULT:    -4.957      0.000      0.000
REMARK INTER + INTRA:          -5.346
REMARK INTER:                  -5.247
REMARK INTRA:                  -0.099
REMARK UNBOUND:                -0.099
REMARK SMILES C=C(C)[C@H]1CC=C(C)C(=O)C1
REMARK SMILES IDX 8 1 7 2 6 3 5 4 4 5 11 6 9 7 10 8 2 9 1 10 3 11
REMARK H PARENT
REMARK Flexibility Score: inf
ROOT
ATOM      1  C   UNL     1      14.601  19.526  13.798  1.00  0.00     0.048 C 
ATOM      2  C   UNL     1      15.336  19.425  15.106  1.00  0.00    -0.012 C 
ATOM      3  C   UNL     1      15.081  18.401  15.938  1.00  0.00    -0.019 C 
ATOM      4  C   UNL     1      15.774  18.262  17.268  1.00  0.00     0.036 C 
ATOM      5  C   UNL     1      17.209  18.817  17.206  1.00  0.00     0.025 C 
ATOM      6  C   UNL     1      17.198  20.272  16.704  1.00  0.00     0.089 C 
ATOM      7  C   UNL     1      16.426  20.383  15.418  1.00  0.00     0.158 C 
ATOM      8  O   UNL     1      16.691  21.323  14.621  1.00  0.00    -0.295 OA
ENDROOT
BRANCH   5   9
ATOM      9  C   UNL     1      17.911  18.698  18.551  1.00  0.00    -0.077 C 
ATOM     10  C   UNL     1      18.534  19.762  19.082  1.00  0.00     0.008 C 
ATOM     11  C   UNL     1      17.928  17.398  19.317  1.00  0.00     0.039 C 
ENDBRANCH   5   9
TORSDOF 1
ENDMDL
MODEL 2
REMARK VINA RESULT:    -4.809      1.768      4.306
REMARK INTER + INTRA:          -5.189
REMARK INTER:                  -5.090
REMARK INTRA:                  -0.099
REMARK UNBOUND:                -0.099
REMARK SMILES C=C(C)[C@H]1CC=C(C)C(=O)C1
REMARK SMILES IDX 8 1 7 2 6 3 5 4 4 5 11 6 9 7 10 8 2 9 1 10 3 11
REMARK H PARENT
REMARK Flexibility Score: inf
ROOT
ATOM      1  C   UNL     1      18.053  17.512  19.558  1.00  0.00     0.048 C 
ATOM      2  C   UNL     1      17.670  18.195  18.274  1.00  0.00    -0.012 C 
ATOM      3  C   UNL     1      17.169  17.472  17.257  1.00  0.00    -0.019 C 
ATOM      4  C   UNL     1      16.787  18.102  15.943  1.00  0.00     0.036 C 
ATOM      5  C   UNL     1      16.271  19.539  16.146  1.00  0.00     0.025 C 
ATOM      6  C   UNL     1      17.310  20.376  16.913  1.00  0.00     0.089 C 
ATOM      7  C   UNL     1      17.727  19.675  18.176  1.00  0.00     0.158 C 
ATOM      8  O   UNL     1      18.164  20.357  19.143  1.00  0.00    -0.295 OA
ENDROOT
BRANCH   5   9
ATOM      9  C   UNL     1      15.899  20.190  14.822  1.00  0.00    -0.077 C 
ATOM     10  C   UNL     1      16.618  21.223  14.354  1.00  0.00     0.008 C 
ATOM     11  C   UNL     1      14.729  19.700  14.005  1.00  0.00     0.039 C 
ENDBRANCH   5   9
TORSDOF 1
ENDMDL
MODEL 3
REMARK VINA RESULT:    -4.614      1.507      2.022
REMARK INTER + INTRA:          -4.983
REMARK INTER:                  -4.885
REMARK INTRA:                  -0.098
REMARK UNBOUND:                -0.099
REMARK SMILES C=C(C)[C@H]1CC=C(C)C(=O)C1
REMARK SMILES IDX 8 1 7 2 6 3 5 4 4 5 11 6 9 7 10 8 2 9 1 10 3 11
REMARK H PARENT
REMARK Flexibility Score: inf
ROOT
ATOM      1  C   UNL     1      15.248  19.624  13.344  1.00  0.00     0.048 C 
ATOM      2  C   UNL     1      16.072  19.419  14.586  1.00  0.00    -0.012 C 
ATOM      3  C   UNL     1      16.367  20.468  15.373  1.00  0.00    -0.019 C 
ATOM      4  C   UNL     1      17.204  20.322  16.616  1.00  0.00     0.036 C 
ATOM      5  C   UNL     1      16.980  18.950  17.277  1.00  0.00     0.025 C 
ATOM      6  C   UNL     1      17.241  17.820  16.265  1.00  0.00     0.089 C 
ATOM      7  C   UNL     1      16.450  18.046  15.005  1.00  0.00     0.158 C 
ATOM      8  O   UNL     1      16.143  17.057  14.286  1.00  0.00    -0.295 OA
ENDROOT
BRANCH   5   9
ATOM      9  C   UNL     1      17.836  18.786  18.525  1.00  0.00    -0.077 C 
ATOM     10  C   UNL     1      18.517  19.833  19.017  1.00  0.00     0.008 C 
ATOM     11  C   UNL     1      17.941  17.460  19.238  1.00  0.00     0.039 C 
ENDBRANCH   5   9
TORSDOF 1
ENDMDL
MODEL 4
REMARK VINA RESULT:    -4.477      2.540      4.690
REMARK INTER + INTRA:          -4.837
REMARK INTER:                  -4.739
REMARK INTRA:                  -0.099
REMARK UNBOUND:                -0.099
REMARK SMILES C=C(C)[C@H]1CC=C(C)C(=O)C1
REMARK SMILES IDX 8 1 7 2 6 3 5 4 4 5 11 6 9 7 10 8 2 9 1 10 3 11
REMARK H PARENT
REMARK Flexibility Score: inf
ROOT
ATOM      1  C   UNL     1      18.368  20.116  19.354  1.00  0.00     0.048 C 
ATOM      2  C   UNL     1      17.847  19.482  18.093  1.00  0.00    -0.012 C 
ATOM      3  C   UNL     1      17.640  20.238  17.001  1.00  0.00    -0.019 C 
ATOM      4  C   UNL     1      17.102  19.659  15.720  1.00  0.00     0.036 C 
ATOM      5  C   UNL     1      17.572  18.205  15.528  1.00  0.00     0.025 C 
ATOM      6  C   UNL     1      17.197  17.355  16.754  1.00  0.00     0.089 C 
ATOM      7  C   UNL     1      17.680  18.009  18.020  1.00  0.00     0.158 C 
ATOM      8  O   UNL     1      17.908  17.294  19.033  1.00  0.00    -0.295 OA
ENDROOT
BRANCH   5   9
ATOM      9  C   UNL     1      17.018  17.605  14.244  1.00  0.00    -0.077 C 
ATOM     10  C   UNL     1      16.104  16.623  14.299  1.00  0.00     0.008 C 
ATOM     11  C   UNL     1      17.473  18.089  12.889  1.00  0.00     0.039 C 
ENDBRANCH   5   9
TORSDOF 1
ENDMDL
MODEL 5
REMARK VINA RESULT:    -4.427      7.738      9.148
REMARK INTER + INTRA:          -4.784
REMARK INTER:                  -4.687
REMARK INTRA:                  -0.097
REMARK UNBOUND:                -0.099
REMARK SMILES C=C(C)[C@H]1CC=C(C)C(=O)C1
REMARK SMILES IDX 8 1 7 2 6 3 5 4 4 5 11 6 9 7 10 8 2 9 1 10 3 11
REMARK H PARENT
REMARK Flexibility Score: inf
ROOT
ATOM      1  C   UNL     1      19.214  24.992   8.472  1.00  0.00     0.048 C 
ATOM      2  C   UNL     1      19.503  23.517   8.508  1.00  0.00    -0.012 C 
ATOM      3  C   UNL     1      20.673  23.054   8.035  1.00  0.00    -0.019 C 
ATOM      4  C   UNL     1      21.005  21.585   8.030  1.00  0.00     0.036 C 
ATOM      5  C   UNL     1      20.363  20.866   9.230  1.00  0.00     0.025 C 
ATOM      6  C   UNL     1      18.844  21.119   9.255  1.00  0.00     0.089 C 
ATOM      7  C   UNL     1      18.552  22.593   9.176  1.00  0.00     0.158 C 
ATOM      8  O   UNL     1      17.470  23.031   9.651  1.00  0.00    -0.295 OA
ENDROOT
BRANCH   5   9
ATOM      9  C   UNL     1      20.678  19.377   9.223  1.00  0.00    -0.077 C 
ATOM     10  C   UNL     1      20.701  18.699   8.064  1.00  0.00     0.008 C 
ATOM     11  C   UNL     1      20.971  18.629  10.501  1.00  0.00     0.039 C 
ENDBRANCH   5   9
TORSDOF 1
ENDMDL
MODEL 6
REMARK VINA RESULT:    -4.425      1.756      4.834
REMARK INTER + INTRA:          -4.782
REMARK INTER:                  -4.684
REMARK INTRA:                  -0.099
REMARK UNBOUND:                -0.099
REMARK SMILES C=C(C)[C@H]1CC=C(C)C(=O)C1
REMARK SMILES IDX 8 1 7 2 6 3 5 4 4 5 11 6 9 7 10 8 2 9 1 10 3 11
REMARK H PARENT
REMARK Flexibility Score: inf
ROOT
ATOM      1  C   UNL     1      18.272  19.326  18.636  1.00  0.00     0.048 C 
ATOM      2  C   UNL     1      17.397  19.496  17.424  1.00  0.00    -0.012 C 
ATOM      3  C   UNL     1      17.666  20.470  16.538  1.00  0.00    -0.019 C 
ATOM      4  C   UNL     1      16.811  20.697  15.318  1.00  0.00     0.036 C 
ATOM      5  C   UNL     1      16.226  19.372  14.797  1.00  0.00     0.025 C 
ATOM      6  C   UNL     1      15.460  18.648  15.919  1.00  0.00     0.089 C 
ATOM      7  C   UNL     1      16.319  18.515  17.146  1.00  0.00     0.158 C 
ATOM      8  O   UNL     1      16.089  17.579  17.959  1.00  0.00    -0.295 OA
ENDROOT
BRANCH   5   9
ATOM      9  C   UNL     1      15.346  19.593  13.575  1.00  0.00    -0.077 C 
ATOM     10  C   UNL     1      14.024  19.374  13.649  1.00  0.00     0.008 C 
ATOM     11  C   UNL     1      15.926  20.060  12.262  1.00  0.00     0.039 C 
ENDBRANCH   5   9
TORSDOF 1
ENDMDL
MODEL 7
REMARK VINA RESULT:    -4.333      8.439      9.813
REMARK INTER + INTRA:          -4.685
REMARK INTER:                  -4.594
REMARK INTRA:                  -0.091
REMARK UNBOUND:                -0.099
REMARK SMILES C=C(C)[C@H]1CC=C(C)C(=O)C1
REMARK SMILES IDX 8 1 7 2 6 3 5 4 4 5 11 6 9 7 10 8 2 9 1 10 3 11
REMARK H PARENT
REMARK Flexibility Score: inf
ROOT
ATOM      1  C   UNL     1      18.327  25.842   8.094  1.00  0.00     0.048 C 
ATOM      2  C   UNL     1      19.027  24.542   8.381  1.00  0.00    -0.012 C 
ATOM      3  C   UNL     1      18.493  23.675   9.259  1.00  0.00    -0.019 C 
ATOM      4  C   UNL     1      19.161  22.369   9.597  1.00  0.00     0.036 C 
ATOM      5  C   UNL     1      19.926  21.807   8.385  1.00  0.00     0.025 C 
ATOM      6  C   UNL     1      20.924  22.851   7.852  1.00  0.00     0.089 C 
ATOM      7  C   UNL     1      20.234  24.164   7.605  1.00  0.00     0.158 C 
ATOM      8  O   UNL     1      20.716  24.961   6.755  1.00  0.00    -0.295 OA
ENDROOT
BRANCH   5   9
ATOM      9  C   UNL     1      20.621  20.495   8.723  1.00  0.00    -0.077 C 
ATOM     10  C   UNL     1      20.912  19.618   7.750  1.00  0.00     0.008 C 
ATOM     11  C   UNL     1      20.999  20.148  10.142  1.00  0.00     0.039 C 
ENDBRANCH   5   9
TORSDOF 1
ENDMDL
MODEL 8
REMARK VINA RESULT:    -4.160      8.203      8.899
REMARK INTER + INTRA:          -4.502
REMARK INTER:                  -4.403
REMARK INTRA:                  -0.099
REMARK UNBOUND:                -0.099
REMARK SMILES C=C(C)[C@H]1CC=C(C)C(=O)C1
REMARK SMILES IDX 8 1 7 2 6 3 5 4 4 5 11 6 9 7 10 8 2 9 1 10 3 11
REMARK H PARENT
REMARK Flexibility Score: inf
ROOT
ATOM      1  C   UNL     1      18.211  17.749   8.391  1.00  0.00     0.048 C 
ATOM      2  C   UNL     1      18.515  19.214   8.541  1.00  0.00    -0.012 C 
ATOM      3  C   UNL     1      17.594  20.037   9.072  1.00  0.00    -0.019 C 
ATOM      4  C   UNL     1      17.839  21.515   9.227  1.00  0.00     0.036 C 
ATOM      5  C   UNL     1      19.326  21.804   9.503  1.00  0.00     0.025 C 
ATOM      6  C   UNL     1      20.204  21.181   8.403  1.00  0.00     0.089 C 
ATOM      7  C   UNL     1      19.871  19.725   8.221  1.00  0.00     0.158 C 
ATOM      8  O   UNL     1      20.748  18.947   7.757  1.00  0.00    -0.295 OA
ENDROOT
BRANCH   5   9
ATOM      9  C   UNL     1      19.587  23.297   9.644  1.00  0.00    -0.077 C 
ATOM     10  C   UNL     1      18.700  24.184   9.166  1.00  0.00     0.008 C 
ATOM     11  C   UNL     1      20.833  23.817  10.317  1.00  0.00     0.039 C 
ENDBRANCH   5   9
TORSDOF 1
ENDMDL
MODEL 9
REMARK VINA RESULT:    -4.158      7.857      9.356
REMARK INTER + INTRA:          -4.499
REMARK INTER:                  -4.402
REMARK INTRA:                  -0.097
REMARK UNBOUND:                -0.099
REMARK SMILES C=C(C)[C@H]1CC=C(C)C(=O)C1
REMARK SMILES IDX 8 1 7 2 6 3 5 4 4 5 11 6 9 7 10 8 2 9 1 10 3 11
REMARK H PARENT
REMARK Flexibility Score: inf
ROOT
ATOM      1  C   UNL     1      18.069  17.724   8.548  1.00  0.00     0.048 C 
ATOM      2  C   UNL     1      18.928  18.954   8.647  1.00  0.00    -0.012 C 
ATOM      3  C   UNL     1      20.095  19.010   7.981  1.00  0.00    -0.019 C 
ATOM      4  C   UNL     1      21.002  20.209   8.062  1.00  0.00     0.036 C 
ATOM      5  C   UNL     1      20.192  21.507   8.233  1.00  0.00     0.025 C 
ATOM      6  C   UNL     1      19.261  21.399   9.454  1.00  0.00     0.089 C 
ATOM      7  C   UNL     1      18.431  20.147   9.377  1.00  0.00     0.158 C 
ATOM      8  O   UNL     1      17.321  20.108   9.973  1.00  0.00    -0.295 OA
ENDROOT
BRANCH   5   9
ATOM      9  C   UNL     1      21.102  22.723   8.334  1.00  0.00    -0.077 C 
ATOM     10  C   UNL     1      21.619  23.081   9.520  1.00  0.00     0.008 C 
ATOM     11  C   UNL     1      21.446  23.550   7.119  1.00  0.00     0.039 C 
ENDBRANCH   5   9
TORSDOF 1
ENDMDL
