MODEL 1
REMARK VINA RESULT:    -3.817      0.000      0.000
REMARK INTER + INTRA:          -6.511
REMARK INTER:                  -5.825
REMARK INTRA:                  -0.686
REMARK UNBOUND:                -0.686
REMARK SMILES O=C([O-])CCCCCCCCC(=O)[O-]
REMARK SMILES IDX 7 1 6 2 5 3 4 4 2 5 1 6 3 7 8 8 9 9 10 10 11 11 12 12 13 13
REMARK SMILES IDX 14 14
REMARK H PARENT
REMARK Flexibility Score: inf
ROOT
ATOM      1  C   UNL     1     183.760 181.193 201.233  1.00  0.00     0.000 C 
ENDROOT
BRANCH   1   2
ATOM      2  C   UNL     1     182.423 181.616 201.860  1.00  0.00     0.000 C 
BRANCH   2   3
ATOM      3  C   UNL     1     182.222 183.142 201.877  1.00  0.00     0.006 C 
BRANCH   3   4
ATOM      4  C   UNL     1     182.438 183.816 200.510  1.00  0.00     0.053 C 
BRANCH   4   5
ATOM      5  C   UNL     1     183.501 184.872 200.548  1.00  0.00     0.041 C 
ATOM      6  O   UNL     1     184.687 184.592 200.227  1.00  0.00    -0.550 OA
ATOM      7  O   UNL     1     183.177 186.173 200.908  1.00  0.00    -0.550 OA
ENDBRANCH   4   5
ENDBRANCH   3   4
ENDBRANCH   2   3
ENDBRANCH   1   2
BRANCH   1   8
ATOM      8  C   UNL     1     184.477 180.160 202.111  1.00  0.00     0.000 C 
BRANCH   8   9
ATOM      9  C   UNL     1     185.992 180.393 202.111  1.00  0.00     0.000 C 
BRANCH   9  10
ATOM     10  C   UNL     1     186.343 181.734 201.449  1.00  0.00     0.006 C 
BRANCH  10  11
ATOM     11  C   UNL     1     187.405 181.581 200.353  1.00  0.00     0.053 C 
BRANCH  11  12
ATOM     12  C   UNL     1     186.794 181.212 199.036  1.00  0.00     0.041 C 
ATOM     13  O   UNL     1     186.471 180.018 198.799  1.00  0.00    -0.550 OA
ATOM     14  O   UNL     1     186.613 182.181 198.058  1.00  0.00    -0.550 OA
ENDBRANCH  11  12
ENDBRANCH  10  11
ENDBRANCH   9  10
ENDBRANCH   8   9
ENDBRANCH   1   8
TORSDOF 9
ENDMDL
MODEL 2
REMARK VINA RESULT:    -3.743      1.638      4.155
REMARK INTER + INTRA:          -6.399
REMARK INTER:                  -5.531
REMARK INTRA:                  -0.869
REMARK UNBOUND:                -0.686
REMARK SMILES O=C([O-])CCCCCCCCC(=O)[O-]
REMARK SMILES IDX 7 1 6 2 5 3 4 4 2 5 1 6 3 7 8 8 9 9 10 10 11 11 12 12 13 13
REMARK SMILES IDX 14 14
REMARK H PARENT
REMARK Flexibility Score: inf
ROOT
ATOM      1  C   UNL     1     183.262 181.054 201.276  1.00  0.00     0.000 C 
ENDROOT
BRANCH   1   2
ATOM      2  C   UNL     1     184.251 180.238 202.123  1.00  0.00     0.000 C 
BRANCH   2   3
ATOM      3  C   UNL     1     185.605 180.020 201.425  1.00  0.00     0.006 C 
BRANCH   3   4
ATOM      4  C   UNL     1     185.595 180.356 199.923  1.00  0.00     0.053 C 
BRANCH   4   5
ATOM      5  C   UNL     1     186.760 181.205 199.512  1.00  0.00     0.041 C 
ATOM      6  O   UNL     1     187.481 181.760 200.383  1.00  0.00    -0.550 OA
ATOM      7  O   UNL     1     187.067 181.361 198.166  1.00  0.00    -0.550 OA
ENDBRANCH   4   5
ENDBRANCH   3   4
ENDBRANCH   2   3
ENDBRANCH   1   2
BRANCH   1   8
ATOM      8  C   UNL     1     182.740 182.267 202.055  1.00  0.00     0.000 C 
BRANCH   8   9
ATOM      9  C   UNL     1     182.966 183.564 201.270  1.00  0.00     0.000 C 
BRANCH   9  10
ATOM     10  C   UNL     1     184.456 183.768 200.958  1.00  0.00     0.006 C 
BRANCH  10  11
ATOM     11  C   UNL     1     184.709 185.031 200.126  1.00  0.00     0.053 C 
BRANCH  11  12
ATOM     12  C   UNL     1     186.055 185.003 199.470  1.00  0.00     0.041 C 
ATOM     13  O   UNL     1     187.099 185.155 200.158  1.00  0.00    -0.550 OA
ATOM     14  O   UNL     1     186.155 184.844 198.094  1.00  0.00    -0.550 OA
ENDBRANCH  11  12
ENDBRANCH  10  11
ENDBRANCH   9  10
ENDBRANCH   8   9
ENDBRANCH   1   8
TORSDOF 9
ENDMDL
MODEL 3
REMARK VINA RESULT:    -3.727      2.391      4.101
REMARK INTER + INTRA:          -6.374
REMARK INTER:                  -5.542
REMARK INTRA:                  -0.832
REMARK UNBOUND:                -0.686
REMARK SMILES O=C([O-])CCCCCCCCC(=O)[O-]
REMARK SMILES IDX 7 1 6 2 5 3 4 4 2 5 1 6 3 7 8 8 9 9 10 10 11 11 12 12 13 13
REMARK SMILES IDX 14 14
REMARK H PARENT
REMARK Flexibility Score: inf
ROOT
ATOM      1  C   UNL     1     186.701 181.072 199.236  1.00  0.00     0.000 C 
ENDROOT
BRANCH   1   2
ATOM      2  C   UNL     1     187.108 182.218 200.174  1.00  0.00     0.000 C 
BRANCH   2   3
ATOM      3  C   UNL     1     186.300 183.507 199.938  1.00  0.00     0.006 C 
BRANCH   3   4
ATOM      4  C   UNL     1     185.700 183.618 198.525  1.00  0.00     0.053 C 
BRANCH   4   5
ATOM      5  C   UNL     1     185.627 185.032 198.035  1.00  0.00     0.041 C 
ATOM      6  O   UNL     1     184.573 185.466 197.500  1.00  0.00    -0.550 OA
ATOM      7  O   UNL     1     186.714 185.881 198.198  1.00  0.00    -0.550 OA
ENDBRANCH   4   5
ENDBRANCH   3   4
ENDBRANCH   2   3
ENDBRANCH   1   2
BRANCH   1   8
ATOM      8  C   UNL     1     185.681 180.147 199.909  1.00  0.00     0.000 C 
BRANCH   8   9
ATOM      9  C   UNL     1     185.799 180.213 201.436  1.00  0.00     0.000 C 
BRANCH   9  10
ATOM     10  C   UNL     1     184.413 180.301 202.092  1.00  0.00     0.006 C 
BRANCH  10  11
ATOM     11  C   UNL     1     183.356 180.883 201.145  1.00  0.00     0.053 C 
BRANCH  11  12
ATOM     12  C   UNL     1     182.787 182.165 201.670  1.00  0.00     0.041 C 
ATOM     13  O   UNL     1     183.549 183.059 202.123  1.00  0.00    -0.550 OA
ATOM     14  O   UNL     1     181.411 182.359 201.689  1.00  0.00    -0.550 OA
ENDBRANCH  11  12
ENDBRANCH  10  11
ENDBRANCH   9  10
ENDBRANCH   8   9
ENDBRANCH   1   8
TORSDOF 9
ENDMDL
MODEL 4
REMARK VINA RESULT:    -3.722      1.331      4.714
REMARK INTER + INTRA:          -6.366
REMARK INTER:                  -5.806
REMARK INTRA:                  -0.560
REMARK UNBOUND:                -0.686
REMARK SMILES O=C([O-])CCCCCCCCC(=O)[O-]
REMARK SMILES IDX 7 1 6 2 5 3 4 4 2 5 1 6 3 7 8 8 9 9 10 10 11 11 12 12 13 13
REMARK SMILES IDX 14 14
REMARK H PARENT
REMARK Flexibility Score: inf
ROOT
ATOM      1  C   UNL     1     183.307 181.144 201.245  1.00  0.00     0.000 C 
ENDROOT
BRANCH   1   2
ATOM      2  C   UNL     1     184.251 180.288 202.102  1.00  0.00     0.000 C 
BRANCH   2   3
ATOM      3  C   UNL     1     185.622 180.057 201.441  1.00  0.00     0.006 C 
BRANCH   3   4
ATOM      4  C   UNL     1     185.636 180.317 199.924  1.00  0.00     0.053 C 
BRANCH   4   5
ATOM      5  C   UNL     1     186.773 181.195 199.498  1.00  0.00     0.041 C 
ATOM      6  O   UNL     1     187.447 181.826 200.356  1.00  0.00    -0.550 OA
ATOM      7  O   UNL     1     187.110 181.295 198.154  1.00  0.00    -0.550 OA
ENDBRANCH   4   5
ENDBRANCH   3   4
ENDBRANCH   2   3
ENDBRANCH   1   2
BRANCH   1   8
ATOM      8  C   UNL     1     182.338 181.943 202.124  1.00  0.00     0.000 C 
BRANCH   8   9
ATOM      9  C   UNL     1     181.308 182.691 201.270  1.00  0.00     0.000 C 
BRANCH   9  10
ATOM     10  C   UNL     1     181.821 184.087 200.885  1.00  0.00     0.006 C 
BRANCH  10  11
ATOM     11  C   UNL     1     181.993 184.245 199.369  1.00  0.00     0.053 C 
BRANCH  11  12
ATOM     12  C   UNL     1     183.376 184.696 199.011  1.00  0.00     0.041 C 
ATOM     13  O   UNL     1     183.621 185.920 198.844  1.00  0.00    -0.550 OA
ATOM     14  O   UNL     1     184.387 183.760 198.830  1.00  0.00    -0.550 OA
ENDBRANCH  11  12
ENDBRANCH  10  11
ENDBRANCH   9  10
ENDBRANCH   8   9
ENDBRANCH   1   8
TORSDOF 9
ENDMDL
MODEL 5
REMARK VINA RESULT:    -3.705      2.292      3.560
REMARK INTER + INTRA:          -6.340
REMARK INTER:                  -5.542
REMARK INTRA:                  -0.798
REMARK UNBOUND:                -0.686
REMARK SMILES O=C([O-])CCCCCCCCC(=O)[O-]
REMARK SMILES IDX 7 1 6 2 5 3 4 4 2 5 1 6 3 7 8 8 9 9 10 10 11 11 12 12 13 13
REMARK SMILES IDX 14 14
REMARK H PARENT
REMARK Flexibility Score: inf
ROOT
ATOM      1  C   UNL     1     185.548 180.093 199.874  1.00  0.00     0.000 C 
ENDROOT
BRANCH   1   2
ATOM      2  C   UNL     1     184.982 180.192 201.298  1.00  0.00     0.000 C 
BRANCH   2   3
ATOM      3  C   UNL     1     183.581 180.829 201.347  1.00  0.00     0.006 C 
BRANCH   3   4
ATOM      4  C   UNL     1     183.526 182.158 202.122  1.00  0.00     0.053 C 
BRANCH   4   5
ATOM      5  C   UNL     1     182.279 182.940 201.841  1.00  0.00     0.041 C 
ATOM      6  O   UNL     1     182.262 184.190 202.002  1.00  0.00    -0.550 OA
ATOM      7  O   UNL     1     181.143 182.294 201.372  1.00  0.00    -0.550 OA
ENDBRANCH   4   5
ENDBRANCH   3   4
ENDBRANCH   2   3
ENDBRANCH   1   2
BRANCH   1   8
ATOM      8  C   UNL     1     186.801 180.963 199.718  1.00  0.00     0.000 C 
BRANCH   8   9
ATOM      9  C   UNL     1     186.673 181.902 198.512  1.00  0.00     0.000 C 
BRANCH   9  10
ATOM     10  C   UNL     1     185.572 182.947 198.743  1.00  0.00     0.006 C 
BRANCH  10  11
ATOM     11  C   UNL     1     185.961 183.976 199.812  1.00  0.00     0.053 C 
BRANCH  11  12
ATOM     12  C   UNL     1     186.357 185.286 199.202  1.00  0.00     0.041 C 
ATOM     13  O   UNL     1     186.694 186.252 199.938  1.00  0.00    -0.550 OA
ATOM     14  O   UNL     1     186.322 185.451 197.823  1.00  0.00    -0.550 OA
ENDBRANCH  11  12
ENDBRANCH  10  11
ENDBRANCH   9  10
ENDBRANCH   8   9
ENDBRANCH   1   8
TORSDOF 9
ENDMDL
MODEL 6
REMARK VINA RESULT:    -3.696     15.395     17.496
REMARK INTER + INTRA:          -6.326
REMARK INTER:                  -5.784
REMARK INTRA:                  -0.542
REMARK UNBOUND:                -0.686
REMARK SMILES O=C([O-])CCCCCCCCC(=O)[O-]
REMARK SMILES IDX 7 1 6 2 5 3 4 4 2 5 1 6 3 7 8 8 9 9 10 10 11 11 12 12 13 13
REMARK SMILES IDX 14 14
REMARK H PARENT
REMARK Flexibility Score: inf
ROOT
ATOM      1  C   UNL     1     193.676 198.031 200.548  1.00  0.00     0.000 C 
ENDROOT
BRANCH   1   2
ATOM      2  C   UNL     1     194.574 198.182 201.785  1.00  0.00     0.000 C 
BRANCH   2   3
ATOM      3  C   UNL     1     195.512 196.981 201.999  1.00  0.00     0.006 C 
BRANCH   3   4
ATOM      4  C   UNL     1     196.954 197.220 201.516  1.00  0.00     0.053 C 
BRANCH   4   5
ATOM      5  C   UNL     1     197.580 195.991 200.931  1.00  0.00     0.041 C 
ATOM      6  O   UNL     1     198.678 195.563 201.376  1.00  0.00    -0.550 OA
ATOM      7  O   UNL     1     196.937 195.300 199.912  1.00  0.00    -0.550 OA
ENDBRANCH   4   5
ENDBRANCH   3   4
ENDBRANCH   2   3
ENDBRANCH   1   2
BRANCH   1   8
ATOM      8  C   UNL     1     193.592 196.566 200.105  1.00  0.00     0.000 C 
BRANCH   8   9
ATOM      9  C   UNL     1     192.358 195.879 200.702  1.00  0.00     0.000 C 
BRANCH   9  10
ATOM     10  C   UNL     1     191.144 196.819 200.689  1.00  0.00     0.006 C 
BRANCH  10  11
ATOM     11  C   UNL     1     190.288 196.681 201.955  1.00  0.00     0.053 C 
BRANCH  11  12
ATOM     12  C   UNL     1     189.022 195.926 201.689  1.00  0.00     0.041 C 
ATOM     13  O   UNL     1     189.060 194.689 201.452  1.00  0.00    -0.550 OA
ATOM     14  O   UNL     1     187.804 196.593 201.671  1.00  0.00    -0.550 OA
ENDBRANCH  11  12
ENDBRANCH  10  11
ENDBRANCH   9  10
ENDBRANCH   8   9
ENDBRANCH   1   8
TORSDOF 9
ENDMDL
MODEL 7
REMARK VINA RESULT:    -3.691     15.552     17.456
REMARK INTER + INTRA:          -6.320
REMARK INTER:                  -5.261
REMARK INTRA:                  -1.059
REMARK UNBOUND:                -0.686
REMARK SMILES O=C([O-])CCCCCCCCC(=O)[O-]
REMARK SMILES IDX 7 1 6 2 5 3 4 4 2 5 1 6 3 7 8 8 9 9 10 10 11 11 12 12 13 13
REMARK SMILES IDX 14 14
REMARK H PARENT
REMARK Flexibility Score: inf
ROOT
ATOM      1  C   UNL     1     197.358 196.281 201.493  1.00  0.00     0.000 C 
ENDROOT
BRANCH   1   2
ATOM      2  C   UNL     1     197.275 194.770 201.759  1.00  0.00     0.000 C 
BRANCH   2   3
ATOM      3  C   UNL     1     195.832 194.273 201.964  1.00  0.00     0.006 C 
BRANCH   3   4
ATOM      4  C   UNL     1     195.280 193.456 200.783  1.00  0.00     0.053 C 
BRANCH   4   5
ATOM      5  C   UNL     1     194.357 194.251 199.910  1.00  0.00     0.041 C 
ATOM      6  O   UNL     1     194.813 195.148 199.153  1.00  0.00    -0.550 OA
ATOM      7  O   UNL     1     192.994 193.980 199.910  1.00  0.00    -0.550 OA
ENDBRANCH   4   5
ENDBRANCH   3   4
ENDBRANCH   2   3
ENDBRANCH   1   2
BRANCH   1   8
ATOM      8  C   UNL     1     196.070 196.988 201.929  1.00  0.00     0.000 C 
BRANCH   8   9
ATOM      9  C   UNL     1     195.752 198.171 201.007  1.00  0.00     0.000 C 
BRANCH   9  10
ATOM     10  C   UNL     1     194.246 198.255 200.718  1.00  0.00     0.006 C 
BRANCH  10  11
ATOM     11  C   UNL     1     193.420 197.388 201.677  1.00  0.00     0.053 C 
BRANCH  11  12
ATOM     12  C   UNL     1     192.049 197.116 201.137  1.00  0.00     0.041 C 
ATOM     13  O   UNL     1     191.646 197.708 200.102  1.00  0.00    -0.550 OA
ATOM     14  O   UNL     1     191.205 196.233 201.799  1.00  0.00    -0.550 OA
ENDBRANCH  11  12
ENDBRANCH  10  11
ENDBRANCH   9  10
ENDBRANCH   8   9
ENDBRANCH   1   8
TORSDOF 9
ENDMDL
MODEL 8
REMARK VINA RESULT:    -3.633     15.307     17.042
REMARK INTER + INTRA:          -6.231
REMARK INTER:                  -5.254
REMARK INTRA:                  -0.977
REMARK UNBOUND:                -0.686
REMARK SMILES O=C([O-])CCCCCCCCC(=O)[O-]
REMARK SMILES IDX 7 1 6 2 5 3 4 4 2 5 1 6 3 7 8 8 9 9 10 10 11 11 12 12 13 13
REMARK SMILES IDX 14 14
REMARK H PARENT
REMARK Flexibility Score: inf
ROOT
ATOM      1  C   UNL     1     195.725 194.739 201.188  1.00  0.00     0.000 C 
ENDROOT
BRANCH   1   2
ATOM      2  C   UNL     1     195.798 194.815 199.656  1.00  0.00     0.000 C 
BRANCH   2   3
ATOM      3  C   UNL     1     194.411 194.834 198.987  1.00  0.00     0.006 C 
BRANCH   3   4
ATOM      4  C   UNL     1     193.286 194.258 199.866  1.00  0.00     0.053 C 
BRANCH   4   5
ATOM      5  C   UNL     1     192.876 192.878 199.452  1.00  0.00     0.041 C 
ATOM      6  O   UNL     1     191.694 192.649 199.083  1.00  0.00    -0.550 OA
ATOM      7  O   UNL     1     193.808 191.848 199.444  1.00  0.00    -0.550 OA
ENDBRANCH   4   5
ENDBRANCH   3   4
ENDBRANCH   2   3
ENDBRANCH   1   2
BRANCH   1   8
ATOM      8  C   UNL     1     196.953 195.394 201.830  1.00  0.00     0.000 C 
BRANCH   8   9
ATOM      9  C   UNL     1     196.969 196.905 201.574  1.00  0.00     0.000 C 
BRANCH   9  10
ATOM     10  C   UNL     1     195.662 197.559 202.046  1.00  0.00     0.006 C 
BRANCH  10  11
ATOM     11  C   UNL     1     195.020 198.429 200.958  1.00  0.00     0.053 C 
BRANCH  11  12
ATOM     12  C   UNL     1     193.614 198.002 200.665  1.00  0.00     0.041 C 
ATOM     13  O   UNL     1     192.958 197.349 201.519  1.00  0.00    -0.550 OA
ATOM     14  O   UNL     1     193.041 198.298 199.435  1.00  0.00    -0.550 OA
ENDBRANCH  11  12
ENDBRANCH  10  11
ENDBRANCH   9  10
ENDBRANCH   8   9
ENDBRANCH   1   8
TORSDOF 9
ENDMDL
MODEL 9
REMARK VINA RESULT:    -3.264      1.559      4.400
REMARK INTER + INTRA:          -5.668
REMARK INTER:                  -4.878
REMARK INTRA:                  -0.790
REMARK UNBOUND:                -0.686
REMARK SMILES O=C([O-])CCCCCCCCC(=O)[O-]
REMARK SMILES IDX 7 1 6 2 5 3 4 4 2 5 1 6 3 7 8 8 9 9 10 10 11 11 12 12 13 13
REMARK SMILES IDX 14 14
REMARK H PARENT
REMARK Flexibility Score: inf
ROOT
ATOM      1  C   UNL     1     185.519 179.806 201.323  1.00  0.00     0.000 C 
ENDROOT
BRANCH   1   2
ATOM      2  C   UNL     1     185.417 180.226 199.849  1.00  0.00     0.000 C 
BRANCH   2   3
ATOM      3  C   UNL     1     186.574 181.137 199.400  1.00  0.00     0.006 C 
BRANCH   3   4
ATOM      4  C   UNL     1     186.680 182.450 200.197  1.00  0.00     0.053 C 
BRANCH   4   5
ATOM      5  C   UNL     1     185.781 183.524 199.665  1.00  0.00     0.041 C 
ATOM      6  O   UNL     1     184.958 183.268 198.746  1.00  0.00    -0.550 OA
ATOM      7  O   UNL     1     185.830 184.803 200.205  1.00  0.00    -0.550 OA
ENDBRANCH   4   5
ENDBRANCH   3   4
ENDBRANCH   2   3
ENDBRANCH   1   2
BRANCH   1   8
ATOM      8  C   UNL     1     184.316 180.315 202.125  1.00  0.00     0.000 C 
BRANCH   8   9
ATOM      9  C   UNL     1     183.364 181.124 201.237  1.00  0.00     0.000 C 
BRANCH   9  10
ATOM     10  C   UNL     1     182.429 181.999 202.085  1.00  0.00     0.006 C 
BRANCH  10  11
ATOM     11  C   UNL     1     182.864 183.469 202.102  1.00  0.00     0.053 C 
BRANCH  11  12
ATOM     12  C   UNL     1     181.979 184.319 201.242  1.00  0.00     0.041 C 
ATOM     13  O   UNL     1     181.236 185.192 201.764  1.00  0.00    -0.550 OA
ATOM     14  O   UNL     1     181.951 184.125 199.867  1.00  0.00    -0.550 OA
ENDBRANCH  11  12
ENDBRANCH  10  11
ENDBRANCH   9  10
ENDBRANCH   8   9
ENDBRANCH   1   8
TORSDOF 9
ENDMDL
