MODEL 1
REMARK VINA RESULT:    -3.346      0.000      0.000
REMARK INTER + INTRA:          -9.226
REMARK INTER:                  -6.476
REMARK INTRA:                  -2.751
REMARK UNBOUND:                -2.751
REMARK SMILES CCCCCCCCCCCCCCCCCC(=O)[O-]
REMARK SMILES IDX 10 1 11 2 12 3 13 4 14 5 15 6 16 7 17 8 18 9 19 10 20 11
REMARK SMILES IDX 9 12 8 13 7 14 6 15 5 16 4 17 3 18 2 19 1 20
REMARK H PARENT
REMARK Flexibility Score: inf
ROOT
ATOM      1  C   UNL     1     168.278 153.782 180.051  1.00  0.00     0.000 C 
ENDROOT
BRANCH   1   2
ATOM      2  C   UNL     1     166.795 153.706 180.466  1.00  0.00     0.000 C 
BRANCH   2   3
ATOM      3  C   UNL     1     166.010 155.028 180.344  1.00  0.00     0.000 C 
BRANCH   3   4
ATOM      4  C   UNL     1     166.405 155.912 179.146  1.00  0.00     0.000 C 
BRANCH   4   5
ATOM      5  C   UNL     1     165.192 156.570 178.466  1.00  0.00     0.000 C 
BRANCH   5   6
ATOM      6  C   UNL     1     164.000 155.609 178.326  1.00  0.00     0.000 C 
BRANCH   6   7
ATOM      7  C   UNL     1     163.142 155.907 177.084  1.00  0.00     0.006 C 
BRANCH   7   8
ATOM      8  C   UNL     1     163.493 157.261 176.450  1.00  0.00     0.053 C 
BRANCH   8   9
ATOM      9  C   UNL     1     162.325 158.199 176.459  1.00  0.00     0.041 C 
ATOM     10  O   UNL     1     162.088 158.908 177.472  1.00  0.00    -0.550 OA
ATOM     11  O   UNL     1     161.516 158.312 175.335  1.00  0.00    -0.550 OA
ENDBRANCH   8   9
ENDBRANCH   7   8
ENDBRANCH   6   7
ENDBRANCH   5   6
ENDBRANCH   4   5
ENDBRANCH   3   4
ENDBRANCH   2   3
ENDBRANCH   1   2
BRANCH   1  12
ATOM     12  C   UNL     1     168.815 152.526 179.340  1.00  0.00     0.000 C 
BRANCH  12  13
ATOM     13  C   UNL     1     167.708 151.505 179.021  1.00  0.00    -0.000 C 
BRANCH  13  14
ATOM     14  C   UNL     1     167.346 151.470 177.528  1.00  0.00    -0.000 C 
BRANCH  14  15
ATOM     15  C   UNL     1     166.074 152.276 177.210  1.00  0.00    -0.000 C 
BRANCH  15  16
ATOM     16  C   UNL     1     166.365 153.585 176.454  1.00  0.00    -0.000 C 
BRANCH  16  17
ATOM     17  C   UNL     1     167.827 153.779 176.013  1.00  0.00    -0.000 C 
BRANCH  17  18
ATOM     18  C   UNL     1     168.068 155.125 175.310  1.00  0.00    -0.000 C 
BRANCH  18  19
ATOM     19  C   UNL     1     166.818 156.018 175.303  1.00  0.00    -0.003 C 
ATOM     20  C   UNL     1     167.093 157.420 174.759  1.00  0.00     0.004 C 
ENDBRANCH  18  19
ENDBRANCH  17  18
ENDBRANCH  16  17
ENDBRANCH  15  16
ENDBRANCH  14  15
ENDBRANCH  13  14
ENDBRANCH  12  13
ENDBRANCH   1  12
TORSDOF 16
ENDMDL
MODEL 2
REMARK VINA RESULT:    -3.290      1.452      2.112
REMARK INTER + INTRA:          -9.118
REMARK INTER:                  -5.860
REMARK INTRA:                  -3.258
REMARK UNBOUND:                -2.751
REMARK SMILES CCCCCCCCCCCCCCCCCC(=O)[O-]
REMARK SMILES IDX 10 1 11 2 12 3 13 4 14 5 15 6 16 7 17 8 18 9 19 10 20 11
REMARK SMILES IDX 9 12 8 13 7 14 6 15 5 16 4 17 3 18 2 19 1 20
REMARK H PARENT
REMARK Flexibility Score: inf
ROOT
ATOM      1  C   UNL     1     167.306 152.363 179.819  1.00  0.00     0.000 C 
ENDROOT
BRANCH   1   2
ATOM      2  C   UNL     1     168.258 153.558 180.025  1.00  0.00     0.000 C 
BRANCH   2   3
ATOM      3  C   UNL     1     167.590 154.947 179.976  1.00  0.00     0.000 C 
BRANCH   3   4
ATOM      4  C   UNL     1     166.052 154.929 179.900  1.00  0.00     0.000 C 
BRANCH   4   5
ATOM      5  C   UNL     1     165.477 156.150 179.163  1.00  0.00     0.000 C 
BRANCH   5   6
ATOM      6  C   UNL     1     166.476 156.765 178.169  1.00  0.00     0.000 C 
BRANCH   6   7
ATOM      7  C   UNL     1     165.786 157.605 177.080  1.00  0.00     0.006 C 
BRANCH   7   8
ATOM      8  C   UNL     1     164.903 156.749 176.163  1.00  0.00     0.053 C 
BRANCH   8   9
ATOM      9  C   UNL     1     163.478 157.213 176.171  1.00  0.00     0.041 C 
ATOM     10  O   UNL     1     162.639 156.672 176.938  1.00  0.00    -0.550 OA
ATOM     11  O   UNL     1     163.084 158.264 175.352  1.00  0.00    -0.550 OA
ENDBRANCH   8   9
ENDBRANCH   7   8
ENDBRANCH   6   7
ENDBRANCH   5   6
ENDBRANCH   4   5
ENDBRANCH   3   4
ENDBRANCH   2   3
ENDBRANCH   1   2
BRANCH   1  12
ATOM     12  C   UNL     1     167.859 151.243 178.920  1.00  0.00     0.000 C 
BRANCH  12  13
ATOM     13  C   UNL     1     167.418 151.386 177.453  1.00  0.00    -0.000 C 
BRANCH  13  14
ATOM     14  C   UNL     1     166.122 152.197 177.300  1.00  0.00    -0.000 C 
BRANCH  14  15
ATOM     15  C   UNL     1     166.330 153.498 176.506  1.00  0.00    -0.000 C 
BRANCH  15  16
ATOM     16  C   UNL     1     167.816 153.822 176.262  1.00  0.00    -0.000 C 
BRANCH  16  17
ATOM     17  C   UNL     1     168.085 154.948 175.247  1.00  0.00    -0.000 C 
BRANCH  17  18
ATOM     18  C   UNL     1     169.184 155.920 175.707  1.00  0.00    -0.000 C 
BRANCH  18  19
ATOM     19  C   UNL     1     169.872 155.462 177.002  1.00  0.00    -0.003 C 
ATOM     20  C   UNL     1     170.223 156.624 177.931  1.00  0.00     0.004 C 
ENDBRANCH  18  19
ENDBRANCH  17  18
ENDBRANCH  16  17
ENDBRANCH  15  16
ENDBRANCH  14  15
ENDBRANCH  13  14
ENDBRANCH  12  13
ENDBRANCH   1  12
TORSDOF 16
ENDMDL
MODEL 3
REMARK VINA RESULT:    -3.265      1.233      3.066
REMARK INTER + INTRA:          -9.070
REMARK INTER:                  -6.340
REMARK INTRA:                  -2.730
REMARK UNBOUND:                -2.751
REMARK SMILES CCCCCCCCCCCCCCCCCC(=O)[O-]
REMARK SMILES IDX 10 1 11 2 12 3 13 4 14 5 15 6 16 7 17 8 18 9 19 10 20 11
REMARK SMILES IDX 9 12 8 13 7 14 6 15 5 16 4 17 3 18 2 19 1 20
REMARK H PARENT
REMARK Flexibility Score: inf
ROOT
ATOM      1  C   UNL     1     167.087 151.476 177.231  1.00  0.00     0.000 C 
ENDROOT
BRANCH   1   2
ATOM      2  C   UNL     1     167.678 151.242 178.634  1.00  0.00     0.000 C 
BRANCH   2   3
ATOM      3  C   UNL     1     168.283 152.488 179.310  1.00  0.00     0.000 C 
BRANCH   3   4
ATOM      4  C   UNL     1     167.333 153.240 180.261  1.00  0.00     0.000 C 
BRANCH   4   5
ATOM      5  C   UNL     1     167.157 154.720 179.882  1.00  0.00     0.000 C 
BRANCH   5   6
ATOM      6  C   UNL     1     165.737 155.237 180.162  1.00  0.00     0.000 C 
BRANCH   6   7
ATOM      7  C   UNL     1     165.241 156.218 179.084  1.00  0.00     0.006 C 
BRANCH   7   8
ATOM      8  C   UNL     1     164.035 155.667 178.312  1.00  0.00     0.053 C 
BRANCH   8   9
ATOM      9  C   UNL     1     162.899 156.644 178.282  1.00  0.00     0.041 C 
ATOM     10  O   UNL     1     162.641 157.349 179.293  1.00  0.00    -0.550 OA
ATOM     11  O   UNL     1     162.144 156.797 177.125  1.00  0.00    -0.550 OA
ENDBRANCH   8   9
ENDBRANCH   7   8
ENDBRANCH   6   7
ENDBRANCH   5   6
ENDBRANCH   4   5
ENDBRANCH   3   4
ENDBRANCH   2   3
ENDBRANCH   1   2
BRANCH   1  12
ATOM     12  C   UNL     1     165.948 152.511 177.173  1.00  0.00     0.000 C 
BRANCH  12  13
ATOM     13  C   UNL     1     166.327 153.767 176.368  1.00  0.00    -0.000 C 
BRANCH  13  14
ATOM     14  C   UNL     1     167.767 153.715 175.834  1.00  0.00    -0.000 C 
BRANCH  14  15
ATOM     15  C   UNL     1     168.313 155.108 175.475  1.00  0.00    -0.000 C 
BRANCH  15  16
ATOM     16  C   UNL     1     168.154 156.129 176.617  1.00  0.00    -0.000 C 
BRANCH  16  17
ATOM     17  C   UNL     1     167.265 157.343 176.294  1.00  0.00    -0.000 C 
BRANCH  17  18
ATOM     18  C   UNL     1     167.130 157.604 174.784  1.00  0.00    -0.000 C 
BRANCH  18  19
ATOM     19  C   UNL     1     165.669 157.789 174.346  1.00  0.00    -0.003 C 
ATOM     20  C   UNL     1     164.773 156.624 174.767  1.00  0.00     0.004 C 
ENDBRANCH  18  19
ENDBRANCH  17  18
ENDBRANCH  16  17
ENDBRANCH  15  16
ENDBRANCH  14  15
ENDBRANCH  13  14
ENDBRANCH  12  13
ENDBRANCH   1  12
TORSDOF 16
ENDMDL
MODEL 4
REMARK VINA RESULT:    -3.240      1.671      4.315
REMARK INTER + INTRA:          -9.022
REMARK INTER:                  -6.149
REMARK INTRA:                  -2.873
REMARK UNBOUND:                -2.751
REMARK SMILES CCCCCCCCCCCCCCCCCC(=O)[O-]
REMARK SMILES IDX 10 1 11 2 12 3 13 4 14 5 15 6 16 7 17 8 18 9 19 10 20 11
REMARK SMILES IDX 9 12 8 13 7 14 6 15 5 16 4 17 3 18 2 19 1 20
REMARK H PARENT
REMARK Flexibility Score: inf
ROOT
ATOM      1  C   UNL     1     167.701 151.968 179.721  1.00  0.00     0.000 C 
ENDROOT
BRANCH   1   2
ATOM      2  C   UNL     1     167.532 150.905 178.619  1.00  0.00     0.000 C 
BRANCH   2   3
ATOM      3  C   UNL     1     167.118 151.449 177.237  1.00  0.00     0.000 C 
BRANCH   3   4
ATOM      4  C   UNL     1     165.970 152.476 177.259  1.00  0.00     0.000 C 
BRANCH   4   5
ATOM      5  C   UNL     1     166.355 153.813 176.602  1.00  0.00     0.000 C 
BRANCH   5   6
ATOM      6  C   UNL     1     167.754 153.779 175.966  1.00  0.00     0.000 C 
BRANCH   6   7
ATOM      7  C   UNL     1     168.134 155.113 175.299  1.00  0.00     0.006 C 
BRANCH   7   8
ATOM      8  C   UNL     1     167.825 156.317 176.199  1.00  0.00     0.053 C 
BRANCH   8   9
ATOM      9  C   UNL     1     166.882 157.277 175.540  1.00  0.00     0.041 C 
ATOM     10  O   UNL     1     166.098 156.879 174.639  1.00  0.00    -0.550 OA
ATOM     11  O   UNL     1     166.849 158.607 175.943  1.00  0.00    -0.550 OA
ENDBRANCH   8   9
ENDBRANCH   7   8
ENDBRANCH   6   7
ENDBRANCH   5   6
ENDBRANCH   4   5
ENDBRANCH   3   4
ENDBRANCH   2   3
ENDBRANCH   1   2
BRANCH   1  12
ATOM     12  C   UNL     1     168.797 153.015 179.448  1.00  0.00     0.000 C 
BRANCH  12  13
ATOM     13  C   UNL     1     168.351 154.446 179.799  1.00  0.00    -0.000 C 
BRANCH  13  14
ATOM     14  C   UNL     1     167.246 154.477 180.866  1.00  0.00    -0.000 C 
BRANCH  14  15
ATOM     15  C   UNL     1     165.931 155.074 180.337  1.00  0.00    -0.000 C 
BRANCH  15  16
ATOM     16  C   UNL     1     166.150 156.284 179.411  1.00  0.00    -0.000 C 
BRANCH  16  17
ATOM     17  C   UNL     1     164.886 156.814 178.710  1.00  0.00    -0.000 C 
BRANCH  17  18
ATOM     18  C   UNL     1     163.828 155.723 178.476  1.00  0.00    -0.000 C 
BRANCH  18  19
ATOM     19  C   UNL     1     162.947 156.011 177.250  1.00  0.00    -0.003 C 
ATOM     20  C   UNL     1     163.258 157.358 176.599  1.00  0.00     0.004 C 
ENDBRANCH  18  19
ENDBRANCH  17  18
ENDBRANCH  16  17
ENDBRANCH  15  16
ENDBRANCH  14  15
ENDBRANCH  13  14
ENDBRANCH  12  13
ENDBRANCH   1  12
TORSDOF 16
ENDMDL
MODEL 5
REMARK VINA RESULT:    -3.231      1.484      2.113
REMARK INTER + INTRA:          -9.003
REMARK INTER:                  -6.229
REMARK INTRA:                  -2.775
REMARK UNBOUND:                -2.751
REMARK SMILES CCCCCCCCCCCCCCCCCC(=O)[O-]
REMARK SMILES IDX 10 1 11 2 12 3 13 4 14 5 15 6 16 7 17 8 18 9 19 10 20 11
REMARK SMILES IDX 9 12 8 13 7 14 6 15 5 16 4 17 3 18 2 19 1 20
REMARK H PARENT
REMARK Flexibility Score: inf
ROOT
ATOM      1  C   UNL     1     167.601 154.996 179.983  1.00  0.00     0.000 C 
ENDROOT
BRANCH   1   2
ATOM      2  C   UNL     1     166.103 154.915 180.339  1.00  0.00     0.000 C 
BRANCH   2   3
ATOM      3  C   UNL     1     165.148 155.546 179.306  1.00  0.00     0.000 C 
BRANCH   3   4
ATOM      4  C   UNL     1     165.734 156.728 178.512  1.00  0.00     0.000 C 
BRANCH   4   5
ATOM      5  C   UNL     1     164.942 157.036 177.230  1.00  0.00     0.000 C 
BRANCH   5   6
ATOM      6  C   UNL     1     163.693 156.153 177.080  1.00  0.00     0.000 C 
BRANCH   6   7
ATOM      7  C   UNL     1     162.402 156.975 176.920  1.00  0.00     0.006 C 
BRANCH   7   8
ATOM      8  C   UNL     1     162.091 157.811 178.169  1.00  0.00     0.053 C 
BRANCH   8   9
ATOM      9  C   UNL     1     160.666 157.653 178.605  1.00  0.00     0.041 C 
ATOM     10  O   UNL     1     159.728 157.838 177.786  1.00  0.00    -0.550 OA
ATOM     11  O   UNL     1     160.377 157.270 179.909  1.00  0.00    -0.550 OA
ENDBRANCH   8   9
ENDBRANCH   7   8
ENDBRANCH   6   7
ENDBRANCH   5   6
ENDBRANCH   4   5
ENDBRANCH   3   4
ENDBRANCH   2   3
ENDBRANCH   1   2
BRANCH   1  12
ATOM     12  C   UNL     1     168.335 153.642 179.965  1.00  0.00     0.000 C 
BRANCH  12  13
ATOM     13  C   UNL     1     167.372 152.447 179.856  1.00  0.00    -0.000 C 
BRANCH  13  14
ATOM     14  C   UNL     1     167.914 151.329 178.953  1.00  0.00    -0.000 C 
BRANCH  14  15
ATOM     15  C   UNL     1     167.563 151.545 177.471  1.00  0.00    -0.000 C 
BRANCH  15  16
ATOM     16  C   UNL     1     166.241 152.308 177.271  1.00  0.00    -0.000 C 
BRANCH  16  17
ATOM     17  C   UNL     1     166.359 153.641 176.509  1.00  0.00    -0.000 C 
BRANCH  17  18
ATOM     18  C   UNL     1     167.745 153.850 175.878  1.00  0.00    -0.000 C 
BRANCH  18  19
ATOM     19  C   UNL     1     168.257 155.289 176.046  1.00  0.00    -0.003 C 
ATOM     20  C   UNL     1     169.535 155.370 176.881  1.00  0.00     0.004 C 
ENDBRANCH  18  19
ENDBRANCH  17  18
ENDBRANCH  16  17
ENDBRANCH  15  16
ENDBRANCH  14  15
ENDBRANCH  13  14
ENDBRANCH  12  13
ENDBRANCH   1  12
TORSDOF 16
ENDMDL
MODEL 6
REMARK VINA RESULT:    -3.225      3.173      6.306
REMARK INTER + INTRA:          -8.993
REMARK INTER:                  -6.144
REMARK INTRA:                  -2.849
REMARK UNBOUND:                -2.751
REMARK SMILES CCCCCCCCCCCCCCCCCC(=O)[O-]
REMARK SMILES IDX 10 1 11 2 12 3 13 4 14 5 15 6 16 7 17 8 18 9 19 10 20 11
REMARK SMILES IDX 9 12 8 13 7 14 6 15 5 16 4 17 3 18 2 19 1 20
REMARK H PARENT
REMARK Flexibility Score: inf
ROOT
ATOM      1  C   UNL     1     168.266 156.353 175.655  1.00  0.00     0.000 C 
ENDROOT
BRANCH   1   2
ATOM      2  C   UNL     1     168.643 155.013 176.317  1.00  0.00     0.000 C 
BRANCH   2   3
ATOM      3  C   UNL     1     167.780 153.806 175.898  1.00  0.00     0.000 C 
BRANCH   3   4
ATOM      4  C   UNL     1     166.364 153.777 176.504  1.00  0.00     0.000 C 
BRANCH   4   5
ATOM      5  C   UNL     1     166.047 152.450 177.215  1.00  0.00     0.000 C 
BRANCH   5   6
ATOM      6  C   UNL     1     167.232 151.471 177.195  1.00  0.00     0.000 C 
BRANCH   6   7
ATOM      7  C   UNL     1     167.654 151.025 178.606  1.00  0.00     0.006 C 
BRANCH   7   8
ATOM      8  C   UNL     1     167.701 152.198 179.593  1.00  0.00     0.053 C 
BRANCH   8   9
ATOM      9  C   UNL     1     168.950 153.010 179.434  1.00  0.00     0.041 C 
ATOM     10  O   UNL     1     168.969 154.221 179.780  1.00  0.00    -0.550 OA
ATOM     11  O   UNL     1     170.104 152.420 178.931  1.00  0.00    -0.550 OA
ENDBRANCH   8   9
ENDBRANCH   7   8
ENDBRANCH   6   7
ENDBRANCH   5   6
ENDBRANCH   4   5
ENDBRANCH   3   4
ENDBRANCH   2   3
ENDBRANCH   1   2
BRANCH   1  12
ATOM     12  C   UNL     1     167.553 157.354 176.582  1.00  0.00     0.000 C 
BRANCH  12  13
ATOM     13  C   UNL     1     166.359 158.047 175.901  1.00  0.00    -0.000 C 
BRANCH  13  14
ATOM     14  C   UNL     1     165.754 157.206 174.766  1.00  0.00    -0.000 C 
BRANCH  14  15
ATOM     15  C   UNL     1     164.435 156.527 175.173  1.00  0.00    -0.000 C 
BRANCH  15  16
ATOM     16  C   UNL     1     163.479 157.472 175.924  1.00  0.00    -0.000 C 
BRANCH  16  17
ATOM     17  C   UNL     1     162.905 156.917 177.240  1.00  0.00    -0.000 C 
BRANCH  17  18
ATOM     18  C   UNL     1     163.805 155.849 177.885  1.00  0.00    -0.000 C 
BRANCH  18  19
ATOM     19  C   UNL     1     164.776 156.444 178.916  1.00  0.00    -0.003 C 
ATOM     20  C   UNL     1     165.561 155.375 179.676  1.00  0.00     0.004 C 
ENDBRANCH  18  19
ENDBRANCH  17  18
ENDBRANCH  16  17
ENDBRANCH  15  16
ENDBRANCH  14  15
ENDBRANCH  13  14
ENDBRANCH  12  13
ENDBRANCH   1  12
TORSDOF 16
ENDMDL
MODEL 7
REMARK VINA RESULT:    -3.206      1.655      3.091
REMARK INTER + INTRA:          -8.957
REMARK INTER:                  -5.991
REMARK INTRA:                  -2.966
REMARK UNBOUND:                -2.751
REMARK SMILES CCCCCCCCCCCCCCCCCC(=O)[O-]
REMARK SMILES IDX 10 1 11 2 12 3 13 4 14 5 15 6 16 7 17 8 18 9 19 10 20 11
REMARK SMILES IDX 9 12 8 13 7 14 6 15 5 16 4 17 3 18 2 19 1 20
REMARK H PARENT
REMARK Flexibility Score: inf
ROOT
ATOM      1  C   UNL     1     168.324 151.966 177.308  1.00  0.00     0.000 C 
ENDROOT
BRANCH   1   2
ATOM      2  C   UNL     1     166.824 151.615 177.339  1.00  0.00     0.000 C 
BRANCH   2   3
ATOM      3  C   UNL     1     165.868 152.784 177.027  1.00  0.00     0.000 C 
BRANCH   3   4
ATOM      4  C   UNL     1     166.515 153.978 176.300  1.00  0.00     0.000 C 
BRANCH   4   5
ATOM      5  C   UNL     1     165.616 155.227 176.288  1.00  0.00     0.000 C 
BRANCH   5   6
ATOM      6  C   UNL     1     164.484 155.149 177.326  1.00  0.00     0.000 C 
BRANCH   6   7
ATOM      7  C   UNL     1     164.127 156.525 177.915  1.00  0.00     0.006 C 
BRANCH   7   8
ATOM      8  C   UNL     1     162.668 156.590 178.388  1.00  0.00     0.053 C 
BRANCH   8   9
ATOM      9  C   UNL     1     161.771 157.186 177.346  1.00  0.00     0.041 C 
ATOM     10  O   UNL     1     162.229 157.493 176.215  1.00  0.00    -0.550 OA
ATOM     11  O   UNL     1     160.421 157.374 177.616  1.00  0.00    -0.550 OA
ENDBRANCH   8   9
ENDBRANCH   7   8
ENDBRANCH   6   7
ENDBRANCH   5   6
ENDBRANCH   4   5
ENDBRANCH   3   4
ENDBRANCH   2   3
ENDBRANCH   1   2
BRANCH   1  12
ATOM     12  C   UNL     1     169.008 152.004 178.686  1.00  0.00     0.000 C 
BRANCH  12  13
ATOM     13  C   UNL     1     168.005 151.901 179.850  1.00  0.00    -0.000 C 
BRANCH  13  14
ATOM     14  C   UNL     1     167.901 153.203 180.659  1.00  0.00    -0.000 C 
BRANCH  14  15
ATOM     15  C   UNL     1     166.769 154.118 180.160  1.00  0.00    -0.000 C 
BRANCH  15  16
ATOM     16  C   UNL     1     167.261 155.525 179.771  1.00  0.00    -0.000 C 
BRANCH  16  17
ATOM     17  C   UNL     1     168.722 155.602 179.294  1.00  0.00    -0.000 C 
BRANCH  17  18
ATOM     18  C   UNL     1     168.862 156.193 177.881  1.00  0.00    -0.000 C 
BRANCH  18  19
ATOM     19  C   UNL     1     169.867 155.417 177.015  1.00  0.00    -0.003 C 
ATOM     20  C   UNL     1     171.091 154.950 177.802  1.00  0.00     0.004 C 
ENDBRANCH  18  19
ENDBRANCH  17  18
ENDBRANCH  16  17
ENDBRANCH  15  16
ENDBRANCH  14  15
ENDBRANCH  13  14
ENDBRANCH  12  13
ENDBRANCH   1  12
TORSDOF 16
ENDMDL
MODEL 8
REMARK VINA RESULT:    -3.194      2.894      4.867
REMARK INTER + INTRA:          -8.932
REMARK INTER:                  -6.049
REMARK INTRA:                  -2.883
REMARK UNBOUND:                -2.751
REMARK SMILES CCCCCCCCCCCCCCCCCC(=O)[O-]
REMARK SMILES IDX 10 1 11 2 12 3 13 4 14 5 15 6 16 7 17 8 18 9 19 10 20 11
REMARK SMILES IDX 9 12 8 13 7 14 6 15 5 16 4 17 3 18 2 19 1 20
REMARK H PARENT
REMARK Flexibility Score: inf
ROOT
ATOM      1  C   UNL     1     168.152 152.353 180.591  1.00  0.00     0.000 C 
ENDROOT
BRANCH   1   2
ATOM      2  C   UNL     1     168.597 151.671 179.282  1.00  0.00     0.000 C 
BRANCH   2   3
ATOM      3  C   UNL     1     167.497 150.882 178.545  1.00  0.00     0.000 C 
BRANCH   3   4
ATOM      4  C   UNL     1     167.057 151.482 177.196  1.00  0.00     0.000 C 
BRANCH   4   5
ATOM      5  C   UNL     1     166.036 152.621 177.355  1.00  0.00     0.000 C 
BRANCH   5   6
ATOM      6  C   UNL     1     166.341 153.819 176.441  1.00  0.00     0.000 C 
BRANCH   6   7
ATOM      7  C   UNL     1     167.821 153.886 176.026  1.00  0.00     0.006 C 
BRANCH   7   8
ATOM      8  C   UNL     1     168.625 154.850 176.909  1.00  0.00     0.053 C 
BRANCH   8   9
ATOM      9  C   UNL     1     169.444 155.802 176.092  1.00  0.00     0.041 C 
ATOM     10  O   UNL     1     169.171 155.993 174.878  1.00  0.00    -0.550 OA
ATOM     11  O   UNL     1     170.491 156.501 176.680  1.00  0.00    -0.550 OA
ENDBRANCH   8   9
ENDBRANCH   7   8
ENDBRANCH   6   7
ENDBRANCH   5   6
ENDBRANCH   4   5
ENDBRANCH   3   4
ENDBRANCH   2   3
ENDBRANCH   1   2
BRANCH   1  12
ATOM     12  C   UNL     1     167.881 153.864 180.473  1.00  0.00     0.000 C 
BRANCH  12  13
ATOM     13  C   UNL     1     166.382 154.189 180.343  1.00  0.00    -0.000 C 
BRANCH  13  14
ATOM     14  C   UNL     1     166.126 155.642 179.911  1.00  0.00    -0.000 C 
BRANCH  14  15
ATOM     15  C   UNL     1     164.697 155.857 179.382  1.00  0.00    -0.000 C 
BRANCH  15  16
ATOM     16  C   UNL     1     164.647 156.764 178.139  1.00  0.00    -0.000 C 
BRANCH  16  17
ATOM     17  C   UNL     1     165.950 157.519 177.822  1.00  0.00    -0.000 C 
BRANCH  17  18
ATOM     18  C   UNL     1     166.196 157.686 176.313  1.00  0.00    -0.000 C 
BRANCH  18  19
ATOM     19  C   UNL     1     164.890 157.742 175.507  1.00  0.00    -0.003 C 
ATOM     20  C   UNL     1     164.771 156.606 174.491  1.00  0.00     0.004 C 
ENDBRANCH  18  19
ENDBRANCH  17  18
ENDBRANCH  16  17
ENDBRANCH  15  16
ENDBRANCH  14  15
ENDBRANCH  13  14
ENDBRANCH  12  13
ENDBRANCH   1  12
TORSDOF 16
ENDMDL
MODEL 9
REMARK VINA RESULT:    -3.173      1.225      3.484
REMARK INTER + INTRA:          -8.891
REMARK INTER:                  -5.932
REMARK INTRA:                  -2.959
REMARK UNBOUND:                -2.751
REMARK SMILES CCCCCCCCCCCCCCCCCC(=O)[O-]
REMARK SMILES IDX 10 1 11 2 12 3 13 4 14 5 15 6 16 7 17 8 18 9 19 10 20 11
REMARK SMILES IDX 9 12 8 13 7 14 6 15 5 16 4 17 3 18 2 19 1 20
REMARK H PARENT
REMARK Flexibility Score: inf
ROOT
ATOM      1  C   UNL     1     166.831 156.306 175.590  1.00  0.00     0.000 C 
ENDROOT
BRANCH   1   2
ATOM      2  C   UNL     1     167.672 156.711 176.817  1.00  0.00     0.000 C 
BRANCH   2   3
ATOM      3  C   UNL     1     166.863 157.161 178.049  1.00  0.00     0.000 C 
BRANCH   3   4
ATOM      4  C   UNL     1     166.846 156.160 179.219  1.00  0.00     0.000 C 
BRANCH   4   5
ATOM      5  C   UNL     1     165.467 155.512 179.431  1.00  0.00     0.000 C 
BRANCH   5   6
ATOM      6  C   UNL     1     164.313 156.421 178.977  1.00  0.00     0.000 C 
BRANCH   6   7
ATOM      7  C   UNL     1     163.412 155.751 177.924  1.00  0.00     0.006 C 
BRANCH   7   8
ATOM      8  C   UNL     1     162.396 156.733 177.324  1.00  0.00     0.053 C 
BRANCH   8   9
ATOM      9  C   UNL     1     163.062 157.781 176.486  1.00  0.00     0.041 C 
ATOM     10  O   UNL     1     163.524 157.488 175.352  1.00  0.00    -0.550 OA
ATOM     11  O   UNL     1     163.144 159.090 176.945  1.00  0.00    -0.550 OA
ENDBRANCH   8   9
ENDBRANCH   7   8
ENDBRANCH   6   7
ENDBRANCH   5   6
ENDBRANCH   4   5
ENDBRANCH   3   4
ENDBRANCH   2   3
ENDBRANCH   1   2
BRANCH   1  12
ATOM     12  C   UNL     1     166.046 154.991 175.750  1.00  0.00     0.000 C 
BRANCH  12  13
ATOM     13  C   UNL     1     166.935 153.822 176.212  1.00  0.00    -0.000 C 
BRANCH  13  14
ATOM     14  C   UNL     1     166.197 152.851 177.147  1.00  0.00    -0.000 C 
BRANCH  14  15
ATOM     15  C   UNL     1     166.865 151.467 177.206  1.00  0.00    -0.000 C 
BRANCH  15  16
ATOM     16  C   UNL     1     167.650 151.233 178.510  1.00  0.00    -0.000 C 
BRANCH  16  17
ATOM     17  C   UNL     1     167.445 152.299 179.602  1.00  0.00    -0.000 C 
BRANCH  17  18
ATOM     18  C   UNL     1     168.735 153.061 179.947  1.00  0.00    -0.000 C 
BRANCH  18  19
ATOM     19  C   UNL     1     169.797 152.951 178.842  1.00  0.00    -0.003 C 
ATOM     20  C   UNL     1     170.080 154.287 178.155  1.00  0.00     0.004 C 
ENDBRANCH  18  19
ENDBRANCH  17  18
ENDBRANCH  16  17
ENDBRANCH  15  16
ENDBRANCH  14  15
ENDBRANCH  13  14
ENDBRANCH  12  13
ENDBRANCH   1  12
TORSDOF 16
ENDMDL
