MODEL 1
REMARK VINA RESULT:    -5.192      0.000      0.000
REMARK INTER + INTRA:         -10.982
REMARK INTER:                  -9.442
REMARK INTRA:                  -1.541
REMARK UNBOUND:                -1.541
REMARK SMILES CCCCCC=CCC=CCCCCCCCC(=O)[O-]
REMARK SMILES IDX 11 1 12 2 13 3 14 4 15 5 16 6 17 7 18 8 19 9 20 10 10 11
REMARK SMILES IDX 9 12 8 13 7 14 6 15 5 16 4 17 3 18 2 19 1 20
REMARK H PARENT
REMARK Flexibility Score: inf
ROOT
ATOM      1  C   UNL     1       4.277 -12.229 -15.314  1.00  0.00     0.027 C 
ENDROOT
BRANCH   1   2
ATOM      2  C   UNL     1       4.353 -10.801 -14.748  1.00  0.00     0.004 C 
BRANCH   2   3
ATOM      3  C   UNL     1       4.254  -9.690 -15.810  1.00  0.00     0.000 C 
BRANCH   3   4
ATOM      4  C   UNL     1       3.053  -9.866 -16.751  1.00  0.00     0.000 C 
BRANCH   4   5
ATOM      5  C   UNL     1       3.462  -9.624 -18.211  1.00  0.00     0.000 C 
BRANCH   5   6
ATOM      6  C   UNL     1       3.565 -10.927 -19.021  1.00  0.00     0.006 C 
BRANCH   6   7
ATOM      7  C   UNL     1       5.015 -11.390 -19.216  1.00  0.00     0.053 C 
BRANCH   7   8
ATOM      8  C   UNL     1       5.647 -10.654 -20.354  1.00  0.00     0.041 C 
ATOM      9  O   UNL     1       6.902 -10.602 -20.453  1.00  0.00    -0.550 OA
ATOM     10  O   UNL     1       4.856  -9.980 -21.273  1.00  0.00    -0.550 OA
ENDBRANCH   7   8
ENDBRANCH   6   7
ENDBRANCH   5   6
ENDBRANCH   4   5
ENDBRANCH   3   4
ENDBRANCH   2   3
ENDBRANCH   1   2
BRANCH   1  11
ATOM     11  C   UNL     1       2.968 -12.907 -14.991  1.00  0.00    -0.031 C 
ATOM     12  C   UNL     1       2.189 -13.536 -15.890  1.00  0.00    -0.027 C 
BRANCH  12  13
ATOM     13  C   UNL     1       2.538 -13.725 -17.344  1.00  0.00     0.054 C 
BRANCH  13  14
ATOM     14  C   UNL     1       1.337 -14.148 -18.144  1.00  0.00    -0.027 C 
ATOM     15  C   UNL     1       0.731 -15.326 -17.933  1.00  0.00    -0.031 C 
BRANCH  15  16
ATOM     16  C   UNL     1      -0.470 -15.749 -18.734  1.00  0.00     0.027 C 
BRANCH  16  17
ATOM     17  C   UNL     1      -0.413 -17.244 -19.068  1.00  0.00     0.004 C 
BRANCH  17  18
ATOM     18  C   UNL     1       0.861 -17.885 -18.504  1.00  0.00     0.000 C 
BRANCH  18  19
ATOM     19  C   UNL     1       0.598 -19.328 -18.056  1.00  0.00    -0.003 C 
ATOM     20  C   UNL     1       1.524 -19.726 -16.911  1.00  0.00     0.004 C 
ENDBRANCH  18  19
ENDBRANCH  17  18
ENDBRANCH  16  17
ENDBRANCH  15  16
ENDBRANCH  13  14
ENDBRANCH  12  13
ENDBRANCH   1  11
TORSDOF 14
ENDMDL
MODEL 2
REMARK VINA RESULT:    -4.880      0.992      2.276
REMARK INTER + INTRA:         -10.414
REMARK INTER:                  -9.003
REMARK INTRA:                  -1.411
REMARK UNBOUND:                -1.541
REMARK SMILES CCCCCC=CCC=CCCCCCCCC(=O)[O-]
REMARK SMILES IDX 11 1 12 2 13 3 14 4 15 5 16 6 17 7 18 8 19 9 20 10 10 11
REMARK SMILES IDX 9 12 8 13 7 14 6 15 5 16 4 17 3 18 2 19 1 20
REMARK H PARENT
REMARK Flexibility Score: inf
ROOT
ATOM      1  C   UNL     1       2.016 -13.490 -15.760  1.00  0.00     0.027 C 
ENDROOT
BRANCH   1   2
ATOM      2  C   UNL     1       3.025 -12.796 -14.830  1.00  0.00     0.004 C 
BRANCH   2   3
ATOM      3  C   UNL     1       4.402 -12.532 -15.469  1.00  0.00     0.000 C 
BRANCH   3   4
ATOM      4  C   UNL     1       4.674 -11.041 -15.711  1.00  0.00     0.000 C 
BRANCH   4   5
ATOM      5  C   UNL     1       3.385 -10.306 -16.105  1.00  0.00     0.000 C 
BRANCH   5   6
ATOM      6  C   UNL     1       3.527  -9.521 -17.419  1.00  0.00     0.006 C 
BRANCH   6   7
ATOM      7  C   UNL     1       3.125 -10.347 -18.648  1.00  0.00     0.053 C 
BRANCH   7   8
ATOM      8  C   UNL     1       4.328 -10.664 -19.478  1.00  0.00     0.041 C 
ATOM      9  O   UNL     1       5.155 -11.529 -19.087  1.00  0.00    -0.550 OA
ATOM     10  O   UNL     1       4.565  -9.967 -20.655  1.00  0.00    -0.550 OA
ENDBRANCH   7   8
ENDBRANCH   6   7
ENDBRANCH   5   6
ENDBRANCH   4   5
ENDBRANCH   3   4
ENDBRANCH   2   3
ENDBRANCH   1   2
BRANCH   1  11
ATOM     11  C   UNL     1       2.525 -13.611 -17.175  1.00  0.00    -0.031 C 
ATOM     12  C   UNL     1       1.927 -14.324 -18.146  1.00  0.00    -0.027 C 
BRANCH  12  13
ATOM     13  C   UNL     1       0.616 -15.053 -17.992  1.00  0.00     0.054 C 
BRANCH  13  14
ATOM     14  C   UNL     1       0.712 -16.464 -18.501  1.00  0.00    -0.027 C 
ATOM     15  C   UNL     1      -0.356 -17.106 -18.998  1.00  0.00    -0.031 C 
BRANCH  15  16
ATOM     16  C   UNL     1      -0.261 -18.518 -19.507  1.00  0.00     0.027 C 
BRANCH  16  17
ATOM     17  C   UNL     1       0.525 -19.404 -18.534  1.00  0.00     0.004 C 
BRANCH  17  18
ATOM     18  C   UNL     1      -0.376 -19.904 -17.397  1.00  0.00     0.000 C 
BRANCH  18  19
ATOM     19  C   UNL     1       0.433 -20.124 -16.113  1.00  0.00    -0.003 C 
ATOM     20  C   UNL     1       1.933 -20.092 -16.394  1.00  0.00     0.004 C 
ENDBRANCH  18  19
ENDBRANCH  17  18
ENDBRANCH  16  17
ENDBRANCH  15  16
ENDBRANCH  13  14
ENDBRANCH  12  13
ENDBRANCH   1  11
TORSDOF 14
ENDMDL
MODEL 3
REMARK VINA RESULT:    -4.714      3.834      7.838
REMARK INTER + INTRA:         -10.113
REMARK INTER:                  -9.346
REMARK INTRA:                  -0.767
REMARK UNBOUND:                -1.541
REMARK SMILES CCCCCC=CCC=CCCCCCCCC(=O)[O-]
REMARK SMILES IDX 11 1 12 2 13 3 14 4 15 5 16 6 17 7 18 8 19 9 20 10 10 11
REMARK SMILES IDX 9 12 8 13 7 14 6 15 5 16 4 17 3 18 2 19 1 20
REMARK H PARENT
REMARK Flexibility Score: inf
ROOT
ATOM      1  C   UNL     1       2.792 -13.576 -16.898  1.00  0.00     0.027 C 
ENDROOT
BRANCH   1   2
ATOM      2  C   UNL     1       1.665 -13.854 -17.907  1.00  0.00     0.004 C 
BRANCH   2   3
ATOM      3  C   UNL     1       1.266 -15.338 -18.022  1.00  0.00     0.000 C 
BRANCH   3   4
ATOM      4  C   UNL     1      -0.188 -15.535 -18.474  1.00  0.00     0.000 C 
BRANCH   4   5
ATOM      5  C   UNL     1      -0.461 -17.008 -18.813  1.00  0.00     0.000 C 
BRANCH   5   6
ATOM      6  C   UNL     1       0.804 -17.878 -18.737  1.00  0.00     0.006 C 
BRANCH   6   7
ATOM      7  C   UNL     1       0.488 -19.377 -18.660  1.00  0.00     0.053 C 
BRANCH   7   8
ATOM      8  C   UNL     1       0.390 -19.815 -17.233  1.00  0.00     0.041 C 
ATOM      9  O   UNL     1      -0.738 -20.000 -16.705  1.00  0.00    -0.550 OA
ATOM     10  O   UNL     1       1.540 -19.964 -16.470  1.00  0.00    -0.550 OA
ENDBRANCH   7   8
ENDBRANCH   6   7
ENDBRANCH   5   6
ENDBRANCH   4   5
ENDBRANCH   3   4
ENDBRANCH   2   3
ENDBRANCH   1   2
BRANCH   1  11
ATOM     11  C   UNL     1       2.273 -13.382 -15.495  1.00  0.00    -0.031 C 
ATOM     12  C   UNL     1       2.925 -12.719 -14.522  1.00  0.00    -0.027 C 
BRANCH  12  13
ATOM     13  C   UNL     1       4.239 -12.004 -14.704  1.00  0.00     0.054 C 
BRANCH  13  14
ATOM     14  C   UNL     1       4.279 -11.255 -16.007  1.00  0.00    -0.027 C 
ATOM     15  C   UNL     1       3.616 -10.101 -16.174  1.00  0.00    -0.031 C 
BRANCH  15  16
ATOM     16  C   UNL     1       3.656  -9.351 -17.477  1.00  0.00     0.027 C 
BRANCH  16  17
ATOM     17  C   UNL     1       3.098 -10.204 -18.622  1.00  0.00     0.004 C 
BRANCH  17  18
ATOM     18  C   UNL     1       4.059 -10.216 -19.818  1.00  0.00     0.000 C 
BRANCH  18  19
ATOM     19  C   UNL     1       5.252 -11.143 -19.554  1.00  0.00    -0.003 C 
ATOM     20  C   UNL     1       6.453 -10.752 -20.411  1.00  0.00     0.004 C 
ENDBRANCH  18  19
ENDBRANCH  17  18
ENDBRANCH  16  17
ENDBRANCH  15  16
ENDBRANCH  13  14
ENDBRANCH  12  13
ENDBRANCH   1  11
TORSDOF 14
ENDMDL
MODEL 4
REMARK VINA RESULT:    -4.531      3.559      7.066
REMARK INTER + INTRA:          -9.781
REMARK INTER:                  -8.156
REMARK INTRA:                  -1.625
REMARK UNBOUND:                -1.541
REMARK SMILES CCCCCC=CCC=CCCCCCCCC(=O)[O-]
REMARK SMILES IDX 11 1 12 2 13 3 14 4 15 5 16 6 17 7 18 8 19 9 20 10 10 11
REMARK SMILES IDX 9 12 8 13 7 14 6 15 5 16 4 17 3 18 2 19 1 20
REMARK H PARENT
REMARK Flexibility Score: inf
ROOT
ATOM      1  C   UNL     1       2.398 -12.576 -14.720  1.00  0.00     0.027 C 
ENDROOT
BRANCH   1   2
ATOM      2  C   UNL     1       2.045 -13.644 -15.769  1.00  0.00     0.004 C 
BRANCH   2   3
ATOM      3  C   UNL     1       2.718 -13.437 -17.139  1.00  0.00     0.000 C 
BRANCH   3   4
ATOM      4  C   UNL     1       1.904 -14.023 -18.301  1.00  0.00     0.000 C 
BRANCH   4   5
ATOM      5  C   UNL     1       0.722 -14.852 -17.778  1.00  0.00     0.000 C 
BRANCH   5   6
ATOM      6  C   UNL     1       0.256 -15.919 -18.781  1.00  0.00     0.006 C 
BRANCH   6   7
ATOM      7  C   UNL     1       0.870 -17.298 -18.505  1.00  0.00     0.053 C 
BRANCH   7   8
ATOM      8  C   UNL     1      -0.040 -18.380 -18.993  1.00  0.00     0.041 C 
ATOM      9  O   UNL     1      -1.288 -18.254 -18.879  1.00  0.00    -0.550 OA
ATOM     10  O   UNL     1       0.489 -19.549 -19.523  1.00  0.00    -0.550 OA
ENDBRANCH   7   8
ENDBRANCH   6   7
ENDBRANCH   5   6
ENDBRANCH   4   5
ENDBRANCH   3   4
ENDBRANCH   2   3
ENDBRANCH   1   2
BRANCH   1  11
ATOM     11  C   UNL     1       3.845 -12.640 -14.298  1.00  0.00    -0.031 C 
ATOM     12  C   UNL     1       4.729 -11.634 -14.437  1.00  0.00    -0.027 C 
BRANCH  12  13
ATOM     13  C   UNL     1       4.392 -10.265 -14.968  1.00  0.00     0.054 C 
BRANCH  13  14
ATOM     14  C   UNL     1       4.146 -10.298 -16.451  1.00  0.00    -0.027 C 
ATOM     15  C   UNL     1       3.027  -9.790 -16.989  1.00  0.00    -0.031 C 
BRANCH  15  16
ATOM     16  C   UNL     1       2.781  -9.823 -18.472  1.00  0.00     0.027 C 
BRANCH  16  17
ATOM     17  C   UNL     1       3.727 -10.809 -19.167  1.00  0.00     0.004 C 
BRANCH  17  18
ATOM     18  C   UNL     1       4.524 -10.114 -20.278  1.00  0.00     0.000 C 
BRANCH  18  19
ATOM     19  C   UNL     1       5.934 -10.706 -20.393  1.00  0.00    -0.003 C 
ATOM     20  C   UNL     1       6.299 -11.508 -19.147  1.00  0.00     0.004 C 
ENDBRANCH  18  19
ENDBRANCH  17  18
ENDBRANCH  16  17
ENDBRANCH  15  16
ENDBRANCH  13  14
ENDBRANCH  12  13
ENDBRANCH   1  11
TORSDOF 14
ENDMDL
MODEL 5
REMARK VINA RESULT:    -4.305      2.321      3.884
REMARK INTER + INTRA:          -9.368
REMARK INTER:                  -8.221
REMARK INTRA:                  -1.148
REMARK UNBOUND:                -1.541
REMARK SMILES CCCCCC=CCC=CCCCCCCCC(=O)[O-]
REMARK SMILES IDX 11 1 12 2 13 3 14 4 15 5 16 6 17 7 18 8 19 9 20 10 10 11
REMARK SMILES IDX 9 12 8 13 7 14 6 15 5 16 4 17 3 18 2 19 1 20
REMARK H PARENT
REMARK Flexibility Score: inf
ROOT
ATOM      1  C   UNL     1       1.776 -13.391 -18.810  1.00  0.00     0.027 C 
ENDROOT
BRANCH   1   2
ATOM      2  C   UNL     1       2.815 -12.471 -18.148  1.00  0.00     0.004 C 
BRANCH   2   3
ATOM      3  C   UNL     1       3.374 -11.374 -19.073  1.00  0.00     0.000 C 
BRANCH   3   4
ATOM      4  C   UNL     1       3.578 -10.031 -18.355  1.00  0.00     0.000 C 
BRANCH   4   5
ATOM      5  C   UNL     1       3.193 -10.140 -16.873  1.00  0.00     0.000 C 
BRANCH   5   6
ATOM      6  C   UNL     1       4.393  -9.943 -15.932  1.00  0.00     0.006 C 
BRANCH   6   7
ATOM      7  C   UNL     1       4.263 -10.746 -14.631  1.00  0.00     0.053 C 
BRANCH   7   8
ATOM      8  C   UNL     1       4.128 -12.205 -14.932  1.00  0.00     0.041 C 
ATOM      9  O   UNL     1       5.058 -12.818 -15.521  1.00  0.00    -0.550 OA
ATOM     10  O   UNL     1       2.955 -12.876 -14.613  1.00  0.00    -0.550 OA
ENDBRANCH   7   8
ENDBRANCH   6   7
ENDBRANCH   5   6
ENDBRANCH   4   5
ENDBRANCH   3   4
ENDBRANCH   2   3
ENDBRANCH   1   2
BRANCH   1  11
ATOM     11  C   UNL     1       1.649 -14.719 -18.105  1.00  0.00    -0.031 C 
ATOM     12  C   UNL     1       0.533 -15.471 -18.082  1.00  0.00    -0.027 C 
BRANCH  12  13
ATOM     13  C   UNL     1      -0.739 -15.140 -18.818  1.00  0.00     0.054 C 
BRANCH  13  14
ATOM     14  C   UNL     1      -1.510 -16.384 -19.166  1.00  0.00    -0.027 C 
ATOM     15  C   UNL     1      -0.939 -17.401 -19.829  1.00  0.00    -0.031 C 
BRANCH  15  16
ATOM     16  C   UNL     1      -1.709 -18.645 -20.177  1.00  0.00     0.027 C 
BRANCH  16  17
ATOM     17  C   UNL     1      -0.904 -19.905 -19.842  1.00  0.00     0.004 C 
BRANCH  17  18
ATOM     18  C   UNL     1       0.371 -19.553 -19.066  1.00  0.00     0.000 C 
BRANCH  18  19
ATOM     19  C   UNL     1       0.176 -19.772 -17.561  1.00  0.00    -0.003 C 
ATOM     20  C   UNL     1       1.505 -19.685 -16.815  1.00  0.00     0.004 C 
ENDBRANCH  18  19
ENDBRANCH  17  18
ENDBRANCH  16  17
ENDBRANCH  15  16
ENDBRANCH  13  14
ENDBRANCH  12  13
ENDBRANCH   1  11
TORSDOF 14
ENDMDL
MODEL 6
REMARK VINA RESULT:    -4.001      2.458      6.681
REMARK INTER + INTRA:          -8.816
REMARK INTER:                  -7.245
REMARK INTRA:                  -1.571
REMARK UNBOUND:                -1.541
REMARK SMILES CCCCCC=CCC=CCCCCCCCC(=O)[O-]
REMARK SMILES IDX 11 1 12 2 13 3 14 4 15 5 16 6 17 7 18 8 19 9 20 10 10 11
REMARK SMILES IDX 9 12 8 13 7 14 6 15 5 16 4 17 3 18 2 19 1 20
REMARK H PARENT
REMARK Flexibility Score: inf
ROOT
ATOM      1  C   UNL     1       2.677 -13.855 -16.592  1.00  0.00     0.027 C 
ENDROOT
BRANCH   1   2
ATOM      2  C   UNL     1       1.635 -14.074 -17.702  1.00  0.00     0.004 C 
BRANCH   2   3
ATOM      3  C   UNL     1       1.870 -13.232 -18.970  1.00  0.00     0.000 C 
BRANCH   3   4
ATOM      4  C   UNL     1       3.131 -12.360 -18.885  1.00  0.00     0.000 C 
BRANCH   4   5
ATOM      5  C   UNL     1       2.762 -10.875 -18.758  1.00  0.00     0.000 C 
BRANCH   5   6
ATOM      6  C   UNL     1       3.971  -9.945 -18.945  1.00  0.00     0.006 C 
BRANCH   6   7
ATOM      7  C   UNL     1       4.752 -10.241 -20.233  1.00  0.00     0.053 C 
BRANCH   7   8
ATOM      8  C   UNL     1       6.103 -10.793 -19.907  1.00  0.00     0.041 C 
ATOM      9  O   UNL     1       6.260 -11.516 -18.887  1.00  0.00    -0.550 OA
ATOM     10  O   UNL     1       7.198 -10.467 -20.695  1.00  0.00    -0.550 OA
ENDBRANCH   7   8
ENDBRANCH   6   7
ENDBRANCH   5   6
ENDBRANCH   4   5
ENDBRANCH   3   4
ENDBRANCH   2   3
ENDBRANCH   1   2
BRANCH   1  11
ATOM     11  C   UNL     1       2.057 -13.354 -15.310  1.00  0.00    -0.031 C 
ATOM     12  C   UNL     1       2.742 -12.791 -14.298  1.00  0.00    -0.027 C 
BRANCH  12  13
ATOM     13  C   UNL     1       4.221 -12.505 -14.317  1.00  0.00     0.054 C 
BRANCH  13  14
ATOM     14  C   UNL     1       4.492 -11.028 -14.396  1.00  0.00    -0.027 C 
ATOM     15  C   UNL     1       4.089 -10.295 -15.445  1.00  0.00    -0.031 C 
BRANCH  15  16
ATOM     16  C   UNL     1       4.360  -8.818 -15.524  1.00  0.00     0.027 C 
BRANCH  16  17
ATOM     17  C   UNL     1       3.095  -8.044 -15.913  1.00  0.00     0.004 C 
BRANCH  17  18
ATOM     18  C   UNL     1       3.012  -6.712 -15.158  1.00  0.00     0.000 C 
BRANCH  18  19
ATOM     19  C   UNL     1       3.435  -6.883 -13.694  1.00  0.00    -0.003 C 
ATOM     20  C   UNL     1       2.387  -6.306 -12.747  1.00  0.00     0.004 C 
ENDBRANCH  18  19
ENDBRANCH  17  18
ENDBRANCH  16  17
ENDBRANCH  15  16
ENDBRANCH  13  14
ENDBRANCH  12  13
ENDBRANCH   1  11
TORSDOF 14
ENDMDL
MODEL 7
REMARK VINA RESULT:    -3.883      3.078      7.280
REMARK INTER + INTRA:          -8.601
REMARK INTER:                  -7.383
REMARK INTRA:                  -1.218
REMARK UNBOUND:                -1.541
REMARK SMILES CCCCCC=CCC=CCCCCCCCC(=O)[O-]
REMARK SMILES IDX 11 1 12 2 13 3 14 4 15 5 16 6 17 7 18 8 19 9 20 10 10 11
REMARK SMILES IDX 9 12 8 13 7 14 6 15 5 16 4 17 3 18 2 19 1 20
REMARK H PARENT
REMARK Flexibility Score: inf
ROOT
ATOM      1  C   UNL     1       2.676 -13.757 -17.236  1.00  0.00     0.027 C 
ENDROOT
BRANCH   1   2
ATOM      2  C   UNL     1       1.665 -14.074 -18.350  1.00  0.00     0.004 C 
BRANCH   2   3
ATOM      3  C   UNL     1       0.680 -15.209 -18.011  1.00  0.00     0.000 C 
BRANCH   3   4
ATOM      4  C   UNL     1       1.172 -16.588 -18.471  1.00  0.00     0.000 C 
BRANCH   4   5
ATOM      5  C   UNL     1      -0.005 -17.468 -18.918  1.00  0.00     0.000 C 
BRANCH   5   6
ATOM      6  C   UNL     1      -1.356 -16.741 -18.828  1.00  0.00     0.006 C 
BRANCH   6   7
ATOM      7  C   UNL     1      -2.057 -16.624 -20.188  1.00  0.00     0.053 C 
BRANCH   7   8
ATOM      8  C   UNL     1      -2.080 -15.198 -20.640  1.00  0.00     0.041 C 
ATOM      9  O   UNL     1      -2.117 -14.267 -19.792  1.00  0.00    -0.550 OA
ATOM     10  O   UNL     1      -2.119 -14.898 -21.995  1.00  0.00    -0.550 OA
ENDBRANCH   7   8
ENDBRANCH   6   7
ENDBRANCH   5   6
ENDBRANCH   4   5
ENDBRANCH   3   4
ENDBRANCH   2   3
ENDBRANCH   1   2
BRANCH   1  11
ATOM     11  C   UNL     1       2.007 -13.494 -15.909  1.00  0.00    -0.031 C 
ATOM     12  C   UNL     1       2.642 -13.063 -14.803  1.00  0.00    -0.027 C 
BRANCH  12  13
ATOM     13  C   UNL     1       4.104 -12.705 -14.738  1.00  0.00     0.054 C 
BRANCH  13  14
ATOM     14  C   UNL     1       4.355 -11.327 -15.284  1.00  0.00    -0.027 C 
ATOM     15  C   UNL     1       3.395 -10.637 -15.918  1.00  0.00    -0.031 C 
BRANCH  15  16
ATOM     16  C   UNL     1       3.646  -9.258 -16.464  1.00  0.00     0.027 C 
BRANCH  16  17
ATOM     17  C   UNL     1       3.530  -9.240 -17.992  1.00  0.00     0.004 C 
BRANCH  17  18
ATOM     18  C   UNL     1       2.929 -10.551 -18.514  1.00  0.00     0.000 C 
BRANCH  18  19
ATOM     19  C   UNL     1       3.880 -11.235 -19.503  1.00  0.00    -0.003 C 
ATOM     20  C   UNL     1       5.154 -10.418 -19.697  1.00  0.00     0.004 C 
ENDBRANCH  18  19
ENDBRANCH  17  18
ENDBRANCH  16  17
ENDBRANCH  15  16
ENDBRANCH  13  14
ENDBRANCH  12  13
ENDBRANCH   1  11
TORSDOF 14
ENDMDL
MODEL 8
REMARK VINA RESULT:    -3.700      3.682      7.692
REMARK INTER + INTRA:          -8.269
REMARK INTER:                  -6.975
REMARK INTRA:                  -1.295
REMARK UNBOUND:                -1.541
REMARK SMILES CCCCCC=CCC=CCCCCCCCC(=O)[O-]
REMARK SMILES IDX 11 1 12 2 13 3 14 4 15 5 16 6 17 7 18 8 19 9 20 10 10 11
REMARK SMILES IDX 9 12 8 13 7 14 6 15 5 16 4 17 3 18 2 19 1 20
REMARK H PARENT
REMARK Flexibility Score: inf
ROOT
ATOM      1  C   UNL     1       2.371 -13.778 -18.514  1.00  0.00     0.027 C 
ENDROOT
BRANCH   1   2
ATOM      2  C   UNL     1       1.249 -14.449 -17.704  1.00  0.00     0.004 C 
BRANCH   2   3
ATOM      3  C   UNL     1       0.586 -15.648 -18.407  1.00  0.00     0.000 C 
BRANCH   3   4
ATOM      4  C   UNL     1      -0.909 -15.431 -18.682  1.00  0.00     0.000 C 
BRANCH   4   5
ATOM      5  C   UNL     1      -1.639 -16.775 -18.824  1.00  0.00     0.000 C 
BRANCH   5   6
ATOM      6  C   UNL     1      -1.064 -17.647 -19.951  1.00  0.00     0.006 C 
BRANCH   6   7
ATOM      7  C   UNL     1      -0.979 -19.130 -19.568  1.00  0.00     0.053 C 
BRANCH   7   8
ATOM      8  C   UNL     1      -0.140 -19.302 -18.341  1.00  0.00     0.041 C 
ATOM      9  O   UNL     1       1.094 -19.050 -18.379  1.00  0.00    -0.550 OA
ATOM     10  O   UNL     1      -0.707 -19.793 -17.173  1.00  0.00    -0.550 OA
ENDBRANCH   7   8
ENDBRANCH   6   7
ENDBRANCH   5   6
ENDBRANCH   4   5
ENDBRANCH   3   4
ENDBRANCH   2   3
ENDBRANCH   1   2
BRANCH   1  11
ATOM     11  C   UNL     1       2.014 -12.375 -18.940  1.00  0.00    -0.031 C 
ATOM     12  C   UNL     1       2.903 -11.382 -19.125  1.00  0.00    -0.027 C 
BRANCH  12  13
ATOM     13  C   UNL     1       4.398 -11.535 -19.008  1.00  0.00     0.054 C 
BRANCH  13  14
ATOM     14  C   UNL     1       4.894 -11.053 -17.673  1.00  0.00    -0.027 C 
ATOM     15  C   UNL     1       4.064 -10.511 -16.768  1.00  0.00    -0.031 C 
BRANCH  15  16
ATOM     16  C   UNL     1       4.560 -10.029 -15.433  1.00  0.00     0.027 C 
BRANCH  16  17
ATOM     17  C   UNL     1       4.142 -10.985 -14.310  1.00  0.00     0.004 C 
BRANCH  17  18
ATOM     18  C   UNL     1       4.419 -12.443 -14.697  1.00  0.00     0.000 C 
BRANCH  18  19
ATOM     19  C   UNL     1       3.112 -13.198 -14.965  1.00  0.00    -0.003 C 
ATOM     20  C   UNL     1       1.919 -12.466 -14.357  1.00  0.00     0.004 C 
ENDBRANCH  18  19
ENDBRANCH  17  18
ENDBRANCH  16  17
ENDBRANCH  15  16
ENDBRANCH  13  14
ENDBRANCH  12  13
ENDBRANCH   1  11
TORSDOF 14
ENDMDL
