MODEL 1
REMARK VINA RESULT:    53.559      0.000      0.000
REMARK INTER + INTRA:          74.919
REMARK INTER:                  73.911
REMARK INTRA:                   1.008
REMARK UNBOUND:                 1.008
REMARK SMILES CC[C@H](CC[C@@H](C)[C@H]1CC[C@@H]2C3=CC[C@H]4C[C@@H](O)CC[C@]4(C)[C@H]3CC[C@@]21C)C(C)C
REMARK SMILES IDX 5 1 4 2 3 3 2 4 1 5 28 6 29 7 30 8 6 9 7 10 8 11 9 12 26 13
REMARK SMILES IDX 10 14 11 15 25 16 27 17 12 18 24 19 23 20 13 21 21 22 14 23
REMARK SMILES IDX 15 24 20 25 22 26 16 27 19 28 17 29 18 30
REMARK H PARENT 18 31
REMARK Flexibility Score: inf
ROOT
ATOM      1  C   UNL     1     -40.298  23.820   8.662  1.00  0.00     0.004 C 
ENDROOT
BRANCH   1   2
ATOM      2  C   UNL     1     -41.464  23.043   7.987  1.00  0.00     0.004 C 
BRANCH   2   3
ATOM      3  C   UNL     1     -42.109  23.709   6.731  1.00  0.00    -0.009 C 
BRANCH   3   4
ATOM      4  C   UNL     1     -41.824  25.229   6.688  1.00  0.00     0.000 C 
ATOM      5  C   UNL     1     -41.845  25.813   5.278  1.00  0.00     0.004 C 
ENDBRANCH   3   4
BRANCH   3   6
ATOM      6  C   UNL     1     -41.683  23.044   5.382  1.00  0.00    -0.014 C 
ATOM      7  C   UNL     1     -41.727  21.507   5.445  1.00  0.00     0.007 C 
ATOM      8  C   UNL     1     -40.317  23.523   4.856  1.00  0.00     0.007 C 
ENDBRANCH   3   6
ENDBRANCH   2   3
ENDBRANCH   1   2
BRANCH   1   9
ATOM      9  C   UNL     1     -38.882  23.149   8.592  1.00  0.00    -0.011 C 
ATOM     10  C   UNL     1     -39.035  21.660   8.206  1.00  0.00     0.008 C 
BRANCH   9  11
ATOM     11  C   UNL     1     -37.806  23.810   7.658  1.00  0.00    -0.002 C 
ATOM     12  C   UNL     1     -37.643  23.214   6.260  1.00  0.00     0.005 C 
ATOM     13  C   UNL     1     -37.812  25.353   7.455  1.00  0.00    -0.023 C 
ATOM     14  C   UNL     1     -36.815  24.240   5.475  1.00  0.00     0.009 C 
ATOM     15  C   UNL     1     -36.892  25.588   6.220  1.00  0.00     0.021 C 
ATOM     16  C   UNL     1     -37.292  26.099   8.712  1.00  0.00     0.008 C 
ATOM     17  C   UNL     1     -39.211  25.916   7.112  1.00  0.00     0.012 C 
ATOM     18  C   UNL     1     -35.509  26.113   6.602  1.00  0.00    -0.067 C 
ATOM     19  C   UNL     1     -35.825  25.816   9.099  1.00  0.00     0.009 C 
ATOM     20  C   UNL     1     -34.871  25.570   7.881  1.00  0.00     0.021 C 
ATOM     21  C   UNL     1     -34.838  26.901   5.745  1.00  0.00    -0.027 C 
ATOM     22  C   UNL     1     -33.322  25.923   8.130  1.00  0.00    -0.023 C 
ATOM     23  C   UNL     1     -33.439  27.375   6.020  1.00  0.00     0.031 C 
ATOM     24  C   UNL     1     -32.661  26.271   6.753  1.00  0.00     0.002 C 
ATOM     25  C   UNL     1     -32.561  24.678   8.758  1.00  0.00     0.010 C 
ATOM     26  C   UNL     1     -33.165  27.125   9.125  1.00  0.00     0.012 C 
ATOM     27  C   UNL     1     -31.164  26.629   6.893  1.00  0.00     0.036 C 
ATOM     28  C   UNL     1     -31.197  24.347   8.086  1.00  0.00     0.032 C 
ATOM     29  C   UNL     1     -30.375  25.609   7.757  1.00  0.00     0.114 C 
BRANCH  29  30
ATOM     30  O   UNL     1     -29.879  26.172   8.953  1.00  0.00    -0.393 OA
ATOM     31  H   UNL     1     -28.898  26.325   8.847  1.00  0.00     0.210 HD
ENDBRANCH  29  30
ENDBRANCH   9  11
ENDBRANCH   1   9
TORSDOF 7
ENDMDL
