MODEL 1
REMARK VINA RESULT:    -3.741      0.000      0.000
REMARK INTER + INTRA:          -4.972
REMARK INTER:                  -4.615
REMARK INTRA:                  -0.357
REMARK UNBOUND:                -0.357
REMARK SMILES O=c1c(O)c(-c2cc(O)c(O)c(O)c2)oc2cc(O)cc(O)c12
REMARK SMILES IDX 5 1 3 2 2 3 1 4 23 5 21 6 20 7 18 8 17 9 16 10 15 11 6 12
REMARK SMILES IDX 7 13 8 14 14 15 10 16 12 17 9 18 11 20 13 22 4 24 22 26
REMARK SMILES IDX 19 28
REMARK H PARENT 9 19 11 21 13 23 4 25 22 27 19 29
REMARK Flexibility Score: inf
ROOT
ATOM      1  C   UNL     1      17.950  35.101  43.864  1.00  0.00     0.180 A 
ATOM      2  C   UNL     1      16.875  34.733  44.691  1.00  0.00     0.208 A 
ATOM      3  C   UNL     1      15.586  34.659  44.139  1.00  0.00     0.238 A 
ATOM      4  O   UNL     1      14.636  34.277  44.871  1.00  0.00    -0.285 OA
ATOM      5  C   UNL     1      15.386  34.970  42.773  1.00  0.00     0.111 A 
ATOM      6  C   UNL     1      14.117  34.968  42.118  1.00  0.00     0.134 A 
ATOM      7  C   UNL     1      14.055  35.163  40.733  1.00  0.00     0.093 A 
ATOM      8  C   UNL     1      15.205  35.426  39.990  1.00  0.00     0.123 A 
ATOM      9  C   UNL     1      16.443  35.490  40.629  1.00  0.00     0.094 A 
ATOM     10  C   UNL     1      16.543  35.263  42.004  1.00  0.00     0.146 A 
ATOM     11  O   UNL     1      17.741  35.322  42.572  1.00  0.00    -0.452 OA
ENDROOT
BRANCH   1  12
ATOM     12  C   UNL     1      19.333  35.224  44.380  1.00  0.00     0.029 A 
ATOM     13  C   UNL     1      20.243  34.176  44.172  1.00  0.00     0.062 A 
ATOM     14  C   UNL     1      21.561  34.274  44.629  1.00  0.00     0.162 A 
ATOM     15  C   UNL     1      19.772  36.393  45.023  1.00  0.00     0.062 A 
ATOM     16  C   UNL     1      21.990  35.436  45.290  1.00  0.00     0.200 A 
ATOM     17  C   UNL     1      21.092  36.501  45.482  1.00  0.00     0.162 A 
BRANCH  14  18
ATOM     18  O   UNL     1      22.431  33.204  44.415  1.00  0.00    -0.504 OA
ATOM     19  H   UNL     1      23.426  33.276  44.589  1.00  0.00     0.293 HD
ENDBRANCH  14  18
BRANCH  16  20
ATOM     20  O   UNL     1      23.306  35.526  45.746  1.00  0.00    -0.502 OA
ATOM     21  H   UNL     1      23.548  35.991  46.612  1.00  0.00     0.293 HD
ENDBRANCH  16  20
BRANCH  17  22
ATOM     22  O   UNL     1      21.516  37.663  46.125  1.00  0.00    -0.504 OA
ATOM     23  H   UNL     1      21.512  37.743  47.136  1.00  0.00     0.293 HD
ENDBRANCH  17  22
ENDBRANCH   1  12
BRANCH   2  24
ATOM     24  O   UNL     1      17.098  34.409  46.033  1.00  0.00    -0.502 OA
ATOM     25  H   UNL     1      17.464  33.509  46.320  1.00  0.00     0.293 HD
ENDBRANCH   2  24
BRANCH   6  26
ATOM     26  O   UNL     1      12.897  34.806  42.781  1.00  0.00    -0.507 OA
ATOM     27  H   UNL     1      12.131  35.461  42.743  1.00  0.00     0.293 HD
ENDBRANCH   6  26
BRANCH   8  28
ATOM     28  O   UNL     1      15.103  35.632  38.616  1.00  0.00    -0.508 OA
ATOM     29  H   UNL     1      15.926  35.738  38.033  1.00  0.00     0.293 HD
ENDBRANCH   8  28
TORSDOF 7
ENDMDL
MODEL 2
REMARK VINA RESULT:    -3.660      1.467      7.191
REMARK INTER + INTRA:          -4.873
REMARK INTER:                  -4.527
REMARK INTRA:                  -0.346
REMARK UNBOUND:                -0.357
REMARK SMILES O=c1c(O)c(-c2cc(O)c(O)c(O)c2)oc2cc(O)cc(O)c12
REMARK SMILES IDX 5 1 3 2 2 3 1 4 23 5 21 6 20 7 18 8 17 9 16 10 15 11 6 12
REMARK SMILES IDX 7 13 8 14 14 15 10 16 12 17 9 18 11 20 13 22 4 24 22 26
REMARK SMILES IDX 19 28
REMARK H PARENT 9 19 11 21 13 23 4 25 22 27 19 29
REMARK Flexibility Score: inf
ROOT
ATOM      1  C   UNL     1      19.189  34.949  44.245  1.00  0.00     0.180 A 
ATOM      2  C   UNL     1      19.783  36.047  44.890  1.00  0.00     0.208 A 
ATOM      3  C   UNL     1      21.138  35.976  45.248  1.00  0.00     0.238 A 
ATOM      4  O   UNL     1      21.678  36.983  45.775  1.00  0.00    -0.285 OA
ATOM      5  C   UNL     1      21.878  34.801  44.973  1.00  0.00     0.111 A 
ATOM      6  C   UNL     1      23.247  34.603  45.328  1.00  0.00     0.134 A 
ATOM      7  C   UNL     1      23.915  33.453  44.889  1.00  0.00     0.093 A 
ATOM      8  C   UNL     1      23.248  32.465  44.166  1.00  0.00     0.123 A 
ATOM      9  C   UNL     1      21.895  32.620  43.865  1.00  0.00     0.094 A 
ATOM     10  C   UNL     1      21.210  33.773  44.258  1.00  0.00     0.146 A 
ATOM     11  O   UNL     1      19.926  33.886  43.942  1.00  0.00    -0.452 OA
ENDROOT
BRANCH   1  12
ATOM     12  C   UNL     1      17.759  34.941  43.859  1.00  0.00     0.029 A 
ATOM     13  C   UNL     1      17.404  35.160  42.519  1.00  0.00     0.062 A 
ATOM     14  C   UNL     1      16.064  35.136  42.122  1.00  0.00     0.162 A 
ATOM     15  C   UNL     1      16.750  34.660  44.796  1.00  0.00     0.062 A 
ATOM     16  C   UNL     1      15.057  34.877  43.066  1.00  0.00     0.200 A 
ATOM     17  C   UNL     1      15.404  34.633  44.407  1.00  0.00     0.162 A 
BRANCH  14  18
ATOM     18  O   UNL     1      15.752  35.373  40.784  1.00  0.00    -0.504 OA
ATOM     19  H   UNL     1      16.069  36.202  40.295  1.00  0.00     0.293 HD
ENDBRANCH  14  18
BRANCH  16  20
ATOM     20  O   UNL     1      13.721  34.858  42.664  1.00  0.00    -0.502 OA
ATOM     21  H   UNL     1      13.009  35.410  43.126  1.00  0.00     0.293 HD
ENDBRANCH  16  20
BRANCH  17  22
ATOM     22  O   UNL     1      14.410  34.360  45.346  1.00  0.00    -0.504 OA
ATOM     23  H   UNL     1      14.125  33.410  45.557  1.00  0.00     0.293 HD
ENDBRANCH  17  22
ENDBRANCH   1  12
BRANCH   2  24
ATOM     24  O   UNL     1      19.039  37.206  45.132  1.00  0.00    -0.502 OA
ATOM     25  H   UNL     1      18.259  37.483  44.548  1.00  0.00     0.293 HD
ENDBRANCH   2  24
BRANCH   6  26
ATOM     26  O   UNL     1      23.981  35.486  46.125  1.00  0.00    -0.507 OA
ATOM     27  H   UNL     1      23.905  35.553  47.128  1.00  0.00     0.293 HD
ENDBRANCH   6  26
BRANCH   8  28
ATOM     28  O   UNL     1      23.940  31.326  43.760  1.00  0.00    -0.508 OA
ATOM     29  H   UNL     1      24.667  30.914  44.334  1.00  0.00     0.293 HD
ENDBRANCH   8  28
TORSDOF 7
ENDMDL
MODEL 3
REMARK VINA RESULT:    -3.534      1.532      7.207
REMARK INTER + INTRA:          -4.718
REMARK INTER:                  -4.416
REMARK INTRA:                  -0.302
REMARK UNBOUND:                -0.357
REMARK SMILES O=c1c(O)c(-c2cc(O)c(O)c(O)c2)oc2cc(O)cc(O)c12
REMARK SMILES IDX 5 1 3 2 2 3 1 4 23 5 21 6 20 7 18 8 17 9 16 10 15 11 6 12
REMARK SMILES IDX 7 13 8 14 14 15 10 16 12 17 9 18 11 20 13 22 4 24 22 26
REMARK SMILES IDX 19 28
REMARK H PARENT 9 19 11 21 13 23 4 25 22 27 19 29
REMARK Flexibility Score: inf
ROOT
ATOM      1  C   UNL     1      19.283  34.857  44.290  1.00  0.00     0.180 A 
ATOM      2  C   UNL     1      19.824  35.908  45.050  1.00  0.00     0.208 A 
ATOM      3  C   UNL     1      21.190  35.884  45.369  1.00  0.00     0.238 A 
ATOM      4  O   UNL     1      21.680  36.855  46.004  1.00  0.00    -0.285 OA
ATOM      5  C   UNL     1      21.995  34.802  44.939  1.00  0.00     0.111 A 
ATOM      6  C   UNL     1      23.383  34.655  45.240  1.00  0.00     0.134 A 
ATOM      7  C   UNL     1      24.110  33.612  44.652  1.00  0.00     0.093 A 
ATOM      8  C   UNL     1      23.487  32.675  43.829  1.00  0.00     0.123 A 
ATOM      9  C   UNL     1      22.119  32.775  43.576  1.00  0.00     0.094 A 
ATOM     10  C   UNL     1      21.374  33.825  44.119  1.00  0.00     0.146 A 
ATOM     11  O   UNL     1      20.077  33.890  43.845  1.00  0.00    -0.452 OA
ENDROOT
BRANCH   1  12
ATOM     12  C   UNL     1      17.846  34.801  43.934  1.00  0.00     0.029 A 
ATOM     13  C   UNL     1      16.906  34.447  44.913  1.00  0.00     0.062 A 
ATOM     14  C   UNL     1      15.541  34.406  44.611  1.00  0.00     0.162 A 
ATOM     15  C   UNL     1      17.397  35.150  42.649  1.00  0.00     0.062 A 
ATOM     16  C   UNL     1      15.098  34.736  43.320  1.00  0.00     0.200 A 
ATOM     17  C   UNL     1      16.030  35.115  42.338  1.00  0.00     0.162 A 
BRANCH  14  18
ATOM     18  O   UNL     1      14.640  34.036  45.610  1.00  0.00    -0.504 OA
ATOM     19  H   UNL     1      13.733  34.476  45.707  1.00  0.00     0.293 HD
ENDBRANCH  14  18
BRANCH  16  20
ATOM     20  O   UNL     1      13.734  34.691  43.025  1.00  0.00    -0.502 OA
ATOM     21  H   UNL     1      13.341  34.008  42.389  1.00  0.00     0.293 HD
ENDBRANCH  16  20
BRANCH  17  22
ATOM     22  O   UNL     1      15.596  35.458  41.059  1.00  0.00    -0.504 OA
ATOM     23  H   UNL     1      15.182  36.362  40.863  1.00  0.00     0.293 HD
ENDBRANCH  17  22
ENDBRANCH   1  12
BRANCH   2  24
ATOM     24  O   UNL     1      19.015  36.978  45.446  1.00  0.00    -0.502 OA
ATOM     25  H   UNL     1      18.220  36.859  46.062  1.00  0.00     0.293 HD
ENDBRANCH   2  24
BRANCH   6  26
ATOM     26  O   UNL     1      24.083  35.483  46.123  1.00  0.00    -0.507 OA
ATOM     27  H   UNL     1      24.708  36.223  45.843  1.00  0.00     0.293 HD
ENDBRANCH   6  26
BRANCH   8  28
ATOM     28  O   UNL     1      24.238  31.642  43.274  1.00  0.00    -0.508 OA
ATOM     29  H   UNL     1      24.212  31.440  42.280  1.00  0.00     0.293 HD
ENDBRANCH   8  28
TORSDOF 7
ENDMDL
MODEL 4
REMARK VINA RESULT:    -3.410      1.365      3.503
REMARK INTER + INTRA:          -4.564
REMARK INTER:                  -4.255
REMARK INTRA:                  -0.309
REMARK UNBOUND:                -0.357
REMARK SMILES O=c1c(O)c(-c2cc(O)c(O)c(O)c2)oc2cc(O)cc(O)c12
REMARK SMILES IDX 5 1 3 2 2 3 1 4 23 5 21 6 20 7 18 8 17 9 16 10 15 11 6 12
REMARK SMILES IDX 7 13 8 14 14 15 10 16 12 17 9 18 11 20 13 22 4 24 22 26
REMARK SMILES IDX 19 28
REMARK H PARENT 9 19 11 21 13 23 4 25 22 27 19 29
REMARK Flexibility Score: inf
ROOT
ATOM      1  C   UNL     1      17.458  34.951  43.648  1.00  0.00     0.180 A 
ATOM      2  C   UNL     1      17.125  35.018  42.284  1.00  0.00     0.208 A 
ATOM      3  C   UNL     1      15.791  34.816  41.898  1.00  0.00     0.238 A 
ATOM      4  O   UNL     1      15.490  34.930  40.681  1.00  0.00    -0.285 OA
ATOM      5  C   UNL     1      14.809  34.533  42.878  1.00  0.00     0.111 A 
ATOM      6  C   UNL     1      13.434  34.271  42.596  1.00  0.00     0.134 A 
ATOM      7  C   UNL     1      12.527  34.134  43.654  1.00  0.00     0.093 A 
ATOM      8  C   UNL     1      12.954  34.183  44.980  1.00  0.00     0.123 A 
ATOM      9  C   UNL     1      14.305  34.379  45.267  1.00  0.00     0.094 A 
ATOM     10  C   UNL     1      15.229  34.555  44.233  1.00  0.00     0.146 A 
ATOM     11  O   UNL     1      16.504  34.750  44.549  1.00  0.00    -0.452 OA
ENDROOT
BRANCH   1  12
ATOM     12  C   UNL     1      18.847  35.130  44.129  1.00  0.00     0.029 A 
ATOM     13  C   UNL     1      19.193  36.300  44.822  1.00  0.00     0.062 A 
ATOM     14  C   UNL     1      20.492  36.485  45.307  1.00  0.00     0.162 A 
ATOM     15  C   UNL     1      19.815  34.125  43.958  1.00  0.00     0.062 A 
ATOM     16  C   UNL     1      21.462  35.488  45.114  1.00  0.00     0.200 A 
ATOM     17  C   UNL     1      21.119  34.302  44.442  1.00  0.00     0.162 A 
BRANCH  14  18
ATOM     18  O   UNL     1      20.799  37.669  45.978  1.00  0.00    -0.504 OA
ATOM     19  H   UNL     1      21.633  37.766  46.544  1.00  0.00     0.293 HD
ENDBRANCH  14  18
BRANCH  16  20
ATOM     20  O   UNL     1      22.756  35.681  45.598  1.00  0.00    -0.502 OA
ATOM     21  H   UNL     1      23.104  35.201  46.419  1.00  0.00     0.293 HD
ENDBRANCH  16  20
BRANCH  17  22
ATOM     22  O   UNL     1      22.072  33.302  44.260  1.00  0.00    -0.504 OA
ATOM     23  H   UNL     1      22.488  32.815  45.047  1.00  0.00     0.293 HD
ENDBRANCH  17  22
ENDBRANCH   1  12
BRANCH   2  24
ATOM     24  O   UNL     1      18.106  35.320  41.335  1.00  0.00    -0.502 OA
ATOM     25  H   UNL     1      18.081  36.165  40.777  1.00  0.00     0.293 HD
ENDBRANCH   2  24
BRANCH   6  26
ATOM     26  O   UNL     1      12.919  34.112  41.307  1.00  0.00    -0.507 OA
ATOM     27  H   UNL     1      12.245  34.728  40.877  1.00  0.00     0.293 HD
ENDBRANCH   6  26
BRANCH   8  28
ATOM     28  O   UNL     1      12.026  34.026  46.007  1.00  0.00    -0.508 OA
ATOM     29  H   UNL     1      11.028  34.016  45.824  1.00  0.00     0.293 HD
ENDBRANCH   8  28
TORSDOF 7
ENDMDL
MODEL 5
REMARK VINA RESULT:    -3.370      1.633      2.383
REMARK INTER + INTRA:          -4.515
REMARK INTER:                  -4.195
REMARK INTRA:                  -0.320
REMARK UNBOUND:                -0.357
REMARK SMILES O=c1c(O)c(-c2cc(O)c(O)c(O)c2)oc2cc(O)cc(O)c12
REMARK SMILES IDX 5 1 3 2 2 3 1 4 23 5 21 6 20 7 18 8 17 9 16 10 15 11 6 12
REMARK SMILES IDX 7 13 8 14 14 15 10 16 12 17 9 18 11 20 13 22 4 24 22 26
REMARK SMILES IDX 19 28
REMARK H PARENT 9 19 11 21 13 23 4 25 22 27 19 29
REMARK Flexibility Score: inf
ROOT
ATOM      1  C   UNL     1      18.069  34.567  43.134  1.00  0.00     0.180 A 
ATOM      2  C   UNL     1      17.405  33.431  43.627  1.00  0.00     0.208 A 
ATOM      3  C   UNL     1      16.354  32.878  42.879  1.00  0.00     0.238 A 
ATOM      4  O   UNL     1      15.799  31.829  43.300  1.00  0.00    -0.285 OA
ATOM      5  C   UNL     1      15.969  33.477  41.656  1.00  0.00     0.111 A 
ATOM      6  C   UNL     1      14.892  33.025  40.835  1.00  0.00     0.134 A 
ATOM      7  C   UNL     1      14.685  33.613  39.581  1.00  0.00     0.093 A 
ATOM      8  C   UNL     1      15.472  34.679  39.147  1.00  0.00     0.123 A 
ATOM      9  C   UNL     1      16.490  35.168  39.967  1.00  0.00     0.094 A 
ATOM     10  C   UNL     1      16.744  34.578  41.208  1.00  0.00     0.146 A 
ATOM     11  O   UNL     1      17.729  35.067  41.952  1.00  0.00    -0.452 OA
ENDROOT
BRANCH   1  12
ATOM     12  C   UNL     1      19.170  35.221  43.879  1.00  0.00     0.029 A 
ATOM     13  C   UNL     1      18.900  36.361  44.651  1.00  0.00     0.062 A 
ATOM     14  C   UNL     1      19.916  36.986  45.381  1.00  0.00     0.162 A 
ATOM     15  C   UNL     1      20.471  34.690  43.874  1.00  0.00     0.062 A 
ATOM     16  C   UNL     1      21.220  36.464  45.357  1.00  0.00     0.200 A 
ATOM     17  C   UNL     1      21.495  35.309  44.605  1.00  0.00     0.162 A 
BRANCH  14  18
ATOM     18  O   UNL     1      19.610  38.125  46.125  1.00  0.00    -0.504 OA
ATOM     19  H   UNL     1      18.679  38.299  46.485  1.00  0.00     0.293 HD
ENDBRANCH  14  18
BRANCH  16  20
ATOM     20  O   UNL     1      22.229  37.094  46.086  1.00  0.00    -0.502 OA
ATOM     21  H   UNL     1      22.397  38.091  46.027  1.00  0.00     0.293 HD
ENDBRANCH  16  20
BRANCH  17  22
ATOM     22  O   UNL     1      22.784  34.777  44.589  1.00  0.00    -0.504 OA
ATOM     23  H   UNL     1      23.089  34.146  43.856  1.00  0.00     0.293 HD
ENDBRANCH  17  22
ENDBRANCH   1  12
BRANCH   2  24
ATOM     24  O   UNL     1      17.816  32.842  44.828  1.00  0.00    -0.502 OA
ATOM     25  H   UNL     1      17.236  32.842  45.659  1.00  0.00     0.293 HD
ENDBRANCH   2  24
BRANCH   6  26
ATOM     26  O   UNL     1      13.988  32.027  41.213  1.00  0.00    -0.507 OA
ATOM     27  H   UNL     1      13.704  31.258  40.627  1.00  0.00     0.293 HD
ENDBRANCH   6  26
BRANCH   8  28
ATOM     28  O   UNL     1      15.228  35.251  37.901  1.00  0.00    -0.508 OA
ATOM     29  H   UNL     1      15.657  34.888  37.057  1.00  0.00     0.293 HD
ENDBRANCH   8  28
TORSDOF 7
ENDMDL
MODEL 6
REMARK VINA RESULT:    -3.316      2.583      4.301
REMARK INTER + INTRA:          -4.448
REMARK INTER:                  -4.091
REMARK INTRA:                  -0.357
REMARK UNBOUND:                -0.357
REMARK SMILES O=c1c(O)c(-c2cc(O)c(O)c(O)c2)oc2cc(O)cc(O)c12
REMARK SMILES IDX 5 1 3 2 2 3 1 4 23 5 21 6 20 7 18 8 17 9 16 10 15 11 6 12
REMARK SMILES IDX 7 13 8 14 14 15 10 16 12 17 9 18 11 20 13 22 4 24 22 26
REMARK SMILES IDX 19 28
REMARK H PARENT 9 19 11 21 13 23 4 25 22 27 19 29
REMARK Flexibility Score: inf
ROOT
ATOM      1  C   UNL     1      20.000  34.091  41.310  1.00  0.00     0.180 A 
ATOM      2  C   UNL     1      20.004  34.440  39.949  1.00  0.00     0.208 A 
ATOM      3  C   UNL     1      18.824  34.929  39.367  1.00  0.00     0.238 A 
ATOM      4  O   UNL     1      18.849  35.290  38.162  1.00  0.00    -0.285 OA
ATOM      5  C   UNL     1      17.650  35.048  40.149  1.00  0.00     0.111 A 
ATOM      6  C   UNL     1      16.388  35.494  39.653  1.00  0.00     0.134 A 
ATOM      7  C   UNL     1      15.328  35.698  40.547  1.00  0.00     0.093 A 
ATOM      8  C   UNL     1      15.465  35.409  41.904  1.00  0.00     0.123 A 
ATOM      9  C   UNL     1      16.676  34.916  42.389  1.00  0.00     0.094 A 
ATOM     10  C   UNL     1      17.763  34.737  41.529  1.00  0.00     0.146 A 
ATOM     11  O   UNL     1      18.901  34.276  42.033  1.00  0.00    -0.452 OA
ENDROOT
BRANCH   1  12
ATOM     12  C   UNL     1      21.198  33.545  41.987  1.00  0.00     0.029 A 
ATOM     13  C   UNL     1      21.434  32.162  41.966  1.00  0.00     0.062 A 
ATOM     14  C   UNL     1      22.569  31.622  42.579  1.00  0.00     0.162 A 
ATOM     15  C   UNL     1      22.138  34.390  42.602  1.00  0.00     0.062 A 
ATOM     16  C   UNL     1      23.495  32.467  43.211  1.00  0.00     0.200 A 
ATOM     17  C   UNL     1      23.280  33.857  43.217  1.00  0.00     0.162 A 
BRANCH  14  18
ATOM     18  O   UNL     1      22.759  30.240  42.548  1.00  0.00    -0.504 OA
ATOM     19  H   UNL     1      23.414  29.773  43.164  1.00  0.00     0.293 HD
ENDBRANCH  14  18
BRANCH  16  20
ATOM     20  O   UNL     1      24.624  31.921  43.823  1.00  0.00    -0.502 OA
ATOM     21  H   UNL     1      24.584  31.068  44.367  1.00  0.00     0.293 HD
ENDBRANCH  16  20
BRANCH  17  22
ATOM     22  O   UNL     1      24.203  34.703  43.830  1.00  0.00    -0.504 OA
ATOM     23  H   UNL     1      23.953  35.269  44.634  1.00  0.00     0.293 HD
ENDBRANCH  17  22
ENDBRANCH   1  12
BRANCH   2  24
ATOM     24  O   UNL     1      21.181  34.335  39.200  1.00  0.00    -0.502 OA
ATOM     25  H   UNL     1      21.221  34.571  38.216  1.00  0.00     0.293 HD
ENDBRANCH   2  24
BRANCH   6  26
ATOM     26  O   UNL     1      16.117  35.724  38.301  1.00  0.00    -0.507 OA
ATOM     27  H   UNL     1      16.111  36.632  37.863  1.00  0.00     0.293 HD
ENDBRANCH   6  26
BRANCH   8  28
ATOM     28  O   UNL     1      14.385  35.608  42.760  1.00  0.00    -0.508 OA
ATOM     29  H   UNL     1      13.766  34.849  43.020  1.00  0.00     0.293 HD
ENDBRANCH   8  28
TORSDOF 7
ENDMDL
MODEL 7
REMARK VINA RESULT:    -3.313      2.670      4.694
REMARK INTER + INTRA:          -4.444
REMARK INTER:                  -4.078
REMARK INTRA:                  -0.366
REMARK UNBOUND:                -0.357
REMARK SMILES O=c1c(O)c(-c2cc(O)c(O)c(O)c2)oc2cc(O)cc(O)c12
REMARK SMILES IDX 5 1 3 2 2 3 1 4 23 5 21 6 20 7 18 8 17 9 16 10 15 11 6 12
REMARK SMILES IDX 7 13 8 14 14 15 10 16 12 17 9 18 11 20 13 22 4 24 22 26
REMARK SMILES IDX 19 28
REMARK H PARENT 9 19 11 21 13 23 4 25 22 27 19 29
REMARK Flexibility Score: inf
ROOT
ATOM      1  C   UNL     1      20.004  34.075  41.119  1.00  0.00     0.180 A 
ATOM      2  C   UNL     1      19.959  34.466  39.770  1.00  0.00     0.208 A 
ATOM      3  C   UNL     1      18.761  34.978  39.249  1.00  0.00     0.238 A 
ATOM      4  O   UNL     1      18.743  35.377  38.055  1.00  0.00    -0.285 OA
ATOM      5  C   UNL     1      17.618  35.078  40.077  1.00  0.00     0.111 A 
ATOM      6  C   UNL     1      16.340  35.545  39.644  1.00  0.00     0.134 A 
ATOM      7  C   UNL     1      15.316  35.725  40.582  1.00  0.00     0.093 A 
ATOM      8  C   UNL     1      15.502  35.394  41.924  1.00  0.00     0.123 A 
ATOM      9  C   UNL     1      16.728  34.880  42.348  1.00  0.00     0.094 A 
ATOM     10  C   UNL     1      17.781  34.723  41.442  1.00  0.00     0.146 A 
ATOM     11  O   UNL     1      18.934  34.242  41.889  1.00  0.00    -0.452 OA
ENDROOT
BRANCH   1  12
ATOM     12  C   UNL     1      21.224  33.503  41.733  1.00  0.00     0.029 A 
ATOM     13  C   UNL     1      22.094  34.339  42.449  1.00  0.00     0.062 A 
ATOM     14  C   UNL     1      23.242  33.823  43.057  1.00  0.00     0.162 A 
ATOM     15  C   UNL     1      21.501  32.127  41.665  1.00  0.00     0.062 A 
ATOM     16  C   UNL     1      23.527  32.450  42.968  1.00  0.00     0.200 A 
ATOM     17  C   UNL     1      22.649  31.600  42.273  1.00  0.00     0.162 A 
BRANCH  14  18
ATOM     18  O   UNL     1      24.089  34.691  43.748  1.00  0.00    -0.504 OA
ATOM     19  H   UNL     1      23.988  34.866  44.740  1.00  0.00     0.293 HD
ENDBRANCH  14  18
BRANCH  16  20
ATOM     20  O   UNL     1      24.676  31.942  43.576  1.00  0.00    -0.502 OA
ATOM     21  H   UNL     1      25.598  32.310  43.380  1.00  0.00     0.293 HD
ENDBRANCH  16  20
BRANCH  17  22
ATOM     22  O   UNL     1      22.917  30.234  42.194  1.00  0.00    -0.504 OA
ATOM     23  H   UNL     1      22.552  29.664  41.439  1.00  0.00     0.293 HD
ENDBRANCH  17  22
ENDBRANCH   1  12
BRANCH   2  24
ATOM     24  O   UNL     1      21.106  34.379  38.975  1.00  0.00    -0.502 OA
ATOM     25  H   UNL     1      21.590  33.504  38.813  1.00  0.00     0.293 HD
ENDBRANCH   2  24
BRANCH   6  26
ATOM     26  O   UNL     1      16.020  35.818  38.311  1.00  0.00    -0.507 OA
ATOM     27  H   UNL     1      16.416  35.340  37.516  1.00  0.00     0.293 HD
ENDBRANCH   6  26
BRANCH   8  28
ATOM     28  O   UNL     1      14.456  35.571  42.826  1.00  0.00    -0.508 OA
ATOM     29  H   UNL     1      14.523  36.231  43.593  1.00  0.00     0.293 HD
ENDBRANCH   8  28
TORSDOF 7
ENDMDL
MODEL 8
REMARK VINA RESULT:    -3.248      4.051      7.886
REMARK INTER + INTRA:          -4.364
REMARK INTER:                  -4.065
REMARK INTRA:                  -0.300
REMARK UNBOUND:                -0.357
REMARK SMILES O=c1c(O)c(-c2cc(O)c(O)c(O)c2)oc2cc(O)cc(O)c12
REMARK SMILES IDX 5 1 3 2 2 3 1 4 23 5 21 6 20 7 18 8 17 9 16 10 15 11 6 12
REMARK SMILES IDX 7 13 8 14 14 15 10 16 12 17 9 18 11 20 13 22 4 24 22 26
REMARK SMILES IDX 19 28
REMARK H PARENT 9 19 11 21 13 23 4 25 22 27 19 29
REMARK Flexibility Score: inf
ROOT
ATOM      1  C   UNL     1      21.975  33.928  42.159  1.00  0.00     0.180 A 
ATOM      2  C   UNL     1      21.888  34.255  40.795  1.00  0.00     0.208 A 
ATOM      3  C   UNL     1      22.850  33.745  39.910  1.00  0.00     0.238 A 
ATOM      4  O   UNL     1      22.736  33.997  38.682  1.00  0.00    -0.285 OA
ATOM      5  C   UNL     1      23.896  32.928  40.401  1.00  0.00     0.111 A 
ATOM      6  C   UNL     1      24.948  32.389  39.601  1.00  0.00     0.134 A 
ATOM      7  C   UNL     1      25.856  31.486  40.169  1.00  0.00     0.093 A 
ATOM      8  C   UNL     1      25.789  31.154  41.522  1.00  0.00     0.123 A 
ATOM      9  C   UNL     1      24.801  31.721  42.327  1.00  0.00     0.094 A 
ATOM     10  C   UNL     1      23.859  32.597  41.781  1.00  0.00     0.146 A 
ATOM     11  O   UNL     1      22.929  33.106  42.580  1.00  0.00    -0.452 OA
ENDROOT
BRANCH   1  12
ATOM     12  C   UNL     1      21.011  34.448  43.157  1.00  0.00     0.029 A 
ATOM     13  C   UNL     1      21.382  35.520  43.982  1.00  0.00     0.062 A 
ATOM     14  C   UNL     1      20.485  36.045  44.917  1.00  0.00     0.162 A 
ATOM     15  C   UNL     1      19.710  33.927  43.257  1.00  0.00     0.062 A 
ATOM     16  C   UNL     1      19.192  35.508  45.028  1.00  0.00     0.200 A 
ATOM     17  C   UNL     1      18.803  34.448  44.190  1.00  0.00     0.162 A 
BRANCH  14  18
ATOM     18  O   UNL     1      20.897  37.103  45.728  1.00  0.00    -0.504 OA
ATOM     19  H   UNL     1      21.841  37.167  46.092  1.00  0.00     0.293 HD
ENDBRANCH  14  18
BRANCH  16  20
ATOM     20  O   UNL     1      18.303  36.035  45.966  1.00  0.00    -0.502 OA
ATOM     21  H   UNL     1      17.468  36.538  45.696  1.00  0.00     0.293 HD
ENDBRANCH  16  20
BRANCH  17  22
ATOM     22  O   UNL     1      17.517  33.920  44.285  1.00  0.00    -0.504 OA
ATOM     23  H   UNL     1      17.231  33.116  43.737  1.00  0.00     0.293 HD
ENDBRANCH  17  22
ENDBRANCH   1  12
BRANCH   2  24
ATOM     24  O   UNL     1      20.833  35.046  40.328  1.00  0.00    -0.502 OA
ATOM     25  H   UNL     1      20.884  35.558  39.456  1.00  0.00     0.293 HD
ENDBRANCH   2  24
BRANCH   6  26
ATOM     26  O   UNL     1      25.160  32.727  38.261  1.00  0.00    -0.507 OA
ATOM     27  H   UNL     1      25.942  32.412  37.706  1.00  0.00     0.293 HD
ENDBRANCH   6  26
BRANCH   8  28
ATOM     28  O   UNL     1      26.718  30.265  42.057  1.00  0.00    -0.508 OA
ATOM     29  H   UNL     1      27.245  29.630  41.469  1.00  0.00     0.293 HD
ENDBRANCH   8  28
TORSDOF 7
ENDMDL
MODEL 9
REMARK VINA RESULT:    -1.351      2.570      4.131
REMARK INTER + INTRA:          -2.024
REMARK INTER:                  -1.676
REMARK INTRA:                  -0.347
REMARK UNBOUND:                -0.357
REMARK SMILES O=c1c(O)c(-c2cc(O)c(O)c(O)c2)oc2cc(O)cc(O)c12
REMARK SMILES IDX 5 1 3 2 2 3 1 4 23 5 21 6 20 7 18 8 17 9 16 10 15 11 6 12
REMARK SMILES IDX 7 13 8 14 14 15 10 16 12 17 9 18 11 20 13 22 4 24 22 26
REMARK SMILES IDX 19 28
REMARK H PARENT 9 19 11 21 13 23 4 25 22 27 19 29
REMARK Flexibility Score: inf
ROOT
ATOM      1  C   UNL     1      18.465  33.988  43.534  1.00  0.00     0.180 A 
ATOM      2  C   UNL     1      18.332  33.915  42.137  1.00  0.00     0.208 A 
ATOM      3  C   UNL     1      17.377  33.046  41.588  1.00  0.00     0.238 A 
ATOM      4  O   UNL     1      17.226  33.025  40.338  1.00  0.00    -0.285 OA
ATOM      5  C   UNL     1      16.577  32.248  42.441  1.00  0.00     0.111 A 
ATOM      6  C   UNL     1      15.606  31.304  41.992  1.00  0.00     0.134 A 
ATOM      7  C   UNL     1      14.780  30.666  42.926  1.00  0.00     0.093 A 
ATOM      8  C   UNL     1      14.934  30.888  44.294  1.00  0.00     0.123 A 
ATOM      9  C   UNL     1      15.920  31.764  44.747  1.00  0.00     0.094 A 
ATOM     10  C   UNL     1      16.736  32.443  43.838  1.00  0.00     0.146 A 
ATOM     11  O   UNL     1      17.655  33.277  44.310  1.00  0.00    -0.452 OA
ENDROOT
BRANCH   1  12
ATOM     12  C   UNL     1      19.466  34.863  44.186  1.00  0.00     0.029 A 
ATOM     13  C   UNL     1      19.057  36.080  44.750  1.00  0.00     0.062 A 
ATOM     14  C   UNL     1      19.977  36.916  45.390  1.00  0.00     0.162 A 
ATOM     15  C   UNL     1      20.811  34.473  44.303  1.00  0.00     0.062 A 
ATOM     16  C   UNL     1      21.325  36.533  45.487  1.00  0.00     0.200 A 
ATOM     17  C   UNL     1      21.740  35.304  44.945  1.00  0.00     0.162 A 
BRANCH  14  18
ATOM     18  O   UNL     1      19.532  38.125  45.926  1.00  0.00    -0.504 OA
ATOM     19  H   UNL     1      19.035  38.810  45.369  1.00  0.00     0.293 HD
ENDBRANCH  14  18
BRANCH  16  20
ATOM     20  O   UNL     1      22.238  37.373  46.125  1.00  0.00    -0.502 OA
ATOM     21  H   UNL     1      22.341  38.348  45.875  1.00  0.00     0.293 HD
ENDBRANCH  16  20
BRANCH  17  22
ATOM     22  O   UNL     1      23.073  34.910  45.050  1.00  0.00    -0.504 OA
ATOM     23  H   UNL     1      23.538  34.401  44.306  1.00  0.00     0.293 HD
ENDBRANCH  17  22
ENDBRANCH   1  12
BRANCH   2  24
ATOM     24  O   UNL     1      19.117  34.728  41.313  1.00  0.00    -0.502 OA
ATOM     25  H   UNL     1      19.594  35.552  41.659  1.00  0.00     0.293 HD
ENDBRANCH   2  24
BRANCH   6  26
ATOM     26  O   UNL     1      15.431  30.939  40.654  1.00  0.00    -0.507 OA
ATOM     27  H   UNL     1      15.718  31.498  39.864  1.00  0.00     0.293 HD
ENDBRANCH   6  26
BRANCH   8  28
ATOM     28  O   UNL     1      14.106  30.224  45.195  1.00  0.00    -0.508 OA
ATOM     29  H   UNL     1      13.969  29.220  45.151  1.00  0.00     0.293 HD
ENDBRANCH   8  28
TORSDOF 7
ENDMDL
