MODEL 1
REMARK VINA RESULT:    -3.742      0.000      0.000
REMARK INTER + INTRA:          -5.207
REMARK INTER:                  -5.055
REMARK INTRA:                  -0.153
REMARK UNBOUND:                -0.153
REMARK SMILES CCCCCCCC(=O)[O-]
REMARK SMILES IDX 5 1 6 2 7 3 8 4 9 5 10 6 4 7 3 8 2 9 1 10
REMARK H PARENT
REMARK Flexibility Score: inf
ROOT
ATOM      1  C   UNL     1     101.085 -69.401   6.253  1.00  0.00     0.000 C 
ENDROOT
BRANCH   1   2
ATOM      2  C   UNL     1      99.820 -69.476   5.387  1.00  0.00     0.006 C 
BRANCH   2   3
ATOM      3  C   UNL     1      99.538 -68.158   4.655  1.00  0.00     0.053 C 
BRANCH   3   4
ATOM      4  C   UNL     1      98.429 -68.304   3.657  1.00  0.00     0.041 C 
ATOM      5  O   UNL     1      98.604 -68.981   2.609  1.00  0.00    -0.550 OA
ATOM      6  O   UNL     1      97.214 -67.666   3.870  1.00  0.00    -0.550 OA
ENDBRANCH   3   4
ENDBRANCH   2   3
ENDBRANCH   1   2
BRANCH   1   7
ATOM      7  C   UNL     1     101.009 -68.225   7.238  1.00  0.00     0.000 C 
BRANCH   7   8
ATOM      8  C   UNL     1     101.016 -68.693   8.709  1.00  0.00    -0.000 C 
BRANCH   8   9
ATOM      9  C   UNL     1     100.545 -67.616   9.700  1.00  0.00    -0.003 C 
ATOM     10  C   UNL     1     100.187 -68.179  11.073  1.00  0.00     0.004 C 
ENDBRANCH   8   9
ENDBRANCH   7   8
ENDBRANCH   1   7
TORSDOF 6
ENDMDL
MODEL 2
REMARK VINA RESULT:    -3.666      2.283      3.727
REMARK INTER + INTRA:          -5.105
REMARK INTER:                  -4.962
REMARK INTRA:                  -0.143
REMARK UNBOUND:                -0.153
REMARK SMILES CCCCCCCC(=O)[O-]
REMARK SMILES IDX 5 1 6 2 7 3 8 4 9 5 10 6 4 7 3 8 2 9 1 10
REMARK H PARENT
REMARK Flexibility Score: inf
ROOT
ATOM      1  C   UNL     1      99.787 -68.214   3.333  1.00  0.00     0.000 C 
ENDROOT
BRANCH   1   2
ATOM      2  C   UNL     1      98.761 -68.169   2.191  1.00  0.00     0.006 C 
BRANCH   2   3
ATOM      3  C   UNL     1      99.420 -68.310   0.813  1.00  0.00     0.053 C 
BRANCH   3   4
ATOM      4  C   UNL     1      98.737 -69.348  -0.024  1.00  0.00     0.041 C 
ATOM      5  O   UNL     1      98.460 -70.476   0.465  1.00  0.00    -0.550 OA
ATOM      6  O   UNL     1      98.438 -69.083  -1.354  1.00  0.00    -0.550 OA
ENDBRANCH   3   4
ENDBRANCH   2   3
ENDBRANCH   1   2
BRANCH   1   7
ATOM      7  C   UNL     1      99.128 -68.648   4.650  1.00  0.00     0.000 C 
BRANCH   7   8
ATOM      8  C   UNL     1     100.074 -69.496   5.525  1.00  0.00    -0.000 C 
BRANCH   8   9
ATOM      9  C   UNL     1     101.129 -68.665   6.275  1.00  0.00    -0.003 C 
ATOM     10  C   UNL     1     101.011 -68.774   7.793  1.00  0.00     0.004 C 
ENDBRANCH   8   9
ENDBRANCH   7   8
ENDBRANCH   1   7
TORSDOF 6
ENDMDL
MODEL 3
REMARK VINA RESULT:    -3.626      1.623      2.675
REMARK INTER + INTRA:          -5.051
REMARK INTER:                  -4.817
REMARK INTRA:                  -0.233
REMARK UNBOUND:                -0.153
REMARK SMILES CCCCCCCC(=O)[O-]
REMARK SMILES IDX 5 1 6 2 7 3 8 4 9 5 10 6 4 7 3 8 2 9 1 10
REMARK H PARENT
REMARK Flexibility Score: inf
ROOT
ATOM      1  C   UNL     1      99.548 -68.053   4.792  1.00  0.00     0.000 C 
ENDROOT
BRANCH   1   2
ATOM      2  C   UNL     1      98.368 -68.141   3.815  1.00  0.00     0.006 C 
BRANCH   2   3
ATOM      3  C   UNL     1      98.678 -67.477   2.467  1.00  0.00     0.053 C 
BRANCH   3   4
ATOM      4  C   UNL     1      99.574 -68.330   1.622  1.00  0.00     0.041 C 
ATOM      5  O   UNL     1      99.087 -69.245   0.905  1.00  0.00    -0.550 OA
ATOM      6  O   UNL     1     100.949 -68.137   1.651  1.00  0.00    -0.550 OA
ENDBRANCH   3   4
ENDBRANCH   2   3
ENDBRANCH   1   2
BRANCH   1   7
ATOM      7  C   UNL     1      99.902 -69.437   5.355  1.00  0.00     0.000 C 
BRANCH   7   8
ATOM      8  C   UNL     1     101.112 -69.386   6.312  1.00  0.00    -0.000 C 
BRANCH   8   9
ATOM      9  C   UNL     1     101.085 -68.189   7.277  1.00  0.00    -0.003 C 
ATOM     10  C   UNL     1     100.922 -68.600   8.738  1.00  0.00     0.004 C 
ENDBRANCH   8   9
ENDBRANCH   7   8
ENDBRANCH   1   7
TORSDOF 6
ENDMDL
MODEL 4
REMARK VINA RESULT:    -3.626      1.504      2.279
REMARK INTER + INTRA:          -5.051
REMARK INTER:                  -4.804
REMARK INTRA:                  -0.246
REMARK UNBOUND:                -0.153
REMARK SMILES CCCCCCCC(=O)[O-]
REMARK SMILES IDX 5 1 6 2 7 3 8 4 9 5 10 6 4 7 3 8 2 9 1 10
REMARK H PARENT
REMARK Flexibility Score: inf
ROOT
ATOM      1  C   UNL     1     100.957 -68.559   8.275  1.00  0.00     0.000 C 
ENDROOT
BRANCH   1   2
ATOM      2  C   UNL     1     101.532 -68.575   6.852  1.00  0.00     0.006 C 
BRANCH   2   3
ATOM      3  C   UNL     1     100.485 -68.192   5.798  1.00  0.00     0.053 C 
BRANCH   3   4
ATOM      4  C   UNL     1      99.978 -69.392   5.059  1.00  0.00     0.041 C 
ATOM      5  O   UNL     1     100.354 -70.548   5.390  1.00  0.00    -0.550 OA
ATOM      6  O   UNL     1      99.115 -69.232   3.982  1.00  0.00    -0.550 OA
ENDBRANCH   3   4
ENDBRANCH   2   3
ENDBRANCH   1   2
BRANCH   1   7
ATOM      7  C   UNL     1     100.984 -67.141   8.864  1.00  0.00     0.000 C 
BRANCH   7   8
ATOM      8  C   UNL     1     100.221 -67.050  10.203  1.00  0.00    -0.000 C 
BRANCH   8   9
ATOM      9  C   UNL     1     100.236 -68.359  11.010  1.00  0.00    -0.003 C 
ATOM     10  C   UNL     1     101.416 -68.457  11.973  1.00  0.00     0.004 C 
ENDBRANCH   8   9
ENDBRANCH   7   8
ENDBRANCH   1   7
TORSDOF 6
ENDMDL
MODEL 5
REMARK VINA RESULT:    -3.613      3.123      4.425
REMARK INTER + INTRA:          -5.033
REMARK INTER:                  -4.843
REMARK INTRA:                  -0.190
REMARK UNBOUND:                -0.153
REMARK SMILES CCCCCCCC(=O)[O-]
REMARK SMILES IDX 5 1 6 2 7 3 8 4 9 5 10 6 4 7 3 8 2 9 1 10
REMARK H PARENT
REMARK Flexibility Score: inf
ROOT
ATOM      1  C   UNL     1      98.260 -68.050   2.872  1.00  0.00     0.000 C 
ENDROOT
BRANCH   1   2
ATOM      2  C   UNL     1      99.465 -68.284   1.950  1.00  0.00     0.006 C 
BRANCH   2   3
ATOM      3  C   UNL     1      99.134 -68.004   0.479  1.00  0.00     0.053 C 
BRANCH   3   4
ATOM      4  C   UNL     1      98.668 -69.239  -0.230  1.00  0.00     0.041 C 
ATOM      5  O   UNL     1      98.550 -70.325   0.398  1.00  0.00    -0.550 OA
ATOM      6  O   UNL     1      98.397 -69.198  -1.591  1.00  0.00    -0.550 OA
ENDBRANCH   3   4
ENDBRANCH   2   3
ENDBRANCH   1   2
BRANCH   1   7
ATOM      7  C   UNL     1      98.635 -68.293   4.341  1.00  0.00     0.000 C 
BRANCH   7   8
ATOM      8  C   UNL     1     100.120 -68.677   4.510  1.00  0.00    -0.000 C 
BRANCH   8   9
ATOM      9  C   UNL     1     100.375 -69.658   5.667  1.00  0.00    -0.003 C 
ATOM     10  C   UNL     1     101.836 -70.085   5.781  1.00  0.00     0.004 C 
ENDBRANCH   8   9
ENDBRANCH   7   8
ENDBRANCH   1   7
TORSDOF 6
ENDMDL
MODEL 6
REMARK VINA RESULT:    -3.573      3.682      5.791
REMARK INTER + INTRA:          -4.979
REMARK INTER:                  -4.702
REMARK INTRA:                  -0.278
REMARK UNBOUND:                -0.153
REMARK SMILES CCCCCCCC(=O)[O-]
REMARK SMILES IDX 5 1 6 2 7 3 8 4 9 5 10 6 4 7 3 8 2 9 1 10
REMARK H PARENT
REMARK Flexibility Score: inf
ROOT
ATOM      1  C   UNL     1     101.014 -67.598   6.919  1.00  0.00     0.000 C 
ENDROOT
BRANCH   1   2
ATOM      2  C   UNL     1     100.961 -67.388   8.439  1.00  0.00     0.006 C 
BRANCH   2   3
ATOM      3  C   UNL     1     100.962 -68.714   9.209  1.00  0.00     0.053 C 
BRANCH   3   4
ATOM      4  C   UNL     1     100.539 -68.529  10.634  1.00  0.00     0.041 C 
ATOM      5  O   UNL     1     100.793 -69.415  11.492  1.00  0.00    -0.550 OA
ATOM      6  O   UNL     1      99.836 -67.391  11.008  1.00  0.00    -0.550 OA
ENDBRANCH   3   4
ENDBRANCH   2   3
ENDBRANCH   1   2
BRANCH   1   7
ATOM      7  C   UNL     1     100.912 -69.089   6.565  1.00  0.00     0.000 C 
BRANCH   7   8
ATOM      8  C   UNL     1      99.890 -69.354   5.440  1.00  0.00    -0.000 C 
BRANCH   8   9
ATOM      9  C   UNL     1      99.641 -68.135   4.535  1.00  0.00    -0.003 C 
ATOM     10  C   UNL     1      98.344 -68.236   3.735  1.00  0.00     0.004 C 
ENDBRANCH   8   9
ENDBRANCH   7   8
ENDBRANCH   1   7
TORSDOF 6
ENDMDL
MODEL 7
REMARK VINA RESULT:    -3.431      2.400      4.074
REMARK INTER + INTRA:          -4.787
REMARK INTER:                  -4.452
REMARK INTRA:                  -0.335
REMARK UNBOUND:                -0.153
REMARK SMILES CCCCCCCC(=O)[O-]
REMARK SMILES IDX 5 1 6 2 7 3 8 4 9 5 10 6 4 7 3 8 2 9 1 10
REMARK H PARENT
REMARK Flexibility Score: inf
ROOT
ATOM      1  C   UNL     1      98.131 -67.442   3.349  1.00  0.00     0.000 C 
ENDROOT
BRANCH   1   2
ATOM      2  C   UNL     1      99.263 -66.882   2.476  1.00  0.00     0.006 C 
BRANCH   2   3
ATOM      3  C   UNL     1      99.025 -67.136   0.982  1.00  0.00     0.053 C 
BRANCH   3   4
ATOM      4  C   UNL     1      99.665 -68.413   0.528  1.00  0.00     0.041 C 
ATOM      5  O   UNL     1     100.850 -68.412   0.103  1.00  0.00    -0.550 OA
ATOM      6  O   UNL     1      98.940 -69.598   0.544  1.00  0.00    -0.550 OA
ENDBRANCH   3   4
ENDBRANCH   2   3
ENDBRANCH   1   2
BRANCH   1   7
ATOM      7  C   UNL     1      98.622 -68.627   4.194  1.00  0.00     0.000 C 
BRANCH   7   8
ATOM      8  C   UNL     1     100.134 -68.545   4.492  1.00  0.00    -0.000 C 
BRANCH   8   9
ATOM      9  C   UNL     1     100.619 -69.590   5.511  1.00  0.00    -0.003 C 
ATOM     10  C   UNL     1     100.917 -68.995   6.885  1.00  0.00     0.004 C 
ENDBRANCH   8   9
ENDBRANCH   7   8
ENDBRANCH   1   7
TORSDOF 6
ENDMDL
MODEL 8
REMARK VINA RESULT:    -3.211      3.366      5.175
REMARK INTER + INTRA:          -4.490
REMARK INTER:                  -3.957
REMARK INTRA:                  -0.533
REMARK UNBOUND:                -0.153
REMARK SMILES CCCCCCCC(=O)[O-]
REMARK SMILES IDX 5 1 6 2 7 3 8 4 9 5 10 6 4 7 3 8 2 9 1 10
REMARK H PARENT
REMARK Flexibility Score: inf
ROOT
ATOM      1  C   UNL     1      97.939 -65.935   1.899  1.00  0.00     0.000 C 
ENDROOT
BRANCH   1   2
ATOM      2  C   UNL     1      99.242 -65.862   1.090  1.00  0.00     0.006 C 
BRANCH   2   3
ATOM      3  C   UNL     1      99.335 -66.972   0.036  1.00  0.00     0.053 C 
BRANCH   3   4
ATOM      4  C   UNL     1      99.824 -68.259   0.628  1.00  0.00     0.041 C 
ATOM      5  O   UNL     1     100.905 -68.291   1.273  1.00  0.00    -0.550 OA
ATOM      6  O   UNL     1      99.100 -69.430   0.440  1.00  0.00    -0.550 OA
ENDBRANCH   3   4
ENDBRANCH   2   3
ENDBRANCH   1   2
BRANCH   1   7
ATOM      7  C   UNL     1      98.228 -66.175   3.388  1.00  0.00     0.000 C 
BRANCH   7   8
ATOM      8  C   UNL     1      97.693 -67.539   3.874  1.00  0.00    -0.000 C 
BRANCH   8   9
ATOM      9  C   UNL     1      98.795 -68.588   4.099  1.00  0.00    -0.003 C 
ATOM     10  C   UNL     1      99.942 -68.077   4.968  1.00  0.00     0.004 C 
ENDBRANCH   8   9
ENDBRANCH   7   8
ENDBRANCH   1   7
TORSDOF 6
ENDMDL
MODEL 9
REMARK VINA RESULT:    -3.082      3.719      4.798
REMARK INTER + INTRA:          -4.315
REMARK INTER:                  -3.835
REMARK INTRA:                  -0.480
REMARK UNBOUND:                -0.153
REMARK SMILES CCCCCCCC(=O)[O-]
REMARK SMILES IDX 5 1 6 2 7 3 8 4 9 5 10 6 4 7 3 8 2 9 1 10
REMARK H PARENT
REMARK Flexibility Score: inf
ROOT
ATOM      1  C   UNL     1     100.833 -66.822   3.471  1.00  0.00     0.000 C 
ENDROOT
BRANCH   1   2
ATOM      2  C   UNL     1     100.748 -67.905   2.386  1.00  0.00     0.006 C 
BRANCH   2   3
ATOM      3  C   UNL     1     100.349 -67.329   1.022  1.00  0.00     0.053 C 
BRANCH   3   4
ATOM      4  C   UNL     1      99.560 -68.314   0.213  1.00  0.00     0.041 C 
ATOM      5  O   UNL     1      99.417 -68.147  -1.027  1.00  0.00    -0.550 OA
ATOM      6  O   UNL     1      98.956 -69.399   0.836  1.00  0.00    -0.550 OA
ENDBRANCH   3   4
ENDBRANCH   2   3
ENDBRANCH   1   2
BRANCH   1   7
ATOM      7  C   UNL     1      99.746 -67.024   4.537  1.00  0.00     0.000 C 
BRANCH   7   8
ATOM      8  C   UNL     1      98.815 -68.210   4.205  1.00  0.00    -0.000 C 
BRANCH   8   9
ATOM      9  C   UNL     1      97.393 -67.783   3.804  1.00  0.00    -0.003 C 
ATOM     10  C   UNL     1      97.201 -66.268   3.797  1.00  0.00     0.004 C 
ENDBRANCH   8   9
ENDBRANCH   7   8
ENDBRANCH   1   7
TORSDOF 6
ENDMDL
