MODEL 1
REMARK VINA RESULT:    -4.808      0.000      0.000
REMARK INTER + INTRA:          -5.634
REMARK INTER:                  -5.370
REMARK INTRA:                  -0.264
REMARK UNBOUND:                -0.264
REMARK SMILES CC(=O)c1ccc(O)cc1O
REMARK SMILES IDX 4 1 10 2 9 3 7 4 6 5 5 6 2 7 1 8 3 9 11 10 8 12
REMARK H PARENT 11 11 8 13
REMARK Flexibility Score: inf
ROOT
ATOM      1  C   UNL     1       7.234  -9.660  42.651  1.00  0.00     0.059 A 
ATOM      2  C   UNL     1       7.675  -9.281  43.941  1.00  0.00     0.130 A 
ATOM      3  C   UNL     1       8.578  -8.216  44.087  1.00  0.00     0.093 A 
ATOM      4  C   UNL     1       9.060  -7.535  42.969  1.00  0.00     0.119 A 
ATOM      5  C   UNL     1       8.643  -7.916  41.691  1.00  0.00     0.047 A 
ATOM      6  C   UNL     1       7.740  -8.970  41.533  1.00  0.00     0.019 A 
ENDROOT
BRANCH   1   7
ATOM      7  C   UNL     1       6.264 -10.768  42.429  1.00  0.00     0.163 C 
ATOM      8  C   UNL     1       6.171 -11.506  41.127  1.00  0.00     0.093 C 
ATOM      9  O   UNL     1       5.489 -11.106  43.364  1.00  0.00    -0.294 OA
ENDBRANCH   1   7
BRANCH   2  10
ATOM     10  O   UNL     1       7.242  -9.967  45.076  1.00  0.00    -0.507 OA
ATOM     11  H   UNL     1       6.403  -9.695  45.576  1.00  0.00     0.293 HD
ENDBRANCH   2  10
BRANCH   4  12
ATOM     12  O   UNL     1       9.958  -6.482  43.138  1.00  0.00    -0.508 OA
ATOM     13  H   UNL     1       9.793  -5.750  43.819  1.00  0.00     0.293 HD
ENDBRANCH   4  12
TORSDOF 3
ENDMDL
MODEL 2
REMARK VINA RESULT:    -4.781      1.508      2.317
REMARK INTER + INTRA:          -5.604
REMARK INTER:                  -5.340
REMARK INTRA:                  -0.264
REMARK UNBOUND:                -0.264
REMARK SMILES CC(=O)c1ccc(O)cc1O
REMARK SMILES IDX 4 1 10 2 9 3 7 4 6 5 5 6 2 7 1 8 3 9 11 10 8 12
REMARK H PARENT 11 11 8 13
REMARK Flexibility Score: inf
ROOT
ATOM      1  C   UNL     1       6.990 -10.007  42.806  1.00  0.00     0.059 A 
ATOM      2  C   UNL     1       7.314  -9.204  41.686  1.00  0.00     0.130 A 
ATOM      3  C   UNL     1       8.230  -8.150  41.823  1.00  0.00     0.093 A 
ATOM      4  C   UNL     1       8.814  -7.872  43.060  1.00  0.00     0.119 A 
ATOM      5  C   UNL     1       8.484  -8.649  44.173  1.00  0.00     0.047 A 
ATOM      6  C   UNL     1       7.579  -9.706  44.048  1.00  0.00     0.019 A 
ENDROOT
BRANCH   1   7
ATOM      7  C   UNL     1       6.041 -11.151  42.723  1.00  0.00     0.163 C 
ATOM      8  C   UNL     1       5.305 -11.673  43.921  1.00  0.00     0.093 C 
ATOM      9  O   UNL     1       5.840 -11.708  41.611  1.00  0.00    -0.294 OA
ENDBRANCH   1   7
BRANCH   2  10
ATOM     10  O   UNL     1       6.717  -9.432  40.446  1.00  0.00    -0.507 OA
ATOM     11  H   UNL     1       7.236  -9.824  39.668  1.00  0.00     0.293 HD
ENDBRANCH   2  10
BRANCH   4  12
ATOM     12  O   UNL     1       9.719  -6.818  43.172  1.00  0.00    -0.508 OA
ATOM     13  H   UNL     1       9.409  -5.869  43.347  1.00  0.00     0.293 HD
ENDBRANCH   4  12
TORSDOF 3
ENDMDL
MODEL 3
REMARK VINA RESULT:    -4.778      1.447      4.050
REMARK INTER + INTRA:          -5.601
REMARK INTER:                  -5.297
REMARK INTRA:                  -0.304
REMARK UNBOUND:                -0.264
REMARK SMILES CC(=O)c1ccc(O)cc1O
REMARK SMILES IDX 4 1 10 2 9 3 7 4 6 5 5 6 2 7 1 8 3 9 11 10 8 12
REMARK H PARENT 11 11 8 13
REMARK Flexibility Score: inf
ROOT
ATOM      1  C   UNL     1       8.050  -7.669  42.629  1.00  0.00     0.059 A 
ATOM      2  C   UNL     1       8.031  -8.221  43.932  1.00  0.00     0.130 A 
ATOM      3  C   UNL     1       7.621  -9.550  44.124  1.00  0.00     0.093 A 
ATOM      4  C   UNL     1       7.214 -10.331  43.041  1.00  0.00     0.119 A 
ATOM      5  C   UNL     1       7.213  -9.786  41.754  1.00  0.00     0.047 A 
ATOM      6  C   UNL     1       7.624  -8.467  41.550  1.00  0.00     0.019 A 
ENDROOT
BRANCH   1   7
ATOM      7  C   UNL     1       8.490  -6.274  42.356  1.00  0.00     0.163 C 
ATOM      8  C   UNL     1       7.654  -5.305  41.574  1.00  0.00     0.093 C 
ATOM      9  O   UNL     1       9.605  -5.881  42.794  1.00  0.00    -0.294 OA
ENDBRANCH   1   7
BRANCH   2  10
ATOM     10  O   UNL     1       8.394  -7.454  45.039  1.00  0.00    -0.507 OA
ATOM     11  H   UNL     1       9.142  -7.737  45.662  1.00  0.00     0.293 HD
ENDBRANCH   2  10
BRANCH   4  12
ATOM     12  O   UNL     1       6.809 -11.647  43.256  1.00  0.00    -0.508 OA
ATOM     13  H   UNL     1       6.684 -12.017  44.191  1.00  0.00     0.293 HD
ENDBRANCH   4  12
TORSDOF 3
ENDMDL
MODEL 4
REMARK VINA RESULT:    -4.700      1.249      3.984
REMARK INTER + INTRA:          -5.514
REMARK INTER:                  -5.207
REMARK INTRA:                  -0.307
REMARK UNBOUND:                -0.264
REMARK SMILES CC(=O)c1ccc(O)cc1O
REMARK SMILES IDX 4 1 10 2 9 3 7 4 6 5 5 6 2 7 1 8 3 9 11 10 8 12
REMARK H PARENT 11 11 8 13
REMARK Flexibility Score: inf
ROOT
ATOM      1  C   UNL     1       7.788  -8.925  42.938  1.00  0.00     0.059 A 
ATOM      2  C   UNL     1       7.124  -9.907  43.710  1.00  0.00     0.130 A 
ATOM      3  C   UNL     1       6.305 -10.858  43.080  1.00  0.00     0.093 A 
ATOM      4  C   UNL     1       6.124 -10.833  41.697  1.00  0.00     0.119 A 
ATOM      5  C   UNL     1       6.761  -9.854  40.930  1.00  0.00     0.047 A 
ATOM      6  C   UNL     1       7.584  -8.907  41.545  1.00  0.00     0.019 A 
ENDROOT
BRANCH   1   7
ATOM      7  C   UNL     1       8.683  -7.901  43.542  1.00  0.00     0.163 C 
ATOM      8  C   UNL     1       8.574  -6.442  43.213  1.00  0.00     0.093 C 
ATOM      9  O   UNL     1       9.570  -8.263  44.362  1.00  0.00    -0.294 OA
ENDBRANCH   1   7
BRANCH   2  10
ATOM     10  O   UNL     1       7.254  -9.934  45.099  1.00  0.00    -0.507 OA
ATOM     11  H   UNL     1       8.018  -9.464  45.572  1.00  0.00     0.293 HD
ENDBRANCH   2  10
BRANCH   4  12
ATOM     12  O   UNL     1       5.304 -11.786  41.093  1.00  0.00    -0.508 OA
ATOM     13  H   UNL     1       4.307 -11.815  41.271  1.00  0.00     0.293 HD
ENDBRANCH   4  12
TORSDOF 3
ENDMDL
MODEL 5
REMARK VINA RESULT:    -4.495      1.680      4.472
REMARK INTER + INTRA:          -5.284
REMARK INTER:                  -5.071
REMARK INTRA:                  -0.213
REMARK UNBOUND:                -0.264
REMARK SMILES CC(=O)c1ccc(O)cc1O
REMARK SMILES IDX 4 1 10 2 9 3 7 4 6 5 5 6 2 7 1 8 3 9 11 10 8 12
REMARK H PARENT 11 11 8 13
REMARK Flexibility Score: inf
ROOT
ATOM      1  C   UNL     1       7.526  -9.149  42.376  1.00  0.00     0.059 A 
ATOM      2  C   UNL     1       6.688  -9.952  41.566  1.00  0.00     0.130 A 
ATOM      3  C   UNL     1       5.955 -11.001  42.141  1.00  0.00     0.093 A 
ATOM      4  C   UNL     1       6.057 -11.275  43.506  1.00  0.00     0.119 A 
ATOM      5  C   UNL     1       6.897 -10.498  44.308  1.00  0.00     0.047 A 
ATOM      6  C   UNL     1       7.627  -9.447  43.749  1.00  0.00     0.019 A 
ENDROOT
BRANCH   1   7
ATOM      7  C   UNL     1       8.315  -8.011  41.832  1.00  0.00     0.163 C 
ATOM      8  C   UNL     1       7.914  -6.582  42.041  1.00  0.00     0.093 C 
ATOM      9  O   UNL     1       9.361  -8.246  41.169  1.00  0.00    -0.294 OA
ENDBRANCH   1   7
BRANCH   2  10
ATOM     10  O   UNL     1       6.595  -9.729  40.192  1.00  0.00    -0.507 OA
ATOM     11  H   UNL     1       7.370  -9.352  39.659  1.00  0.00     0.293 HD
ENDBRANCH   2  10
BRANCH   4  12
ATOM     12  O   UNL     1       5.322 -12.324  44.055  1.00  0.00    -0.508 OA
ATOM     13  H   UNL     1       5.278 -13.232  43.607  1.00  0.00     0.293 HD
ENDBRANCH   4  12
TORSDOF 3
ENDMDL
MODEL 6
REMARK VINA RESULT:    -4.440      3.270      5.399
REMARK INTER + INTRA:          -5.223
REMARK INTER:                  -4.949
REMARK INTRA:                  -0.274
REMARK UNBOUND:                -0.264
REMARK SMILES CC(=O)c1ccc(O)cc1O
REMARK SMILES IDX 4 1 10 2 9 3 7 4 6 5 5 6 2 7 1 8 3 9 11 10 8 12
REMARK H PARENT 11 11 8 13
REMARK Flexibility Score: inf
ROOT
ATOM      1  C   UNL     1       8.743  -5.288  41.142  1.00  0.00     0.059 A 
ATOM      2  C   UNL     1       9.472  -6.466  41.430  1.00  0.00     0.130 A 
ATOM      3  C   UNL     1       9.232  -7.164  42.624  1.00  0.00     0.093 A 
ATOM      4  C   UNL     1       8.290  -6.698  43.542  1.00  0.00     0.119 A 
ATOM      5  C   UNL     1       7.580  -5.525  43.272  1.00  0.00     0.047 A 
ATOM      6  C   UNL     1       7.806  -4.825  42.085  1.00  0.00     0.019 A 
ENDROOT
BRANCH   1   7
ATOM      7  C   UNL     1       8.938  -4.512  39.887  1.00  0.00     0.163 C 
ATOM      8  C   UNL     1       7.843  -3.695  39.269  1.00  0.00     0.093 C 
ATOM      9  O   UNL     1      10.060  -4.536  39.314  1.00  0.00    -0.294 OA
ENDBRANCH   1   7
BRANCH   2  10
ATOM     10  O   UNL     1      10.448  -6.936  40.551  1.00  0.00    -0.507 OA
ATOM     11  H   UNL     1      10.875  -7.848  40.667  1.00  0.00     0.293 HD
ENDBRANCH   2  10
BRANCH   4  12
ATOM     12  O   UNL     1       8.070  -7.406  44.722  1.00  0.00    -0.508 OA
ATOM     13  H   UNL     1       8.469  -7.105  45.603  1.00  0.00     0.293 HD
ENDBRANCH   4  12
TORSDOF 3
ENDMDL
MODEL 7
REMARK VINA RESULT:    -4.356      7.876      9.640
REMARK INTER + INTRA:          -5.130
REMARK INTER:                  -4.831
REMARK INTRA:                  -0.299
REMARK UNBOUND:                -0.264
REMARK SMILES CC(=O)c1ccc(O)cc1O
REMARK SMILES IDX 4 1 10 2 9 3 7 4 6 5 5 6 2 7 1 8 3 9 11 10 8 12
REMARK H PARENT 11 11 8 13
REMARK Flexibility Score: inf
ROOT
ATOM      1  C   UNL     1       7.122  -2.479  37.686  1.00  0.00     0.059 A 
ATOM      2  C   UNL     1       7.542  -3.210  36.549  1.00  0.00     0.130 A 
ATOM      3  C   UNL     1       7.032  -2.888  35.282  1.00  0.00     0.093 A 
ATOM      4  C   UNL     1       6.097  -1.863  35.131  1.00  0.00     0.119 A 
ATOM      5  C   UNL     1       5.664  -1.150  36.252  1.00  0.00     0.047 A 
ATOM      6  C   UNL     1       6.169  -1.456  37.518  1.00  0.00     0.019 A 
ENDROOT
BRANCH   1   7
ATOM      7  C   UNL     1       7.638  -2.758  39.053  1.00  0.00     0.163 C 
ATOM      8  C   UNL     1       7.983  -1.666  40.020  1.00  0.00     0.093 C 
ATOM      9  O   UNL     1       7.794  -3.953  39.423  1.00  0.00    -0.294 OA
ENDBRANCH   1   7
BRANCH   2  10
ATOM     10  O   UNL     1       8.445  -4.266  36.671  1.00  0.00    -0.507 OA
ATOM     11  H   UNL     1       8.540  -4.789  37.535  1.00  0.00     0.293 HD
ENDBRANCH   2  10
BRANCH   4  12
ATOM     12  O   UNL     1       5.603  -1.563  33.863  1.00  0.00    -0.508 OA
ATOM     13  H   UNL     1       5.519  -2.273  33.146  1.00  0.00     0.293 HD
ENDBRANCH   4  12
TORSDOF 3
ENDMDL
MODEL 8
REMARK VINA RESULT:    -4.321     14.517     15.294
REMARK INTER + INTRA:          -5.090
REMARK INTER:                  -4.801
REMARK INTRA:                  -0.289
REMARK UNBOUND:                -0.264
REMARK SMILES CC(=O)c1ccc(O)cc1O
REMARK SMILES IDX 4 1 10 2 9 3 7 4 6 5 5 6 2 7 1 8 3 9 11 10 8 12
REMARK H PARENT 11 11 8 13
REMARK Flexibility Score: inf
ROOT
ATOM      1  C   UNL     1      21.364 -13.244  46.113  1.00  0.00     0.059 A 
ATOM      2  C   UNL     1      22.399 -13.976  46.742  1.00  0.00     0.130 A 
ATOM      3  C   UNL     1      23.478 -13.299  47.331  1.00  0.00     0.093 A 
ATOM      4  C   UNL     1      23.552 -11.906  47.287  1.00  0.00     0.119 A 
ATOM      5  C   UNL     1      22.542 -11.178  46.651  1.00  0.00     0.047 A 
ATOM      6  C   UNL     1      21.460 -11.840  46.067  1.00  0.00     0.019 A 
ENDROOT
BRANCH   1   7
ATOM      7  C   UNL     1      20.185 -13.901  45.487  1.00  0.00     0.163 C 
ATOM      8  C   UNL     1      19.856 -13.745  44.032  1.00  0.00     0.093 C 
ATOM      9  O   UNL     1      19.428 -14.617  46.196  1.00  0.00    -0.294 OA
ENDBRANCH   1   7
BRANCH   2  10
ATOM     10  O   UNL     1      22.375 -15.371  46.768  1.00  0.00    -0.507 OA
ATOM     11  H   UNL     1      22.811 -15.898  47.516  1.00  0.00     0.293 HD
ENDBRANCH   2  10
BRANCH   4  12
ATOM     12  O   UNL     1      24.634 -11.254  47.877  1.00  0.00    -0.508 OA
ATOM     13  H   UNL     1      25.471 -11.757  48.148  1.00  0.00     0.293 HD
ENDBRANCH   4  12
TORSDOF 3
ENDMDL
MODEL 9
REMARK VINA RESULT:    -4.298     16.498     17.321
REMARK INTER + INTRA:          -5.065
REMARK INTER:                  -4.781
REMARK INTRA:                  -0.284
REMARK UNBOUND:                -0.264
REMARK SMILES CC(=O)c1ccc(O)cc1O
REMARK SMILES IDX 4 1 10 2 9 3 7 4 6 5 5 6 2 7 1 8 3 9 11 10 8 12
REMARK H PARENT 11 11 8 13
REMARK Flexibility Score: inf
ROOT
ATOM      1  C   UNL     1      23.847 -14.867  46.700  1.00  0.00     0.059 A 
ATOM      2  C   UNL     1      22.578 -14.247  46.797  1.00  0.00     0.130 A 
ATOM      3  C   UNL     1      22.486 -12.848  46.857  1.00  0.00     0.093 A 
ATOM      4  C   UNL     1      23.636 -12.058  46.840  1.00  0.00     0.119 A 
ATOM      5  C   UNL     1      24.893 -12.665  46.763  1.00  0.00     0.047 A 
ATOM      6  C   UNL     1      24.998 -14.056  46.696  1.00  0.00     0.019 A 
ENDROOT
BRANCH   1   7
ATOM      7  C   UNL     1      24.013 -16.344  46.614  1.00  0.00     0.163 C 
ATOM      8  C   UNL     1      24.762 -17.130  47.647  1.00  0.00     0.093 C 
ATOM      9  O   UNL     1      23.508 -16.966  45.640  1.00  0.00    -0.294 OA
ENDBRANCH   1   7
BRANCH   2  10
ATOM     10  O   UNL     1      21.412 -15.010  46.855  1.00  0.00    -0.507 OA
ATOM     11  H   UNL     1      20.979 -15.255  47.738  1.00  0.00     0.293 HD
ENDBRANCH   2  10
BRANCH   4  12
ATOM     12  O   UNL     1      23.520 -10.671  46.904  1.00  0.00    -0.508 OA
ATOM     13  H   UNL     1      23.098 -10.210  47.701  1.00  0.00     0.293 HD
ENDBRANCH   4  12
TORSDOF 3
ENDMDL
