MODEL 1
REMARK VINA RESULT:    -3.830      0.000      0.000
REMARK INTER + INTRA:          -9.776
REMARK INTER:                  -6.965
REMARK INTRA:                  -2.811
REMARK UNBOUND:                -2.811
REMARK SMILES CCCCCC=CCC=CCCCCCCCC(=O)[O-]
REMARK SMILES IDX 11 1 12 2 13 3 14 4 15 5 16 6 17 7 18 8 19 9 20 10 10 11
REMARK SMILES IDX 9 12 8 13 7 14 6 15 5 16 4 17 3 18 2 19 1 20
REMARK H PARENT
REMARK Flexibility Score: inf
ROOT
ATOM      1  C   UNL     1      51.789 -42.024 -31.186  1.00  0.00     0.027 C 
ENDROOT
BRANCH   1   2
ATOM      2  C   UNL     1      51.092 -43.293 -30.676  1.00  0.00     0.004 C 
BRANCH   2   3
ATOM      3  C   UNL     1      49.651 -43.024 -30.220  1.00  0.00     0.000 C 
BRANCH   3   4
ATOM      4  C   UNL     1      49.234 -44.006 -29.116  1.00  0.00     0.000 C 
BRANCH   4   5
ATOM      5  C   UNL     1      48.514 -43.275 -27.975  1.00  0.00     0.000 C 
BRANCH   5   6
ATOM      6  C   UNL     1      49.102 -41.881 -27.695  1.00  0.00     0.006 C 
BRANCH   6   7
ATOM      7  C   UNL     1      48.088 -40.729 -27.800  1.00  0.00     0.053 C 
BRANCH   7   8
ATOM      8  C   UNL     1      47.246 -40.606 -26.565  1.00  0.00     0.041 C 
ATOM      9  O   UNL     1      47.779 -40.312 -25.461  1.00  0.00    -0.550 OA
ATOM     10  O   UNL     1      45.880 -40.855 -26.627  1.00  0.00    -0.550 OA
ENDBRANCH   7   8
ENDBRANCH   6   7
ENDBRANCH   5   6
ENDBRANCH   4   5
ENDBRANCH   3   4
ENDBRANCH   2   3
ENDBRANCH   1   2
BRANCH   1  11
ATOM     11  C   UNL     1      51.438 -40.815 -30.351  1.00  0.00    -0.031 C 
ATOM     12  C   UNL     1      52.078 -40.443 -29.225  1.00  0.00    -0.027 C 
BRANCH  12  13
ATOM     13  C   UNL     1      53.234 -41.180 -28.600  1.00  0.00     0.054 C 
BRANCH  13  14
ATOM     14  C   UNL     1      52.773 -41.993 -27.426  1.00  0.00    -0.027 C 
ATOM     15  C   UNL     1      52.594 -43.322 -27.507  1.00  0.00    -0.031 C 
BRANCH  15  16
ATOM     16  C   UNL     1      52.163 -44.124 -26.310  1.00  0.00     0.027 C 
BRANCH  16  17
ATOM     17  C   UNL     1      51.635 -43.225 -25.181  1.00  0.00     0.004 C 
BRANCH  17  18
ATOM     18  C   UNL     1      50.286 -43.697 -24.607  1.00  0.00     0.000 C 
BRANCH  18  19
ATOM     19  C   UNL     1      50.006 -43.103 -23.220  1.00  0.00    -0.003 C 
ATOM     20  C   UNL     1      50.412 -41.633 -23.157  1.00  0.00     0.004 C 
ENDBRANCH  18  19
ENDBRANCH  17  18
ENDBRANCH  16  17
ENDBRANCH  15  16
ENDBRANCH  13  14
ENDBRANCH  12  13
ENDBRANCH   1  11
TORSDOF 14
ENDMDL
MODEL 2
REMARK VINA RESULT:    -3.771      4.254      6.833
REMARK INTER + INTRA:          -9.669
REMARK INTER:                  -6.855
REMARK INTRA:                  -2.815
REMARK UNBOUND:                -2.811
REMARK SMILES CCCCCC=CCC=CCCCCCCCC(=O)[O-]
REMARK SMILES IDX 11 1 12 2 13 3 14 4 15 5 16 6 17 7 18 8 19 9 20 10 10 11
REMARK SMILES IDX 9 12 8 13 7 14 6 15 5 16 4 17 3 18 2 19 1 20
REMARK H PARENT
REMARK Flexibility Score: inf
ROOT
ATOM      1  C   UNL     1      55.206 -41.532 -24.997  1.00  0.00     0.027 C 
ENDROOT
BRANCH   1   2
ATOM      2  C   UNL     1      56.203 -42.700 -25.017  1.00  0.00     0.004 C 
BRANCH   2   3
ATOM      3  C   UNL     1      56.003 -43.617 -26.231  1.00  0.00     0.000 C 
BRANCH   3   4
ATOM      4  C   UNL     1      54.510 -43.789 -26.547  1.00  0.00     0.000 C 
BRANCH   4   5
ATOM      5  C   UNL     1      54.227 -43.508 -28.029  1.00  0.00     0.000 C 
BRANCH   5   6
ATOM      6  C   UNL     1      55.433 -42.893 -28.760  1.00  0.00     0.006 C 
BRANCH   6   7
ATOM      7  C   UNL     1      55.188 -42.583 -30.246  1.00  0.00     0.053 C 
BRANCH   7   8
ATOM      8  C   UNL     1      56.000 -41.416 -30.720  1.00  0.00     0.041 C 
ATOM      9  O   UNL     1      57.118 -41.166 -30.195  1.00  0.00    -0.550 OA
ATOM     10  O   UNL     1      55.504 -40.580 -31.714  1.00  0.00    -0.550 OA
ENDBRANCH   7   8
ENDBRANCH   6   7
ENDBRANCH   5   6
ENDBRANCH   4   5
ENDBRANCH   3   4
ENDBRANCH   2   3
ENDBRANCH   1   2
BRANCH   1  11
ATOM     11  C   UNL     1      55.688 -40.368 -25.831  1.00  0.00    -0.031 C 
ATOM     12  C   UNL     1      54.927 -39.676 -26.703  1.00  0.00    -0.027 C 
BRANCH  12  13
ATOM     13  C   UNL     1      53.480 -39.961 -27.006  1.00  0.00     0.054 C 
BRANCH  13  14
ATOM     14  C   UNL     1      53.217 -39.860 -28.481  1.00  0.00    -0.027 C 
ATOM     15  C   UNL     1      52.223 -40.541 -29.074  1.00  0.00    -0.031 C 
BRANCH  15  16
ATOM     16  C   UNL     1      51.954 -40.402 -30.548  1.00  0.00     0.027 C 
BRANCH  16  17
ATOM     17  C   UNL     1      51.838 -41.770 -31.238  1.00  0.00     0.004 C 
BRANCH  17  18
ATOM     18  C   UNL     1      51.409 -42.899 -30.282  1.00  0.00     0.000 C 
BRANCH  18  19
ATOM     19  C   UNL     1      49.985 -43.394 -30.572  1.00  0.00    -0.003 C 
ATOM     20  C   UNL     1      49.154 -43.466 -29.294  1.00  0.00     0.004 C 
ENDBRANCH  18  19
ENDBRANCH  17  18
ENDBRANCH  16  17
ENDBRANCH  15  16
ENDBRANCH  13  14
ENDBRANCH  12  13
ENDBRANCH   1  11
TORSDOF 14
ENDMDL
MODEL 3
REMARK VINA RESULT:    -3.695     11.165     13.274
REMARK INTER + INTRA:          -9.530
REMARK INTER:                  -7.008
REMARK INTRA:                  -2.522
REMARK UNBOUND:                -2.811
REMARK SMILES CCCCCC=CCC=CCCCCCCCC(=O)[O-]
REMARK SMILES IDX 11 1 12 2 13 3 14 4 15 5 16 6 17 7 18 8 19 9 20 10 10 11
REMARK SMILES IDX 9 12 8 13 7 14 6 15 5 16 4 17 3 18 2 19 1 20
REMARK H PARENT
REMARK Flexibility Score: inf
ROOT
ATOM      1  C   UNL     1      45.921 -31.155 -28.630  1.00  0.00     0.027 C 
ENDROOT
BRANCH   1   2
ATOM      2  C   UNL     1      45.134 -30.118 -29.444  1.00  0.00     0.004 C 
BRANCH   2   3
ATOM      3  C   UNL     1      45.984 -28.891 -29.803  1.00  0.00     0.000 C 
BRANCH   3   4
ATOM      4  C   UNL     1      45.998 -28.660 -31.321  1.00  0.00     0.000 C 
BRANCH   4   5
ATOM      5  C   UNL     1      47.385 -28.955 -31.908  1.00  0.00     0.000 C 
BRANCH   5   6
ATOM      6  C   UNL     1      48.097 -27.689 -32.420  1.00  0.00     0.006 C 
BRANCH   6   7
ATOM      7  C   UNL     1      49.417 -27.957 -33.161  1.00  0.00     0.053 C 
BRANCH   7   8
ATOM      8  C   UNL     1      50.605 -27.844 -32.253  1.00  0.00     0.041 C 
ATOM      9  O   UNL     1      50.753 -26.826 -31.525  1.00  0.00    -0.550 OA
ATOM     10  O   UNL     1      51.570 -28.845 -32.242  1.00  0.00    -0.550 OA
ENDBRANCH   7   8
ENDBRANCH   6   7
ENDBRANCH   5   6
ENDBRANCH   4   5
ENDBRANCH   3   4
ENDBRANCH   2   3
ENDBRANCH   1   2
BRANCH   1  11
ATOM     11  C   UNL     1      46.339 -32.334 -29.476  1.00  0.00    -0.031 C 
ATOM     12  C   UNL     1      47.029 -33.401 -29.026  1.00  0.00    -0.027 C 
BRANCH  12  13
ATOM     13  C   UNL     1      47.515 -33.586 -27.612  1.00  0.00     0.054 C 
BRANCH  13  14
ATOM     14  C   UNL     1      48.920 -33.079 -27.464  1.00  0.00    -0.027 C 
ATOM     15  C   UNL     1      49.672 -32.747 -28.526  1.00  0.00    -0.031 C 
BRANCH  15  16
ATOM     16  C   UNL     1      51.067 -32.209 -28.356  1.00  0.00     0.027 C 
BRANCH  16  17
ATOM     17  C   UNL     1      51.188 -30.765 -28.870  1.00  0.00     0.004 C 
BRANCH  17  18
ATOM     18  C   UNL     1      49.877 -30.219 -29.465  1.00  0.00     0.000 C 
BRANCH  18  19
ATOM     19  C   UNL     1      49.406 -28.942 -28.756  1.00  0.00    -0.003 C 
ATOM     20  C   UNL     1      48.921 -29.243 -27.341  1.00  0.00     0.004 C 
ENDBRANCH  18  19
ENDBRANCH  17  18
ENDBRANCH  16  17
ENDBRANCH  15  16
ENDBRANCH  13  14
ENDBRANCH  12  13
ENDBRANCH   1  11
TORSDOF 14
ENDMDL
MODEL 4
REMARK VINA RESULT:    -3.676      3.179      5.562
REMARK INTER + INTRA:          -9.495
REMARK INTER:                  -6.772
REMARK INTRA:                  -2.723
REMARK UNBOUND:                -2.811
REMARK SMILES CCCCCC=CCC=CCCCCCCCC(=O)[O-]
REMARK SMILES IDX 11 1 12 2 13 3 14 4 15 5 16 6 17 7 18 8 19 9 20 10 10 11
REMARK SMILES IDX 9 12 8 13 7 14 6 15 5 16 4 17 3 18 2 19 1 20
REMARK H PARENT
REMARK Flexibility Score: inf
ROOT
ATOM      1  C   UNL     1      55.661 -41.790 -24.826  1.00  0.00     0.027 C 
ENDROOT
BRANCH   1   2
ATOM      2  C   UNL     1      56.112 -42.629 -26.030  1.00  0.00     0.004 C 
BRANCH   2   3
ATOM      3  C   UNL     1      55.288 -43.915 -26.187  1.00  0.00     0.000 C 
BRANCH   3   4
ATOM      4  C   UNL     1      54.363 -43.827 -27.409  1.00  0.00     0.000 C 
BRANCH   4   5
ATOM      5  C   UNL     1      54.817 -42.711 -28.361  1.00  0.00     0.000 C 
BRANCH   5   6
ATOM      6  C   UNL     1      53.652 -41.830 -28.845  1.00  0.00     0.006 C 
BRANCH   6   7
ATOM      7  C   UNL     1      53.066 -42.241 -30.206  1.00  0.00     0.053 C 
BRANCH   7   8
ATOM      8  C   UNL     1      52.606 -41.057 -31.003  1.00  0.00     0.041 C 
ATOM      9  O   UNL     1      51.794 -40.232 -30.503  1.00  0.00    -0.550 OA
ATOM     10  O   UNL     1      53.044 -40.886 -32.311  1.00  0.00    -0.550 OA
ENDBRANCH   7   8
ENDBRANCH   6   7
ENDBRANCH   5   6
ENDBRANCH   4   5
ENDBRANCH   3   4
ENDBRANCH   2   3
ENDBRANCH   1   2
BRANCH   1  11
ATOM     11  C   UNL     1      54.890 -40.564 -25.252  1.00  0.00    -0.031 C 
ATOM     12  C   UNL     1      53.565 -40.384 -25.075  1.00  0.00    -0.027 C 
BRANCH  12  13
ATOM     13  C   UNL     1      52.632 -41.384 -24.442  1.00  0.00     0.054 C 
BRANCH  13  14
ATOM     14  C   UNL     1      51.888 -42.154 -25.494  1.00  0.00    -0.027 C 
ATOM     15  C   UNL     1      51.386 -43.378 -25.257  1.00  0.00    -0.031 C 
BRANCH  15  16
ATOM     16  C   UNL     1      50.615 -44.121 -26.314  1.00  0.00     0.027 C 
BRANCH  16  17
ATOM     17  C   UNL     1      50.593 -43.356 -27.647  1.00  0.00     0.004 C 
BRANCH  17  18
ATOM     18  C   UNL     1      49.170 -43.058 -28.154  1.00  0.00     0.000 C 
BRANCH  18  19
ATOM     19  C   UNL     1      49.031 -41.623 -28.682  1.00  0.00    -0.003 C 
ATOM     20  C   UNL     1      48.253 -40.748 -27.703  1.00  0.00     0.004 C 
ENDBRANCH  18  19
ENDBRANCH  17  18
ENDBRANCH  16  17
ENDBRANCH  15  16
ENDBRANCH  13  14
ENDBRANCH  12  13
ENDBRANCH   1  11
TORSDOF 14
ENDMDL
MODEL 5
REMARK VINA RESULT:    -3.629      4.246      7.049
REMARK INTER + INTRA:          -9.411
REMARK INTER:                  -6.618
REMARK INTRA:                  -2.792
REMARK UNBOUND:                -2.811
REMARK SMILES CCCCCC=CCC=CCCCCCCCC(=O)[O-]
REMARK SMILES IDX 11 1 12 2 13 3 14 4 15 5 16 6 17 7 18 8 19 9 20 10 10 11
REMARK SMILES IDX 9 12 8 13 7 14 6 15 5 16 4 17 3 18 2 19 1 20
REMARK H PARENT
REMARK Flexibility Score: inf
ROOT
ATOM      1  C   UNL     1      55.867 -43.051 -25.488  1.00  0.00     0.027 C 
ENDROOT
BRANCH   1   2
ATOM      2  C   UNL     1      56.120 -44.125 -26.556  1.00  0.00     0.004 C 
BRANCH   2   3
ATOM      3  C   UNL     1      56.592 -43.524 -27.888  1.00  0.00     0.000 C 
BRANCH   3   4
ATOM      4  C   UNL     1      55.639 -43.907 -29.029  1.00  0.00     0.000 C 
BRANCH   4   5
ATOM      5  C   UNL     1      55.243 -42.673 -29.852  1.00  0.00     0.000 C 
BRANCH   5   6
ATOM      6  C   UNL     1      56.394 -41.663 -30.001  1.00  0.00     0.006 C 
BRANCH   6   7
ATOM      7  C   UNL     1      55.981 -40.194 -29.813  1.00  0.00     0.053 C 
BRANCH   7   8
ATOM      8  C   UNL     1      56.948 -39.442 -28.948  1.00  0.00     0.041 C 
ATOM      9  O   UNL     1      57.328 -38.286 -29.278  1.00  0.00    -0.550 OA
ATOM     10  O   UNL     1      57.462 -40.034 -27.801  1.00  0.00    -0.550 OA
ENDBRANCH   7   8
ENDBRANCH   6   7
ENDBRANCH   5   6
ENDBRANCH   4   5
ENDBRANCH   3   4
ENDBRANCH   2   3
ENDBRANCH   1   2
BRANCH   1  11
ATOM     11  C   UNL     1      55.138 -41.856 -26.055  1.00  0.00    -0.031 C 
ATOM     12  C   UNL     1      53.798 -41.751 -26.166  1.00  0.00    -0.027 C 
BRANCH  12  13
ATOM     13  C   UNL     1      52.809 -42.813 -25.763  1.00  0.00     0.054 C 
BRANCH  13  14
ATOM     14  C   UNL     1      52.392 -43.627 -26.954  1.00  0.00    -0.027 C 
ATOM     15  C   UNL     1      51.945 -43.056 -28.085  1.00  0.00    -0.031 C 
BRANCH  15  16
ATOM     16  C   UNL     1      51.562 -43.887 -29.279  1.00  0.00     0.027 C 
BRANCH  16  17
ATOM     17  C   UNL     1      51.420 -43.030 -30.548  1.00  0.00     0.004 C 
BRANCH  17  18
ATOM     18  C   UNL     1      50.980 -41.583 -30.258  1.00  0.00     0.000 C 
BRANCH  18  19
ATOM     19  C   UNL     1      52.080 -40.565 -30.591  1.00  0.00    -0.003 C 
ATOM     20  C   UNL     1      52.833 -40.961 -31.858  1.00  0.00     0.004 C 
ENDBRANCH  18  19
ENDBRANCH  17  18
ENDBRANCH  16  17
ENDBRANCH  15  16
ENDBRANCH  13  14
ENDBRANCH  12  13
ENDBRANCH   1  11
TORSDOF 14
ENDMDL
MODEL 6
REMARK VINA RESULT:    -3.625      1.439      3.285
REMARK INTER + INTRA:          -9.403
REMARK INTER:                  -7.309
REMARK INTRA:                  -2.094
REMARK UNBOUND:                -2.811
REMARK SMILES CCCCCC=CCC=CCCCCCCCC(=O)[O-]
REMARK SMILES IDX 11 1 12 2 13 3 14 4 15 5 16 6 17 7 18 8 19 9 20 10 10 11
REMARK SMILES IDX 9 12 8 13 7 14 6 15 5 16 4 17 3 18 2 19 1 20
REMARK H PARENT
REMARK Flexibility Score: inf
ROOT
ATOM      1  C   UNL     1      52.454 -40.883 -27.653  1.00  0.00     0.027 C 
ENDROOT
BRANCH   1   2
ATOM      2  C   UNL     1      52.877 -40.646 -29.110  1.00  0.00     0.004 C 
BRANCH   2   3
ATOM      3  C   UNL     1      51.682 -40.660 -30.074  1.00  0.00     0.000 C 
BRANCH   3   4
ATOM      4  C   UNL     1      51.739 -41.885 -30.998  1.00  0.00     0.000 C 
BRANCH   4   5
ATOM      5  C   UNL     1      51.021 -43.084 -30.364  1.00  0.00     0.000 C 
BRANCH   5   6
ATOM      6  C   UNL     1      49.537 -42.803 -30.069  1.00  0.00     0.006 C 
BRANCH   6   7
ATOM      7  C   UNL     1      49.108 -43.095 -28.622  1.00  0.00     0.053 C 
BRANCH   7   8
ATOM      8  C   UNL     1      48.674 -41.854 -27.901  1.00  0.00     0.041 C 
ATOM      9  O   UNL     1      48.352 -40.823 -28.551  1.00  0.00    -0.550 OA
ATOM     10  O   UNL     1      48.662 -41.823 -26.512  1.00  0.00    -0.550 OA
ENDBRANCH   7   8
ENDBRANCH   6   7
ENDBRANCH   5   6
ENDBRANCH   4   5
ENDBRANCH   3   4
ENDBRANCH   2   3
ENDBRANCH   1   2
BRANCH   1  11
ATOM     11  C   UNL     1      53.520 -41.611 -26.869  1.00  0.00    -0.031 C 
ATOM     12  C   UNL     1      53.499 -42.927 -26.577  1.00  0.00    -0.027 C 
BRANCH  12  13
ATOM     13  C   UNL     1      52.402 -43.884 -26.963  1.00  0.00     0.054 C 
BRANCH  13  14
ATOM     14  C   UNL     1      51.451 -44.090 -25.819  1.00  0.00    -0.027 C 
ATOM     15  C   UNL     1      51.274 -43.161 -24.865  1.00  0.00    -0.031 C 
BRANCH  15  16
ATOM     16  C   UNL     1      50.293 -43.372 -23.745  1.00  0.00     0.027 C 
BRANCH  16  17
ATOM     17  C   UNL     1      50.366 -42.244 -22.703  1.00  0.00     0.004 C 
BRANCH  17  18
ATOM     18  C   UNL     1      51.226 -41.050 -23.159  1.00  0.00     0.000 C 
BRANCH  18  19
ATOM     19  C   UNL     1      52.018 -40.430 -22.000  1.00  0.00    -0.003 C 
ATOM     20  C   UNL     1      53.437 -40.070 -22.432  1.00  0.00     0.004 C 
ENDBRANCH  18  19
ENDBRANCH  17  18
ENDBRANCH  16  17
ENDBRANCH  15  16
ENDBRANCH  13  14
ENDBRANCH  12  13
ENDBRANCH   1  11
TORSDOF 14
ENDMDL
MODEL 7
REMARK VINA RESULT:    -3.594      3.595      5.231
REMARK INTER + INTRA:          -9.346
REMARK INTER:                  -6.752
REMARK INTRA:                  -2.594
REMARK UNBOUND:                -2.811
REMARK SMILES CCCCCC=CCC=CCCCCCCCC(=O)[O-]
REMARK SMILES IDX 11 1 12 2 13 3 14 4 15 5 16 6 17 7 18 8 19 9 20 10 10 11
REMARK SMILES IDX 9 12 8 13 7 14 6 15 5 16 4 17 3 18 2 19 1 20
REMARK H PARENT
REMARK Flexibility Score: inf
ROOT
ATOM      1  C   UNL     1      52.295 -41.390 -31.074  1.00  0.00     0.027 C 
ENDROOT
BRANCH   1   2
ATOM      2  C   UNL     1      53.556 -41.683 -30.248  1.00  0.00     0.004 C 
BRANCH   2   3
ATOM      3  C   UNL     1      53.711 -43.177 -29.929  1.00  0.00     0.000 C 
BRANCH   3   4
ATOM      4  C   UNL     1      53.572 -43.432 -28.422  1.00  0.00     0.000 C 
BRANCH   4   5
ATOM      5  C   UNL     1      53.808 -42.142 -27.624  1.00  0.00     0.000 C 
BRANCH   5   6
ATOM      6  C   UNL     1      54.821 -42.326 -26.480  1.00  0.00     0.006 C 
BRANCH   6   7
ATOM      7  C   UNL     1      56.094 -41.473 -26.614  1.00  0.00     0.053 C 
BRANCH   7   8
ATOM      8  C   UNL     1      56.715 -41.598 -27.972  1.00  0.00     0.041 C 
ATOM      9  O   UNL     1      57.290 -42.667 -28.312  1.00  0.00    -0.550 OA
ATOM     10  O   UNL     1      56.696 -40.519 -28.848  1.00  0.00    -0.550 OA
ENDBRANCH   7   8
ENDBRANCH   6   7
ENDBRANCH   5   6
ENDBRANCH   4   5
ENDBRANCH   3   4
ENDBRANCH   2   3
ENDBRANCH   1   2
BRANCH   1  11
ATOM     11  C   UNL     1      51.193 -40.798 -30.227  1.00  0.00    -0.031 C 
ATOM     12  C   UNL     1      50.113 -41.471 -29.784  1.00  0.00    -0.027 C 
BRANCH  12  13
ATOM     13  C   UNL     1      49.813 -42.918 -30.078  1.00  0.00     0.054 C 
BRANCH  13  14
ATOM     14  C   UNL     1      49.757 -43.717 -28.808  1.00  0.00    -0.027 C 
ATOM     15  C   UNL     1      50.057 -43.177 -27.615  1.00  0.00    -0.031 C 
BRANCH  15  16
ATOM     16  C   UNL     1      49.964 -43.984 -26.349  1.00  0.00     0.027 C 
BRANCH  16  17
ATOM     17  C   UNL     1      51.235 -43.853 -25.494  1.00  0.00     0.004 C 
BRANCH  17  18
ATOM     18  C   UNL     1      51.377 -42.474 -24.824  1.00  0.00     0.000 C 
BRANCH  18  19
ATOM     19  C   UNL     1      50.683 -42.420 -23.456  1.00  0.00    -0.003 C 
ATOM     20  C   UNL     1      51.184 -41.239 -22.629  1.00  0.00     0.004 C 
ENDBRANCH  18  19
ENDBRANCH  17  18
ENDBRANCH  16  17
ENDBRANCH  15  16
ENDBRANCH  13  14
ENDBRANCH  12  13
ENDBRANCH   1  11
TORSDOF 14
ENDMDL
MODEL 8
REMARK VINA RESULT:    -3.583      4.779      6.515
REMARK INTER + INTRA:          -9.326
REMARK INTER:                  -7.485
REMARK INTRA:                  -1.841
REMARK UNBOUND:                -2.811
REMARK SMILES CCCCCC=CCC=CCCCCCCCC(=O)[O-]
REMARK SMILES IDX 11 1 12 2 13 3 14 4 15 5 16 6 17 7 18 8 19 9 20 10 10 11
REMARK SMILES IDX 9 12 8 13 7 14 6 15 5 16 4 17 3 18 2 19 1 20
REMARK H PARENT
REMARK Flexibility Score: inf
ROOT
ATOM      1  C   UNL     1      52.611 -40.377 -29.139  1.00  0.00     0.027 C 
ENDROOT
BRANCH   1   2
ATOM      2  C   UNL     1      52.092 -40.577 -30.570  1.00  0.00     0.004 C 
BRANCH   2   3
ATOM      3  C   UNL     1      53.067 -41.387 -31.437  1.00  0.00     0.000 C 
BRANCH   3   4
ATOM      4  C   UNL     1      53.566 -40.551 -32.624  1.00  0.00     0.000 C 
BRANCH   4   5
ATOM      5  C   UNL     1      55.077 -40.302 -32.522  1.00  0.00     0.000 C 
BRANCH   5   6
ATOM      6  C   UNL     1      55.721 -41.025 -31.325  1.00  0.00     0.006 C 
BRANCH   6   7
ATOM      7  C   UNL     1      56.522 -40.109 -30.383  1.00  0.00     0.053 C 
BRANCH   7   8
ATOM      8  C   UNL     1      57.545 -40.870 -29.594  1.00  0.00     0.041 C 
ATOM      9  O   UNL     1      57.993 -41.966 -30.026  1.00  0.00    -0.550 OA
ATOM     10  O   UNL     1      57.974 -40.387 -28.364  1.00  0.00    -0.550 OA
ENDBRANCH   7   8
ENDBRANCH   6   7
ENDBRANCH   5   6
ENDBRANCH   4   5
ENDBRANCH   3   4
ENDBRANCH   2   3
ENDBRANCH   1   2
BRANCH   1  11
ATOM     11  C   UNL     1      52.158 -41.484 -28.216  1.00  0.00    -0.031 C 
ATOM     12  C   UNL     1      52.892 -42.568 -27.893  1.00  0.00    -0.027 C 
BRANCH  12  13
ATOM     13  C   UNL     1      54.274 -42.866 -28.414  1.00  0.00     0.054 C 
BRANCH  13  14
ATOM     14  C   UNL     1      55.310 -42.571 -27.368  1.00  0.00    -0.027 C 
ATOM     15  C   UNL     1      55.014 -42.562 -26.057  1.00  0.00    -0.031 C 
BRANCH  15  16
ATOM     16  C   UNL     1      56.073 -42.297 -25.022  1.00  0.00     0.027 C 
BRANCH  16  17
ATOM     17  C   UNL     1      55.997 -40.858 -24.484  1.00  0.00     0.004 C 
BRANCH  17  18
ATOM     18  C   UNL     1      54.573 -40.434 -24.081  1.00  0.00     0.000 C 
BRANCH  18  19
ATOM     19  C   UNL     1      54.515 -39.881 -22.651  1.00  0.00    -0.003 C 
ATOM     20  C   UNL     1      55.615 -38.850 -22.413  1.00  0.00     0.004 C 
ENDBRANCH  18  19
ENDBRANCH  17  18
ENDBRANCH  16  17
ENDBRANCH  15  16
ENDBRANCH  13  14
ENDBRANCH  12  13
ENDBRANCH   1  11
TORSDOF 14
ENDMDL
MODEL 9
REMARK VINA RESULT:    -3.523      3.603      5.974
REMARK INTER + INTRA:          -9.218
REMARK INTER:                  -6.313
REMARK INTRA:                  -2.904
REMARK UNBOUND:                -2.811
REMARK SMILES CCCCCC=CCC=CCCCCCCCC(=O)[O-]
REMARK SMILES IDX 11 1 12 2 13 3 14 4 15 5 16 6 17 7 18 8 19 9 20 10 10 11
REMARK SMILES IDX 9 12 8 13 7 14 6 15 5 16 4 17 3 18 2 19 1 20
REMARK H PARENT
REMARK Flexibility Score: inf
ROOT
ATOM      1  C   UNL     1      49.701 -41.154 -28.025  1.00  0.00     0.027 C 
ENDROOT
BRANCH   1   2
ATOM      2  C   UNL     1      50.003 -42.036 -26.805  1.00  0.00     0.004 C 
BRANCH   2   3
ATOM      3  C   UNL     1      50.583 -43.401 -27.202  1.00  0.00     0.000 C 
BRANCH   3   4
ATOM      4  C   UNL     1      52.056 -43.513 -26.781  1.00  0.00     0.000 C 
BRANCH   4   5
ATOM      5  C   UNL     1      52.403 -42.464 -25.716  1.00  0.00     0.000 C 
BRANCH   5   6
ATOM      6  C   UNL     1      53.739 -41.752 -25.994  1.00  0.00     0.006 C 
BRANCH   6   7
ATOM      7  C   UNL     1      54.368 -41.075 -24.765  1.00  0.00     0.053 C 
BRANCH   7   8
ATOM      8  C   UNL     1      55.818 -41.424 -24.610  1.00  0.00     0.041 C 
ATOM      9  O   UNL     1      56.223 -42.588 -24.876  1.00  0.00    -0.550 OA
ATOM     10  O   UNL     1      56.715 -40.475 -24.133  1.00  0.00    -0.550 OA
ENDBRANCH   7   8
ENDBRANCH   6   7
ENDBRANCH   5   6
ENDBRANCH   4   5
ENDBRANCH   3   4
ENDBRANCH   2   3
ENDBRANCH   1   2
BRANCH   1  11
ATOM     11  C   UNL     1      49.860 -41.914 -29.321  1.00  0.00    -0.031 C 
ATOM     12  C   UNL     1      50.766 -41.627 -30.278  1.00  0.00    -0.027 C 
BRANCH  12  13
ATOM     13  C   UNL     1      51.754 -40.492 -30.223  1.00  0.00     0.054 C 
BRANCH  13  14
ATOM     14  C   UNL     1      53.063 -40.955 -29.652  1.00  0.00    -0.027 C 
ATOM     15  C   UNL     1      53.537 -42.192 -29.873  1.00  0.00    -0.031 C 
BRANCH  15  16
ATOM     16  C   UNL     1      54.867 -42.627 -29.319  1.00  0.00     0.027 C 
BRANCH  16  17
ATOM     17  C   UNL     1      55.928 -41.522 -29.450  1.00  0.00     0.004 C 
BRANCH  17  18
ATOM     18  C   UNL     1      56.811 -41.376 -28.197  1.00  0.00     0.000 C 
BRANCH  18  19
ATOM     19  C   UNL     1      57.045 -39.906 -27.820  1.00  0.00    -0.003 C 
ATOM     20  C   UNL     1      55.737 -39.120 -27.829  1.00  0.00     0.004 C 
ENDBRANCH  18  19
ENDBRANCH  17  18
ENDBRANCH  16  17
ENDBRANCH  15  16
ENDBRANCH  13  14
ENDBRANCH  12  13
ENDBRANCH   1  11
TORSDOF 14
ENDMDL
