MODEL 1
REMARK VINA RESULT:    -7.927      0.000      0.000
REMARK INTER + INTRA:         -13.978
REMARK INTER:                 -12.561
REMARK INTRA:                  -1.418
REMARK UNBOUND:                -1.418
REMARK SMILES C[C@H]1O[C@H](O[C@H]2[C@H](Oc3cc(O)c4c(c3)O[C@H](c3ccc(O)cc3)CC4=O)O[C@H](CO)[C@@H](O)[C@H]2O)[C@@H](O)[C@@H](O)[C@H]1O
REMARK SMILES IDX 6 1 34 2 32 3 29 4 28 5 7 6 5 7 4 8 1 9 2 10 40 11 3 12
REMARK SMILES IDX 38 13 36 14 41 15 39 17 37 19 35 21 8 23 9 24 10 25 15 26
REMARK SMILES IDX 11 27 14 28 13 29 16 30 26 31 17 32 27 33 25 34 12 35 18 37
REMARK SMILES IDX 19 38 24 39 20 40 23 41 21 42 22 43 33 45 30 47 31 48
REMARK H PARENT 41 16 39 18 37 20 35 22 12 36 22 44 33 46 31 49
REMARK Flexibility Score: inf
ROOT
ATOM      1  C   UNL     1      15.745 119.146  25.499  1.00  0.00     0.221 C 
ATOM      2  C   UNL     1      15.821 120.522  26.176  1.00  0.00     0.181 C 
ATOM      3  C   UNL     1      14.419 121.114  26.390  1.00  0.00     0.177 C 
ATOM      4  C   UNL     1      13.576 121.054  25.091  1.00  0.00     0.179 C 
ATOM      5  O   UNL     1      13.563 119.760  24.492  1.00  0.00    -0.332 OA
ATOM      6  C   UNL     1      14.853 119.209  24.245  1.00  0.00     0.339 C 
ENDROOT
BRANCH   1   7
ATOM      7  O   UNL     1      15.215 118.193  26.406  1.00  0.00    -0.337 OA
BRANCH   7   8
ATOM      8  C   UNL     1      16.199 117.260  26.831  1.00  0.00     0.282 C 
ATOM      9  C   UNL     1      13.939 114.652  28.124  1.00  0.00     0.041 C 
ATOM     10  C   UNL     1      14.610 115.548  27.082  1.00  0.00     0.150 C 
ATOM     11  C   UNL     1      15.170 114.715  25.909  1.00  0.00     0.174 C 
ATOM     12  O   UNL     1      15.639 116.296  27.714  1.00  0.00    -0.344 OA
ATOM     13  C   UNL     1      15.839 115.661  24.898  1.00  0.00     0.179 C 
ATOM     14  C   UNL     1      16.849 116.588  25.603  1.00  0.00     0.202 C 
BRANCH  11  15
ATOM     15  O   UNL     1      16.099 113.776  26.391  1.00  0.00    -0.388 OA
ATOM     16  H   UNL     1      15.882 112.908  25.959  1.00  0.00     0.211 HD
ENDBRANCH  11  15
BRANCH  13  17
ATOM     17  O   UNL     1      16.471 114.914  23.890  1.00  0.00    -0.387 OA
ATOM     18  H   UNL     1      16.898 114.137  24.338  1.00  0.00     0.211 HD
ENDBRANCH  13  17
BRANCH  14  19
ATOM     19  O   UNL     1      17.975 115.847  26.002  1.00  0.00    -0.385 OA
ATOM     20  H   UNL     1      18.564 115.765  25.205  1.00  0.00     0.211 HD
ENDBRANCH  14  19
ENDBRANCH   7   8
ENDBRANCH   1   7
BRANCH   2  21
ATOM     21  O   UNL     1      16.489 120.431  27.406  1.00  0.00    -0.387 OA
ATOM     22  H   UNL     1      16.506 119.472  27.659  1.00  0.00     0.211 HD
ENDBRANCH   2  21
BRANCH   6  23
ATOM     23  O   UNL     1      15.520 119.889  23.180  1.00  0.00    -0.462 OA
BRANCH  23  24
ATOM     24  C   UNL     1      15.272 119.669  21.815  1.00  0.00     0.130 A 
ATOM     25  C   UNL     1      13.946 119.676  21.371  1.00  0.00     0.093 A 
ATOM     26  C   UNL     1      16.305 119.443  20.886  1.00  0.00     0.094 A 
ATOM     27  C   UNL     1      13.639 119.456  20.019  1.00  0.00     0.133 A 
ATOM     28  C   UNL     1      16.011 119.250  19.535  1.00  0.00     0.138 A 
ATOM     29  C   UNL     1      14.678 119.234  19.091  1.00  0.00     0.102 A 
ATOM     30  O   UNL     1      17.062 119.068  18.631  1.00  0.00    -0.484 OA
ATOM     31  C   UNL     1      14.428 118.955  17.655  1.00  0.00     0.174 C 
ATOM     32  C   UNL     1      16.907 119.235  17.221  1.00  0.00     0.211 C 
ATOM     33  O   UNL     1      13.254 118.938  17.193  1.00  0.00    -0.294 OA
ATOM     34  C   UNL     1      15.575 118.621  16.738  1.00  0.00     0.131 C 
BRANCH  27  35
ATOM     35  O   UNL     1      12.307 119.460  19.607  1.00  0.00    -0.507 OA
ATOM     36  H   UNL     1      11.584 119.917  20.149  1.00  0.00     0.293 HD
ENDBRANCH  27  35
BRANCH  32  37
ATOM     37  C   UNL     1      17.122 120.698  16.862  1.00  0.00    -0.007 A 
ATOM     38  C   UNL     1      17.777 121.614  17.711  1.00  0.00     0.011 A 
ATOM     39  C   UNL     1      16.710 121.139  15.590  1.00  0.00     0.011 A 
ATOM     40  C   UNL     1      17.987 122.936  17.306  1.00  0.00     0.046 A 
ATOM     41  C   UNL     1      16.921 122.461  15.187  1.00  0.00     0.046 A 
ATOM     42  C   UNL     1      17.554 123.365  16.044  1.00  0.00     0.115 A 
BRANCH  42  43
ATOM     43  O   UNL     1      17.751 124.681  15.632  1.00  0.00    -0.508 OA
ATOM     44  H   UNL     1      17.597 124.962  14.671  1.00  0.00     0.293 HD
ENDBRANCH  42  43
ENDBRANCH  32  37
ENDBRANCH  23  24
ENDBRANCH   6  23
BRANCH   3  45
ATOM     45  O   UNL     1      13.761 120.486  27.464  1.00  0.00    -0.387 OA
ATOM     46  H   UNL     1      13.659 119.522  27.257  1.00  0.00     0.211 HD
ENDBRANCH   3  45
BRANCH   4  47
ATOM     47  C   UNL     1      13.921 122.178  24.097  1.00  0.00     0.191 C 
BRANCH  47  48
ATOM     48  O   UNL     1      12.813 122.457  23.292  1.00  0.00    -0.394 OA
ATOM     49  H   UNL     1      13.001 122.050  22.406  1.00  0.00     0.210 HD
ENDBRANCH  47  48
ENDBRANCH   4  47
TORSDOF 14
ENDMDL
MODEL 2
REMARK VINA RESULT:    -7.047      2.106      5.786
REMARK INTER + INTRA:         -12.585
REMARK INTER:                 -11.121
REMARK INTRA:                  -1.464
REMARK UNBOUND:                -1.418
REMARK SMILES C[C@H]1O[C@H](O[C@H]2[C@H](Oc3cc(O)c4c(c3)O[C@H](c3ccc(O)cc3)CC4=O)O[C@H](CO)[C@@H](O)[C@H]2O)[C@@H](O)[C@@H](O)[C@H]1O
REMARK SMILES IDX 6 1 34 2 32 3 29 4 28 5 7 6 5 7 4 8 1 9 2 10 40 11 3 12
REMARK SMILES IDX 38 13 36 14 41 15 39 17 37 19 35 21 8 23 9 24 10 25 15 26
REMARK SMILES IDX 11 27 14 28 13 29 16 30 26 31 17 32 27 33 25 34 12 35 18 37
REMARK SMILES IDX 19 38 24 39 20 40 23 41 21 42 22 43 33 45 30 47 31 48
REMARK H PARENT 41 16 39 18 37 20 35 22 12 36 22 44 33 46 31 49
REMARK Flexibility Score: inf
ROOT
ATOM      1  C   UNL     1      14.369 119.026  25.489  1.00  0.00     0.221 C 
ATOM      2  C   UNL     1      14.252 117.624  26.102  1.00  0.00     0.181 C 
ATOM      3  C   UNL     1      15.637 117.017  26.371  1.00  0.00     0.177 C 
ATOM      4  C   UNL     1      16.554 117.128  25.126  1.00  0.00     0.179 C 
ATOM      5  O   UNL     1      16.604 118.446  24.585  1.00  0.00    -0.332 OA
ATOM      6  C   UNL     1      15.331 119.012  24.287  1.00  0.00     0.339 C 
ENDROOT
BRANCH   1   7
ATOM      7  O   UNL     1      14.848 119.938  26.465  1.00  0.00    -0.337 OA
BRANCH   7   8
ATOM      8  C   UNL     1      13.846 120.864  26.864  1.00  0.00     0.282 C 
ATOM      9  C   UNL     1      16.055 123.531  28.125  1.00  0.00     0.041 C 
ATOM     10  C   UNL     1      15.407 122.605  27.095  1.00  0.00     0.150 C 
ATOM     11  C   UNL     1      14.844 123.406  25.901  1.00  0.00     0.174 C 
ATOM     12  O   UNL     1      14.384 121.853  27.732  1.00  0.00    -0.344 OA
ATOM     13  C   UNL     1      14.198 122.430  24.903  1.00  0.00     0.179 C 
ATOM     14  C   UNL     1      13.197 121.502  25.618  1.00  0.00     0.202 C 
BRANCH  11  15
ATOM     15  O   UNL     1      13.897 124.340  26.357  1.00  0.00    -0.388 OA
ATOM     16  H   UNL     1      13.309 123.864  27.001  1.00  0.00     0.211 HD
ENDBRANCH  11  15
BRANCH  13  17
ATOM     17  O   UNL     1      13.564 123.148  23.876  1.00  0.00    -0.387 OA
ATOM     18  H   UNL     1      13.973 122.845  23.023  1.00  0.00     0.211 HD
ENDBRANCH  13  17
BRANCH  14  19
ATOM     19  O   UNL     1      12.056 122.233  25.993  1.00  0.00    -0.385 OA
ATOM     20  H   UNL     1      11.281 121.615  25.924  1.00  0.00     0.211 HD
ENDBRANCH  14  19
ENDBRANCH   7   8
ENDBRANCH   1   7
BRANCH   2  21
ATOM     21  O   UNL     1      13.515 117.666  27.295  1.00  0.00    -0.387 OA
ATOM     22  H   UNL     1      12.857 118.404  27.207  1.00  0.00     0.211 HD
ENDBRANCH   2  21
BRANCH   6  23
ATOM     23  O   UNL     1      14.726 118.380  23.158  1.00  0.00    -0.462 OA
BRANCH  23  24
ATOM     24  C   UNL     1      14.990 118.714  21.820  1.00  0.00     0.130 A 
ATOM     25  C   UNL     1      16.318 118.693  21.380  1.00  0.00     0.093 A 
ATOM     26  C   UNL     1      13.974 119.068  20.914  1.00  0.00     0.094 A 
ATOM     27  C   UNL     1      16.642 119.024  20.056  1.00  0.00     0.133 A 
ATOM     28  C   UNL     1      14.284 119.372  19.587  1.00  0.00     0.138 A 
ATOM     29  C   UNL     1      15.619 119.374  19.149  1.00  0.00     0.102 A 
ATOM     30  O   UNL     1      13.246 119.681  18.701  1.00  0.00    -0.484 OA
ATOM     31  C   UNL     1      15.889 119.774  17.746  1.00  0.00     0.174 C 
ATOM     32  C   UNL     1      13.404 119.638  17.282  1.00  0.00     0.211 C 
ATOM     33  O   UNL     1      17.065 119.784  17.290  1.00  0.00    -0.294 OA
ATOM     34  C   UNL     1      14.763 120.238  16.861  1.00  0.00     0.131 C 
BRANCH  27  35
ATOM     35  O   UNL     1      17.975 119.003  19.648  1.00  0.00    -0.507 OA
ATOM     36  H   UNL     1      18.649 119.672  20.000  1.00  0.00     0.293 HD
ENDBRANCH  27  35
BRANCH  32  37
ATOM     37  C   UNL     1      13.131 118.225  16.788  1.00  0.00    -0.007 A 
ATOM     38  C   UNL     1      12.400 117.274  17.532  1.00  0.00     0.011 A 
ATOM     39  C   UNL     1      13.568 117.874  15.498  1.00  0.00     0.011 A 
ATOM     40  C   UNL     1      12.141 116.005  17.005  1.00  0.00     0.046 A 
ATOM     41  C   UNL     1      13.307 116.604  14.973  1.00  0.00     0.046 A 
ATOM     42  C   UNL     1      12.599 115.665  15.726  1.00  0.00     0.115 A 
BRANCH  42  43
ATOM     43  O   UNL     1      12.354 114.401  15.193  1.00  0.00    -0.508 OA
ATOM     44  H   UNL     1      11.446 113.961  15.273  1.00  0.00     0.293 HD
ENDBRANCH  42  43
ENDBRANCH  32  37
ENDBRANCH  23  24
ENDBRANCH   6  23
BRANCH   3  45
ATOM     45  O   UNL     1      16.234 117.597  27.507  1.00  0.00    -0.387 OA
ATOM     46  H   UNL     1      15.551 118.128  27.991  1.00  0.00     0.211 HD
ENDBRANCH   3  45
BRANCH   4  47
ATOM     47  C   UNL     1      16.265 116.048  24.068  1.00  0.00     0.191 C 
BRANCH  47  48
ATOM     48  O   UNL     1      17.400 115.837  23.281  1.00  0.00    -0.394 OA
ATOM     49  H   UNL     1      18.167 116.209  23.791  1.00  0.00     0.210 HD
ENDBRANCH  47  48
ENDBRANCH   4  47
TORSDOF 14
ENDMDL
MODEL 3
REMARK VINA RESULT:    -6.900      2.154      5.055
REMARK INTER + INTRA:         -12.351
REMARK INTER:                 -11.155
REMARK INTRA:                  -1.196
REMARK UNBOUND:                -1.418
REMARK SMILES C[C@H]1O[C@H](O[C@H]2[C@H](Oc3cc(O)c4c(c3)O[C@H](c3ccc(O)cc3)CC4=O)O[C@H](CO)[C@@H](O)[C@H]2O)[C@@H](O)[C@@H](O)[C@H]1O
REMARK SMILES IDX 6 1 34 2 32 3 29 4 28 5 7 6 5 7 4 8 1 9 2 10 40 11 3 12
REMARK SMILES IDX 38 13 36 14 41 15 39 17 37 19 35 21 8 23 9 24 10 25 15 26
REMARK SMILES IDX 11 27 14 28 13 29 16 30 26 31 17 32 27 33 25 34 12 35 18 37
REMARK SMILES IDX 19 38 24 39 20 40 23 41 21 42 22 43 33 45 30 47 31 48
REMARK H PARENT 41 16 39 18 37 20 35 22 12 36 22 44 33 46 31 49
REMARK Flexibility Score: inf
ROOT
ATOM      1  C   UNL     1      14.442 120.659  24.529  1.00  0.00     0.221 C 
ATOM      2  C   UNL     1      14.632 119.666  25.684  1.00  0.00     0.181 C 
ATOM      3  C   UNL     1      16.098 119.619  26.142  1.00  0.00     0.177 C 
ATOM      4  C   UNL     1      17.060 119.438  24.940  1.00  0.00     0.179 C 
ATOM      5  O   UNL     1      16.820 120.369  23.887  1.00  0.00    -0.332 OA
ATOM      6  C   UNL     1      15.476 120.399  23.418  1.00  0.00     0.339 C 
ENDROOT
BRANCH   1   7
ATOM      7  O   UNL     1      14.590 121.987  25.008  1.00  0.00    -0.337 OA
BRANCH   7   8
ATOM      8  C   UNL     1      13.597 122.318  25.969  1.00  0.00     0.282 C 
ATOM      9  C   UNL     1      15.639 124.511  28.114  1.00  0.00     0.041 C 
ATOM     10  C   UNL     1      14.895 124.064  26.855  1.00  0.00     0.150 C 
ATOM     11  C   UNL     1      13.940 125.168  26.350  1.00  0.00     0.174 C 
ATOM     12  O   UNL     1      14.186 122.868  27.141  1.00  0.00    -0.344 OA
ATOM     13  C   UNL     1      13.214 124.665  25.091  1.00  0.00     0.179 C 
ATOM     14  C   UNL     1      12.570 123.288  25.347  1.00  0.00     0.202 C 
BRANCH  11  15
ATOM     15  O   UNL     1      13.012 125.493  27.356  1.00  0.00    -0.388 OA
ATOM     16  H   UNL     1      12.468 126.249  27.012  1.00  0.00     0.211 HD
ENDBRANCH  11  15
BRANCH  13  17
ATOM     17  O   UNL     1      12.244 125.600  24.694  1.00  0.00    -0.387 OA
ATOM     18  H   UNL     1      12.649 126.499  24.817  1.00  0.00     0.211 HD
ENDBRANCH  13  17
BRANCH  14  19
ATOM     19  O   UNL     1      11.466 123.433  26.205  1.00  0.00    -0.385 OA
ATOM     20  H   UNL     1      11.755 123.123  27.104  1.00  0.00     0.211 HD
ENDBRANCH  14  19
ENDBRANCH   7   8
ENDBRANCH   1   7
BRANCH   2  21
ATOM     21  O   UNL     1      13.809 120.007  26.768  1.00  0.00    -0.387 OA
ATOM     22  H   UNL     1      13.358 120.860  26.537  1.00  0.00     0.211 HD
ENDBRANCH   2  21
BRANCH   6  23
ATOM     23  O   UNL     1      15.148 119.218  22.685  1.00  0.00    -0.462 OA
BRANCH  23  24
ATOM     24  C   UNL     1      14.980 119.164  21.291  1.00  0.00     0.130 A 
ATOM     25  C   UNL     1      13.683 119.236  20.775  1.00  0.00     0.093 A 
ATOM     26  C   UNL     1      16.065 119.040  20.403  1.00  0.00     0.094 A 
ATOM     27  C   UNL     1      13.454 119.180  19.392  1.00  0.00     0.133 A 
ATOM     28  C   UNL     1      15.850 119.011  19.025  1.00  0.00     0.138 A 
ATOM     29  C   UNL     1      14.545 119.060  18.505  1.00  0.00     0.102 A 
ATOM     30  O   UNL     1      16.952 118.928  18.167  1.00  0.00    -0.484 OA
ATOM     31  C   UNL     1      14.378 118.956  17.034  1.00  0.00     0.174 C 
ATOM     32  C   UNL     1      16.879 119.264  16.780  1.00  0.00     0.211 C 
ATOM     33  O   UNL     1      13.234 119.005  16.507  1.00  0.00    -0.294 OA
ATOM     34  C   UNL     1      15.576 118.723  16.152  1.00  0.00     0.131 C 
BRANCH  27  35
ATOM     35  O   UNL     1      12.149 119.245  18.907  1.00  0.00    -0.507 OA
ATOM     36  H   UNL     1      11.801 120.063  18.423  1.00  0.00     0.293 HD
ENDBRANCH  27  35
BRANCH  32  37
ATOM     37  C   UNL     1      17.118 120.757  16.611  1.00  0.00    -0.007 A 
ATOM     38  C   UNL     1      17.639 121.577  17.633  1.00  0.00     0.011 A 
ATOM     39  C   UNL     1      16.873 121.331  15.349  1.00  0.00     0.011 A 
ATOM     40  C   UNL     1      17.881 122.935  17.402  1.00  0.00     0.046 A 
ATOM     41  C   UNL     1      17.116 122.689  15.121  1.00  0.00     0.046 A 
ATOM     42  C   UNL     1      17.615 123.496  16.147  1.00  0.00     0.115 A 
BRANCH  42  43
ATOM     43  O   UNL     1      17.844 124.849  15.907  1.00  0.00    -0.508 OA
ATOM     44  H   UNL     1      17.132 125.442  15.500  1.00  0.00     0.293 HD
ENDBRANCH  42  43
ENDBRANCH  32  37
ENDBRANCH  23  24
ENDBRANCH   6  23
BRANCH   3  45
ATOM     45  O   UNL     1      16.429 120.756  26.903  1.00  0.00    -0.387 OA
ATOM     46  H   UNL     1      16.397 120.518  27.865  1.00  0.00     0.211 HD
ENDBRANCH   3  45
BRANCH   4  47
ATOM     47  C   UNL     1      17.144 117.980  24.452  1.00  0.00     0.191 C 
BRANCH  47  48
ATOM     48  O   UNL     1      17.835 117.924  23.239  1.00  0.00    -0.394 OA
ATOM     49  H   UNL     1      17.976 118.865  22.953  1.00  0.00     0.210 HD
ENDBRANCH  47  48
ENDBRANCH   4  47
TORSDOF 14
ENDMDL
MODEL 4
REMARK VINA RESULT:    -6.408      1.763      9.935
REMARK INTER + INTRA:         -11.572
REMARK INTER:                 -10.170
REMARK INTRA:                  -1.402
REMARK UNBOUND:                -1.418
REMARK SMILES C[C@H]1O[C@H](O[C@H]2[C@H](Oc3cc(O)c4c(c3)O[C@H](c3ccc(O)cc3)CC4=O)O[C@H](CO)[C@@H](O)[C@H]2O)[C@@H](O)[C@@H](O)[C@H]1O
REMARK SMILES IDX 6 1 34 2 32 3 29 4 28 5 7 6 5 7 4 8 1 9 2 10 40 11 3 12
REMARK SMILES IDX 38 13 36 14 41 15 39 17 37 19 35 21 8 23 9 24 10 25 15 26
REMARK SMILES IDX 11 27 14 28 13 29 16 30 26 31 17 32 27 33 25 34 12 35 18 37
REMARK SMILES IDX 19 38 24 39 20 40 23 41 21 42 22 43 33 45 30 47 31 48
REMARK H PARENT 41 16 39 18 37 20 35 22 12 36 22 44 33 46 31 49
REMARK Flexibility Score: inf
ROOT
ATOM      1  C   UNL     1      15.634 119.361  17.500  1.00  0.00     0.221 C 
ATOM      2  C   UNL     1      15.640 117.979  16.832  1.00  0.00     0.181 C 
ATOM      3  C   UNL     1      14.450 117.820  15.873  1.00  0.00     0.177 C 
ATOM      4  C   UNL     1      13.118 118.228  16.552  1.00  0.00     0.179 C 
ATOM      5  O   UNL     1      13.179 119.507  17.178  1.00  0.00    -0.332 OA
ATOM      6  C   UNL     1      14.250 119.662  18.104  1.00  0.00     0.339 C 
ENDROOT
BRANCH   1   7
ATOM      7  O   UNL     1      15.958 120.358  16.544  1.00  0.00    -0.337 OA
BRANCH   7   8
ATOM      8  C   UNL     1      17.351 120.639  16.522  1.00  0.00     0.282 C 
ATOM      9  C   UNL     1      17.802 120.810  12.868  1.00  0.00     0.041 C 
ATOM     10  C   UNL     1      17.296 121.230  14.249  1.00  0.00     0.150 C 
ATOM     11  C   UNL     1      17.595 122.719  14.523  1.00  0.00     0.174 C 
ATOM     12  O   UNL     1      17.898 120.399  15.231  1.00  0.00    -0.344 OA
ATOM     13  C   UNL     1      17.074 123.086  15.923  1.00  0.00     0.179 C 
ATOM     14  C   UNL     1      17.600 122.092  16.977  1.00  0.00     0.202 C 
BRANCH  11  15
ATOM     15  O   UNL     1      18.980 122.952  14.438  1.00  0.00    -0.388 OA
ATOM     16  H   UNL     1      19.156 123.815  14.897  1.00  0.00     0.211 HD
ENDBRANCH  11  15
BRANCH  13  17
ATOM     17  O   UNL     1      17.454 124.399  16.245  1.00  0.00    -0.387 OA
ATOM     18  H   UNL     1      18.358 124.341  16.652  1.00  0.00     0.211 HD
ENDBRANCH  13  17
BRANCH  14  19
ATOM     19  O   UNL     1      18.974 122.302  17.183  1.00  0.00    -0.385 OA
ATOM     20  H   UNL     1      19.443 121.486  16.862  1.00  0.00     0.211 HD
ENDBRANCH  14  19
ENDBRANCH   7   8
ENDBRANCH   1   7
BRANCH   2  21
ATOM     21  O   UNL     1      16.840 117.773  16.135  1.00  0.00    -0.387 OA
ATOM     22  H   UNL     1      17.218 118.667  15.932  1.00  0.00     0.211 HD
ENDBRANCH   2  21
BRANCH   6  23
ATOM     23  O   UNL     1      14.035 118.896  19.291  1.00  0.00    -0.462 OA
BRANCH  23  24
ATOM     24  C   UNL     1      14.092 119.413  20.595  1.00  0.00     0.130 A 
ATOM     25  C   UNL     1      12.899 119.813  21.205  1.00  0.00     0.093 A 
ATOM     26  C   UNL     1      15.300 119.541  21.305  1.00  0.00     0.094 A 
ATOM     27  C   UNL     1      12.897 120.342  22.504  1.00  0.00     0.133 A 
ATOM     28  C   UNL     1      15.306 120.041  22.608  1.00  0.00     0.138 A 
ATOM     29  C   UNL     1      14.111 120.465  23.214  1.00  0.00     0.102 A 
ATOM     30  O   UNL     1      16.518 120.119  23.302  1.00  0.00    -0.484 OA
ATOM     31  C   UNL     1      14.191 121.052  24.574  1.00  0.00     0.174 C 
ATOM     32  C   UNL     1      16.589 120.252  24.722  1.00  0.00     0.211 C 
ATOM     33  O   UNL     1      13.152 121.440  25.175  1.00  0.00    -0.294 OA
ATOM     34  C   UNL     1      15.530 121.252  25.234  1.00  0.00     0.131 C 
BRANCH  27  35
ATOM     35  O   UNL     1      11.693 120.741  23.083  1.00  0.00    -0.507 OA
ATOM     36  H   UNL     1      10.850 120.852  22.533  1.00  0.00     0.293 HD
ENDBRANCH  27  35
BRANCH  32  37
ATOM     37  C   UNL     1      16.548 118.871  25.359  1.00  0.00    -0.007 A 
ATOM     38  C   UNL     1      16.559 117.675  24.612  1.00  0.00     0.011 A 
ATOM     39  C   UNL     1      16.572 118.785  26.764  1.00  0.00     0.011 A 
ATOM     40  C   UNL     1      16.567 116.433  25.256  1.00  0.00     0.046 A 
ATOM     41  C   UNL     1      16.581 117.542  27.405  1.00  0.00     0.046 A 
ATOM     42  C   UNL     1      16.572 116.364  26.655  1.00  0.00     0.115 A 
BRANCH  42  43
ATOM     43  O   UNL     1      16.573 115.133  27.309  1.00  0.00    -0.508 OA
ATOM     44  H   UNL     1      16.693 114.266  26.801  1.00  0.00     0.293 HD
ENDBRANCH  42  43
ENDBRANCH  32  37
ENDBRANCH  23  24
ENDBRANCH   6  23
BRANCH   3  45
ATOM     45  O   UNL     1      14.663 118.534  14.678  1.00  0.00    -0.387 OA
ATOM     46  H   UNL     1      15.428 119.151  14.806  1.00  0.00     0.211 HD
ENDBRANCH   3  45
BRANCH   4  47
ATOM     47  C   UNL     1      12.551 117.130  17.470  1.00  0.00     0.191 C 
BRANCH  47  48
ATOM     48  O   UNL     1      11.946 116.133  16.699  1.00  0.00    -0.394 OA
ATOM     49  H   UNL     1      10.985 116.377  16.630  1.00  0.00     0.210 HD
ENDBRANCH  47  48
ENDBRANCH   4  47
TORSDOF 14
ENDMDL
MODEL 5
REMARK VINA RESULT:    -6.392      2.129      5.928
REMARK INTER + INTRA:         -11.546
REMARK INTER:                 -10.532
REMARK INTRA:                  -1.014
REMARK UNBOUND:                -1.418
REMARK SMILES C[C@H]1O[C@H](O[C@H]2[C@H](Oc3cc(O)c4c(c3)O[C@H](c3ccc(O)cc3)CC4=O)O[C@H](CO)[C@@H](O)[C@H]2O)[C@@H](O)[C@@H](O)[C@H]1O
REMARK SMILES IDX 6 1 34 2 32 3 29 4 28 5 7 6 5 7 4 8 1 9 2 10 40 11 3 12
REMARK SMILES IDX 38 13 36 14 41 15 39 17 37 19 35 21 8 23 9 24 10 25 15 26
REMARK SMILES IDX 11 27 14 28 13 29 16 30 26 31 17 32 27 33 25 34 12 35 18 37
REMARK SMILES IDX 19 38 24 39 20 40 23 41 21 42 22 43 33 45 30 47 31 48
REMARK H PARENT 41 16 39 18 37 20 35 22 12 36 22 44 33 46 31 49
REMARK Flexibility Score: inf
ROOT
ATOM      1  C   UNL     1      14.240 119.812  25.382  1.00  0.00     0.221 C 
ATOM      2  C   UNL     1      13.426 118.777  26.171  1.00  0.00     0.181 C 
ATOM      3  C   UNL     1      14.344 117.846  26.979  1.00  0.00     0.177 C 
ATOM      4  C   UNL     1      15.482 117.271  26.097  1.00  0.00     0.179 C 
ATOM      5  O   UNL     1      16.186 118.274  25.368  1.00  0.00    -0.332 OA
ATOM      6  C   UNL     1      15.357 119.122  24.578  1.00  0.00     0.339 C 
ENDROOT
BRANCH   1   7
ATOM      7  O   UNL     1      14.815 120.753  26.275  1.00  0.00    -0.337 OA
BRANCH   7   8
ATOM      8  C   UNL     1      15.094 121.991  25.635  1.00  0.00     0.282 C 
ATOM      9  C   UNL     1      12.305 121.986  23.226  1.00  0.00     0.041 C 
ATOM     10  C   UNL     1      12.990 122.039  24.592  1.00  0.00     0.150 C 
ATOM     11  C   UNL     1      12.495 123.247  25.417  1.00  0.00     0.174 C 
ATOM     12  O   UNL     1      14.395 122.094  24.401  1.00  0.00    -0.344 OA
ATOM     13  C   UNL     1      13.218 123.258  26.774  1.00  0.00     0.179 C 
ATOM     14  C   UNL     1      14.743 123.160  26.579  1.00  0.00     0.202 C 
BRANCH  11  15
ATOM     15  O   UNL     1      12.748 124.440  24.716  1.00  0.00    -0.388 OA
ATOM     16  H   UNL     1      11.939 125.008  24.812  1.00  0.00     0.211 HD
ENDBRANCH  11  15
BRANCH  13  17
ATOM     17  O   UNL     1      12.881 124.421  27.486  1.00  0.00    -0.387 OA
ATOM     18  H   UNL     1      11.926 124.608  27.289  1.00  0.00     0.211 HD
ENDBRANCH  13  17
BRANCH  14  19
ATOM     19  O   UNL     1      15.233 124.367  26.051  1.00  0.00    -0.385 OA
ATOM     20  H   UNL     1      14.611 124.638  25.324  1.00  0.00     0.211 HD
ENDBRANCH  14  19
ENDBRANCH   7   8
ENDBRANCH   1   7
BRANCH   2  21
ATOM     21  O   UNL     1      12.522 119.414  27.034  1.00  0.00    -0.387 OA
ATOM     22  H   UNL     1      12.778 120.371  27.073  1.00  0.00     0.211 HD
ENDBRANCH   2  21
BRANCH   6  23
ATOM     23  O   UNL     1      14.820 118.430  23.450  1.00  0.00    -0.462 OA
BRANCH  23  24
ATOM     24  C   UNL     1      15.105 118.743  22.111  1.00  0.00     0.130 A 
ATOM     25  C   UNL     1      16.433 118.666  21.679  1.00  0.00     0.093 A 
ATOM     26  C   UNL     1      14.108 119.130  21.197  1.00  0.00     0.094 A 
ATOM     27  C   UNL     1      16.777 118.974  20.354  1.00  0.00     0.133 A 
ATOM     28  C   UNL     1      14.437 119.412  19.870  1.00  0.00     0.138 A 
ATOM     29  C   UNL     1      15.773 119.358  19.440  1.00  0.00     0.102 A 
ATOM     30  O   UNL     1      13.417 119.755  18.975  1.00  0.00    -0.484 OA
ATOM     31  C   UNL     1      16.067 119.736  18.035  1.00  0.00     0.174 C 
ATOM     32  C   UNL     1      13.581 119.695  17.558  1.00  0.00     0.211 C 
ATOM     33  O   UNL     1      17.245 119.696  17.586  1.00  0.00    -0.294 OA
ATOM     34  C   UNL     1      14.965 120.238  17.140  1.00  0.00     0.131 C 
BRANCH  27  35
ATOM     35  O   UNL     1      18.110 118.897  19.955  1.00  0.00    -0.507 OA
ATOM     36  H   UNL     1      18.805 119.552  20.292  1.00  0.00     0.293 HD
ENDBRANCH  27  35
BRANCH  32  37
ATOM     37  C   UNL     1      13.254 118.290  17.073  1.00  0.00    -0.007 A 
ATOM     38  C   UNL     1      12.421 117.402  17.784  1.00  0.00     0.011 A 
ATOM     39  C   UNL     1      13.753 117.886  15.820  1.00  0.00     0.011 A 
ATOM     40  C   UNL     1      12.119 116.139  17.264  1.00  0.00     0.046 A 
ATOM     41  C   UNL     1      13.449 116.623  15.303  1.00  0.00     0.046 A 
ATOM     42  C   UNL     1      12.638 115.744  16.024  1.00  0.00     0.115 A 
BRANCH  42  43
ATOM     43  O   UNL     1      12.351 114.485  15.499  1.00  0.00    -0.508 OA
ATOM     44  H   UNL     1      12.613 113.637  15.986  1.00  0.00     0.293 HD
ENDBRANCH  42  43
ENDBRANCH  32  37
ENDBRANCH  23  24
ENDBRANCH   6  23
BRANCH   3  45
ATOM     45  O   UNL     1      14.851 118.498  28.119  1.00  0.00    -0.387 OA
ATOM     46  H   UNL     1      15.333 117.836  28.678  1.00  0.00     0.211 HD
ENDBRANCH   3  45
BRANCH   4  47
ATOM     47  C   UNL     1      15.025 116.092  25.220  1.00  0.00     0.191 C 
BRANCH  47  48
ATOM     48  O   UNL     1      15.994 115.816  24.251  1.00  0.00    -0.394 OA
ATOM     49  H   UNL     1      15.732 114.956  23.829  1.00  0.00     0.210 HD
ENDBRANCH  47  48
ENDBRANCH   4  47
TORSDOF 14
ENDMDL
MODEL 6
REMARK VINA RESULT:    -6.096      2.212      5.206
REMARK INTER + INTRA:         -11.077
REMARK INTER:                 -11.279
REMARK INTRA:                   0.201
REMARK UNBOUND:                -1.418
REMARK SMILES C[C@H]1O[C@H](O[C@H]2[C@H](Oc3cc(O)c4c(c3)O[C@H](c3ccc(O)cc3)CC4=O)O[C@H](CO)[C@@H](O)[C@H]2O)[C@@H](O)[C@@H](O)[C@H]1O
REMARK SMILES IDX 6 1 34 2 32 3 29 4 28 5 7 6 5 7 4 8 1 9 2 10 40 11 3 12
REMARK SMILES IDX 38 13 36 14 41 15 39 17 37 19 35 21 8 23 9 24 10 25 15 26
REMARK SMILES IDX 11 27 14 28 13 29 16 30 26 31 17 32 27 33 25 34 12 35 18 37
REMARK SMILES IDX 19 38 24 39 20 40 23 41 21 42 22 43 33 45 30 47 31 48
REMARK H PARENT 41 16 39 18 37 20 35 22 12 36 22 44 33 46 31 49
REMARK Flexibility Score: inf
ROOT
ATOM      1  C   UNL     1      13.937 120.705  24.938  1.00  0.00     0.221 C 
ATOM      2  C   UNL     1      13.838 119.348  25.648  1.00  0.00     0.181 C 
ATOM      3  C   UNL     1      14.590 119.364  26.988  1.00  0.00     0.177 C 
ATOM      4  C   UNL     1      16.024 119.930  26.824  1.00  0.00     0.179 C 
ATOM      5  O   UNL     1      16.057 121.178  26.136  1.00  0.00    -0.332 OA
ATOM      6  C   UNL     1      15.402 121.173  24.871  1.00  0.00     0.339 C 
ENDROOT
BRANCH   1   7
ATOM      7  O   UNL     1      13.166 121.670  25.637  1.00  0.00    -0.337 OA
BRANCH   7   8
ATOM      8  C   UNL     1      13.338 122.975  25.102  1.00  0.00     0.282 C 
ATOM      9  C   UNL     1      10.143 124.435  26.217  1.00  0.00     0.041 C 
ATOM     10  C   UNL     1      11.543 123.831  26.351  1.00  0.00     0.150 C 
ATOM     11  C   UNL     1      12.446 124.712  27.240  1.00  0.00     0.174 C 
ATOM     12  O   UNL     1      12.100 123.673  25.055  1.00  0.00    -0.344 OA
ATOM     13  C   UNL     1      13.839 124.066  27.335  1.00  0.00     0.179 C 
ATOM     14  C   UNL     1      14.388 123.747  25.930  1.00  0.00     0.202 C 
BRANCH  11  15
ATOM     15  O   UNL     1      12.541 126.005  26.693  1.00  0.00    -0.388 OA
ATOM     16  H   UNL     1      12.643 126.633  27.456  1.00  0.00     0.211 HD
ENDBRANCH  11  15
BRANCH  13  17
ATOM     17  O   UNL     1      14.715 124.917  28.028  1.00  0.00    -0.387 OA
ATOM     18  H   UNL     1      14.154 125.624  28.443  1.00  0.00     0.211 HD
ENDBRANCH  13  17
BRANCH  14  19
ATOM     19  O   UNL     1      14.734 124.940  25.273  1.00  0.00    -0.385 OA
ATOM     20  H   UNL     1      14.055 125.620  25.529  1.00  0.00     0.211 HD
ENDBRANCH  14  19
ENDBRANCH   7   8
ENDBRANCH   1   7
BRANCH   2  21
ATOM     21  O   UNL     1      12.496 119.000  25.863  1.00  0.00    -0.387 OA
ATOM     22  H   UNL     1      11.949 119.804  25.665  1.00  0.00     0.211 HD
ENDBRANCH   2  21
BRANCH   6  23
ATOM     23  O   UNL     1      16.134 120.419  23.903  1.00  0.00    -0.462 OA
BRANCH  23  24
ATOM     24  C   UNL     1      15.662 120.097  22.620  1.00  0.00     0.130 A 
ATOM     25  C   UNL     1      14.293 120.223  22.364  1.00  0.00     0.093 A 
ATOM     26  C   UNL     1      16.512 119.653  21.591  1.00  0.00     0.094 A 
ATOM     27  C   UNL     1      13.764 119.909  21.103  1.00  0.00     0.133 A 
ATOM     28  C   UNL     1      16.000 119.363  20.325  1.00  0.00     0.138 A 
ATOM     29  C   UNL     1      14.622 119.468  20.073  1.00  0.00     0.102 A 
ATOM     30  O   UNL     1      16.877 118.963  19.312  1.00  0.00    -0.484 OA
ATOM     31  C   UNL     1      14.130 119.080  18.728  1.00  0.00     0.174 C 
ATOM     32  C   UNL     1      16.531 119.007  17.927  1.00  0.00     0.211 C 
ATOM     33  O   UNL     1      12.905 119.163  18.437  1.00  0.00    -0.294 OA
ATOM     34  C   UNL     1      15.083 118.517  17.707  1.00  0.00     0.131 C 
BRANCH  27  35
ATOM     35  O   UNL     1      12.394 120.036  20.881  1.00  0.00    -0.507 OA
ATOM     36  H   UNL     1      12.016 120.166  19.950  1.00  0.00     0.293 HD
ENDBRANCH  27  35
BRANCH  32  37
ATOM     37  C   UNL     1      16.846 120.388  17.373  1.00  0.00    -0.007 A 
ATOM     38  C   UNL     1      17.707 121.301  18.017  1.00  0.00     0.011 A 
ATOM     39  C   UNL     1      16.307 120.743  16.123  1.00  0.00     0.011 A 
ATOM     40  C   UNL     1      17.996 122.540  17.435  1.00  0.00     0.046 A 
ATOM     41  C   UNL     1      16.598 121.982  15.543  1.00  0.00     0.046 A 
ATOM     42  C   UNL     1      17.437 122.886  16.198  1.00  0.00     0.115 A 
BRANCH  42  43
ATOM     43  O   UNL     1      17.711 124.119  15.612  1.00  0.00    -0.508 OA
ATOM     44  H   UNL     1      18.476 124.236  14.959  1.00  0.00     0.293 HD
ENDBRANCH  42  43
ENDBRANCH  32  37
ENDBRANCH  23  24
ENDBRANCH   6  23
BRANCH   3  45
ATOM     45  O   UNL     1      13.864 120.068  27.968  1.00  0.00    -0.387 OA
ATOM     46  H   UNL     1      14.326 120.925  28.155  1.00  0.00     0.211 HD
ENDBRANCH   3  45
BRANCH   4  47
ATOM     47  C   UNL     1      17.015 118.898  26.258  1.00  0.00     0.191 C 
BRANCH  47  48
ATOM     48  O   UNL     1      17.975 118.581  27.223  1.00  0.00    -0.394 OA
ATOM     49  H   UNL     1      18.297 117.666  27.008  1.00  0.00     0.210 HD
ENDBRANCH  47  48
ENDBRANCH   4  47
TORSDOF 14
ENDMDL
MODEL 7
REMARK VINA RESULT:    -5.980      1.910      4.686
REMARK INTER + INTRA:         -10.894
REMARK INTER:                 -10.850
REMARK INTRA:                  -0.044
REMARK UNBOUND:                -1.418
REMARK SMILES C[C@H]1O[C@H](O[C@H]2[C@H](Oc3cc(O)c4c(c3)O[C@H](c3ccc(O)cc3)CC4=O)O[C@H](CO)[C@@H](O)[C@H]2O)[C@@H](O)[C@@H](O)[C@H]1O
REMARK SMILES IDX 6 1 34 2 32 3 29 4 28 5 7 6 5 7 4 8 1 9 2 10 40 11 3 12
REMARK SMILES IDX 38 13 36 14 41 15 39 17 37 19 35 21 8 23 9 24 10 25 15 26
REMARK SMILES IDX 11 27 14 28 13 29 16 30 26 31 17 32 27 33 25 34 12 35 18 37
REMARK SMILES IDX 19 38 24 39 20 40 23 41 21 42 22 43 33 45 30 47 31 48
REMARK H PARENT 41 16 39 18 37 20 35 22 12 36 22 44 33 46 31 49
REMARK Flexibility Score: inf
ROOT
ATOM      1  C   UNL     1      15.125 119.702  23.302  1.00  0.00     0.221 C 
ATOM      2  C   UNL     1      14.416 118.431  23.791  1.00  0.00     0.181 C 
ATOM      3  C   UNL     1      15.153 117.807  24.986  1.00  0.00     0.177 C 
ATOM      4  C   UNL     1      16.669 117.658  24.698  1.00  0.00     0.179 C 
ATOM      5  O   UNL     1      17.269 118.860  24.223  1.00  0.00    -0.332 OA
ATOM      6  C   UNL     1      16.627 119.433  23.088  1.00  0.00     0.339 C 
ENDROOT
BRANCH   1   7
ATOM      7  O   UNL     1      14.964 120.739  24.256  1.00  0.00    -0.337 OA
BRANCH   7   8
ATOM      8  C   UNL     1      13.597 121.079  24.444  1.00  0.00     0.282 C 
ATOM      9  C   UNL     1      13.594 121.261  28.125  1.00  0.00     0.041 C 
ATOM     10  C   UNL     1      13.949 121.662  26.692  1.00  0.00     0.150 C 
ATOM     11  C   UNL     1      13.682 123.164  26.452  1.00  0.00     0.174 C 
ATOM     12  O   UNL     1      13.199 120.860  25.792  1.00  0.00    -0.344 OA
ATOM     13  C   UNL     1      14.048 123.511  24.999  1.00  0.00     0.179 C 
ATOM     14  C   UNL     1      13.358 122.543  24.018  1.00  0.00     0.202 C 
BRANCH  11  15
ATOM     15  O   UNL     1      12.329 123.455  26.701  1.00  0.00    -0.388 OA
ATOM     16  H   UNL     1      11.966 122.700  27.236  1.00  0.00     0.211 HD
ENDBRANCH  11  15
BRANCH  13  17
ATOM     17  O   UNL     1      13.689 124.840  24.721  1.00  0.00    -0.387 OA
ATOM     18  H   UNL     1      12.723 124.924  24.936  1.00  0.00     0.211 HD
ENDBRANCH  13  17
BRANCH  14  19
ATOM     19  O   UNL     1      11.979 122.812  23.977  1.00  0.00    -0.385 OA
ATOM     20  H   UNL     1      11.619 122.618  24.883  1.00  0.00     0.211 HD
ENDBRANCH  14  19
ENDBRANCH   7   8
ENDBRANCH   1   7
BRANCH   2  21
ATOM     21  O   UNL     1      13.089 118.713  24.150  1.00  0.00    -0.387 OA
ATOM     22  H   UNL     1      13.008 119.700  24.221  1.00  0.00     0.211 HD
ENDBRANCH   2  21
BRANCH   6  23
ATOM     23  O   UNL     1      16.841 118.652  21.912  1.00  0.00    -0.462 OA
BRANCH  23  24
ATOM     24  C   UNL     1      16.373 118.992  20.632  1.00  0.00     0.130 A 
ATOM     25  C   UNL     1      15.000 119.200  20.461  1.00  0.00     0.093 A 
ATOM     26  C   UNL     1      17.229 119.127  19.524  1.00  0.00     0.094 A 
ATOM     27  C   UNL     1      14.475 119.535  19.204  1.00  0.00     0.133 A 
ATOM     28  C   UNL     1      16.719 119.486  18.275  1.00  0.00     0.138 A 
ATOM     29  C   UNL     1      15.338 119.674  18.096  1.00  0.00     0.102 A 
ATOM     30  O   UNL     1      17.602 119.651  17.203  1.00  0.00    -0.484 OA
ATOM     31  C   UNL     1      14.851 119.986  16.730  1.00  0.00     0.174 C 
ATOM     32  C   UNL     1      17.251 120.363  16.015  1.00  0.00     0.211 C 
ATOM     33  O   UNL     1      13.624 120.177  16.508  1.00  0.00    -0.294 OA
ATOM     34  C   UNL     1      15.813 120.016  15.572  1.00  0.00     0.131 C 
BRANCH  27  35
ATOM     35  O   UNL     1      13.102 119.728  19.062  1.00  0.00    -0.507 OA
ATOM     36  H   UNL     1      12.590 119.347  18.275  1.00  0.00     0.293 HD
ENDBRANCH  27  35
BRANCH  32  37
ATOM     37  C   UNL     1      17.536 121.844  16.213  1.00  0.00    -0.007 A 
ATOM     38  C   UNL     1      17.653 122.445  17.484  1.00  0.00     0.011 A 
ATOM     39  C   UNL     1      17.762 122.636  15.072  1.00  0.00     0.011 A 
ATOM     40  C   UNL     1      17.963 123.804  17.602  1.00  0.00     0.046 A 
ATOM     41  C   UNL     1      18.072 123.995  15.194  1.00  0.00     0.046 A 
ATOM     42  C   UNL     1      18.168 124.584  16.456  1.00  0.00     0.115 A 
BRANCH  42  43
ATOM     43  O   UNL     1      18.469 125.940  16.561  1.00  0.00    -0.508 OA
ATOM     44  H   UNL     1      18.149 126.607  15.870  1.00  0.00     0.293 HD
ENDBRANCH  42  43
ENDBRANCH  32  37
ENDBRANCH  23  24
ENDBRANCH   6  23
BRANCH   3  45
ATOM     45  O   UNL     1      14.919 118.539  26.166  1.00  0.00    -0.387 OA
ATOM     46  H   UNL     1      15.313 118.047  26.931  1.00  0.00     0.211 HD
ENDBRANCH   3  45
BRANCH   4  47
ATOM     47  C   UNL     1      16.998 116.430  23.829  1.00  0.00     0.191 C 
BRANCH  47  48
ATOM     48  O   UNL     1      18.233 116.611  23.200  1.00  0.00    -0.394 OA
ATOM     49  H   UNL     1      18.695 115.732  23.234  1.00  0.00     0.210 HD
ENDBRANCH  47  48
ENDBRANCH   4  47
TORSDOF 14
ENDMDL
MODEL 8
REMARK VINA RESULT:    -5.657      2.582      9.679
REMARK INTER + INTRA:         -10.381
REMARK INTER:                  -9.565
REMARK INTRA:                  -0.816
REMARK UNBOUND:                -1.418
REMARK SMILES C[C@H]1O[C@H](O[C@H]2[C@H](Oc3cc(O)c4c(c3)O[C@H](c3ccc(O)cc3)CC4=O)O[C@H](CO)[C@@H](O)[C@H]2O)[C@@H](O)[C@@H](O)[C@H]1O
REMARK SMILES IDX 6 1 34 2 32 3 29 4 28 5 7 6 5 7 4 8 1 9 2 10 40 11 3 12
REMARK SMILES IDX 38 13 36 14 41 15 39 17 37 19 35 21 8 23 9 24 10 25 15 26
REMARK SMILES IDX 11 27 14 28 13 29 16 30 26 31 17 32 27 33 25 34 12 35 18 37
REMARK SMILES IDX 19 38 24 39 20 40 23 41 21 42 22 43 33 45 30 47 31 48
REMARK H PARENT 41 16 39 18 37 20 35 22 12 36 22 44 33 46 31 49
REMARK Flexibility Score: inf
ROOT
ATOM      1  C   UNL     1      15.395 119.441  17.570  1.00  0.00     0.221 C 
ATOM      2  C   UNL     1      15.561 118.089  16.861  1.00  0.00     0.181 C 
ATOM      3  C   UNL     1      14.523 117.918  15.741  1.00  0.00     0.177 C 
ATOM      4  C   UNL     1      13.092 118.239  16.242  1.00  0.00     0.179 C 
ATOM      5  O   UNL     1      13.003 119.492  16.914  1.00  0.00    -0.332 OA
ATOM      6  C   UNL     1      13.927 119.656  17.985  1.00  0.00     0.339 C 
ENDROOT
BRANCH   1   7
ATOM      7  O   UNL     1      15.797 120.490  16.704  1.00  0.00    -0.337 OA
BRANCH   7   8
ATOM      8  C   UNL     1      17.208 120.659  16.695  1.00  0.00     0.282 C 
ATOM      9  C   UNL     1      17.695 120.891  13.049  1.00  0.00     0.041 C 
ATOM     10  C   UNL     1      17.215 121.313  14.439  1.00  0.00     0.150 C 
ATOM     11  C   UNL     1      17.631 122.766  14.754  1.00  0.00     0.174 C 
ATOM     12  O   UNL     1      17.742 120.411  15.400  1.00  0.00    -0.344 OA
ATOM     13  C   UNL     1      17.132 123.136  16.162  1.00  0.00     0.179 C 
ATOM     14  C   UNL     1      17.570 122.075  17.191  1.00  0.00     0.202 C 
BRANCH  11  15
ATOM     15  O   UNL     1      19.031 122.889  14.682  1.00  0.00    -0.388 OA
ATOM     16  H   UNL     1      19.368 122.890  15.616  1.00  0.00     0.211 HD
ENDBRANCH  11  15
BRANCH  13  17
ATOM     17  O   UNL     1      17.613 124.405  16.521  1.00  0.00    -0.387 OA
ATOM     18  H   UNL     1      18.288 124.261  17.236  1.00  0.00     0.211 HD
ENDBRANCH  13  17
BRANCH  14  19
ATOM     19  O   UNL     1      18.955 122.168  17.409  1.00  0.00    -0.385 OA
ATOM     20  H   UNL     1      19.176 123.136  17.458  1.00  0.00     0.211 HD
ENDBRANCH  14  19
ENDBRANCH   7   8
ENDBRANCH   1   7
BRANCH   2  21
ATOM     21  O   UNL     1      16.854 117.965  16.332  1.00  0.00    -0.387 OA
ATOM     22  H   UNL     1      17.261 117.158  16.740  1.00  0.00     0.211 HD
ENDBRANCH   2  21
BRANCH   6  23
ATOM     23  O   UNL     1      13.589 118.833  19.103  1.00  0.00    -0.462 OA
BRANCH  23  24
ATOM     24  C   UNL     1      14.140 118.966  20.387  1.00  0.00     0.130 A 
ATOM     25  C   UNL     1      15.533 118.999  20.513  1.00  0.00     0.093 A 
ATOM     26  C   UNL     1      13.346 119.065  21.545  1.00  0.00     0.094 A 
ATOM     27  C   UNL     1      16.139 119.123  21.772  1.00  0.00     0.133 A 
ATOM     28  C   UNL     1      13.939 119.216  22.799  1.00  0.00     0.138 A 
ATOM     29  C   UNL     1      15.338 119.226  22.929  1.00  0.00     0.102 A 
ATOM     30  O   UNL     1      13.122 119.352  23.926  1.00  0.00    -0.484 OA
ATOM     31  C   UNL     1      15.909 119.319  24.296  1.00  0.00     0.174 C 
ATOM     32  C   UNL     1      13.597 119.875  25.167  1.00  0.00     0.211 C 
ATOM     33  O   UNL     1      17.157 119.345  24.477  1.00  0.00    -0.294 OA
ATOM     34  C   UNL     1      15.000 119.320  25.496  1.00  0.00     0.131 C 
BRANCH  27  35
ATOM     35  O   UNL     1      17.530 119.143  21.866  1.00  0.00    -0.507 OA
ATOM     36  H   UNL     1      18.095 118.360  21.564  1.00  0.00     0.293 HD
ENDBRANCH  27  35
BRANCH  32  37
ATOM     37  C   UNL     1      13.479 121.392  25.151  1.00  0.00    -0.007 A 
ATOM     38  C   UNL     1      12.627 122.092  24.271  1.00  0.00     0.011 A 
ATOM     39  C   UNL     1      14.204 122.126  26.109  1.00  0.00     0.011 A 
ATOM     40  C   UNL     1      12.527 123.485  24.336  1.00  0.00     0.046 A 
ATOM     41  C   UNL     1      14.101 123.519  26.172  1.00  0.00     0.046 A 
ATOM     42  C   UNL     1      13.269 124.203  25.283  1.00  0.00     0.115 A 
BRANCH  42  43
ATOM     43  O   UNL     1      13.183 125.592  25.353  1.00  0.00    -0.508 OA
ATOM     44  H   UNL     1      13.596 126.183  24.642  1.00  0.00     0.293 HD
ENDBRANCH  42  43
ENDBRANCH  32  37
ENDBRANCH  23  24
ENDBRANCH   6  23
BRANCH   3  45
ATOM     45  O   UNL     1      14.863 118.689  14.613  1.00  0.00    -0.387 OA
ATOM     46  H   UNL     1      15.733 118.373  14.259  1.00  0.00     0.211 HD
ENDBRANCH   3  45
BRANCH   4  47
ATOM     47  C   UNL     1      12.458 117.080  17.033  1.00  0.00     0.191 C 
BRANCH  47  48
ATOM     48  O   UNL     1      11.975 116.110  16.150  1.00  0.00    -0.394 OA
ATOM     49  H   UNL     1      12.770 115.629  15.799  1.00  0.00     0.210 HD
ENDBRANCH  47  48
ENDBRANCH   4  47
TORSDOF 14
ENDMDL
