MODEL 1
REMARK VINA RESULT:    -3.806      0.000      0.000
REMARK INTER + INTRA:          -4.871
REMARK INTER:                  -4.474
REMARK INTRA:                  -0.397
REMARK UNBOUND:                -0.397
REMARK SMILES [NH3+][C@H](CO)C(=O)[O-]
REMARK SMILES IDX 3 1 2 2 1 3 5 7 6 8 7 9 4 10
REMARK H PARENT 1 4 1 5 1 6 4 11
REMARK Flexibility Score: inf
ROOT
ATOM      1  C   UNL     1      12.626  -3.936  24.190  1.00  0.00     0.227 C 
ENDROOT
BRANCH   1   2
ATOM      2  C   UNL     1      13.884  -3.494  23.424  1.00  0.00     0.253 C 
BRANCH   2   3
ATOM      3  N   UNL     1      15.080  -3.570  24.272  1.00  0.00    -0.348 N 
ATOM      4  H   UNL     1      14.875  -4.147  25.120  1.00  0.00     0.345 HD
ATOM      5  H   UNL     1      15.882  -3.998  23.754  1.00  0.00     0.345 HD
ATOM      6  H   UNL     1      15.351  -2.610  24.589  1.00  0.00     0.345 HD
ENDBRANCH   2   3
BRANCH   2   7
ATOM      7  C   UNL     1      14.060  -4.306  22.168  1.00  0.00     0.102 C 
ATOM      8  O   UNL     1      14.731  -5.373  22.182  1.00  0.00    -0.544 OA
ATOM      9  O   UNL     1      13.444  -3.902  20.990  1.00  0.00    -0.544 OA
ENDBRANCH   2   7
ENDBRANCH   1   2
BRANCH   1  10
ATOM     10  O   UNL     1      12.016  -5.027  23.556  1.00  0.00    -0.390 OA
ATOM     11  H   UNL     1      12.138  -4.883  22.582  1.00  0.00     0.210 HD
ENDBRANCH   1  10
TORSDOF 4
ENDMDL
MODEL 2
REMARK VINA RESULT:    -3.707      2.069      2.363
REMARK INTER + INTRA:          -4.754
REMARK INTER:                  -4.530
REMARK INTRA:                  -0.224
REMARK UNBOUND:                -0.397
REMARK SMILES [NH3+][C@H](CO)C(=O)[O-]
REMARK SMILES IDX 3 1 2 2 1 3 5 7 6 8 7 9 4 10
REMARK H PARENT 1 4 1 5 1 6 4 11
REMARK Flexibility Score: inf
ROOT
ATOM      1  C   UNL     1      12.725  -4.895  23.182  1.00  0.00     0.227 C 
ENDROOT
BRANCH   1   2
ATOM      2  C   UNL     1      13.283  -3.960  22.096  1.00  0.00     0.253 C 
BRANCH   2   3
ATOM      3  N   UNL     1      14.535  -4.483  21.534  1.00  0.00    -0.348 N 
ATOM      4  H   UNL     1      14.380  -4.781  20.544  1.00  0.00     0.345 HD
ATOM      5  H   UNL     1      15.289  -3.759  21.558  1.00  0.00     0.345 HD
ATOM      6  H   UNL     1      14.845  -5.319  22.082  1.00  0.00     0.345 HD
ENDBRANCH   2   3
BRANCH   2   7
ATOM      7  C   UNL     1      12.261  -3.727  21.014  1.00  0.00     0.102 C 
ATOM      8  O   UNL     1      12.618  -3.362  19.862  1.00  0.00    -0.544 OA
ATOM      9  O   UNL     1      10.915  -3.953  21.273  1.00  0.00    -0.544 OA
ENDBRANCH   2   7
ENDBRANCH   1   2
BRANCH   1  10
ATOM     10  O   UNL     1      11.804  -4.219  23.994  1.00  0.00    -0.390 OA
ATOM     11  H   UNL     1      11.889  -3.257  23.766  1.00  0.00     0.210 HD
ENDBRANCH   1  10
TORSDOF 4
ENDMDL
MODEL 3
REMARK VINA RESULT:    -3.675     20.009     20.811
REMARK INTER + INTRA:          -4.716
REMARK INTER:                  -4.332
REMARK INTRA:                  -0.385
REMARK UNBOUND:                -0.397
REMARK SMILES [NH3+][C@H](CO)C(=O)[O-]
REMARK SMILES IDX 3 1 2 2 1 3 5 7 6 8 7 9 4 10
REMARK H PARENT 1 4 1 5 1 6 4 11
REMARK Flexibility Score: inf
ROOT
ATOM      1  C   UNL     1      19.164  12.746  11.165  1.00  0.00     0.227 C 
ENDROOT
BRANCH   1   2
ATOM      2  C   UNL     1      19.521  12.015  12.470  1.00  0.00     0.253 C 
BRANCH   2   3
ATOM      3  N   UNL     1      20.944  11.655  12.507  1.00  0.00    -0.348 N 
ATOM      4  H   UNL     1      21.054  10.690  12.897  1.00  0.00     0.345 HD
ATOM      5  H   UNL     1      21.366  11.686  11.550  1.00  0.00     0.345 HD
ATOM      6  H   UNL     1      21.460  12.319  13.130  1.00  0.00     0.345 HD
ENDBRANCH   2   3
BRANCH   2   7
ATOM      7  C   UNL     1      19.142  12.844  13.669  1.00  0.00     0.102 C 
ATOM      8  O   UNL     1      18.035  12.670  14.246  1.00  0.00    -0.544 OA
ATOM      9  O   UNL     1      20.035  13.782  14.171  1.00  0.00    -0.544 OA
ENDBRANCH   2   7
ENDBRANCH   1   2
BRANCH   1  10
ATOM     10  O   UNL     1      18.525  13.963  11.436  1.00  0.00    -0.390 OA
ATOM     11  H   UNL     1      19.206  14.542  11.866  1.00  0.00     0.210 HD
ENDBRANCH   1  10
TORSDOF 4
ENDMDL
MODEL 4
REMARK VINA RESULT:    -3.646      1.902      2.506
REMARK INTER + INTRA:          -4.682
REMARK INTER:                  -4.433
REMARK INTRA:                  -0.249
REMARK UNBOUND:                -0.397
REMARK SMILES [NH3+][C@H](CO)C(=O)[O-]
REMARK SMILES IDX 3 1 2 2 1 3 5 7 6 8 7 9 4 10
REMARK H PARENT 1 4 1 5 1 6 4 11
REMARK Flexibility Score: inf
ROOT
ATOM      1  C   UNL     1      12.526  -3.770  21.506  1.00  0.00     0.227 C 
ENDROOT
BRANCH   1   2
ATOM      2  C   UNL     1      13.011  -3.938  22.956  1.00  0.00     0.253 C 
BRANCH   2   3
ATOM      3  N   UNL     1      12.119  -4.819  23.719  1.00  0.00    -0.348 N 
ATOM      4  H   UNL     1      12.593  -5.124  24.600  1.00  0.00     0.345 HD
ATOM      5  H   UNL     1      11.226  -4.332  23.963  1.00  0.00     0.345 HD
ATOM      6  H   UNL     1      11.900  -5.673  23.155  1.00  0.00     0.345 HD
ENDBRANCH   2   3
BRANCH   2   7
ATOM      7  C   UNL     1      14.430  -4.444  22.990  1.00  0.00     0.102 C 
ATOM      8  O   UNL     1      15.237  -4.033  23.866  1.00  0.00    -0.544 OA
ATOM      9  O   UNL     1      14.844  -5.402  22.074  1.00  0.00    -0.544 OA
ENDBRANCH   2   7
ENDBRANCH   1   2
BRANCH   1  10
ATOM     10  O   UNL     1      13.503  -3.138  20.725  1.00  0.00    -0.390 OA
ATOM     11  H   UNL     1      13.148  -2.235  20.516  1.00  0.00     0.210 HD
ENDBRANCH   1  10
TORSDOF 4
ENDMDL
MODEL 5
REMARK VINA RESULT:    -3.632     19.625     20.457
REMARK INTER + INTRA:          -4.666
REMARK INTER:                  -4.445
REMARK INTRA:                  -0.222
REMARK UNBOUND:                -0.397
REMARK SMILES [NH3+][C@H](CO)C(=O)[O-]
REMARK SMILES IDX 3 1 2 2 1 3 5 7 6 8 7 9 4 10
REMARK H PARENT 1 4 1 5 1 6 4 11
REMARK Flexibility Score: inf
ROOT
ATOM      1  C   UNL     1      18.725  13.733  12.240  1.00  0.00     0.227 C 
ENDROOT
BRANCH   1   2
ATOM      2  C   UNL     1      18.216  12.721  13.280  1.00  0.00     0.253 C 
BRANCH   2   3
ATOM      3  N   UNL     1      18.959  12.832  14.541  1.00  0.00    -0.348 N 
ATOM      4  H   UNL     1      19.986  12.850  14.346  1.00  0.00     0.345 HD
ATOM      5  H   UNL     1      18.695  13.702  15.058  1.00  0.00     0.345 HD
ATOM      6  H   UNL     1      18.757  12.001  15.145  1.00  0.00     0.345 HD
ENDBRANCH   2   3
BRANCH   2   7
ATOM      7  C   UNL     1      16.737  12.886  13.508  1.00  0.00     0.102 C 
ATOM      8  O   UNL     1      15.991  13.330  12.594  1.00  0.00    -0.544 OA
ATOM      9  O   UNL     1      16.177  12.509  14.723  1.00  0.00    -0.544 OA
ENDBRANCH   2   7
ENDBRANCH   1   2
BRANCH   1  10
ATOM     10  O   UNL     1      18.328  13.362  10.949  1.00  0.00    -0.390 OA
ATOM     11  H   UNL     1      17.338  13.413  10.940  1.00  0.00     0.210 HD
ENDBRANCH   1  10
TORSDOF 4
ENDMDL
MODEL 6
REMARK VINA RESULT:    -3.619      2.052      2.262
REMARK INTER + INTRA:          -4.651
REMARK INTER:                  -4.398
REMARK INTRA:                  -0.253
REMARK UNBOUND:                -0.397
REMARK SMILES [NH3+][C@H](CO)C(=O)[O-]
REMARK SMILES IDX 3 1 2 2 1 3 5 7 6 8 7 9 4 10
REMARK H PARENT 1 4 1 5 1 6 4 11
REMARK Flexibility Score: inf
ROOT
ATOM      1  C   UNL     1      12.337  -4.179  22.622  1.00  0.00     0.227 C 
ENDROOT
BRANCH   1   2
ATOM      2  C   UNL     1      13.650  -4.499  21.887  1.00  0.00     0.253 C 
BRANCH   2   3
ATOM      3  N   UNL     1      14.007  -3.434  20.943  1.00  0.00    -0.348 N 
ATOM      4  H   UNL     1      15.019  -3.192  21.049  1.00  0.00     0.345 HD
ATOM      5  H   UNL     1      13.829  -3.731  19.956  1.00  0.00     0.345 HD
ATOM      6  H   UNL     1      13.444  -2.576  21.149  1.00  0.00     0.345 HD
ENDBRANCH   2   3
BRANCH   2   7
ATOM      7  C   UNL     1      14.765  -4.747  22.869  1.00  0.00     0.102 C 
ATOM      8  O   UNL     1      14.984  -3.938  23.810  1.00  0.00    -0.544 OA
ATOM      9  O   UNL     1      15.537  -5.898  22.763  1.00  0.00    -0.544 OA
ENDBRANCH   2   7
ENDBRANCH   1   2
BRANCH   1  10
ATOM     10  O   UNL     1      12.195  -4.983  23.761  1.00  0.00    -0.390 OA
ATOM     11  H   UNL     1      13.097  -5.046  24.168  1.00  0.00     0.210 HD
ENDBRANCH   1  10
TORSDOF 4
ENDMDL
MODEL 7
REMARK VINA RESULT:    -3.605      2.025      2.381
REMARK INTER + INTRA:          -4.634
REMARK INTER:                  -4.268
REMARK INTRA:                  -0.367
REMARK UNBOUND:                -0.397
REMARK SMILES [NH3+][C@H](CO)C(=O)[O-]
REMARK SMILES IDX 3 1 2 2 1 3 5 7 6 8 7 9 4 10
REMARK H PARENT 1 4 1 5 1 6 4 11
REMARK Flexibility Score: inf
ROOT
ATOM      1  C   UNL     1      12.976  -3.598  24.383  1.00  0.00     0.227 C 
ENDROOT
BRANCH   1   2
ATOM      2  C   UNL     1      12.817  -4.649  23.271  1.00  0.00     0.253 C 
BRANCH   2   3
ATOM      3  N   UNL     1      11.532  -4.501  22.577  1.00  0.00    -0.348 N 
ATOM      4  H   UNL     1      11.077  -5.437  22.474  1.00  0.00     0.345 HD
ATOM      5  H   UNL     1      10.890  -3.866  23.105  1.00  0.00     0.345 HD
ATOM      6  H   UNL     1      11.690  -4.109  21.620  1.00  0.00     0.345 HD
ENDBRANCH   2   3
BRANCH   2   7
ATOM      7  C   UNL     1      13.967  -4.578  22.300  1.00  0.00     0.102 C 
ATOM      8  O   UNL     1      14.008  -3.678  21.418  1.00  0.00    -0.544 OA
ATOM      9  O   UNL     1      15.014  -5.486  22.400  1.00  0.00    -0.544 OA
ENDBRANCH   2   7
ENDBRANCH   1   2
BRANCH   1  10
ATOM     10  O   UNL     1      14.308  -3.173  24.479  1.00  0.00    -0.390 OA
ATOM     11  H   UNL     1      14.381  -2.364  23.909  1.00  0.00     0.210 HD
ENDBRANCH   1  10
TORSDOF 4
ENDMDL
MODEL 8
REMARK VINA RESULT:    -3.539     18.584     19.207
REMARK INTER + INTRA:          -4.557
REMARK INTER:                  -4.521
REMARK INTRA:                  -0.036
REMARK UNBOUND:                -0.397
REMARK SMILES [NH3+][C@H](CO)C(=O)[O-]
REMARK SMILES IDX 3 1 2 2 1 3 5 7 6 8 7 9 4 10
REMARK H PARENT 1 4 1 5 1 6 4 11
REMARK Flexibility Score: inf
ROOT
ATOM      1  C   UNL     1      16.096  12.627  13.726  1.00  0.00     0.227 C 
ENDROOT
BRANCH   1   2
ATOM      2  C   UNL     1      17.279  12.682  14.708  1.00  0.00     0.253 C 
BRANCH   2   3
ATOM      3  N   UNL     1      17.181  11.622  15.720  1.00  0.00    -0.348 N 
ATOM      4  H   UNL     1      16.432  10.944  15.450  1.00  0.00     0.345 HD
ATOM      5  H   UNL     1      18.088  11.109  15.816  1.00  0.00     0.345 HD
ATOM      6  H   UNL     1      16.925  12.040  16.645  1.00  0.00     0.345 HD
ENDBRANCH   2   3
BRANCH   2   7
ATOM      7  C   UNL     1      18.590  12.607  13.972  1.00  0.00     0.102 C 
ATOM      8  O   UNL     1      18.714  11.878  12.952  1.00  0.00    -0.544 OA
ATOM      9  O   UNL     1      19.666  13.378  14.395  1.00  0.00    -0.544 OA
ENDBRANCH   2   7
ENDBRANCH   1   2
BRANCH   1  10
ATOM     10  O   UNL     1      15.329  11.473  13.936  1.00  0.00    -0.390 OA
ATOM     11  H   UNL     1      15.609  11.113  14.817  1.00  0.00     0.210 HD
ENDBRANCH   1  10
TORSDOF 4
ENDMDL
MODEL 9
REMARK VINA RESULT:    -3.519     20.177     20.830
REMARK INTER + INTRA:          -4.534
REMARK INTER:                  -4.152
REMARK INTRA:                  -0.381
REMARK UNBOUND:                -0.397
REMARK SMILES [NH3+][C@H](CO)C(=O)[O-]
REMARK SMILES IDX 3 1 2 2 1 3 5 7 6 8 7 9 4 10
REMARK H PARENT 1 4 1 5 1 6 4 11
REMARK Flexibility Score: inf
ROOT
ATOM      1  C   UNL     1      19.232  12.368  11.241  1.00  0.00     0.227 C 
ENDROOT
BRANCH   1   2
ATOM      2  C   UNL     1      18.773  13.469  12.212  1.00  0.00     0.253 C 
BRANCH   2   3
ATOM      3  N   UNL     1      17.330  13.714  12.097  1.00  0.00    -0.348 N 
ATOM      4  H   UNL     1      17.125  14.201  11.195  1.00  0.00     0.345 HD
ATOM      5  H   UNL     1      16.792  12.817  12.131  1.00  0.00     0.345 HD
ATOM      6  H   UNL     1      17.013  14.332  12.880  1.00  0.00     0.345 HD
ENDBRANCH   2   3
BRANCH   2   7
ATOM      7  C   UNL     1      19.151  13.126  13.629  1.00  0.00     0.102 C 
ATOM      8  O   UNL     1      18.456  12.319  14.302  1.00  0.00    -0.544 OA
ATOM      9  O   UNL     1      20.300  13.671  14.190  1.00  0.00    -0.544 OA
ENDBRANCH   2   7
ENDBRANCH   1   2
BRANCH   1  10
ATOM     10  O   UNL     1      20.161  11.518  11.857  1.00  0.00    -0.390 OA
ATOM     11  H   UNL     1      21.057  11.887  11.643  1.00  0.00     0.210 HD
ENDBRANCH   1  10
TORSDOF 4
ENDMDL
