MODEL 1
REMARK VINA RESULT:    -5.388      0.000      0.000
REMARK INTER + INTRA:          -5.703
REMARK INTER:                  -5.703
REMARK INTRA:                   0.000
REMARK UNBOUND:                 0.000
REMARK SMILES O=c1ccc2cc(O)c(O)cc2o1
REMARK SMILES IDX 4 1 3 2 2 3 1 4 13 5 12 6 11 7 9 8 7 9 6 10 5 11 8 12 10 14
REMARK H PARENT 8 13 10 15
REMARK Flexibility Score: inf
ROOT
ATOM      1  C   UNL     1       2.942   9.447   5.343  1.00  0.00     0.019 A 
ATOM      2  C   UNL     1       2.451  10.292   6.337  1.00  0.00     0.094 A 
ATOM      3  C   UNL     1       2.996  11.574   6.469  1.00  0.00     0.336 A 
ATOM      4  O   UNL     1       2.566  12.351   7.360  1.00  0.00    -0.246 OA
ATOM      5  O   UNL     1       3.969  11.978   5.656  1.00  0.00    -0.423 OA
ATOM      6  C   UNL     1       4.467  11.204   4.694  1.00  0.00     0.142 A 
ATOM      7  C   UNL     1       5.490  11.683   3.870  1.00  0.00     0.098 A 
ATOM      8  C   UNL     1       6.017  10.871   2.855  1.00  0.00     0.161 A 
ATOM      9  C   UNL     1       5.519   9.573   2.665  1.00  0.00     0.158 A 
ATOM     10  C   UNL     1       4.493   9.088   3.488  1.00  0.00     0.062 A 
ATOM     11  C   UNL     1       3.965   9.898   4.503  1.00  0.00     0.022 A 
ENDROOT
BRANCH   9  12
ATOM     12  O   UNL     1       6.048   8.773   1.653  1.00  0.00    -0.504 OA
ATOM     13  H   UNL     1       6.720   8.042   1.853  1.00  0.00     0.293 HD
ENDBRANCH   9  12
BRANCH   8  14
ATOM     14  O   UNL     1       7.037  11.345   2.032  1.00  0.00    -0.504 OA
ATOM     15  H   UNL     1       7.497  10.745   1.358  1.00  0.00     0.293 HD
ENDBRANCH   8  14
TORSDOF 2
ENDMDL
MODEL 2
REMARK VINA RESULT:    -5.342      1.485      2.062
REMARK INTER + INTRA:          -5.654
REMARK INTER:                  -5.654
REMARK INTRA:                   0.000
REMARK UNBOUND:                 0.000
REMARK SMILES O=c1ccc2cc(O)c(O)cc2o1
REMARK SMILES IDX 4 1 3 2 2 3 1 4 13 5 12 6 11 7 9 8 7 9 6 10 5 11 8 12 10 14
REMARK H PARENT 8 13 10 15
REMARK Flexibility Score: inf
ROOT
ATOM      1  C   UNL     1       3.056   9.718   5.164  1.00  0.00     0.019 A 
ATOM      2  C   UNL     1       2.090   9.840   6.163  1.00  0.00     0.094 A 
ATOM      3  C   UNL     1       1.945  11.066   6.820  1.00  0.00     0.336 A 
ATOM      4  O   UNL     1       1.079  11.196   7.724  1.00  0.00    -0.246 OA
ATOM      5  O   UNL     1       2.718  12.100   6.494  1.00  0.00    -0.423 OA
ATOM      6  C   UNL     1       3.651  12.027   5.548  1.00  0.00     0.142 A 
ATOM      7  C   UNL     1       4.434  13.146   5.250  1.00  0.00     0.098 A 
ATOM      8  C   UNL     1       5.418  13.074   4.253  1.00  0.00     0.161 A 
ATOM      9  C   UNL     1       5.620  11.876   3.552  1.00  0.00     0.158 A 
ATOM     10  C   UNL     1       4.838  10.750   3.847  1.00  0.00     0.062 A 
ATOM     11  C   UNL     1       3.854  10.820   4.843  1.00  0.00     0.022 A 
ENDROOT
BRANCH   9  12
ATOM     12  O   UNL     1       6.601  11.813   2.563  1.00  0.00    -0.504 OA
ATOM     13  H   UNL     1       7.561  11.578   2.783  1.00  0.00     0.293 HD
ENDBRANCH   9  12
BRANCH   8  14
ATOM     14  O   UNL     1       6.199  14.189   3.953  1.00  0.00    -0.504 OA
ATOM     15  H   UNL     1       6.343  14.494   2.998  1.00  0.00     0.293 HD
ENDBRANCH   8  14
TORSDOF 2
ENDMDL
MODEL 3
REMARK VINA RESULT:    -5.309      1.550      4.142
REMARK INTER + INTRA:          -5.619
REMARK INTER:                  -5.619
REMARK INTRA:                   0.000
REMARK UNBOUND:                 0.000
REMARK SMILES O=c1ccc2cc(O)c(O)cc2o1
REMARK SMILES IDX 4 1 3 2 2 3 1 4 13 5 12 6 11 7 9 8 7 9 6 10 5 11 8 12 10 14
REMARK H PARENT 8 13 10 15
REMARK Flexibility Score: inf
ROOT
ATOM      1  C   UNL     1       3.629   8.477   4.246  1.00  0.00     0.019 A 
ATOM      2  C   UNL     1       4.151   7.399   3.532  1.00  0.00     0.094 A 
ATOM      3  C   UNL     1       5.214   7.620   2.650  1.00  0.00     0.336 A 
ATOM      4  O   UNL     1       5.699   6.660   1.997  1.00  0.00    -0.246 OA
ATOM      5  O   UNL     1       5.718   8.842   2.497  1.00  0.00    -0.423 OA
ATOM      6  C   UNL     1       5.250   9.899   3.158  1.00  0.00     0.142 A 
ATOM      7  C   UNL     1       5.819  11.160   2.955  1.00  0.00     0.098 A 
ATOM      8  C   UNL     1       5.329  12.275   3.649  1.00  0.00     0.161 A 
ATOM      9  C   UNL     1       4.264  12.129   4.550  1.00  0.00     0.158 A 
ATOM     10  C   UNL     1       3.689  10.867   4.758  1.00  0.00     0.062 A 
ATOM     11  C   UNL     1       4.177   9.751   4.064  1.00  0.00     0.022 A 
ENDROOT
BRANCH   9  12
ATOM     12  O   UNL     1       3.784  13.243   5.236  1.00  0.00    -0.504 OA
ATOM     13  H   UNL     1       3.220  13.947   4.775  1.00  0.00     0.293 HD
ENDBRANCH   9  12
BRANCH   8  14
ATOM     14  O   UNL     1       5.896  13.533   3.449  1.00  0.00    -0.504 OA
ATOM     15  H   UNL     1       6.394  13.761   2.597  1.00  0.00     0.293 HD
ENDBRANCH   8  14
TORSDOF 2
ENDMDL
MODEL 4
REMARK VINA RESULT:    -5.295      1.031      2.230
REMARK INTER + INTRA:          -5.604
REMARK INTER:                  -5.604
REMARK INTRA:                   0.000
REMARK UNBOUND:                 0.000
REMARK SMILES O=c1ccc2cc(O)c(O)cc2o1
REMARK SMILES IDX 4 1 3 2 2 3 1 4 13 5 12 6 11 7 9 8 7 9 6 10 5 11 8 12 10 14
REMARK H PARENT 8 13 10 15
REMARK Flexibility Score: inf
ROOT
ATOM      1  C   UNL     1       3.970  12.525   5.633  1.00  0.00     0.019 A 
ATOM      2  C   UNL     1       2.930  12.146   6.481  1.00  0.00     0.094 A 
ATOM      3  C   UNL     1       2.407  10.853   6.378  1.00  0.00     0.336 A 
ATOM      4  O   UNL     1       1.468  10.493   7.135  1.00  0.00    -0.246 OA
ATOM      5  O   UNL     1       2.896   9.999   5.482  1.00  0.00    -0.423 OA
ATOM      6  C   UNL     1       3.888  10.319   4.653  1.00  0.00     0.142 A 
ATOM      7  C   UNL     1       4.360   9.380   3.732  1.00  0.00     0.098 A 
ATOM      8  C   UNL     1       5.405   9.713   2.857  1.00  0.00     0.161 A 
ATOM      9  C   UNL     1       5.978  10.993   2.904  1.00  0.00     0.158 A 
ATOM     10  C   UNL     1       5.508  11.939   3.826  1.00  0.00     0.062 A 
ATOM     11  C   UNL     1       4.464  11.608   4.701  1.00  0.00     0.022 A 
ENDROOT
BRANCH   9  12
ATOM     12  O   UNL     1       7.016  11.315   2.031  1.00  0.00    -0.504 OA
ATOM     13  H   UNL     1       6.870  11.368   1.030  1.00  0.00     0.293 HD
ENDBRANCH   9  12
BRANCH   8  14
ATOM     14  O   UNL     1       5.879   8.778   1.938  1.00  0.00    -0.504 OA
ATOM     15  H   UNL     1       6.861   8.537   1.886  1.00  0.00     0.293 HD
ENDBRANCH   8  14
TORSDOF 2
ENDMDL
MODEL 5
REMARK VINA RESULT:    -5.166      2.726      5.212
REMARK INTER + INTRA:          -5.468
REMARK INTER:                  -5.468
REMARK INTRA:                   0.000
REMARK UNBOUND:                 0.000
REMARK SMILES O=c1ccc2cc(O)c(O)cc2o1
REMARK SMILES IDX 4 1 3 2 2 3 1 4 13 5 12 6 11 7 9 8 7 9 6 10 5 11 8 12 10 14
REMARK H PARENT 8 13 10 15
REMARK Flexibility Score: inf
ROOT
ATOM      1  C   UNL     1       6.745   6.562   1.344  1.00  0.00     0.019 A 
ATOM      2  C   UNL     1       6.059   5.373   1.591  1.00  0.00     0.094 A 
ATOM      3  C   UNL     1       4.911   5.405   2.390  1.00  0.00     0.336 A 
ATOM      4  O   UNL     1       4.279   4.342   2.624  1.00  0.00    -0.246 OA
ATOM      5  O   UNL     1       4.482   6.554   2.906  1.00  0.00    -0.423 OA
ATOM      6  C   UNL     1       5.106   7.711   2.696  1.00  0.00     0.142 A 
ATOM      7  C   UNL     1       4.609   8.887   3.266  1.00  0.00     0.098 A 
ATOM      8  C   UNL     1       5.262  10.109   3.047  1.00  0.00     0.161 A 
ATOM      9  C   UNL     1       6.420  10.153   2.255  1.00  0.00     0.158 A 
ATOM     10  C   UNL     1       6.923   8.977   1.682  1.00  0.00     0.062 A 
ATOM     11  C   UNL     1       6.271   7.755   1.900  1.00  0.00     0.022 A 
ENDROOT
BRANCH   9  12
ATOM     12  O   UNL     1       7.063  11.371   2.043  1.00  0.00    -0.504 OA
ATOM     13  H   UNL     1       6.595  12.254   2.209  1.00  0.00     0.293 HD
ENDBRANCH   9  12
BRANCH   8  14
ATOM     14  O   UNL     1       4.768  11.283   3.613  1.00  0.00    -0.504 OA
ATOM     15  H   UNL     1       3.830  11.335   3.992  1.00  0.00     0.293 HD
ENDBRANCH   8  14
TORSDOF 2
ENDMDL
MODEL 6
REMARK VINA RESULT:    -5.067      1.798      4.364
REMARK INTER + INTRA:          -5.363
REMARK INTER:                  -5.363
REMARK INTRA:                   0.000
REMARK UNBOUND:                 0.000
REMARK SMILES O=c1ccc2cc(O)c(O)cc2o1
REMARK SMILES IDX 4 1 3 2 2 3 1 4 13 5 12 6 11 7 9 8 7 9 6 10 5 11 8 12 10 14
REMARK H PARENT 8 13 10 15
REMARK Flexibility Score: inf
ROOT
ATOM      1  C   UNL     1       6.171   8.950   2.037  1.00  0.00     0.019 A 
ATOM      2  C   UNL     1       5.640   7.662   2.109  1.00  0.00     0.094 A 
ATOM      3  C   UNL     1       4.554   7.422   2.957  1.00  0.00     0.336 A 
ATOM      4  O   UNL     1       4.062   6.267   3.035  1.00  0.00    -0.246 OA
ATOM      5  O   UNL     1       4.037   8.410   3.684  1.00  0.00    -0.423 OA
ATOM      6  C   UNL     1       4.512   9.652   3.646  1.00  0.00     0.142 A 
ATOM      7  C   UNL     1       3.927  10.649   4.433  1.00  0.00     0.098 A 
ATOM      8  C   UNL     1       4.424  11.960   4.395  1.00  0.00     0.161 A 
ATOM      9  C   UNL     1       5.512  12.275   3.567  1.00  0.00     0.158 A 
ATOM     10  C   UNL     1       6.102  11.279   2.776  1.00  0.00     0.062 A 
ATOM     11  C   UNL     1       5.607   9.969   2.812  1.00  0.00     0.022 A 
ENDROOT
BRANCH   9  12
ATOM     12  O   UNL     1       6.000  13.580   3.536  1.00  0.00    -0.504 OA
ATOM     13  H   UNL     1       5.476  14.331   3.103  1.00  0.00     0.293 HD
ENDBRANCH   9  12
BRANCH   8  14
ATOM     14  O   UNL     1       3.843  12.956   5.178  1.00  0.00    -0.504 OA
ATOM     15  H   UNL     1       4.352  13.795   5.434  1.00  0.00     0.293 HD
ENDBRANCH   8  14
TORSDOF 2
ENDMDL
MODEL 7
REMARK VINA RESULT:    -4.999      6.894      8.960
REMARK INTER + INTRA:          -5.291
REMARK INTER:                  -5.291
REMARK INTRA:                   0.000
REMARK UNBOUND:                 0.000
REMARK SMILES O=c1ccc2cc(O)c(O)cc2o1
REMARK SMILES IDX 4 1 3 2 2 3 1 4 13 5 12 6 11 7 9 8 7 9 6 10 5 11 8 12 10 14
REMARK H PARENT 8 13 10 15
REMARK Flexibility Score: inf
ROOT
ATOM      1  C   UNL     1       3.524   5.740  -0.587  1.00  0.00     0.019 A 
ATOM      2  C   UNL     1       4.257   6.367   0.420  1.00  0.00     0.094 A 
ATOM      3  C   UNL     1       5.077   5.591   1.247  1.00  0.00     0.336 A 
ATOM      4  O   UNL     1       5.745   6.139   2.161  1.00  0.00    -0.246 OA
ATOM      5  O   UNL     1       5.154   4.274   1.072  1.00  0.00    -0.423 OA
ATOM      6  C   UNL     1       4.473   3.635   0.124  1.00  0.00     0.142 A 
ATOM      7  C   UNL     1       4.594   2.249  -0.011  1.00  0.00     0.098 A 
ATOM      8  C   UNL     1       3.877   1.572  -1.009  1.00  0.00     0.161 A 
ATOM      9  C   UNL     1       3.035   2.285  -1.875  1.00  0.00     0.158 A 
ATOM     10  C   UNL     1       2.910   3.676  -1.744  1.00  0.00     0.062 A 
ATOM     11  C   UNL     1       3.625   4.354  -0.747  1.00  0.00     0.022 A 
ENDROOT
BRANCH   9  12
ATOM     12  O   UNL     1       2.327   1.604  -2.864  1.00  0.00    -0.504 OA
ATOM     13  H   UNL     1       1.436   1.942  -3.205  1.00  0.00     0.293 HD
ENDBRANCH   9  12
BRANCH   8  14
ATOM     14  O   UNL     1       3.997   0.190  -1.147  1.00  0.00    -0.504 OA
ATOM     15  H   UNL     1       3.558  -0.448  -0.492  1.00  0.00     0.293 HD
ENDBRANCH   8  14
TORSDOF 2
ENDMDL
MODEL 8
REMARK VINA RESULT:    -4.983      5.453      7.150
REMARK INTER + INTRA:          -5.274
REMARK INTER:                  -5.274
REMARK INTRA:                   0.000
REMARK UNBOUND:                 0.000
REMARK SMILES O=c1ccc2cc(O)c(O)cc2o1
REMARK SMILES IDX 4 1 3 2 2 3 1 4 13 5 12 6 11 7 9 8 7 9 6 10 5 11 8 12 10 14
REMARK H PARENT 8 13 10 15
REMARK Flexibility Score: inf
ROOT
ATOM      1  C   UNL     1       5.870   5.678   2.299  1.00  0.00     0.019 A 
ATOM      2  C   UNL     1       6.672   6.794   2.058  1.00  0.00     0.094 A 
ATOM      3  C   UNL     1       6.408   7.591   0.939  1.00  0.00     0.336 A 
ATOM      4  O   UNL     1       7.120   8.601   0.706  1.00  0.00    -0.246 OA
ATOM      5  O   UNL     1       5.406   7.286   0.118  1.00  0.00    -0.423 OA
ATOM      6  C   UNL     1       4.617   6.232   0.310  1.00  0.00     0.142 A 
ATOM      7  C   UNL     1       3.579   5.961  -0.588  1.00  0.00     0.098 A 
ATOM      8  C   UNL     1       2.746   4.852  -0.389  1.00  0.00     0.161 A 
ATOM      9  C   UNL     1       2.951   4.007   0.712  1.00  0.00     0.158 A 
ATOM     10  C   UNL     1       3.990   4.274   1.616  1.00  0.00     0.062 A 
ATOM     11  C   UNL     1       4.824   5.382   1.419  1.00  0.00     0.022 A 
ENDROOT
BRANCH   9  12
ATOM     12  O   UNL     1       2.117   2.907   0.902  1.00  0.00    -0.504 OA
ATOM     13  H   UNL     1       2.437   2.077   1.388  1.00  0.00     0.293 HD
ENDBRANCH   9  12
BRANCH   8  14
ATOM     14  O   UNL     1       1.710   4.580  -1.282  1.00  0.00    -0.504 OA
ATOM     15  H   UNL     1       0.989   5.264  -1.482  1.00  0.00     0.293 HD
ENDBRANCH   8  14
TORSDOF 2
ENDMDL
MODEL 9
REMARK VINA RESULT:    -4.936      5.990      7.970
REMARK INTER + INTRA:          -5.225
REMARK INTER:                  -5.225
REMARK INTRA:                   0.000
REMARK UNBOUND:                 0.000
REMARK SMILES O=c1ccc2cc(O)c(O)cc2o1
REMARK SMILES IDX 4 1 3 2 2 3 1 4 13 5 12 6 11 7 9 8 7 9 6 10 5 11 8 12 10 14
REMARK H PARENT 8 13 10 15
REMARK Flexibility Score: inf
ROOT
ATOM      1  C   UNL     1       4.411   6.821  -0.276  1.00  0.00     0.019 A 
ATOM      2  C   UNL     1       5.594   7.146   0.386  1.00  0.00     0.094 A 
ATOM      3  C   UNL     1       6.126   6.239   1.309  1.00  0.00     0.336 A 
ATOM      4  O   UNL     1       7.193   6.514   1.917  1.00  0.00    -0.246 OA
ATOM      5  O   UNL     1       5.510   5.084   1.549  1.00  0.00    -0.423 OA
ATOM      6  C   UNL     1       4.380   4.734   0.939  1.00  0.00     0.142 A 
ATOM      7  C   UNL     1       3.777   3.507   1.233  1.00  0.00     0.098 A 
ATOM      8  C   UNL     1       2.586   3.135   0.593  1.00  0.00     0.161 A 
ATOM      9  C   UNL     1       1.995   3.995  -0.345  1.00  0.00     0.158 A 
ATOM     10  C   UNL     1       2.595   5.226  -0.643  1.00  0.00     0.062 A 
ATOM     11  C   UNL     1       3.784   5.600  -0.004  1.00  0.00     0.022 A 
ENDROOT
BRANCH   9  12
ATOM     12  O   UNL     1       0.811   3.616  -0.976  1.00  0.00    -0.504 OA
ATOM     13  H   UNL     1       0.294   4.260  -1.562  1.00  0.00     0.293 HD
ENDBRANCH   9  12
BRANCH   8  14
ATOM     14  O   UNL     1       1.984   1.911   0.883  1.00  0.00    -0.504 OA
ATOM     15  H   UNL     1       1.039   1.701   0.581  1.00  0.00     0.293 HD
ENDBRANCH   8  14
TORSDOF 2
ENDMDL
