MODEL 1
REMARK VINA RESULT:    -2.330      0.000      0.000
REMARK INTER + INTRA:          -2.330
REMARK INTER:                  -2.330
REMARK INTRA:                   0.000
REMARK UNBOUND:                 0.000
REMARK SMILES CC(=O)[O-]
REMARK SMILES IDX 1 1 2 2 3 3 4 4
REMARK H PARENT
REMARK Flexibility Score: inf
ROOT
ATOM      1  C   UNL     1      27.008  -5.770  39.909  1.00  0.00     0.063 C 
ATOM      2  C   UNL     1      27.082  -7.229  39.613  1.00  0.00     0.038 C 
ATOM      3  O   UNL     1      28.085  -7.702  39.016  1.00  0.00    -0.550 OA
ATOM      4  O   UNL     1      26.022  -8.063  39.947  1.00  0.00    -0.550 OA
ENDROOT
TORSDOF 0
ENDMDL
MODEL 2
REMARK VINA RESULT:    -2.324     19.087     19.452
REMARK INTER + INTRA:          -2.324
REMARK INTER:                  -2.324
REMARK INTRA:                   0.000
REMARK UNBOUND:                 0.000
REMARK SMILES CC(=O)[O-]
REMARK SMILES IDX 1 1 2 2 3 3 4 4
REMARK H PARENT
REMARK Flexibility Score: inf
ROOT
ATOM      1  C   UNL     1      21.544   9.220  47.201  1.00  0.00     0.063 C 
ATOM      2  C   UNL     1      22.326  10.287  46.513  1.00  0.00     0.038 C 
ATOM      3  O   UNL     1      21.741  11.124  45.777  1.00  0.00    -0.550 OA
ATOM      4  O   UNL     1      23.709  10.328  46.639  1.00  0.00    -0.550 OA
ENDROOT
TORSDOF 0
ENDMDL
MODEL 3
REMARK VINA RESULT:    -2.316     14.215     14.675
REMARK INTER + INTRA:          -2.316
REMARK INTER:                  -2.316
REMARK INTRA:                   0.000
REMARK UNBOUND:                 0.000
REMARK SMILES CC(=O)[O-]
REMARK SMILES IDX 1 1 2 2 3 3 4 4
REMARK H PARENT
REMARK Flexibility Score: inf
ROOT
ATOM      1  C   UNL     1      29.478   6.362  41.900  1.00  0.00     0.063 C 
ATOM      2  C   UNL     1      29.637   6.686  43.348  1.00  0.00     0.038 C 
ATOM      3  O   UNL     1      29.535   7.877  43.743  1.00  0.00    -0.550 OA
ATOM      4  O   UNL     1      29.951   5.682  44.255  1.00  0.00    -0.550 OA
ENDROOT
TORSDOF 0
ENDMDL
MODEL 4
REMARK VINA RESULT:    -2.312     14.148     14.611
REMARK INTER + INTRA:          -2.312
REMARK INTER:                  -2.312
REMARK INTRA:                   0.000
REMARK UNBOUND:                 0.000
REMARK SMILES CC(=O)[O-]
REMARK SMILES IDX 1 1 2 2 3 3 4 4
REMARK H PARENT
REMARK Flexibility Score: inf
ROOT
ATOM      1  C   UNL     1      29.478   6.309  41.897  1.00  0.00     0.063 C 
ATOM      2  C   UNL     1      29.712   6.557  43.349  1.00  0.00     0.038 C 
ATOM      3  O   UNL     1      30.023   5.603  44.110  1.00  0.00    -0.550 OA
ATOM      4  O   UNL     1      29.536   7.830  43.875  1.00  0.00    -0.550 OA
ENDROOT
TORSDOF 0
ENDMDL
MODEL 5
REMARK VINA RESULT:    -2.311      0.172      1.629
REMARK INTER + INTRA:          -2.311
REMARK INTER:                  -2.311
REMARK INTRA:                   0.000
REMARK UNBOUND:                 0.000
REMARK SMILES CC(=O)[O-]
REMARK SMILES IDX 1 1 2 2 3 3 4 4
REMARK H PARENT
REMARK Flexibility Score: inf
ROOT
ATOM      1  C   UNL     1      26.771  -5.756  39.932  1.00  0.00     0.063 C 
ATOM      2  C   UNL     1      26.878  -7.218  39.654  1.00  0.00     0.038 C 
ATOM      3  O   UNL     1      25.952  -7.996  40.003  1.00  0.00    -0.550 OA
ATOM      4  O   UNL     1      28.022  -7.731  39.056  1.00  0.00    -0.550 OA
ENDROOT
TORSDOF 0
ENDMDL
MODEL 6
REMARK VINA RESULT:    -2.294     20.542     21.099
REMARK INTER + INTRA:          -2.294
REMARK INTER:                  -2.294
REMARK INTRA:                   0.000
REMARK UNBOUND:                 0.000
REMARK SMILES CC(=O)[O-]
REMARK SMILES IDX 1 1 2 2 3 3 4 4
REMARK H PARENT
REMARK Flexibility Score: inf
ROOT
ATOM      1  C   UNL     1      12.400   6.643  39.278  1.00  0.00     0.063 C 
ATOM      2  C   UNL     1      10.974   6.391  38.918  1.00  0.00     0.038 C 
ATOM      3  O   UNL     1      10.692   5.698  37.906  1.00  0.00    -0.550 OA
ATOM      4  O   UNL     1       9.955   6.964  39.668  1.00  0.00    -0.550 OA
ENDROOT
TORSDOF 0
ENDMDL
MODEL 7
REMARK VINA RESULT:    -2.256      1.330      1.760
REMARK INTER + INTRA:          -2.256
REMARK INTER:                  -2.256
REMARK INTRA:                   0.000
REMARK UNBOUND:                 0.000
REMARK SMILES CC(=O)[O-]
REMARK SMILES IDX 1 1 2 2 3 3 4 4
REMARK H PARENT
REMARK Flexibility Score: inf
ROOT
ATOM      1  C   UNL     1      25.753  -7.738  39.924  1.00  0.00     0.063 C 
ATOM      2  C   UNL     1      27.057  -7.127  39.535  1.00  0.00     0.038 C 
ATOM      3  O   UNL     1      27.991  -7.854  39.105  1.00  0.00    -0.550 OA
ATOM      4  O   UNL     1      27.263  -5.763  39.697  1.00  0.00    -0.550 OA
ENDROOT
TORSDOF 0
ENDMDL
MODEL 8
REMARK VINA RESULT:    -2.247     13.007     13.517
REMARK INTER + INTRA:          -2.247
REMARK INTER:                  -2.247
REMARK INTRA:                   0.000
REMARK UNBOUND:                 0.000
REMARK SMILES CC(=O)[O-]
REMARK SMILES IDX 1 1 2 2 3 3 4 4
REMARK H PARENT
REMARK Flexibility Score: inf
ROOT
ATOM      1  C   UNL     1      29.765   5.826  43.819  1.00  0.00     0.063 C 
ATOM      2  C   UNL     1      29.677   5.638  42.342  1.00  0.00     0.038 C 
ATOM      3  O   UNL     1      29.675   4.479  41.852  1.00  0.00    -0.550 OA
ATOM      4  O   UNL     1      29.650   6.743  41.501  1.00  0.00    -0.550 OA
ENDROOT
TORSDOF 0
ENDMDL
MODEL 9
REMARK VINA RESULT:    -2.187      2.203      2.980
REMARK INTER + INTRA:          -2.187
REMARK INTER:                  -2.187
REMARK INTRA:                   0.000
REMARK UNBOUND:                 0.000
REMARK SMILES CC(=O)[O-]
REMARK SMILES IDX 1 1 2 2 3 3 4 4
REMARK H PARENT
REMARK Flexibility Score: inf
ROOT
ATOM      1  C   UNL     1      24.812  -5.748  40.086  1.00  0.00     0.063 C 
ATOM      2  C   UNL     1      24.518  -7.209  40.031  1.00  0.00     0.038 C 
ATOM      3  O   UNL     1      23.326  -7.614  40.036  1.00  0.00    -0.550 OA
ATOM      4  O   UNL     1      25.559  -8.129  40.028  1.00  0.00    -0.550 OA
ENDROOT
TORSDOF 0
ENDMDL
