MODEL 1
REMARK VINA RESULT:    -7.719      0.000      0.000
REMARK INTER + INTRA:          -9.367
REMARK INTER:                  -8.847
REMARK INTRA:                  -0.520
REMARK UNBOUND:                -0.520
REMARK SMILES C=C(C)[C@H]1CC[C@]2(C(=O)[O-])CC[C@]3(C)[C@@H](CC[C@@H]4[C@@]5(C)CC[C@H](O)C(C)(C)[C@H]5CC[C@@]43C)[C@H]12
REMARK SMILES IDX 7 1 6 2 33 3 11 4 5 5 15 6 4 7 12 8 16 9 13 10 17 11 31 12
REMARK SMILES IDX 14 13 18 14 30 15 32 16 19 17 29 18 21 19 20 20 28 21 22 22
REMARK SMILES IDX 25 23 23 24 26 25 27 26 8 27 9 28 10 29 2 30 3 31 1 32 24 33
REMARK H PARENT 24 34
REMARK Flexibility Score: inf
ROOT
ATOM      1  C   UNL     1      -1.742   2.077 -26.912  1.00  0.00     0.014 C 
ATOM      2  C   UNL     1      -1.880   1.262 -28.226  1.00  0.00     0.014 C 
ATOM      3  C   UNL     1      -2.872   1.541 -25.966  1.00  0.00     0.012 C 
ATOM      4  C   UNL     1      -0.333   1.904 -26.306  1.00  0.00     0.014 C 
ATOM      5  C   UNL     1      -2.760   0.055 -27.943  1.00  0.00     0.009 C 
ATOM      6  C   UNL     1      -2.426   1.182 -24.488  1.00  0.00     0.000 C 
ATOM      7  C   UNL     1      -3.590   0.379 -26.704  1.00  0.00     0.018 C 
ATOM      8  C   UNL     1      -0.157   0.566 -25.595  1.00  0.00     0.008 C 
ATOM      9  C   UNL     1      -2.533   2.430 -23.625  1.00  0.00     0.005 C 
ATOM     10  C   UNL     1      -1.033   0.422 -24.303  1.00  0.00    -0.024 C 
ATOM     11  C   UNL     1      -2.314   2.132 -22.147  1.00  0.00     0.005 C 
ATOM     12  C   UNL     1      -0.184   0.847 -22.957  1.00  0.00    -0.024 C 
ATOM     13  C   UNL     1      -1.414  -1.102 -24.205  1.00  0.00     0.012 C 
ATOM     14  C   UNL     1      -1.171   1.121 -21.743  1.00  0.00     0.002 C 
ATOM     15  C   UNL     1       0.683   2.139 -23.103  1.00  0.00     0.008 C 
ATOM     16  C   UNL     1       0.822  -0.324 -22.664  1.00  0.00     0.012 C 
ATOM     17  C   UNL     1      -0.520   1.585 -20.340  1.00  0.00    -0.026 C 
ATOM     18  C   UNL     1       1.384   2.595 -21.806  1.00  0.00     0.005 C 
ATOM     19  C   UNL     1       0.241   0.427 -19.612  1.00  0.00     0.010 C 
ATOM     20  C   UNL     1      -1.715   1.957 -19.386  1.00  0.00     0.012 C 
ATOM     21  C   UNL     1       0.451   2.820 -20.572  1.00  0.00     0.003 C 
ATOM     22  C   UNL     1       0.995   0.859 -18.342  1.00  0.00     0.033 C 
ATOM     23  C   UNL     1       1.280   3.265 -19.281  1.00  0.00    -0.006 C 
ATOM     24  C   UNL     1       1.964   2.024 -18.617  1.00  0.00     0.120 C 
ATOM     25  C   UNL     1       2.400   4.276 -19.659  1.00  0.00     0.014 C 
ATOM     26  C   UNL     1       0.372   4.022 -18.268  1.00  0.00     0.014 C 
ENDROOT
BRANCH   1  27
ATOM     27  C   UNL     1      -1.895   3.561 -27.227  1.00  0.00     0.048 C 
ATOM     28  O   UNL     1      -1.249   4.103 -28.165  1.00  0.00    -0.550 OA
ATOM     29  O   UNL     1      -2.858   4.309 -26.559  1.00  0.00    -0.550 OA
ENDBRANCH   1  27
BRANCH   7  30
ATOM     30  C   UNL     1      -5.041   0.713 -27.067  1.00  0.00    -0.077 C 
ATOM     31  C   UNL     1      -6.186  -0.168 -26.637  1.00  0.00     0.039 C 
ATOM     32  C   UNL     1      -5.322   1.801 -27.805  1.00  0.00     0.008 C 
ENDBRANCH   7  30
BRANCH  24  33
ATOM     33  O   UNL     1       2.660   2.378 -17.445  1.00  0.00    -0.393 OA
ATOM     34  H   UNL     1       2.913   1.546 -16.971  1.00  0.00     0.210 HD
ENDBRANCH  24  33
TORSDOF 3
ENDMDL
MODEL 2
REMARK VINA RESULT:    -7.690      3.166      5.133
REMARK INTER + INTRA:          -9.334
REMARK INTER:                  -8.771
REMARK INTRA:                  -0.563
REMARK UNBOUND:                -0.520
REMARK SMILES C=C(C)[C@H]1CC[C@]2(C(=O)[O-])CC[C@]3(C)[C@@H](CC[C@@H]4[C@@]5(C)CC[C@H](O)C(C)(C)[C@H]5CC[C@@]43C)[C@H]12
REMARK SMILES IDX 7 1 6 2 33 3 11 4 5 5 15 6 4 7 12 8 16 9 13 10 17 11 31 12
REMARK SMILES IDX 14 13 18 14 30 15 32 16 19 17 29 18 21 19 20 20 28 21 22 22
REMARK SMILES IDX 25 23 23 24 26 25 27 26 8 27 9 28 10 29 2 30 3 31 1 32 24 33
REMARK H PARENT 24 34
REMARK Flexibility Score: inf
ROOT
ATOM      1  C   UNL     1       1.930   4.751 -25.727  1.00  0.00     0.014 C 
ATOM      2  C   UNL     1       3.195   4.723 -26.625  1.00  0.00     0.014 C 
ATOM      3  C   UNL     1       0.744   4.327 -26.659  1.00  0.00     0.012 C 
ATOM      4  C   UNL     1       2.098   3.806 -24.517  1.00  0.00     0.014 C 
ATOM      5  C   UNL     1       2.858   3.953 -27.891  1.00  0.00     0.009 C 
ATOM      6  C   UNL     1      -0.224   3.211 -26.084  1.00  0.00     0.000 C 
ATOM      7  C   UNL     1       1.340   3.983 -28.050  1.00  0.00     0.018 C 
ATOM      8  C   UNL     1       1.909   2.338 -24.885  1.00  0.00     0.008 C 
ATOM      9  C   UNL     1      -1.325   3.883 -25.278  1.00  0.00     0.005 C 
ATOM     10  C   UNL     1       0.443   1.982 -25.312  1.00  0.00    -0.024 C 
ATOM     11  C   UNL     1      -2.412   2.903 -24.853  1.00  0.00     0.005 C 
ATOM     12  C   UNL     1      -0.427   1.409 -24.037  1.00  0.00    -0.024 C 
ATOM     13  C   UNL     1       0.571   0.847 -26.394  1.00  0.00     0.012 C 
ATOM     14  C   UNL     1      -1.982   1.469 -24.354  1.00  0.00     0.002 C 
ATOM     15  C   UNL     1      -0.233   2.193 -22.699  1.00  0.00     0.008 C 
ATOM     16  C   UNL     1       0.077  -0.055 -23.762  1.00  0.00     0.012 C 
ATOM     17  C   UNL     1      -3.000   0.976 -23.203  1.00  0.00    -0.026 C 
ATOM     18  C   UNL     1      -1.136   1.722 -21.539  1.00  0.00     0.005 C 
ATOM     19  C   UNL     1      -2.983  -0.576 -23.000  1.00  0.00     0.010 C 
ATOM     20  C   UNL     1      -4.453   1.311 -23.707  1.00  0.00     0.012 C 
ATOM     21  C   UNL     1      -2.672   1.713 -21.834  1.00  0.00     0.003 C 
ATOM     22  C   UNL     1      -3.833  -1.074 -21.818  1.00  0.00     0.033 C 
ATOM     23  C   UNL     1      -3.509   1.187 -20.579  1.00  0.00    -0.006 C 
ATOM     24  C   UNL     1      -3.451  -0.374 -20.500  1.00  0.00     0.120 C 
ATOM     25  C   UNL     1      -2.932   1.749 -19.249  1.00  0.00     0.014 C 
ATOM     26  C   UNL     1      -4.978   1.699 -20.634  1.00  0.00     0.014 C 
ENDROOT
BRANCH   1  27
ATOM     27  C   UNL     1       1.755   6.153 -25.154  1.00  0.00     0.048 C 
ATOM     28  O   UNL     1       1.074   6.356 -24.111  1.00  0.00    -0.550 OA
ATOM     29  O   UNL     1       2.460   7.215 -25.709  1.00  0.00    -0.550 OA
ENDBRANCH   1  27
BRANCH   7  30
ATOM     30  C   UNL     1       0.904   4.967 -29.142  1.00  0.00    -0.077 C 
ATOM     31  C   UNL     1       1.827   6.047 -29.645  1.00  0.00     0.039 C 
ATOM     32  C   UNL     1      -0.334   4.899 -29.661  1.00  0.00     0.008 C 
ENDBRANCH   7  30
BRANCH  24  33
ATOM     33  O   UNL     1      -4.224  -0.871 -19.432  1.00  0.00    -0.393 OA
ATOM     34  H   UNL     1      -4.012  -1.831 -19.316  1.00  0.00     0.210 HD
ENDBRANCH  24  33
TORSDOF 3
ENDMDL
MODEL 3
REMARK VINA RESULT:    -6.511      2.898      5.337
REMARK INTER + INTRA:          -7.982
REMARK INTER:                  -7.291
REMARK INTRA:                  -0.691
REMARK UNBOUND:                -0.520
REMARK SMILES C=C(C)[C@H]1CC[C@]2(C(=O)[O-])CC[C@]3(C)[C@@H](CC[C@@H]4[C@@]5(C)CC[C@H](O)C(C)(C)[C@H]5CC[C@@]43C)[C@H]12
REMARK SMILES IDX 7 1 6 2 33 3 11 4 5 5 15 6 4 7 12 8 16 9 13 10 17 11 31 12
REMARK SMILES IDX 14 13 18 14 30 15 32 16 19 17 29 18 21 19 20 20 28 21 22 22
REMARK SMILES IDX 25 23 23 24 26 25 27 26 8 27 9 28 10 29 2 30 3 31 1 32 24 33
REMARK H PARENT 24 34
REMARK Flexibility Score: inf
ROOT
ATOM      1  C   UNL     1      -0.923   2.546 -28.136  1.00  0.00     0.014 C 
ATOM      2  C   UNL     1      -0.812   3.607 -29.263  1.00  0.00     0.014 C 
ATOM      3  C   UNL     1       0.204   2.905 -27.108  1.00  0.00     0.012 C 
ATOM      4  C   UNL     1      -2.331   2.568 -27.501  1.00  0.00     0.014 C 
ATOM      5  C   UNL     1       0.049   4.751 -28.751  1.00  0.00     0.009 C 
ATOM      6  C   UNL     1      -0.237   2.956 -25.586  1.00  0.00     0.000 C 
ATOM      7  C   UNL     1       0.895   4.204 -27.603  1.00  0.00     0.018 C 
ATOM      8  C   UNL     1      -2.525   3.735 -26.539  1.00  0.00     0.008 C 
ATOM      9  C   UNL     1      -0.100   1.565 -24.988  1.00  0.00     0.005 C 
ATOM     10  C   UNL     1      -1.641   3.637 -25.247  1.00  0.00    -0.024 C 
ATOM     11  C   UNL     1      -0.312   1.560 -23.479  1.00  0.00     0.005 C 
ATOM     12  C   UNL     1      -2.471   2.938 -24.008  1.00  0.00    -0.024 C 
ATOM     13  C   UNL     1      -1.287   5.119 -24.852  1.00  0.00     0.012 C 
ATOM     14  C   UNL     1      -1.470   2.448 -22.877  1.00  0.00     0.002 C 
ATOM     15  C   UNL     1      -3.316   1.684 -24.404  1.00  0.00     0.008 C 
ATOM     16  C   UNL     1      -3.496   4.009 -23.485  1.00  0.00     0.012 C 
ATOM     17  C   UNL     1      -2.101   1.704 -21.591  1.00  0.00    -0.026 C 
ATOM     18  C   UNL     1      -3.998   0.968 -23.220  1.00  0.00     0.005 C 
ATOM     19  C   UNL     1      -2.877   2.680 -20.645  1.00  0.00     0.010 C 
ATOM     20  C   UNL     1      -0.891   1.173 -20.735  1.00  0.00     0.012 C 
ATOM     21  C   UNL     1      -3.051   0.520 -22.059  1.00  0.00     0.003 C 
ATOM     22  C   UNL     1      -3.612   1.991 -19.482  1.00  0.00     0.033 C 
ATOM     23  C   UNL     1      -3.862  -0.188 -20.878  1.00  0.00    -0.006 C 
ATOM     24  C   UNL     1      -4.562   0.885 -19.978  1.00  0.00     0.120 C 
ATOM     25  C   UNL     1      -4.966  -1.125 -21.443  1.00  0.00     0.014 C 
ATOM     26  C   UNL     1      -2.932  -1.112 -20.039  1.00  0.00     0.014 C 
ENDROOT
BRANCH   1  27
ATOM     27  C   UNL     1      -0.747   1.157 -28.739  1.00  0.00     0.048 C 
ATOM     28  O   UNL     1       0.364   0.559 -28.696  1.00  0.00    -0.550 OA
ATOM     29  O   UNL     1      -1.854   0.475 -29.229  1.00  0.00    -0.550 OA
ENDBRANCH   1  27
BRANCH   7  30
ATOM     30  C   UNL     1       2.349   3.976 -28.032  1.00  0.00    -0.077 C 
ATOM     31  C   UNL     1       3.067   4.944 -28.936  1.00  0.00     0.039 C 
ATOM     32  C   UNL     1       3.013   2.881 -27.623  1.00  0.00     0.008 C 
ENDBRANCH   7  30
BRANCH  24  33
ATOM     33  O   UNL     1      -5.242   0.292 -18.897  1.00  0.00    -0.393 OA
ATOM     34  H   UNL     1      -4.959   0.748 -18.064  1.00  0.00     0.210 HD
ENDBRANCH  24  33
TORSDOF 3
ENDMDL
MODEL 4
REMARK VINA RESULT:    -6.220      3.205      6.151
REMARK INTER + INTRA:          -7.648
REMARK INTER:                  -7.063
REMARK INTRA:                  -0.586
REMARK UNBOUND:                -0.520
REMARK SMILES C=C(C)[C@H]1CC[C@]2(C(=O)[O-])CC[C@]3(C)[C@@H](CC[C@@H]4[C@@]5(C)CC[C@H](O)C(C)(C)[C@H]5CC[C@@]43C)[C@H]12
REMARK SMILES IDX 7 1 6 2 33 3 11 4 5 5 15 6 4 7 12 8 16 9 13 10 17 11 31 12
REMARK SMILES IDX 14 13 18 14 30 15 32 16 19 17 29 18 21 19 20 20 28 21 22 22
REMARK SMILES IDX 25 23 23 24 26 25 27 26 8 27 9 28 10 29 2 30 3 31 1 32 24 33
REMARK H PARENT 24 34
REMARK Flexibility Score: inf
ROOT
ATOM      1  C   UNL     1      -3.601   1.328 -23.449  1.00  0.00     0.014 C 
ATOM      2  C   UNL     1      -4.532   0.086 -23.448  1.00  0.00     0.014 C 
ATOM      3  C   UNL     1      -2.315   0.888 -22.668  1.00  0.00     0.012 C 
ATOM      4  C   UNL     1      -3.290   1.778 -24.893  1.00  0.00     0.014 C 
ATOM      5  C   UNL     1      -3.704  -1.125 -23.052  1.00  0.00     0.009 C 
ATOM      6  C   UNL     1      -0.931   1.228 -23.363  1.00  0.00     0.000 C 
ATOM      7  C   UNL     1      -2.479  -0.611 -22.299  1.00  0.00     0.018 C 
ATOM      8  C   UNL     1      -2.252   0.893 -25.575  1.00  0.00     0.008 C 
ATOM      9  C   UNL     1      -0.500   2.624 -22.943  1.00  0.00     0.005 C 
ATOM     10  C   UNL     1      -0.823   0.997 -24.940  1.00  0.00    -0.024 C 
ATOM     11  C   UNL     1       0.914   2.957 -23.405  1.00  0.00     0.005 C 
ATOM     12  C   UNL     1       0.107   2.097 -25.739  1.00  0.00    -0.024 C 
ATOM     13  C   UNL     1      -0.174  -0.428 -25.096  1.00  0.00     0.012 C 
ATOM     14  C   UNL     1       1.357   2.515 -24.854  1.00  0.00     0.002 C 
ATOM     15  C   UNL     1      -0.619   3.430 -26.110  1.00  0.00     0.008 C 
ATOM     16  C   UNL     1       0.527   1.434 -27.101  1.00  0.00     0.012 C 
ATOM     17  C   UNL     1       2.370   3.615 -25.461  1.00  0.00    -0.026 C 
ATOM     18  C   UNL     1       0.287   4.498 -26.757  1.00  0.00     0.005 C 
ATOM     19  C   UNL     1       3.241   3.056 -26.635  1.00  0.00     0.010 C 
ATOM     20  C   UNL     1       3.393   3.969 -24.319  1.00  0.00     0.012 C 
ATOM     21  C   UNL     1       1.560   4.895 -25.939  1.00  0.00     0.003 C 
ATOM     22  C   UNL     1       4.119   4.108 -27.335  1.00  0.00     0.033 C 
ATOM     23  C   UNL     1       2.437   5.987 -26.708  1.00  0.00    -0.006 C 
ATOM     24  C   UNL     1       3.291   5.309 -27.830  1.00  0.00     0.120 C 
ATOM     25  C   UNL     1       1.530   7.054 -27.385  1.00  0.00     0.014 C 
ATOM     26  C   UNL     1       3.333   6.783 -25.715  1.00  0.00     0.014 C 
ENDROOT
BRANCH   1  27
ATOM     27  C   UNL     1      -4.323   2.494 -22.782  1.00  0.00     0.048 C 
ATOM     28  O   UNL     1      -4.971   2.338 -21.711  1.00  0.00    -0.550 OA
ATOM     29  O   UNL     1      -4.160   3.780 -23.284  1.00  0.00    -0.550 OA
ENDBRANCH   1  27
BRANCH   7  30
ATOM     30  C   UNL     1      -2.607  -0.840 -20.788  1.00  0.00    -0.077 C 
ATOM     31  C   UNL     1      -3.939  -1.120 -20.142  1.00  0.00     0.039 C 
ATOM     32  C   UNL     1      -1.522  -0.770 -19.998  1.00  0.00     0.008 C 
ENDBRANCH   7  30
BRANCH  24  33
ATOM     33  O   UNL     1       4.114   6.241 -28.492  1.00  0.00    -0.393 OA
ATOM     34  H   UNL     1       3.919   6.194 -29.462  1.00  0.00     0.210 HD
ENDBRANCH  24  33
TORSDOF 3
ENDMDL
MODEL 5
REMARK VINA RESULT:    -5.747      3.233      6.452
REMARK INTER + INTRA:          -7.107
REMARK INTER:                  -6.412
REMARK INTRA:                  -0.694
REMARK UNBOUND:                -0.520
REMARK SMILES C=C(C)[C@H]1CC[C@]2(C(=O)[O-])CC[C@]3(C)[C@@H](CC[C@@H]4[C@@]5(C)CC[C@H](O)C(C)(C)[C@H]5CC[C@@]43C)[C@H]12
REMARK SMILES IDX 7 1 6 2 33 3 11 4 5 5 15 6 4 7 12 8 16 9 13 10 17 11 31 12
REMARK SMILES IDX 14 13 18 14 30 15 32 16 19 17 29 18 21 19 20 20 28 21 22 22
REMARK SMILES IDX 25 23 23 24 26 25 27 26 8 27 9 28 10 29 2 30 3 31 1 32 24 33
REMARK H PARENT 24 34
REMARK Flexibility Score: inf
ROOT
ATOM      1  C   UNL     1      -2.484  -0.023 -23.025  1.00  0.00     0.014 C 
ATOM      2  C   UNL     1      -2.602  -1.107 -21.921  1.00  0.00     0.014 C 
ATOM      3  C   UNL     1      -2.494   1.349 -22.268  1.00  0.00     0.012 C 
ATOM      4  C   UNL     1      -1.201  -0.229 -23.859  1.00  0.00     0.014 C 
ATOM      5  C   UNL     1      -2.298  -0.453 -20.583  1.00  0.00     0.009 C 
ATOM      6  C   UNL     1      -1.363   2.379 -22.685  1.00  0.00     0.000 C 
ATOM      7  C   UNL     1      -2.534   1.046 -20.746  1.00  0.00     0.018 C 
ATOM      8  C   UNL     1       0.054   0.248 -23.137  1.00  0.00     0.008 C 
ATOM      9  C   UNL     1      -1.865   3.215 -23.852  1.00  0.00     0.005 C 
ATOM     10  C   UNL     1       0.107   1.802 -22.929  1.00  0.00    -0.024 C 
ATOM     11  C   UNL     1      -0.922   4.363 -24.190  1.00  0.00     0.005 C 
ATOM     12  C   UNL     1       0.950   2.537 -24.137  1.00  0.00    -0.024 C 
ATOM     13  C   UNL     1       0.861   2.031 -21.567  1.00  0.00     0.012 C 
ATOM     14  C   UNL     1       0.633   4.093 -24.167  1.00  0.00     0.002 C 
ATOM     15  C   UNL     1       0.640   2.009 -25.575  1.00  0.00     0.008 C 
ATOM     16  C   UNL     1       2.471   2.236 -23.879  1.00  0.00     0.012 C 
ATOM     17  C   UNL     1       1.347   4.980 -25.312  1.00  0.00    -0.026 C 
ATOM     18  C   UNL     1       1.348   2.779 -26.710  1.00  0.00     0.005 C 
ATOM     19  C   UNL     1       2.879   5.178 -25.060  1.00  0.00     0.010 C 
ATOM     20  C   UNL     1       0.723   6.422 -25.224  1.00  0.00     0.012 C 
ATOM     21  C   UNL     1       1.105   4.323 -26.738  1.00  0.00     0.003 C 
ATOM     22  C   UNL     1       3.624   5.897 -26.197  1.00  0.00     0.033 C 
ATOM     23  C   UNL     1       1.901   5.023 -27.934  1.00  0.00    -0.006 C 
ATOM     24  C   UNL     1       3.408   5.203 -27.555  1.00  0.00     0.120 C 
ATOM     25  C   UNL     1       1.838   4.158 -29.225  1.00  0.00     0.014 C 
ATOM     26  C   UNL     1       1.246   6.381 -28.321  1.00  0.00     0.014 C 
ENDROOT
BRANCH   1  27
ATOM     27  C   UNL     1      -3.653  -0.167 -23.994  1.00  0.00     0.048 C 
ATOM     28  O   UNL     1      -4.809  -0.468 -23.587  1.00  0.00    -0.550 OA
ATOM     29  O   UNL     1      -3.481   0.165 -25.332  1.00  0.00    -0.550 OA
ENDBRANCH   1  27
BRANCH   7  30
ATOM     30  C   UNL     1      -3.846   1.488 -20.088  1.00  0.00    -0.077 C 
ATOM     31  C   UNL     1      -5.046   1.885 -20.907  1.00  0.00     0.039 C 
ATOM     32  C   UNL     1      -3.945   1.552 -18.748  1.00  0.00     0.008 C 
ENDBRANCH   7  30
BRANCH  24  33
ATOM     33  O   UNL     1       4.125   5.864 -28.571  1.00  0.00    -0.393 OA
ATOM     34  H   UNL     1       5.058   5.988 -28.263  1.00  0.00     0.210 HD
ENDBRANCH  24  33
TORSDOF 3
ENDMDL
MODEL 6
REMARK VINA RESULT:    -5.249      2.218      8.168
REMARK INTER + INTRA:          -6.535
REMARK INTER:                  -5.981
REMARK INTRA:                  -0.554
REMARK UNBOUND:                -0.520
REMARK SMILES C=C(C)[C@H]1CC[C@]2(C(=O)[O-])CC[C@]3(C)[C@@H](CC[C@@H]4[C@@]5(C)CC[C@H](O)C(C)(C)[C@H]5CC[C@@]43C)[C@H]12
REMARK SMILES IDX 7 1 6 2 33 3 11 4 5 5 15 6 4 7 12 8 16 9 13 10 17 11 31 12
REMARK SMILES IDX 14 13 18 14 30 15 32 16 19 17 29 18 21 19 20 20 28 21 22 22
REMARK SMILES IDX 25 23 23 24 26 25 27 26 8 27 9 28 10 29 2 30 3 31 1 32 24 33
REMARK H PARENT 24 34
REMARK Flexibility Score: inf
ROOT
ATOM      1  C   UNL     1      -1.456   0.848 -20.462  1.00  0.00     0.014 C 
ATOM      2  C   UNL     1      -0.440   0.311 -19.419  1.00  0.00     0.014 C 
ATOM      3  C   UNL     1      -0.675   1.922 -21.295  1.00  0.00     0.012 C 
ATOM      4  C   UNL     1      -1.999  -0.301 -21.340  1.00  0.00     0.014 C 
ATOM      5  C   UNL     1       0.952   0.736 -19.855  1.00  0.00     0.009 C 
ATOM      6  C   UNL     1      -0.803   1.805 -22.871  1.00  0.00     0.000 C 
ATOM      7  C   UNL     1       0.791   1.936 -20.785  1.00  0.00     0.018 C 
ATOM      8  C   UNL     1      -1.006  -0.744 -22.409  1.00  0.00     0.008 C 
ATOM      9  C   UNL     1      -2.023   2.591 -23.325  1.00  0.00     0.005 C 
ATOM     10  C   UNL     1      -0.741   0.341 -23.509  1.00  0.00    -0.024 C 
ATOM     11  C   UNL     1      -2.111   2.698 -24.842  1.00  0.00     0.005 C 
ATOM     12  C   UNL     1      -1.712   0.114 -24.819  1.00  0.00    -0.024 C 
ATOM     13  C   UNL     1       0.759   0.156 -23.948  1.00  0.00     0.012 C 
ATOM     14  C   UNL     1      -1.760   1.427 -25.709  1.00  0.00     0.002 C 
ATOM     15  C   UNL     1      -3.200  -0.231 -24.485  1.00  0.00     0.008 C 
ATOM     16  C   UNL     1      -1.141  -1.125 -25.600  1.00  0.00     0.012 C 
ATOM     17  C   UNL     1      -2.693   1.405 -27.026  1.00  0.00    -0.026 C 
ATOM     18  C   UNL     1      -4.128  -0.331 -25.714  1.00  0.00     0.005 C 
ATOM     19  C   UNL     1      -2.108   0.510 -28.170  1.00  0.00     0.010 C 
ATOM     20  C   UNL     1      -2.695   2.868 -27.606  1.00  0.00     0.012 C 
ATOM     21  C   UNL     1      -4.158   0.924 -26.647  1.00  0.00     0.003 C 
ATOM     22  C   UNL     1      -3.032   0.348 -29.389  1.00  0.00     0.033 C 
ATOM     23  C   UNL     1      -5.130   0.705 -27.897  1.00  0.00    -0.006 C 
ATOM     24  C   UNL     1      -4.427  -0.169 -28.988  1.00  0.00     0.120 C 
ATOM     25  C   UNL     1      -6.432  -0.031 -27.468  1.00  0.00     0.014 C 
ATOM     26  C   UNL     1      -5.605   2.068 -28.480  1.00  0.00     0.014 C 
ENDROOT
BRANCH   1  27
ATOM     27  C   UNL     1      -2.660   1.434 -19.731  1.00  0.00     0.048 C 
ATOM     28  O   UNL     1      -2.630   2.600 -19.247  1.00  0.00    -0.550 OA
ATOM     29  O   UNL     1      -3.858   0.731 -19.707  1.00  0.00    -0.550 OA
ENDBRANCH   1  27
BRANCH   7  30
ATOM     30  C   UNL     1       1.164   3.248 -20.085  1.00  0.00    -0.077 C 
ATOM     31  C   UNL     1       0.711   3.550 -18.680  1.00  0.00     0.039 C 
ATOM     32  C   UNL     1       1.891   4.177 -20.729  1.00  0.00     0.008 C 
ENDBRANCH   7  30
BRANCH  24  33
ATOM     33  O   UNL     1      -5.241  -0.336 -30.125  1.00  0.00    -0.393 OA
ATOM     34  H   UNL     1      -4.802   0.115 -30.890  1.00  0.00     0.210 HD
ENDBRANCH  24  33
TORSDOF 3
ENDMDL
MODEL 7
REMARK VINA RESULT:    -5.052      1.896      3.657
REMARK INTER + INTRA:          -6.311
REMARK INTER:                  -5.784
REMARK INTRA:                  -0.526
REMARK UNBOUND:                -0.520
REMARK SMILES C=C(C)[C@H]1CC[C@]2(C(=O)[O-])CC[C@]3(C)[C@@H](CC[C@@H]4[C@@]5(C)CC[C@H](O)C(C)(C)[C@H]5CC[C@@]43C)[C@H]12
REMARK SMILES IDX 7 1 6 2 33 3 11 4 5 5 15 6 4 7 12 8 16 9 13 10 17 11 31 12
REMARK SMILES IDX 14 13 18 14 30 15 32 16 19 17 29 18 21 19 20 20 28 21 22 22
REMARK SMILES IDX 25 23 23 24 26 25 27 26 8 27 9 28 10 29 2 30 3 31 1 32 24 33
REMARK H PARENT 24 34
REMARK Flexibility Score: inf
ROOT
ATOM      1  C   UNL     1      -3.102   1.226 -27.500  1.00  0.00     0.014 C 
ATOM      2  C   UNL     1      -3.297   1.811 -28.924  1.00  0.00     0.014 C 
ATOM      3  C   UNL     1      -1.672   0.586 -27.501  1.00  0.00     0.012 C 
ATOM      4  C   UNL     1      -3.255   2.329 -26.430  1.00  0.00     0.014 C 
ATOM      5  C   UNL     1      -1.936   1.873 -29.598  1.00  0.00     0.009 C 
ATOM      6  C   UNL     1      -0.743   0.962 -26.272  1.00  0.00     0.000 C 
ATOM      7  C   UNL     1      -1.029   0.875 -28.884  1.00  0.00     0.018 C 
ATOM      8  C   UNL     1      -2.023   3.222 -26.324  1.00  0.00     0.008 C 
ATOM      9  C   UNL     1      -0.996  -0.026 -25.144  1.00  0.00     0.005 C 
ATOM     10  C   UNL     1      -0.755   2.481 -25.776  1.00  0.00    -0.024 C 
ATOM     11  C   UNL     1      -0.006   0.139 -23.998  1.00  0.00     0.005 C 
ATOM     12  C   UNL     1      -0.604   2.680 -24.149  1.00  0.00    -0.024 C 
ATOM     13  C   UNL     1       0.479   3.148 -26.490  1.00  0.00     0.012 C 
ATOM     14  C   UNL     1       0.391   1.599 -23.548  1.00  0.00     0.002 C 
ATOM     15  C   UNL     1      -1.933   2.536 -23.339  1.00  0.00     0.008 C 
ATOM     16  C   UNL     1      -0.107   4.153 -23.915  1.00  0.00     0.012 C 
ATOM     17  C   UNL     1       0.641   1.617 -21.953  1.00  0.00    -0.026 C 
ATOM     18  C   UNL     1      -1.765   2.612 -21.807  1.00  0.00     0.005 C 
ATOM     19  C   UNL     1       1.501   2.838 -21.487  1.00  0.00     0.010 C 
ATOM     20  C   UNL     1       1.507   0.347 -21.615  1.00  0.00     0.012 C 
ATOM     21  C   UNL     1      -0.749   1.598 -21.184  1.00  0.00     0.003 C 
ATOM     22  C   UNL     1       1.645   2.971 -19.961  1.00  0.00     0.033 C 
ATOM     23  C   UNL     1      -0.635   1.778 -19.600  1.00  0.00    -0.006 C 
ATOM     24  C   UNL     1       0.277   3.002 -19.255  1.00  0.00     0.120 C 
ATOM     25  C   UNL     1      -2.032   2.035 -18.967  1.00  0.00     0.014 C 
ATOM     26  C   UNL     1      -0.115   0.474 -18.927  1.00  0.00     0.014 C 
ENDROOT
BRANCH   1  27
ATOM     27  C   UNL     1      -4.202   0.206 -27.224  1.00  0.00     0.048 C 
ATOM     28  O   UNL     1      -3.947  -1.027 -27.144  1.00  0.00    -0.550 OA
ATOM     29  O   UNL     1      -5.486   0.645 -26.924  1.00  0.00    -0.550 OA
ENDBRANCH   1  27
BRANCH   7  30
ATOM     30  C   UNL     1      -0.817  -0.394 -29.717  1.00  0.00    -0.077 C 
ATOM     31  C   UNL     1       0.560  -0.851 -30.125  1.00  0.00     0.039 C 
ATOM     32  C   UNL     1      -1.872  -1.121 -30.125  1.00  0.00     0.008 C 
ENDBRANCH   7  30
BRANCH  24  33
ATOM     33  O   UNL     1       0.438   3.154 -17.864  1.00  0.00    -0.393 OA
ATOM     34  H   UNL     1       0.330   2.266 -17.439  1.00  0.00     0.210 HD
ENDBRANCH  24  33
TORSDOF 3
ENDMDL
MODEL 8
REMARK VINA RESULT:    -5.003      2.631      4.428
REMARK INTER + INTRA:          -6.253
REMARK INTER:                  -5.611
REMARK INTRA:                  -0.642
REMARK UNBOUND:                -0.520
REMARK SMILES C=C(C)[C@H]1CC[C@]2(C(=O)[O-])CC[C@]3(C)[C@@H](CC[C@@H]4[C@@]5(C)CC[C@H](O)C(C)(C)[C@H]5CC[C@@]43C)[C@H]12
REMARK SMILES IDX 7 1 6 2 33 3 11 4 5 5 15 6 4 7 12 8 16 9 13 10 17 11 31 12
REMARK SMILES IDX 14 13 18 14 30 15 32 16 19 17 29 18 21 19 20 20 28 21 22 22
REMARK SMILES IDX 25 23 23 24 26 25 27 26 8 27 9 28 10 29 2 30 3 31 1 32 24 33
REMARK H PARENT 24 34
REMARK Flexibility Score: inf
ROOT
ATOM      1  C   UNL     1      -2.478   1.748 -28.446  1.00  0.00     0.014 C 
ATOM      2  C   UNL     1      -1.795   2.444 -29.653  1.00  0.00     0.014 C 
ATOM      3  C   UNL     1      -1.442   0.693 -27.927  1.00  0.00     0.012 C 
ATOM      4  C   UNL     1      -2.861   2.781 -27.363  1.00  0.00     0.014 C 
ATOM      5  C   UNL     1      -0.312   2.115 -29.610  1.00  0.00     0.009 C 
ATOM      6  C   UNL     1      -1.178   0.689 -26.364  1.00  0.00     0.000 C 
ATOM      7  C   UNL     1      -0.152   0.844 -28.779  1.00  0.00     0.018 C 
ATOM      8  C   UNL     1      -1.665   3.236 -26.534  1.00  0.00     0.008 C 
ATOM      9  C   UNL     1      -2.189  -0.232 -25.698  1.00  0.00     0.005 C 
ATOM     10  C   UNL     1      -1.059   2.105 -25.633  1.00  0.00    -0.024 C 
ATOM     11  C   UNL     1      -1.886  -0.450 -24.220  1.00  0.00     0.005 C 
ATOM     12  C   UNL     1      -1.685   2.155 -24.111  1.00  0.00    -0.024 C 
ATOM     13  C   UNL     1       0.487   2.391 -25.559  1.00  0.00     0.012 C 
ATOM     14  C   UNL     1      -1.417   0.784 -23.356  1.00  0.00     0.002 C 
ATOM     15  C   UNL     1      -3.228   2.389 -24.039  1.00  0.00     0.008 C 
ATOM     16  C   UNL     1      -1.022   3.382 -23.386  1.00  0.00     0.012 C 
ATOM     17  C   UNL     1      -1.989   0.633 -21.854  1.00  0.00    -0.026 C 
ATOM     18  C   UNL     1      -3.824   2.321 -22.617  1.00  0.00     0.005 C 
ATOM     19  C   UNL     1      -1.200   1.495 -20.813  1.00  0.00     0.010 C 
ATOM     20  C   UNL     1      -1.746  -0.861 -21.424  1.00  0.00     0.012 C 
ATOM     21  C   UNL     1      -3.533   1.007 -21.820  1.00  0.00     0.003 C 
ATOM     22  C   UNL     1      -1.798   1.489 -19.396  1.00  0.00     0.033 C 
ATOM     23  C   UNL     1      -4.173   1.052 -20.356  1.00  0.00    -0.006 C 
ATOM     24  C   UNL     1      -3.281   1.907 -19.397  1.00  0.00     0.120 C 
ATOM     25  C   UNL     1      -5.588   1.698 -20.387  1.00  0.00     0.014 C 
ATOM     26  C   UNL     1      -4.392  -0.384 -19.799  1.00  0.00     0.014 C 
ENDROOT
BRANCH   1  27
ATOM     27  C   UNL     1      -3.783   1.110 -28.909  1.00  0.00     0.048 C 
ATOM     28  O   UNL     1      -3.917   0.668 -30.084  1.00  0.00    -0.550 OA
ATOM     29  O   UNL     1      -4.803   0.887 -27.992  1.00  0.00    -0.550 OA
ENDBRANCH   1  27
BRANCH   7  30
ATOM     30  C   UNL     1       0.122  -0.379 -29.662  1.00  0.00    -0.077 C 
ATOM     31  C   UNL     1       1.522  -0.766 -30.062  1.00  0.00     0.039 C 
ATOM     32  C   UNL     1      -0.897  -1.125 -30.122  1.00  0.00     0.008 C 
ENDBRANCH   7  30
BRANCH  24  33
ATOM     33  O   UNL     1      -3.793   1.923 -18.085  1.00  0.00    -0.393 OA
ATOM     34  H   UNL     1      -4.523   2.592 -18.044  1.00  0.00     0.210 HD
ENDBRANCH  24  33
TORSDOF 3
ENDMDL
MODEL 9
REMARK VINA RESULT:    -4.884      2.901      8.143
REMARK INTER + INTRA:          -6.117
REMARK INTER:                  -5.550
REMARK INTRA:                  -0.567
REMARK UNBOUND:                -0.520
REMARK SMILES C=C(C)[C@H]1CC[C@]2(C(=O)[O-])CC[C@]3(C)[C@@H](CC[C@@H]4[C@@]5(C)CC[C@H](O)C(C)(C)[C@H]5CC[C@@]43C)[C@H]12
REMARK SMILES IDX 7 1 6 2 33 3 11 4 5 5 15 6 4 7 12 8 16 9 13 10 17 11 31 12
REMARK SMILES IDX 14 13 18 14 30 15 32 16 19 17 29 18 21 19 20 20 28 21 22 22
REMARK SMILES IDX 25 23 23 24 26 25 27 26 8 27 9 28 10 29 2 30 3 31 1 32 24 33
REMARK H PARENT 24 34
REMARK Flexibility Score: inf
ROOT
ATOM      1  C   UNL     1       1.456   3.032 -23.767  1.00  0.00     0.014 C 
ATOM      2  C   UNL     1       2.997   3.202 -23.712  1.00  0.00     0.014 C 
ATOM      3  C   UNL     1       0.932   4.227 -24.635  1.00  0.00     0.012 C 
ATOM      4  C   UNL     1       1.078   1.659 -24.365  1.00  0.00     0.014 C 
ATOM      5  C   UNL     1       3.402   4.189 -24.795  1.00  0.00     0.009 C 
ATOM      6  C   UNL     1      -0.095   3.853 -25.783  1.00  0.00     0.000 C 
ATOM      7  C   UNL     1       2.168   5.022 -25.135  1.00  0.00     0.018 C 
ATOM      8  C   UNL     1       1.223   1.616 -25.882  1.00  0.00     0.008 C 
ATOM      9  C   UNL     1      -1.504   3.877 -25.209  1.00  0.00     0.005 C 
ATOM     10  C   UNL     1       0.200   2.536 -26.636  1.00  0.00    -0.024 C 
ATOM     11  C   UNL     1      -2.570   3.724 -26.287  1.00  0.00     0.005 C 
ATOM     12  C   UNL     1      -1.137   1.691 -27.094  1.00  0.00    -0.024 C 
ATOM     13  C   UNL     1       0.946   3.047 -27.924  1.00  0.00     0.012 C 
ATOM     14  C   UNL     1      -2.325   2.682 -27.447  1.00  0.00     0.002 C 
ATOM     15  C   UNL     1      -1.702   0.713 -26.013  1.00  0.00     0.008 C 
ATOM     16  C   UNL     1      -0.714   0.796 -28.315  1.00  0.00     0.012 C 
ATOM     17  C   UNL     1      -3.736   2.033 -27.887  1.00  0.00    -0.026 C 
ATOM     18  C   UNL     1      -3.019   0.010 -26.406  1.00  0.00     0.005 C 
ATOM     19  C   UNL     1      -3.690   1.392 -29.315  1.00  0.00     0.010 C 
ATOM     20  C   UNL     1      -4.767   3.217 -27.998  1.00  0.00     0.012 C 
ATOM     21  C   UNL     1      -4.197   0.954 -26.816  1.00  0.00     0.003 C 
ATOM     22  C   UNL     1      -4.970   0.639 -29.717  1.00  0.00     0.033 C 
ATOM     23  C   UNL     1      -5.500   0.125 -27.226  1.00  0.00    -0.006 C 
ATOM     24  C   UNL     1      -5.356  -0.432 -28.681  1.00  0.00     0.120 C 
ATOM     25  C   UNL     1      -5.711  -1.087 -26.274  1.00  0.00     0.014 C 
ATOM     26  C   UNL     1      -6.784   0.992 -27.074  1.00  0.00     0.014 C 
ENDROOT
BRANCH   1  27
ATOM     27  C   UNL     1       0.900   3.049 -22.347  1.00  0.00     0.048 C 
ATOM     28  O   UNL     1      -0.107   2.359 -22.028  1.00  0.00    -0.550 OA
ATOM     29  O   UNL     1       1.586   3.731 -21.349  1.00  0.00    -0.550 OA
ENDBRANCH   1  27
BRANCH   7  30
ATOM     30  C   UNL     1       2.253   6.429 -24.533  1.00  0.00    -0.077 C 
ATOM     31  C   UNL     1       2.712   6.656 -23.116  1.00  0.00     0.039 C 
ATOM     32  C   UNL     1       1.891   7.501 -25.260  1.00  0.00     0.008 C 
ENDBRANCH   7  30
BRANCH  24  33
ATOM     33  O   UNL     1      -6.513  -1.125 -29.089  1.00  0.00    -0.393 OA
ATOM     34  H   UNL     1      -7.072  -1.295 -28.289  1.00  0.00     0.210 HD
ENDBRANCH  24  33
TORSDOF 3
ENDMDL
