MODEL 1
REMARK VINA RESULT:    -4.078      0.000      0.000
REMARK INTER + INTRA:          -6.793
REMARK INTER:                  -5.986
REMARK INTRA:                  -0.808
REMARK UNBOUND:                -0.808
REMARK SMILES O=C([O-])CCCCCCCC(=O)[O-]
REMARK SMILES IDX 7 1 6 2 5 3 4 4 2 5 1 6 3 7 8 8 9 9 10 10 11 11 12 12 13 13
REMARK H PARENT
REMARK Flexibility Score: inf
ROOT
ATOM      1  C   UNL     1      -6.800  39.449  20.506  1.00  0.00     0.000 C 
ENDROOT
BRANCH   1   2
ATOM      2  C   UNL     1      -7.653  39.112  21.738  1.00  0.00     0.000 C 
BRANCH   2   3
ATOM      3  C   UNL     1      -6.838  38.435  22.853  1.00  0.00     0.006 C 
BRANCH   3   4
ATOM      4  C   UNL     1      -6.328  37.048  22.438  1.00  0.00     0.053 C 
BRANCH   4   5
ATOM      5  C   UNL     1      -4.835  37.016  22.328  1.00  0.00     0.041 C 
ATOM      6  O   UNL     1      -4.158  38.050  22.569  1.00  0.00    -0.550 OA
ATOM      7  O   UNL     1      -4.187  35.833  21.994  1.00  0.00    -0.550 OA
ENDBRANCH   4   5
ENDBRANCH   3   4
ENDBRANCH   2   3
ENDBRANCH   1   2
BRANCH   1   8
ATOM      8  C   UNL     1      -7.129  38.556  19.298  1.00  0.00     0.000 C 
BRANCH   8   9
ATOM      9  C   UNL     1      -5.898  37.802  18.768  1.00  0.00     0.006 C 
BRANCH   9  10
ATOM     10  C   UNL     1      -4.594  38.581  18.980  1.00  0.00     0.053 C 
BRANCH  10  11
ATOM     11  C   UNL     1      -3.413  37.687  18.769  1.00  0.00     0.041 C 
ATOM     12  O   UNL     1      -3.283  37.054  17.689  1.00  0.00    -0.550 OA
ATOM     13  O   UNL     1      -2.430  37.593  19.746  1.00  0.00    -0.550 OA
ENDBRANCH  10  11
ENDBRANCH   9  10
ENDBRANCH   8   9
ENDBRANCH   1   8
TORSDOF 8
ENDMDL
MODEL 2
REMARK VINA RESULT:    -4.064      0.398      3.874
REMARK INTER + INTRA:          -6.772
REMARK INTER:                  -5.946
REMARK INTRA:                  -0.827
REMARK UNBOUND:                -0.808
REMARK SMILES O=C([O-])CCCCCCCC(=O)[O-]
REMARK SMILES IDX 7 1 6 2 5 3 4 4 2 5 1 6 3 7 8 8 9 9 10 10 11 11 12 12 13 13
REMARK H PARENT
REMARK Flexibility Score: inf
ROOT
ATOM      1  C   UNL     1      -6.799  39.476  20.498  1.00  0.00     0.000 C 
ENDROOT
BRANCH   1   2
ATOM      2  C   UNL     1      -7.135  38.586  19.292  1.00  0.00     0.000 C 
BRANCH   2   3
ATOM      3  C   UNL     1      -5.925  37.774  18.801  1.00  0.00     0.006 C 
BRANCH   3   4
ATOM      4  C   UNL     1      -4.615  38.567  18.903  1.00  0.00     0.053 C 
BRANCH   4   5
ATOM      5  C   UNL     1      -3.440  37.761  18.441  1.00  0.00     0.041 C 
ATOM      6  O   UNL     1      -2.817  37.026  19.251  1.00  0.00    -0.550 OA
ATOM      7  O   UNL     1      -3.056  37.794  17.106  1.00  0.00    -0.550 OA
ENDBRANCH   4   5
ENDBRANCH   3   4
ENDBRANCH   2   3
ENDBRANCH   1   2
BRANCH   1   8
ATOM      8  C   UNL     1      -7.558  39.060  21.770  1.00  0.00     0.000 C 
BRANCH   8   9
ATOM      9  C   UNL     1      -6.638  38.429  22.827  1.00  0.00     0.006 C 
BRANCH   9  10
ATOM     10  C   UNL     1      -6.242  36.989  22.481  1.00  0.00     0.053 C 
BRANCH  10  11
ATOM     11  C   UNL     1      -4.757  36.877  22.334  1.00  0.00     0.041 C 
ATOM     12  O   UNL     1      -4.039  37.911  22.347  1.00  0.00    -0.550 OA
ATOM     13  O   UNL     1      -4.161  35.626  22.232  1.00  0.00    -0.550 OA
ENDBRANCH  10  11
ENDBRANCH   9  10
ENDBRANCH   8   9
ENDBRANCH   1   8
TORSDOF 8
ENDMDL
MODEL 3
REMARK VINA RESULT:    -3.979      0.609      1.078
REMARK INTER + INTRA:          -6.648
REMARK INTER:                  -5.853
REMARK INTRA:                  -0.795
REMARK UNBOUND:                -0.808
REMARK SMILES O=C([O-])CCCCCCCC(=O)[O-]
REMARK SMILES IDX 7 1 6 2 5 3 4 4 2 5 1 6 3 7 8 8 9 9 10 10 11 11 12 12 13 13
REMARK H PARENT
REMARK Flexibility Score: inf
ROOT
ATOM      1  C   UNL     1      -6.924  39.396  20.369  1.00  0.00     0.000 C 
ENDROOT
BRANCH   1   2
ATOM      2  C   UNL     1      -7.629  38.985  21.671  1.00  0.00     0.000 C 
BRANCH   2   3
ATOM      3  C   UNL     1      -6.647  38.473  22.738  1.00  0.00     0.006 C 
BRANCH   3   4
ATOM      4  C   UNL     1      -6.229  37.017  22.491  1.00  0.00     0.053 C 
BRANCH   4   5
ATOM      5  C   UNL     1      -4.748  36.887  22.307  1.00  0.00     0.041 C 
ATOM      6  O   UNL     1      -4.262  35.844  21.795  1.00  0.00    -0.550 OA
ATOM      7  O   UNL     1      -3.908  37.933  22.666  1.00  0.00    -0.550 OA
ENDBRANCH   4   5
ENDBRANCH   3   4
ENDBRANCH   2   3
ENDBRANCH   1   2
BRANCH   1   8
ATOM      8  C   UNL     1      -7.063  38.337  19.262  1.00  0.00     0.000 C 
BRANCH   8   9
ATOM      9  C   UNL     1      -5.704  37.845  18.740  1.00  0.00     0.006 C 
BRANCH   9  10
ATOM     10  C   UNL     1      -4.547  38.765  19.151  1.00  0.00     0.053 C 
BRANCH  10  11
ATOM     11  C   UNL     1      -3.249  38.239  18.624  1.00  0.00     0.041 C 
ATOM     12  O   UNL     1      -2.670  38.821  17.671  1.00  0.00    -0.550 OA
ATOM     13  O   UNL     1      -2.655  37.134  19.220  1.00  0.00    -0.550 OA
ENDBRANCH  10  11
ENDBRANCH   9  10
ENDBRANCH   8   9
ENDBRANCH   1   8
TORSDOF 8
ENDMDL
MODEL 4
REMARK VINA RESULT:    -3.878      1.207      3.768
REMARK INTER + INTRA:          -6.499
REMARK INTER:                  -5.670
REMARK INTRA:                  -0.828
REMARK UNBOUND:                -0.808
REMARK SMILES O=C([O-])CCCCCCCC(=O)[O-]
REMARK SMILES IDX 7 1 6 2 5 3 4 4 2 5 1 6 3 7 8 8 9 9 10 10 11 11 12 12 13 13
REMARK H PARENT
REMARK Flexibility Score: inf
ROOT
ATOM      1  C   UNL     1      -7.019  39.295  20.445  1.00  0.00     0.000 C 
ENDROOT
BRANCH   1   2
ATOM      2  C   UNL     1      -7.091  38.028  19.579  1.00  0.00     0.000 C 
BRANCH   2   3
ATOM      3  C   UNL     1      -5.856  37.857  18.678  1.00  0.00     0.006 C 
BRANCH   3   4
ATOM      4  C   UNL     1      -4.601  38.498  19.287  1.00  0.00     0.053 C 
BRANCH   4   5
ATOM      5  C   UNL     1      -3.657  37.467  19.825  1.00  0.00     0.041 C 
ATOM      6  O   UNL     1      -4.064  36.598  20.640  1.00  0.00    -0.550 OA
ATOM      7  O   UNL     1      -2.335  37.445  19.398  1.00  0.00    -0.550 OA
ENDBRANCH   4   5
ENDBRANCH   3   4
ENDBRANCH   2   3
ENDBRANCH   1   2
BRANCH   1   8
ATOM      8  C   UNL     1      -7.529  39.060  21.878  1.00  0.00     0.000 C 
BRANCH   8   9
ATOM      9  C   UNL     1      -6.517  38.294  22.746  1.00  0.00     0.006 C 
BRANCH   9  10
ATOM     10  C   UNL     1      -5.647  39.226  23.599  1.00  0.00     0.053 C 
BRANCH  10  11
ATOM     11  C   UNL     1      -4.226  39.186  23.131  1.00  0.00     0.041 C 
ATOM     12  O   UNL     1      -3.465  38.253  23.496  1.00  0.00    -0.550 OA
ATOM     13  O   UNL     1      -3.758  40.154  22.251  1.00  0.00    -0.550 OA
ENDBRANCH  10  11
ENDBRANCH   9  10
ENDBRANCH   8   9
ENDBRANCH   1   8
TORSDOF 8
ENDMDL
MODEL 5
REMARK VINA RESULT:    -3.843      1.336      2.353
REMARK INTER + INTRA:          -6.448
REMARK INTER:                  -5.765
REMARK INTRA:                  -0.682
REMARK UNBOUND:                -0.808
REMARK SMILES O=C([O-])CCCCCCCC(=O)[O-]
REMARK SMILES IDX 7 1 6 2 5 3 4 4 2 5 1 6 3 7 8 8 9 9 10 10 11 11 12 12 13 13
REMARK H PARENT
REMARK Flexibility Score: inf
ROOT
ATOM      1  C   UNL     1      -5.766  38.137  18.983  1.00  0.00     0.000 C 
ENDROOT
BRANCH   1   2
ATOM      2  C   UNL     1      -7.157  38.430  19.565  1.00  0.00     0.000 C 
BRANCH   2   3
ATOM      3  C   UNL     1      -7.133  39.552  20.617  1.00  0.00     0.006 C 
BRANCH   3   4
ATOM      4  C   UNL     1      -7.615  39.068  21.992  1.00  0.00     0.053 C 
BRANCH   4   5
ATOM      5  C   UNL     1      -6.569  38.257  22.693  1.00  0.00     0.041 C 
ATOM      6  O   UNL     1      -6.574  37.001  22.601  1.00  0.00    -0.550 OA
ATOM      7  O   UNL     1      -5.567  38.890  23.418  1.00  0.00    -0.550 OA
ENDBRANCH   4   5
ENDBRANCH   3   4
ENDBRANCH   2   3
ENDBRANCH   1   2
BRANCH   1   8
ATOM      8  C   UNL     1      -4.704  39.146  19.455  1.00  0.00     0.000 C 
BRANCH   8   9
ATOM      9  C   UNL     1      -3.592  38.487  20.286  1.00  0.00     0.006 C 
BRANCH   9  10
ATOM     10  C   UNL     1      -3.239  37.079  19.789  1.00  0.00     0.053 C 
BRANCH  10  11
ATOM     11  C   UNL     1      -2.252  37.154  18.667  1.00  0.00     0.041 C 
ATOM     12  O   UNL     1      -2.534  36.665  17.541  1.00  0.00    -0.550 OA
ATOM     13  O   UNL     1      -1.041  37.808  18.849  1.00  0.00    -0.550 OA
ENDBRANCH  10  11
ENDBRANCH   9  10
ENDBRANCH   8   9
ENDBRANCH   1   8
TORSDOF 8
ENDMDL
MODEL 6
REMARK VINA RESULT:    -3.840      1.677      3.792
REMARK INTER + INTRA:          -6.443
REMARK INTER:                  -5.629
REMARK INTRA:                  -0.813
REMARK UNBOUND:                -0.808
REMARK SMILES O=C([O-])CCCCCCCC(=O)[O-]
REMARK SMILES IDX 7 1 6 2 5 3 4 4 2 5 1 6 3 7 8 8 9 9 10 10 11 11 12 12 13 13
REMARK H PARENT
REMARK Flexibility Score: inf
ROOT
ATOM      1  C   UNL     1      -5.774  37.780  18.708  1.00  0.00     0.000 C 
ENDROOT
BRANCH   1   2
ATOM      2  C   UNL     1      -4.640  38.776  18.992  1.00  0.00     0.000 C 
BRANCH   2   3
ATOM      3  C   UNL     1      -3.496  38.152  19.810  1.00  0.00     0.006 C 
BRANCH   3   4
ATOM      4  C   UNL     1      -3.494  38.637  21.266  1.00  0.00     0.053 C 
BRANCH   4   5
ATOM      5  C   UNL     1      -3.641  37.501  22.231  1.00  0.00     0.041 C 
ATOM      6  O   UNL     1      -3.310  37.646  23.437  1.00  0.00    -0.550 OA
ATOM      7  O   UNL     1      -4.178  36.293  21.806  1.00  0.00    -0.550 OA
ENDBRANCH   4   5
ENDBRANCH   3   4
ENDBRANCH   2   3
ENDBRANCH   1   2
BRANCH   1   8
ATOM      8  C   UNL     1      -7.062  38.115  19.480  1.00  0.00     0.000 C 
BRANCH   8   9
ATOM      9  C   UNL     1      -6.942  39.415  20.292  1.00  0.00     0.006 C 
BRANCH   9  10
ATOM     10  C   UNL     1      -7.772  39.383  21.581  1.00  0.00     0.053 C 
BRANCH  10  11
ATOM     11  C   UNL     1      -6.956  38.849  22.715  1.00  0.00     0.041 C 
ATOM     12  O   UNL     1      -6.980  37.621  22.990  1.00  0.00    -0.550 OA
ATOM     13  O   UNL     1      -6.130  39.700  23.438  1.00  0.00    -0.550 OA
ENDBRANCH  10  11
ENDBRANCH   9  10
ENDBRANCH   8   9
ENDBRANCH   1   8
TORSDOF 8
ENDMDL
MODEL 7
REMARK VINA RESULT:    -3.828      1.319      1.888
REMARK INTER + INTRA:          -6.426
REMARK INTER:                  -5.649
REMARK INTRA:                  -0.777
REMARK UNBOUND:                -0.808
REMARK SMILES O=C([O-])CCCCCCCC(=O)[O-]
REMARK SMILES IDX 7 1 6 2 5 3 4 4 2 5 1 6 3 7 8 8 9 9 10 10 11 11 12 12 13 13
REMARK H PARENT
REMARK Flexibility Score: inf
ROOT
ATOM      1  C   UNL     1      -6.812  39.590  20.711  1.00  0.00     0.000 C 
ENDROOT
BRANCH   1   2
ATOM      2  C   UNL     1      -7.496  39.185  22.025  1.00  0.00     0.000 C 
BRANCH   2   3
ATOM      3  C   UNL     1      -6.555  38.415  22.967  1.00  0.00     0.006 C 
BRANCH   3   4
ATOM      4  C   UNL     1      -5.624  39.352  23.750  1.00  0.00     0.053 C 
BRANCH   4   5
ATOM      5  C   UNL     1      -4.209  39.260  23.266  1.00  0.00     0.041 C 
ATOM      6  O   UNL     1      -3.765  40.102  22.442  1.00  0.00    -0.550 OA
ATOM      7  O   UNL     1      -3.370  38.266  23.754  1.00  0.00    -0.550 OA
ENDBRANCH   4   5
ENDBRANCH   3   4
ENDBRANCH   2   3
ENDBRANCH   1   2
BRANCH   1   8
ATOM      8  C   UNL     1      -7.124  38.619  19.559  1.00  0.00     0.000 C 
BRANCH   8   9
ATOM      9  C   UNL     1      -6.150  37.431  19.508  1.00  0.00     0.006 C 
BRANCH   9  10
ATOM     10  C   UNL     1      -4.713  37.859  19.185  1.00  0.00     0.053 C 
BRANCH  10  11
ATOM     11  C   UNL     1      -3.766  37.324  20.212  1.00  0.00     0.041 C 
ATOM     12  O   UNL     1      -2.611  37.814  20.325  1.00  0.00    -0.550 OA
ATOM     13  O   UNL     1      -4.175  36.319  21.079  1.00  0.00    -0.550 OA
ENDBRANCH  10  11
ENDBRANCH   9  10
ENDBRANCH   8   9
ENDBRANCH   1   8
TORSDOF 8
ENDMDL
MODEL 8
REMARK VINA RESULT:    -3.825     10.903     12.394
REMARK INTER + INTRA:          -6.422
REMARK INTER:                  -5.921
REMARK INTRA:                  -0.501
REMARK UNBOUND:                -0.808
REMARK SMILES O=C([O-])CCCCCCCC(=O)[O-]
REMARK SMILES IDX 7 1 6 2 5 3 4 4 2 5 1 6 3 7 8 8 9 9 10 10 11 11 12 12 13 13
REMARK H PARENT
REMARK Flexibility Score: inf
ROOT
ATOM      1  C   UNL     1       0.214  25.573  16.391  1.00  0.00     0.000 C 
ENDROOT
BRANCH   1   2
ATOM      2  C   UNL     1       0.594  25.371  17.866  1.00  0.00     0.000 C 
BRANCH   2   3
ATOM      3  C   UNL     1      -0.636  25.260  18.782  1.00  0.00     0.006 C 
BRANCH   3   4
ATOM      4  C   UNL     1      -0.439  26.005  20.110  1.00  0.00     0.053 C 
BRANCH   4   5
ATOM      5  C   UNL     1      -1.206  25.365  21.225  1.00  0.00     0.041 C 
ATOM      6  O   UNL     1      -2.021  26.044  21.905  1.00  0.00    -0.550 OA
ATOM      7  O   UNL     1      -1.049  24.011  21.491  1.00  0.00    -0.550 OA
ENDBRANCH   4   5
ENDBRANCH   3   4
ENDBRANCH   2   3
ENDBRANCH   1   2
BRANCH   1   8
ATOM      8  C   UNL     1      -0.283  26.999  16.099  1.00  0.00     0.000 C 
BRANCH   8   9
ATOM      9  C   UNL     1       0.648  28.078  16.675  1.00  0.00     0.006 C 
BRANCH   9  10
ATOM     10  C   UNL     1      -0.122  29.256  17.286  1.00  0.00     0.053 C 
BRANCH  10  11
ATOM     11  C   UNL     1       0.425  30.554  16.783  1.00  0.00     0.041 C 
ATOM     12  O   UNL     1       1.575  30.603  16.274  1.00  0.00    -0.550 OA
ATOM     13  O   UNL     1      -0.356  31.702  16.832  1.00  0.00    -0.550 OA
ENDBRANCH  10  11
ENDBRANCH   9  10
ENDBRANCH   8   9
ENDBRANCH   1   8
TORSDOF 8
ENDMDL
MODEL 9
REMARK VINA RESULT:    -3.780      1.405      4.468
REMARK INTER + INTRA:          -6.355
REMARK INTER:                  -5.727
REMARK INTRA:                  -0.627
REMARK UNBOUND:                -0.808
REMARK SMILES O=C([O-])CCCCCCCC(=O)[O-]
REMARK SMILES IDX 7 1 6 2 5 3 4 4 2 5 1 6 3 7 8 8 9 9 10 10 11 11 12 12 13 13
REMARK H PARENT
REMARK Flexibility Score: inf
ROOT
ATOM      1  C   UNL     1      -5.818  37.829  18.717  1.00  0.00     0.000 C 
ENDROOT
BRANCH   1   2
ATOM      2  C   UNL     1      -4.613  38.597  19.282  1.00  0.00     0.000 C 
BRANCH   2   3
ATOM      3  C   UNL     1      -3.656  37.694  20.077  1.00  0.00     0.006 C 
BRANCH   3   4
ATOM      4  C   UNL     1      -2.190  37.905  19.674  1.00  0.00     0.053 C 
BRANCH   4   5
ATOM      5  C   UNL     1      -1.888  37.301  18.337  1.00  0.00     0.041 C 
ATOM      6  O   UNL     1      -2.189  36.101  18.102  1.00  0.00    -0.550 OA
ATOM      7  O   UNL     1      -1.308  38.073  17.339  1.00  0.00    -0.550 OA
ENDBRANCH   4   5
ENDBRANCH   3   4
ENDBRANCH   2   3
ENDBRANCH   1   2
BRANCH   1   8
ATOM      8  C   UNL     1      -7.141  38.221  19.398  1.00  0.00     0.000 C 
BRANCH   8   9
ATOM      9  C   UNL     1      -6.966  39.360  20.416  1.00  0.00     0.006 C 
BRANCH   9  10
ATOM     10  C   UNL     1      -7.531  39.009  21.797  1.00  0.00     0.053 C 
BRANCH  10  11
ATOM     11  C   UNL     1      -6.541  38.203  22.577  1.00  0.00     0.041 C 
ATOM     12  O   UNL     1      -6.573  36.945  22.534  1.00  0.00    -0.550 OA
ATOM     13  O   UNL     1      -5.551  38.842  23.313  1.00  0.00    -0.550 OA
ENDBRANCH  10  11
ENDBRANCH   9  10
ENDBRANCH   8   9
ENDBRANCH   1   8
TORSDOF 8
ENDMDL
