MODEL 1
REMARK VINA RESULT:    -6.135      0.000      0.000
REMARK INTER + INTRA:          -9.424
REMARK INTER:                  -8.646
REMARK INTRA:                  -0.778
REMARK UNBOUND:                -0.778
REMARK SMILES COc1ccc(-c2cc(=O)c3c(OC)c(OC)c(OC)c(OC)c3o2)cc1OC
REMARK SMILES IDX 7 1 8 2 9 3 10 4 11 5 24 6 25 7 21 8 18 9 15 10 12 11 6 12
REMARK SMILES IDX 3 13 27 14 4 15 26 16 5 17 2 18 1 19 28 20 29 21 22 22 23 23
REMARK SMILES IDX 13 24 14 25 19 26 20 27 16 28 17 29
REMARK H PARENT
REMARK Flexibility Score: inf
ROOT
ATOM      1  C   UNL     1      48.755 -27.100   4.834  1.00  0.00     0.138 A 
ATOM      2  C   UNL     1      48.624 -26.013   3.959  1.00  0.00     0.100 A 
ATOM      3  C   UNL     1      49.608 -25.787   2.997  1.00  0.00     0.197 A 
ATOM      4  O   UNL     1      49.478 -24.808   2.213  1.00  0.00    -0.289 OA
ATOM      5  C   UNL     1      50.717 -26.657   2.913  1.00  0.00     0.115 A 
ATOM      6  C   UNL     1      50.775 -27.733   3.823  1.00  0.00     0.188 A 
ATOM      7  O   UNL     1      49.809 -27.903   4.723  1.00  0.00    -0.452 OA
ATOM      8  C   UNL     1      51.846 -28.635   3.809  1.00  0.00     0.209 A 
ATOM      9  C   UNL     1      52.880 -28.489   2.850  1.00  0.00     0.211 A 
ATOM     10  C   UNL     1      52.800 -27.436   1.902  1.00  0.00     0.208 A 
ATOM     11  C   UNL     1      51.758 -26.487   1.977  1.00  0.00     0.179 A 
ENDROOT
BRANCH   1  12
ATOM     12  C   UNL     1      47.741 -27.395   5.878  1.00  0.00     0.021 A 
ATOM     13  C   UNL     1      45.843 -27.915   7.905  1.00  0.00     0.160 A 
ATOM     14  C   UNL     1      47.144 -27.521   8.250  1.00  0.00     0.161 A 
ATOM     15  C   UNL     1      45.493 -28.039   6.549  1.00  0.00     0.051 A 
ATOM     16  C   UNL     1      48.085 -27.260   7.234  1.00  0.00     0.062 A 
ATOM     17  C   UNL     1      46.429 -27.778   5.548  1.00  0.00     0.016 A 
BRANCH  13  18
ATOM     18  O   UNL     1      44.928 -28.171   8.937  1.00  0.00    -0.493 OA
ATOM     19  C   UNL     1      44.094 -27.188   9.540  1.00  0.00     0.278 C 
ENDBRANCH  13  18
BRANCH  14  20
ATOM     20  O   UNL     1      47.465 -27.401   9.611  1.00  0.00    -0.493 OA
ATOM     21  C   UNL     1      48.789 -27.303  10.125  1.00  0.00     0.278 C 
ENDBRANCH  14  20
ENDBRANCH   1  12
BRANCH   8  22
ATOM     22  O   UNL     1      51.814 -29.657   4.780  1.00  0.00    -0.490 OA
ATOM     23  C   UNL     1      52.507 -29.684   6.022  1.00  0.00     0.278 C 
ENDBRANCH   8  22
BRANCH  11  24
ATOM     24  O   UNL     1      51.753 -25.371   1.131  1.00  0.00    -0.492 OA
ATOM     25  C   UNL     1      52.650 -24.278   1.305  1.00  0.00     0.278 C 
ENDBRANCH  11  24
BRANCH   9  26
ATOM     26  O   UNL     1      53.946 -29.409   2.868  1.00  0.00    -0.490 OA
ATOM     27  C   UNL     1      53.993 -30.685   2.239  1.00  0.00     0.279 C 
ENDBRANCH   9  26
BRANCH  10  28
ATOM     28  O   UNL     1      53.746 -27.344   0.876  1.00  0.00    -0.490 OA
ATOM     29  C   UNL     1      53.596 -28.025  -0.366  1.00  0.00     0.278 C 
ENDBRANCH  10  28
TORSDOF 7
ENDMDL
MODEL 2
REMARK VINA RESULT:    -5.731     13.579     15.494
REMARK INTER + INTRA:          -8.854
REMARK INTER:                  -8.066
REMARK INTRA:                  -0.788
REMARK UNBOUND:                -0.778
REMARK SMILES COc1ccc(-c2cc(=O)c3c(OC)c(OC)c(OC)c(OC)c3o2)cc1OC
REMARK SMILES IDX 7 1 8 2 9 3 10 4 11 5 24 6 25 7 21 8 18 9 15 10 12 11 6 12
REMARK SMILES IDX 3 13 27 14 4 15 26 16 5 17 2 18 1 19 28 20 29 21 22 22 23 23
REMARK SMILES IDX 13 24 14 25 19 26 20 27 16 28 17 29
REMARK H PARENT
REMARK Flexibility Score: inf
ROOT
ATOM      1  C   UNL     1      38.339 -22.718  -2.840  1.00  0.00     0.138 A 
ATOM      2  C   UNL     1      37.795 -21.433  -2.972  1.00  0.00     0.100 A 
ATOM      3  C   UNL     1      37.581 -20.908  -4.246  1.00  0.00     0.197 A 
ATOM      4  O   UNL     1      37.088 -19.753  -4.352  1.00  0.00    -0.289 OA
ATOM      5  C   UNL     1      37.908 -21.679  -5.384  1.00  0.00     0.115 A 
ATOM      6  C   UNL     1      38.444 -22.966  -5.171  1.00  0.00     0.188 A 
ATOM      7  O   UNL     1      38.630 -23.418  -3.933  1.00  0.00    -0.452 OA
ATOM      8  C   UNL     1      38.801 -23.787  -6.246  1.00  0.00     0.209 A 
ATOM      9  C   UNL     1      38.598 -23.338  -7.576  1.00  0.00     0.211 A 
ATOM     10  C   UNL     1      38.013 -22.063  -7.793  1.00  0.00     0.208 A 
ATOM     11  C   UNL     1      37.732 -21.213  -6.703  1.00  0.00     0.179 A 
ENDROOT
BRANCH   1  12
ATOM     12  C   UNL     1      38.589 -23.333  -1.511  1.00  0.00     0.021 A 
ATOM     13  C   UNL     1      39.002 -24.503   1.027  1.00  0.00     0.160 A 
ATOM     14  C   UNL     1      37.885 -23.683   0.807  1.00  0.00     0.161 A 
ATOM     15  C   UNL     1      39.904 -24.742  -0.026  1.00  0.00     0.051 A 
ATOM     16  C   UNL     1      37.683 -23.106  -0.462  1.00  0.00     0.062 A 
ATOM     17  C   UNL     1      39.698 -24.167  -1.281  1.00  0.00     0.016 A 
BRANCH  13  18
ATOM     18  O   UNL     1      39.180 -25.063   2.301  1.00  0.00    -0.493 OA
ATOM     19  C   UNL     1      39.615 -26.396   2.544  1.00  0.00     0.278 C 
ENDBRANCH  13  18
BRANCH  14  20
ATOM     20  O   UNL     1      36.999 -23.466   1.874  1.00  0.00    -0.493 OA
ATOM     21  C   UNL     1      36.650 -22.185   2.388  1.00  0.00     0.278 C 
ENDBRANCH  14  20
ENDBRANCH   1  12
BRANCH   8  22
ATOM     22  O   UNL     1      39.351 -25.043  -5.917  1.00  0.00    -0.490 OA
ATOM     23  C   UNL     1      40.727 -25.406  -5.924  1.00  0.00     0.278 C 
ENDBRANCH   8  22
BRANCH  11  24
ATOM     24  O   UNL     1      37.286 -19.904  -6.921  1.00  0.00    -0.492 OA
ATOM     25  C   UNL     1      38.145 -18.875  -7.403  1.00  0.00     0.278 C 
ENDBRANCH  11  24
BRANCH   9  26
ATOM     26  O   UNL     1      38.974 -24.186  -8.635  1.00  0.00    -0.490 OA
ATOM     27  C   UNL     1      40.185 -24.147  -9.383  1.00  0.00     0.279 C 
ENDBRANCH   9  26
BRANCH  10  28
ATOM     28  O   UNL     1      37.697 -21.650  -9.092  1.00  0.00    -0.490 OA
ATOM     29  C   UNL     1      36.423 -21.892  -9.682  1.00  0.00     0.278 C 
ENDBRANCH  10  28
TORSDOF 7
ENDMDL
MODEL 3
REMARK VINA RESULT:    -5.718      1.687      4.103
REMARK INTER + INTRA:          -8.835
REMARK INTER:                  -8.055
REMARK INTRA:                  -0.780
REMARK UNBOUND:                -0.778
REMARK SMILES COc1ccc(-c2cc(=O)c3c(OC)c(OC)c(OC)c(OC)c3o2)cc1OC
REMARK SMILES IDX 7 1 8 2 9 3 10 4 11 5 24 6 25 7 21 8 18 9 15 10 12 11 6 12
REMARK SMILES IDX 3 13 27 14 4 15 26 16 5 17 2 18 1 19 28 20 29 21 22 22 23 23
REMARK SMILES IDX 13 24 14 25 19 26 20 27 16 28 17 29
REMARK H PARENT
REMARK Flexibility Score: inf
ROOT
ATOM      1  C   UNL     1      50.943 -28.522   5.229  1.00  0.00     0.138 A 
ATOM      2  C   UNL     1      51.838 -29.569   5.482  1.00  0.00     0.100 A 
ATOM      3  C   UNL     1      52.748 -29.946   4.494  1.00  0.00     0.197 A 
ATOM      4  O   UNL     1      53.551 -30.888   4.736  1.00  0.00    -0.289 OA
ATOM      5  C   UNL     1      52.758 -29.265   3.257  1.00  0.00     0.115 A 
ATOM      6  C   UNL     1      51.831 -28.217   3.078  1.00  0.00     0.188 A 
ATOM      7  O   UNL     1      50.984 -27.898   4.054  1.00  0.00    -0.452 OA
ATOM      8  C   UNL     1      51.774 -27.499   1.878  1.00  0.00     0.209 A 
ATOM      9  C   UNL     1      52.677 -27.806   0.828  1.00  0.00     0.211 A 
ATOM     10  C   UNL     1      53.642 -28.828   1.023  1.00  0.00     0.208 A 
ATOM     11  C   UNL     1      53.638 -29.596   2.206  1.00  0.00     0.179 A 
ENDROOT
BRANCH   1  12
ATOM     12  C   UNL     1      49.951 -28.072   6.239  1.00  0.00     0.021 A 
ATOM     13  C   UNL     1      48.022 -27.255   8.134  1.00  0.00     0.160 A 
ATOM     14  C   UNL     1      47.617 -27.670   6.857  1.00  0.00     0.161 A 
ATOM     15  C   UNL     1      49.389 -27.257   8.462  1.00  0.00     0.051 A 
ATOM     16  C   UNL     1      48.584 -28.080   5.917  1.00  0.00     0.062 A 
ATOM     17  C   UNL     1      50.342 -27.665   7.527  1.00  0.00     0.016 A 
BRANCH  13  18
ATOM     18  O   UNL     1      47.037 -26.849   9.048  1.00  0.00    -0.493 OA
ATOM     19  C   UNL     1      46.488 -27.681  10.064  1.00  0.00     0.278 C 
ENDBRANCH  13  18
BRANCH  14  20
ATOM     20  O   UNL     1      46.245 -27.662   6.558  1.00  0.00    -0.493 OA
ATOM     21  C   UNL     1      45.604 -28.573   5.671  1.00  0.00     0.278 C 
ENDBRANCH  14  20
ENDBRANCH   1  12
BRANCH   8  22
ATOM     22  O   UNL     1      50.793 -26.490   1.801  1.00  0.00    -0.490 OA
ATOM     23  C   UNL     1      49.495 -26.597   1.228  1.00  0.00     0.278 C 
ENDBRANCH   8  22
BRANCH  11  24
ATOM     24  O   UNL     1      54.498 -30.693   2.342  1.00  0.00    -0.492 OA
ATOM     25  C   UNL     1      54.292 -31.916   1.641  1.00  0.00     0.278 C 
ENDBRANCH  11  24
BRANCH   9  26
ATOM     26  O   UNL     1      52.588 -27.069  -0.369  1.00  0.00    -0.490 OA
ATOM     27  C   UNL     1      52.095 -27.523  -1.625  1.00  0.00     0.279 C 
ENDBRANCH   9  26
BRANCH  10  28
ATOM     28  O   UNL     1      54.616 -29.066   0.047  1.00  0.00    -0.490 OA
ATOM     29  C   UNL     1      55.882 -28.412   0.054  1.00  0.00     0.278 C 
ENDBRANCH  10  28
TORSDOF 7
ENDMDL
MODEL 4
REMARK VINA RESULT:    -5.717      7.240     10.789
REMARK INTER + INTRA:          -8.834
REMARK INTER:                  -8.069
REMARK INTRA:                  -0.765
REMARK UNBOUND:                -0.778
REMARK SMILES COc1ccc(-c2cc(=O)c3c(OC)c(OC)c(OC)c(OC)c3o2)cc1OC
REMARK SMILES IDX 7 1 8 2 9 3 10 4 11 5 24 6 25 7 21 8 18 9 15 10 12 11 6 12
REMARK SMILES IDX 3 13 27 14 4 15 26 16 5 17 2 18 1 19 28 20 29 21 22 22 23 23
REMARK SMILES IDX 13 24 14 25 19 26 20 27 16 28 17 29
REMARK H PARENT
REMARK Flexibility Score: inf
ROOT
ATOM      1  C   UNL     1      53.162 -32.089  -2.782  1.00  0.00     0.138 A 
ATOM      2  C   UNL     1      53.361 -30.962  -3.591  1.00  0.00     0.100 A 
ATOM      3  C   UNL     1      53.718 -31.135  -4.928  1.00  0.00     0.197 A 
ATOM      4  O   UNL     1      53.891 -30.114  -5.647  1.00  0.00    -0.289 OA
ATOM      5  C   UNL     1      53.867 -32.439  -5.450  1.00  0.00     0.115 A 
ATOM      6  C   UNL     1      53.642 -33.523  -4.576  1.00  0.00     0.188 A 
ATOM      7  O   UNL     1      53.305 -33.303  -3.307  1.00  0.00    -0.452 OA
ATOM      8  C   UNL     1      53.778 -34.845  -5.015  1.00  0.00     0.209 A 
ATOM      9  C   UNL     1      54.119 -35.110  -6.366  1.00  0.00     0.211 A 
ATOM     10  C   UNL     1      54.298 -34.022  -7.259  1.00  0.00     0.208 A 
ATOM     11  C   UNL     1      54.237 -32.694  -6.786  1.00  0.00     0.179 A 
ENDROOT
BRANCH   1  12
ATOM     12  C   UNL     1      52.779 -31.973  -1.351  1.00  0.00     0.021 A 
ATOM     13  C   UNL     1      52.114 -31.756   1.386  1.00  0.00     0.160 A 
ATOM     14  C   UNL     1      53.270 -32.451   0.999  1.00  0.00     0.161 A 
ATOM     15  C   UNL     1      51.300 -31.165   0.403  1.00  0.00     0.051 A 
ATOM     16  C   UNL     1      53.598 -32.552  -0.368  1.00  0.00     0.062 A 
ATOM     17  C   UNL     1      51.631 -31.269  -0.948  1.00  0.00     0.016 A 
BRANCH  13  18
ATOM     18  O   UNL     1      51.811 -31.673   2.753  1.00  0.00    -0.493 OA
ATOM     19  C   UNL     1      52.054 -30.530   3.566  1.00  0.00     0.278 C 
ENDBRANCH  13  18
BRANCH  14  20
ATOM     20  O   UNL     1      54.067 -33.026   2.001  1.00  0.00    -0.493 OA
ATOM     21  C   UNL     1      55.209 -32.405   2.584  1.00  0.00     0.278 C 
ENDBRANCH  14  20
ENDBRANCH   1  12
BRANCH   8  22
ATOM     22  O   UNL     1      53.554 -35.849  -4.050  1.00  0.00    -0.490 OA
ATOM     23  C   UNL     1      54.526 -36.475  -3.221  1.00  0.00     0.278 C 
ENDBRANCH   8  22
BRANCH  11  24
ATOM     24  O   UNL     1      54.550 -31.624  -7.634  1.00  0.00    -0.492 OA
ATOM     25  C   UNL     1      55.892 -31.248  -7.924  1.00  0.00     0.278 C 
ENDBRANCH  11  24
BRANCH   9  26
ATOM     26  O   UNL     1      54.254 -36.451  -6.773  1.00  0.00    -0.490 OA
ATOM     27  C   UNL     1      53.283 -37.252  -7.437  1.00  0.00     0.279 C 
ENDBRANCH   9  26
BRANCH  10  28
ATOM     28  O   UNL     1      54.519 -34.262  -8.619  1.00  0.00    -0.490 OA
ATOM     29  C   UNL     1      53.469 -34.230  -9.582  1.00  0.00     0.278 C 
ENDBRANCH  10  28
TORSDOF 7
ENDMDL
MODEL 5
REMARK VINA RESULT:    -5.682      1.258      3.533
REMARK INTER + INTRA:          -8.784
REMARK INTER:                  -7.979
REMARK INTRA:                  -0.805
REMARK UNBOUND:                -0.778
REMARK SMILES COc1ccc(-c2cc(=O)c3c(OC)c(OC)c(OC)c(OC)c3o2)cc1OC
REMARK SMILES IDX 7 1 8 2 9 3 10 4 11 5 24 6 25 7 21 8 18 9 15 10 12 11 6 12
REMARK SMILES IDX 3 13 27 14 4 15 26 16 5 17 2 18 1 19 28 20 29 21 22 22 23 23
REMARK SMILES IDX 13 24 14 25 19 26 20 27 16 28 17 29
REMARK H PARENT
REMARK Flexibility Score: inf
ROOT
ATOM      1  C   UNL     1      50.169 -28.253   5.432  1.00  0.00     0.138 A 
ATOM      2  C   UNL     1      50.956 -29.411   5.495  1.00  0.00     0.100 A 
ATOM      3  C   UNL     1      51.954 -29.613   4.541  1.00  0.00     0.197 A 
ATOM      4  O   UNL     1      52.657 -30.657   4.610  1.00  0.00    -0.289 OA
ATOM      5  C   UNL     1      52.163 -28.647   3.532  1.00  0.00     0.115 A 
ATOM      6  C   UNL     1      51.336 -27.504   3.538  1.00  0.00     0.188 A 
ATOM      7  O   UNL     1      50.397 -27.361   4.471  1.00  0.00    -0.452 OA
ATOM      8  C   UNL     1      51.475 -26.506   2.567  1.00  0.00     0.209 A 
ATOM      9  C   UNL     1      52.479 -26.623   1.572  1.00  0.00     0.211 A 
ATOM     10  C   UNL     1      53.344 -27.748   1.592  1.00  0.00     0.208 A 
ATOM     11  C   UNL     1      53.142 -28.786   2.527  1.00  0.00     0.179 A 
ENDROOT
BRANCH   1  12
ATOM     12  C   UNL     1      49.092 -27.980   6.417  1.00  0.00     0.021 A 
ATOM     13  C   UNL     1      47.080 -27.411   8.316  1.00  0.00     0.160 A 
ATOM     14  C   UNL     1      48.420 -27.114   8.606  1.00  0.00     0.161 A 
ATOM     15  C   UNL     1      46.750 -27.983   7.075  1.00  0.00     0.051 A 
ATOM     16  C   UNL     1      49.419 -27.397   7.654  1.00  0.00     0.062 A 
ATOM     17  C   UNL     1      47.744 -28.260   6.135  1.00  0.00     0.016 A 
BRANCH  13  18
ATOM     18  O   UNL     1      46.107 -27.121   9.285  1.00  0.00    -0.493 OA
ATOM     19  C   UNL     1      45.153 -28.056   9.777  1.00  0.00     0.278 C 
ENDBRANCH  13  18
BRANCH  14  20
ATOM     20  O   UNL     1      48.719 -26.539   9.852  1.00  0.00    -0.493 OA
ATOM     21  C   UNL     1      48.953 -25.150  10.066  1.00  0.00     0.278 C 
ENDBRANCH  14  20
ENDBRANCH   1  12
BRANCH   8  22
ATOM     22  O   UNL     1      50.579 -25.421   2.655  1.00  0.00    -0.490 OA
ATOM     23  C   UNL     1      49.410 -25.207   1.873  1.00  0.00     0.278 C 
ENDBRANCH   8  22
BRANCH  11  24
ATOM     24  O   UNL     1      53.905 -29.958   2.461  1.00  0.00    -0.492 OA
ATOM     25  C   UNL     1      53.697 -30.947   1.457  1.00  0.00     0.278 C 
ENDBRANCH  11  24
BRANCH   9  26
ATOM     26  O   UNL     1      52.587 -25.605   0.606  1.00  0.00    -0.490 OA
ATOM     27  C   UNL     1      53.332 -24.396   0.708  1.00  0.00     0.279 C 
ENDBRANCH   9  26
BRANCH  10  28
ATOM     28  O   UNL     1      54.413 -27.826   0.694  1.00  0.00    -0.490 OA
ATOM     29  C   UNL     1      55.699 -27.289   0.988  1.00  0.00     0.278 C 
ENDBRANCH  10  28
TORSDOF 7
ENDMDL
MODEL 6
REMARK VINA RESULT:    -5.640      3.186      8.544
REMARK INTER + INTRA:          -8.726
REMARK INTER:                  -8.087
REMARK INTRA:                  -0.638
REMARK UNBOUND:                -0.778
REMARK SMILES COc1ccc(-c2cc(=O)c3c(OC)c(OC)c(OC)c(OC)c3o2)cc1OC
REMARK SMILES IDX 7 1 8 2 9 3 10 4 11 5 24 6 25 7 21 8 18 9 15 10 12 11 6 12
REMARK SMILES IDX 3 13 27 14 4 15 26 16 5 17 2 18 1 19 28 20 29 21 22 22 23 23
REMARK SMILES IDX 13 24 14 25 19 26 20 27 16 28 17 29
REMARK H PARENT
REMARK Flexibility Score: inf
ROOT
ATOM      1  C   UNL     1      52.728 -30.802   2.591  1.00  0.00     0.138 A 
ATOM      2  C   UNL     1      53.042 -30.781   3.956  1.00  0.00     0.100 A 
ATOM      3  C   UNL     1      52.533 -29.761   4.760  1.00  0.00     0.197 A 
ATOM      4  O   UNL     1      52.821 -29.755   5.987  1.00  0.00    -0.289 OA
ATOM      5  C   UNL     1      51.704 -28.770   4.190  1.00  0.00     0.115 A 
ATOM      6  C   UNL     1      51.426 -28.862   2.810  1.00  0.00     0.188 A 
ATOM      7  O   UNL     1      51.939 -29.856   2.088  1.00  0.00    -0.452 OA
ATOM      8  C   UNL     1      50.620 -27.914   2.170  1.00  0.00     0.209 A 
ATOM      9  C   UNL     1      50.045 -26.855   2.918  1.00  0.00     0.211 A 
ATOM     10  C   UNL     1      50.284 -26.787   4.316  1.00  0.00     0.208 A 
ATOM     11  C   UNL     1      51.162 -27.702   4.934  1.00  0.00     0.179 A 
ENDROOT
BRANCH   1  12
ATOM     12  C   UNL     1      53.237 -31.862   1.682  1.00  0.00     0.021 A 
ATOM     13  C   UNL     1      54.151 -33.910  -0.035  1.00  0.00     0.160 A 
ATOM     14  C   UNL     1      53.256 -34.213   1.002  1.00  0.00     0.161 A 
ATOM     15  C   UNL     1      54.578 -32.582  -0.215  1.00  0.00     0.051 A 
ATOM     16  C   UNL     1      52.801 -33.187   1.853  1.00  0.00     0.062 A 
ATOM     17  C   UNL     1      54.123 -31.570   0.631  1.00  0.00     0.016 A 
BRANCH  13  18
ATOM     18  O   UNL     1      54.589 -34.953  -0.866  1.00  0.00    -0.493 OA
ATOM     19  C   UNL     1      54.552 -34.922  -2.288  1.00  0.00     0.278 C 
ENDBRANCH  13  18
BRANCH  14  20
ATOM     20  O   UNL     1      52.843 -35.546   1.155  1.00  0.00    -0.493 OA
ATOM     21  C   UNL     1      52.434 -36.130   2.388  1.00  0.00     0.278 C 
ENDBRANCH  14  20
ENDBRANCH   1  12
BRANCH   8  22
ATOM     22  O   UNL     1      50.429 -28.090   0.785  1.00  0.00    -0.490 OA
ATOM     23  C   UNL     1      51.201 -27.523  -0.267  1.00  0.00     0.278 C 
ENDBRANCH   8  22
BRANCH  11  24
ATOM     24  O   UNL     1      51.507 -27.552   6.283  1.00  0.00    -0.492 OA
ATOM     25  C   UNL     1      50.586 -27.809   7.339  1.00  0.00     0.278 C 
ENDBRANCH  11  24
BRANCH   9  26
ATOM     26  O   UNL     1      49.245 -25.914   2.243  1.00  0.00    -0.490 OA
ATOM     27  C   UNL     1      49.671 -24.703   1.627  1.00  0.00     0.279 C 
ENDBRANCH   9  26
BRANCH  10  28
ATOM     28  O   UNL     1      49.634 -25.821   5.091  1.00  0.00    -0.490 OA
ATOM     29  C   UNL     1      50.203 -24.541   5.353  1.00  0.00     0.278 C 
ENDBRANCH  10  28
TORSDOF 7
ENDMDL
MODEL 7
REMARK VINA RESULT:    -5.618     13.482     15.518
REMARK INTER + INTRA:          -8.695
REMARK INTER:                  -8.184
REMARK INTRA:                  -0.511
REMARK UNBOUND:                -0.778
REMARK SMILES COc1ccc(-c2cc(=O)c3c(OC)c(OC)c(OC)c(OC)c3o2)cc1OC
REMARK SMILES IDX 7 1 8 2 9 3 10 4 11 5 24 6 25 7 21 8 18 9 15 10 12 11 6 12
REMARK SMILES IDX 3 13 27 14 4 15 26 16 5 17 2 18 1 19 28 20 29 21 22 22 23 23
REMARK SMILES IDX 13 24 14 25 19 26 20 27 16 28 17 29
REMARK H PARENT
REMARK Flexibility Score: inf
ROOT
ATOM      1  C   UNL     1      38.687 -23.915  -3.448  1.00  0.00     0.138 A 
ATOM      2  C   UNL     1      39.476 -24.933  -4.000  1.00  0.00     0.100 A 
ATOM      3  C   UNL     1      39.731 -24.933  -5.371  1.00  0.00     0.197 A 
ATOM      4  O   UNL     1      40.446 -25.852  -5.856  1.00  0.00    -0.289 OA
ATOM      5  C   UNL     1      39.198 -23.908  -6.182  1.00  0.00     0.115 A 
ATOM      6  C   UNL     1      38.419 -22.914  -5.553  1.00  0.00     0.188 A 
ATOM      7  O   UNL     1      38.205 -22.961  -4.240  1.00  0.00    -0.452 OA
ATOM      8  C   UNL     1      37.848 -21.869  -6.289  1.00  0.00     0.209 A 
ATOM      9  C   UNL     1      38.074 -21.783  -7.686  1.00  0.00     0.211 A 
ATOM     10  C   UNL     1      38.897 -22.754  -8.314  1.00  0.00     0.208 A 
ATOM     11  C   UNL     1      39.401 -23.847  -7.576  1.00  0.00     0.179 A 
ENDROOT
BRANCH   1  12
ATOM     12  C   UNL     1      38.380 -23.858  -1.996  1.00  0.00     0.021 A 
ATOM     13  C   UNL     1      37.860 -23.749   0.779  1.00  0.00     0.160 A 
ATOM     14  C   UNL     1      39.041 -24.345   0.311  1.00  0.00     0.161 A 
ATOM     15  C   UNL     1      36.948 -23.203  -0.141  1.00  0.00     0.051 A 
ATOM     16  C   UNL     1      39.296 -24.393  -1.074  1.00  0.00     0.062 A 
ATOM     17  C   UNL     1      37.207 -23.253  -1.512  1.00  0.00     0.016 A 
BRANCH  13  18
ATOM     18  O   UNL     1      37.632 -23.718   2.163  1.00  0.00    -0.493 OA
ATOM     19  C   UNL     1      36.976 -22.657   2.849  1.00  0.00     0.278 C 
ENDBRANCH  13  18
BRANCH  14  20
ATOM     20  O   UNL     1      39.936 -24.878   1.252  1.00  0.00    -0.493 OA
ATOM     21  C   UNL     1      39.983 -26.247   1.639  1.00  0.00     0.278 C 
ENDBRANCH  14  20
ENDBRANCH   1  12
BRANCH   8  22
ATOM     22  O   UNL     1      37.069 -20.946  -5.562  1.00  0.00    -0.490 OA
ATOM     23  C   UNL     1      37.494 -19.702  -5.019  1.00  0.00     0.278 C 
ENDBRANCH   8  22
BRANCH  11  24
ATOM     24  O   UNL     1      40.096 -24.878  -8.221  1.00  0.00    -0.492 OA
ATOM     25  C   UNL     1      41.467 -24.760  -8.588  1.00  0.00     0.278 C 
ENDBRANCH  11  24
BRANCH   9  26
ATOM     26  O   UNL     1      37.480 -20.723  -8.398  1.00  0.00    -0.490 OA
ATOM     27  C   UNL     1      38.032 -19.434  -8.644  1.00  0.00     0.279 C 
ENDBRANCH   9  26
BRANCH  10  28
ATOM     28  O   UNL     1      39.228 -22.623  -9.667  1.00  0.00    -0.490 OA
ATOM     29  C   UNL     1      40.323 -21.827 -10.113  1.00  0.00     0.278 C 
ENDBRANCH  10  28
TORSDOF 7
ENDMDL
MODEL 8
REMARK VINA RESULT:    -5.590      5.815     11.576
REMARK INTER + INTRA:          -8.655
REMARK INTER:                  -7.833
REMARK INTRA:                  -0.822
REMARK UNBOUND:                -0.778
REMARK SMILES COc1ccc(-c2cc(=O)c3c(OC)c(OC)c(OC)c(OC)c3o2)cc1OC
REMARK SMILES IDX 7 1 8 2 9 3 10 4 11 5 24 6 25 7 21 8 18 9 15 10 12 11 6 12
REMARK SMILES IDX 3 13 27 14 4 15 26 16 5 17 2 18 1 19 28 20 29 21 22 22 23 23
REMARK SMILES IDX 13 24 14 25 19 26 20 27 16 28 17 29
REMARK H PARENT
REMARK Flexibility Score: inf
ROOT
ATOM      1  C   UNL     1      52.939 -30.224  -4.078  1.00  0.00     0.138 A 
ATOM      2  C   UNL     1      52.541 -28.921  -3.750  1.00  0.00     0.100 A 
ATOM      3  C   UNL     1      52.305 -28.594  -2.415  1.00  0.00     0.197 A 
ATOM      4  O   UNL     1      51.950 -27.417  -2.133  1.00  0.00    -0.289 OA
ATOM      5  C   UNL     1      52.476 -29.574  -1.413  1.00  0.00     0.115 A 
ATOM      6  C   UNL     1      52.886 -30.861  -1.820  1.00  0.00     0.188 A 
ATOM      7  O   UNL     1      53.097 -31.122  -3.109  1.00  0.00    -0.452 OA
ATOM      8  C   UNL     1      53.070 -31.889  -0.889  1.00  0.00     0.209 A 
ATOM      9  C   UNL     1      52.871 -31.636   0.492  1.00  0.00     0.211 A 
ATOM     10  C   UNL     1      52.505 -30.329   0.909  1.00  0.00     0.208 A 
ATOM     11  C   UNL     1      52.245 -29.323  -0.045  1.00  0.00     0.179 A 
ENDROOT
BRANCH   1  12
ATOM     12  C   UNL     1      53.208 -30.636  -5.480  1.00  0.00     0.021 A 
ATOM     13  C   UNL     1      53.654 -31.427  -8.155  1.00  0.00     0.160 A 
ATOM     14  C   UNL     1      52.534 -31.908  -7.460  1.00  0.00     0.161 A 
ATOM     15  C   UNL     1      54.542 -30.545  -7.512  1.00  0.00     0.051 A 
ATOM     16  C   UNL     1      52.315 -31.507  -6.127  1.00  0.00     0.062 A 
ATOM     17  C   UNL     1      54.319 -30.151  -6.192  1.00  0.00     0.016 A 
BRANCH  13  18
ATOM     18  O   UNL     1      53.848 -31.845  -9.480  1.00  0.00    -0.493 OA
ATOM     19  C   UNL     1      54.736 -32.884  -9.877  1.00  0.00     0.278 C 
ENDBRANCH  13  18
BRANCH  14  20
ATOM     20  O   UNL     1      51.662 -32.783  -8.128  1.00  0.00    -0.493 OA
ATOM     21  C   UNL     1      50.272 -32.545  -8.324  1.00  0.00     0.278 C 
ENDBRANCH  14  20
ENDBRANCH   1  12
BRANCH   8  22
ATOM     22  O   UNL     1      53.457 -33.141  -1.409  1.00  0.00    -0.490 OA
ATOM     23  C   UNL     1      54.779 -33.653  -1.523  1.00  0.00     0.278 C 
ENDBRANCH   8  22
BRANCH  11  24
ATOM     24  O   UNL     1      51.751 -28.075   0.356  1.00  0.00    -0.492 OA
ATOM     25  C   UNL     1      50.404 -27.889   0.778  1.00  0.00     0.278 C 
ENDBRANCH  11  24
BRANCH   9  26
ATOM     26  O   UNL     1      53.057 -32.694   1.402  1.00  0.00    -0.490 OA
ATOM     27  C   UNL     1      54.263 -33.056   2.067  1.00  0.00     0.279 C 
ENDBRANCH   9  26
BRANCH  10  28
ATOM     28  O   UNL     1      52.417 -30.028   2.272  1.00  0.00    -0.490 OA
ATOM     29  C   UNL     1      53.522 -29.521   3.016  1.00  0.00     0.278 C 
ENDBRANCH  10  28
TORSDOF 7
ENDMDL
MODEL 9
REMARK VINA RESULT:    -5.477      1.835      3.976
REMARK INTER + INTRA:          -8.496
REMARK INTER:                  -7.716
REMARK INTRA:                  -0.780
REMARK UNBOUND:                -0.778
REMARK SMILES COc1ccc(-c2cc(=O)c3c(OC)c(OC)c(OC)c(OC)c3o2)cc1OC
REMARK SMILES IDX 7 1 8 2 9 3 10 4 11 5 24 6 25 7 21 8 18 9 15 10 12 11 6 12
REMARK SMILES IDX 3 13 27 14 4 15 26 16 5 17 2 18 1 19 28 20 29 21 22 22 23 23
REMARK SMILES IDX 13 24 14 25 19 26 20 27 16 28 17 29
REMARK H PARENT
REMARK Flexibility Score: inf
ROOT
ATOM      1  C   UNL     1      49.545 -26.737   4.591  1.00  0.00     0.138 A 
ATOM      2  C   UNL     1      50.348 -27.720   3.998  1.00  0.00     0.100 A 
ATOM      3  C   UNL     1      51.292 -27.348   3.042  1.00  0.00     0.197 A 
ATOM      4  O   UNL     1      52.011 -28.242   2.518  1.00  0.00    -0.289 OA
ATOM      5  C   UNL     1      51.431 -25.988   2.688  1.00  0.00     0.115 A 
ATOM      6  C   UNL     1      50.592 -25.055   3.334  1.00  0.00     0.188 A 
ATOM      7  O   UNL     1      49.706 -25.464   4.239  1.00  0.00    -0.452 OA
ATOM      8  C   UNL     1      50.663 -23.690   3.033  1.00  0.00     0.209 A 
ATOM      9  C   UNL     1      51.610 -23.224   2.085  1.00  0.00     0.211 A 
ATOM     10  C   UNL     1      52.488 -24.154   1.470  1.00  0.00     0.208 A 
ATOM     11  C   UNL     1      52.353 -25.536   1.722  1.00  0.00     0.179 A 
ENDROOT
BRANCH   1  12
ATOM     12  C   UNL     1      48.523 -27.068   5.617  1.00  0.00     0.021 A 
ATOM     13  C   UNL     1      46.607 -27.657   7.608  1.00  0.00     0.160 A 
ATOM     14  C   UNL     1      47.889 -27.221   7.976  1.00  0.00     0.161 A 
ATOM     15  C   UNL     1      46.286 -27.788   6.245  1.00  0.00     0.051 A 
ATOM     16  C   UNL     1      48.839 -26.926   6.978  1.00  0.00     0.062 A 
ATOM     17  C   UNL     1      47.231 -27.493   5.262  1.00  0.00     0.016 A 
BRANCH  13  18
ATOM     18  O   UNL     1      45.683 -27.946   8.623  1.00  0.00    -0.493 OA
ATOM     19  C   UNL     1      44.304 -28.222   8.404  1.00  0.00     0.278 C 
ENDBRANCH  13  18
BRANCH  14  20
ATOM     20  O   UNL     1      48.181 -27.094   9.344  1.00  0.00    -0.493 OA
ATOM     21  C   UNL     1      49.191 -26.246   9.880  1.00  0.00     0.278 C 
ENDBRANCH  14  20
ENDBRANCH   1  12
BRANCH   8  22
ATOM     22  O   UNL     1      49.761 -22.852   3.719  1.00  0.00    -0.490 OA
ATOM     23  C   UNL     1      50.042 -22.021   4.839  1.00  0.00     0.278 C 
ENDBRANCH   8  22
BRANCH  11  24
ATOM     24  O   UNL     1      53.124 -26.464   1.013  1.00  0.00    -0.492 OA
ATOM     25  C   UNL     1      52.867 -26.787  -0.350  1.00  0.00     0.278 C 
ENDBRANCH  11  24
BRANCH   9  26
ATOM     26  O   UNL     1      51.650 -21.845   1.800  1.00  0.00    -0.490 OA
ATOM     27  C   UNL     1      50.916 -21.150   0.798  1.00  0.00     0.279 C 
ENDBRANCH   9  26
BRANCH  10  28
ATOM     28  O   UNL     1      53.504 -23.702   0.622  1.00  0.00    -0.490 OA
ATOM     29  C   UNL     1      54.797 -23.342   1.102  1.00  0.00     0.278 C 
ENDBRANCH  10  28
TORSDOF 7
ENDMDL
