MODEL 1
REMARK VINA RESULT:     1.563      0.000      0.000
REMARK INTER + INTRA:           3.009
REMARK INTER:                   3.711
REMARK INTRA:                  -0.702
REMARK UNBOUND:                -0.702
REMARK SMILES O=C(OC[C@@H]1O[C@@H](OC(=O)c2cc(O)c(O)c(O)c2)[C@@H](OC(=O)c2cc(O)c(O)c(O)c2)[C@H](OC(=O)c2cc(O)c(O)c(O)c2)[C@@H]1OC(=O)c1cc(O)c(O)c(O)c1)c1cc(O)c(O)c(O)c1
REMARK SMILES IDX 5 1 46 2 33 3 20 4 7 5 6 6 4 7 3 8 2 9 1 10 59 11 60 12
REMARK SMILES IDX 61 13 67 14 63 15 65 16 62 17 64 19 66 21 47 23 48 24 49 25
REMARK SMILES IDX 50 26 58 27 51 28 56 29 52 30 54 31 57 32 53 34 55 36 34 38
REMARK SMILES IDX 35 39 36 40 37 41 45 42 38 43 43 44 39 45 41 46 44 47 40 49
REMARK SMILES IDX 42 51 8 53 9 54 10 55 11 56 19 57 12 58 17 59 13 60 15 61
REMARK SMILES IDX 18 62 14 64 16 66 21 68 22 69 23 70 24 71 32 72 25 73 30 74
REMARK SMILES IDX 26 75 28 76 31 77 27 79 29 81
REMARK H PARENT 62 18 64 20 66 22 57 33 53 35 55 37 44 48 40 50 42 52 18 63
REMARK H PARENT 14 65 16 67 31 78 27 80 29 82
REMARK Flexibility Score: inf
ROOT
ATOM      1  C   UNL     1     -19.733  13.825 -30.489  1.00  0.00     0.205 C 
ATOM      2  C   UNL     1     -20.156  12.356 -30.271  1.00  0.00     0.254 C 
ATOM      3  C   UNL     1     -21.644  12.197 -30.643  1.00  0.00     0.267 C 
ATOM      4  C   UNL     1     -22.490  13.242 -29.894  1.00  0.00     0.290 C 
ATOM      5  C   UNL     1     -21.895  14.647 -30.092  1.00  0.00     0.357 C 
ATOM      6  O   UNL     1     -20.532  14.693 -29.699  1.00  0.00    -0.329 OA
ENDROOT
BRANCH   1   7
ATOM      7  C   UNL     1     -18.253  14.034 -30.129  1.00  0.00     0.269 C 
BRANCH   7   8
ATOM      8  O   UNL     1     -17.469  14.215 -31.308  1.00  0.00    -0.459 OA
BRANCH   8   9
ATOM      9  C   UNL     1     -16.673  13.218 -31.882  1.00  0.00     0.338 C 
ATOM     10  O   UNL     1     -17.181  12.113 -32.214  1.00  0.00    -0.246 OA
BRANCH   9  11
ATOM     11  C   UNL     1     -15.238  13.480 -32.130  1.00  0.00     0.067 A 
ATOM     12  C   UNL     1     -14.639  13.055 -33.323  1.00  0.00     0.066 A 
ATOM     13  C   UNL     1     -13.282  13.282 -33.562  1.00  0.00     0.162 A 
ATOM     14  C   UNL     1     -14.457  14.150 -31.176  1.00  0.00     0.066 A 
ATOM     15  C   UNL     1     -12.496  13.943 -32.600  1.00  0.00     0.200 A 
ATOM     16  C   UNL     1     -13.097  14.388 -31.396  1.00  0.00     0.162 A 
BRANCH  13  17
ATOM     17  O   UNL     1     -12.723  12.825 -34.757  1.00  0.00    -0.504 OA
ATOM     18  H   UNL     1     -12.169  13.422 -35.360  1.00  0.00     0.293 HD
ENDBRANCH  13  17
BRANCH  15  19
ATOM     19  O   UNL     1     -11.137  14.131 -32.868  1.00  0.00    -0.502 OA
ATOM     20  H   UNL     1     -10.528  14.716 -32.317  1.00  0.00     0.293 HD
ENDBRANCH  15  19
BRANCH  16  21
ATOM     21  O   UNL     1     -12.387  15.073 -30.406  1.00  0.00    -0.504 OA
ATOM     22  H   UNL     1     -11.383  15.079 -30.327  1.00  0.00     0.293 HD
ENDBRANCH  16  21
ENDBRANCH   9  11
ENDBRANCH   8   9
ENDBRANCH   7   8
ENDBRANCH   1   7
BRANCH   2  23
ATOM     23  O   UNL     1     -19.958  12.002 -28.902  1.00  0.00    -0.452 OA
BRANCH  23  24
ATOM     24  C   UNL     1     -19.132  10.954 -28.475  1.00  0.00     0.338 C 
ATOM     25  O   UNL     1     -19.636   9.875 -28.057  1.00  0.00    -0.246 OA
BRANCH  24  26
ATOM     26  C   UNL     1     -17.665  11.118 -28.522  1.00  0.00     0.067 A 
ATOM     27  C   UNL     1     -16.984  11.777 -27.483  1.00  0.00     0.066 A 
ATOM     28  C   UNL     1     -16.933  10.607 -29.604  1.00  0.00     0.066 A 
ATOM     29  C   UNL     1     -15.594  11.923 -27.523  1.00  0.00     0.162 A 
ATOM     30  C   UNL     1     -15.544  10.755 -29.656  1.00  0.00     0.162 A 
ATOM     31  C   UNL     1     -14.869  11.416 -28.615  1.00  0.00     0.200 A 
BRANCH  29  32
ATOM     32  O   UNL     1     -14.949  12.557 -26.461  1.00  0.00    -0.504 OA
ATOM     33  H   UNL     1     -14.050  12.241 -26.116  1.00  0.00     0.293 HD
ENDBRANCH  29  32
BRANCH  30  34
ATOM     34  O   UNL     1     -14.828  10.252 -30.744  1.00  0.00    -0.504 OA
ATOM     35  H   UNL     1     -15.040   9.341 -31.137  1.00  0.00     0.293 HD
ENDBRANCH  30  34
BRANCH  31  36
ATOM     36  O   UNL     1     -13.481  11.567 -28.650  1.00  0.00    -0.502 OA
ATOM     37  H   UNL     1     -12.863  10.818 -28.948  1.00  0.00     0.293 HD
ENDBRANCH  31  36
ENDBRANCH  24  26
ENDBRANCH  23  24
ENDBRANCH   2  23
BRANCH   3  38
ATOM     38  O   UNL     1     -22.114  10.891 -30.308  1.00  0.00    -0.450 OA
BRANCH  38  39
ATOM     39  C   UNL     1     -22.836  10.582 -29.151  1.00  0.00     0.338 C 
ATOM     40  O   UNL     1     -22.243  10.481 -28.042  1.00  0.00    -0.246 OA
BRANCH  39  41
ATOM     41  C   UNL     1     -24.299  10.366 -29.239  1.00  0.00     0.067 A 
ATOM     42  C   UNL     1     -24.941  10.218 -30.481  1.00  0.00     0.066 A 
ATOM     43  C   UNL     1     -25.070  10.313 -28.067  1.00  0.00     0.066 A 
ATOM     44  C   UNL     1     -26.331  10.055 -30.555  1.00  0.00     0.162 A 
ATOM     45  C   UNL     1     -26.457  10.153 -28.130  1.00  0.00     0.162 A 
ATOM     46  C   UNL     1     -27.094  10.029 -29.375  1.00  0.00     0.200 A 
BRANCH  44  47
ATOM     47  O   UNL     1     -26.960   9.920 -31.796  1.00  0.00    -0.504 OA
ATOM     48  H   UNL     1     -27.904  10.257 -31.958  1.00  0.00     0.293 HD
ENDBRANCH  44  47
BRANCH  45  49
ATOM     49  O   UNL     1     -27.190  10.114 -26.943  1.00  0.00    -0.504 OA
ATOM     50  H   UNL     1     -26.742  10.101 -26.036  1.00  0.00     0.293 HD
ENDBRANCH  45  49
BRANCH  46  51
ATOM     51  O   UNL     1     -28.480   9.876 -29.425  1.00  0.00    -0.502 OA
ATOM     52  H   UNL     1     -29.033  10.177 -30.219  1.00  0.00     0.293 HD
ENDBRANCH  46  51
ENDBRANCH  39  41
ENDBRANCH  38  39
ENDBRANCH   3  38
BRANCH   5  53
ATOM     53  O   UNL     1     -22.044  15.077 -31.447  1.00  0.00    -0.428 OA
BRANCH  53  54
ATOM     54  C   UNL     1     -23.138  15.823 -31.904  1.00  0.00     0.340 C 
ATOM     55  O   UNL     1     -24.218  15.245 -32.203  1.00  0.00    -0.246 OA
BRANCH  54  56
ATOM     56  C   UNL     1     -23.005  17.289 -32.060  1.00  0.00     0.067 A 
ATOM     57  C   UNL     1     -23.305  17.896 -33.291  1.00  0.00     0.066 A 
ATOM     58  C   UNL     1     -22.592  18.088 -30.982  1.00  0.00     0.066 A 
ATOM     59  C   UNL     1     -23.184  19.284 -33.447  1.00  0.00     0.162 A 
ATOM     60  C   UNL     1     -22.477  19.477 -31.130  1.00  0.00     0.162 A 
ATOM     61  C   UNL     1     -22.766  20.078 -32.365  1.00  0.00     0.200 A 
BRANCH  59  62
ATOM     62  O   UNL     1     -23.478  19.879 -34.672  1.00  0.00    -0.504 OA
ATOM     63  H   UNL     1     -23.003  20.718 -34.984  1.00  0.00     0.293 HD
ENDBRANCH  59  62
BRANCH  60  64
ATOM     64  O   UNL     1     -22.062  20.249 -30.046  1.00  0.00    -0.504 OA
ATOM     65  H   UNL     1     -21.160  20.111 -29.604  1.00  0.00     0.293 HD
ENDBRANCH  60  64
BRANCH  61  66
ATOM     66  O   UNL     1     -22.635  21.462 -32.501  1.00  0.00    -0.502 OA
ATOM     67  H   UNL     1     -23.438  22.087 -32.438  1.00  0.00     0.293 HD
ENDBRANCH  61  66
ENDBRANCH  54  56
ENDBRANCH  53  54
ENDBRANCH   5  53
BRANCH   4  68
ATOM     68  O   UNL     1     -23.838  13.226 -30.375  1.00  0.00    -0.448 OA
BRANCH  68  69
ATOM     69  C   UNL     1     -24.948  13.551 -29.581  1.00  0.00     0.339 C 
ATOM     70  O   UNL     1     -24.837  13.588 -28.326  1.00  0.00    -0.246 OA
BRANCH  69  71
ATOM     71  C   UNL     1     -26.239  13.889 -30.216  1.00  0.00     0.067 A 
ATOM     72  C   UNL     1     -26.403  15.109 -30.898  1.00  0.00     0.066 A 
ATOM     73  C   UNL     1     -27.319  12.994 -30.151  1.00  0.00     0.066 A 
ATOM     74  C   UNL     1     -27.616  15.413 -31.532  1.00  0.00     0.162 A 
ATOM     75  C   UNL     1     -28.542  13.292 -30.767  1.00  0.00     0.162 A 
ATOM     76  C   UNL     1     -28.685  14.508 -31.482  1.00  0.00     0.200 A 
BRANCH  74  77
ATOM     77  O   UNL     1     -27.764  16.612 -32.230  1.00  0.00    -0.504 OA
ATOM     78  H   UNL     1     -28.462  17.291 -31.967  1.00  0.00     0.293 HD
ENDBRANCH  74  77
BRANCH  75  79
ATOM     79  O   UNL     1     -29.578  12.363 -30.632  1.00  0.00    -0.504 OA
ATOM     80  H   UNL     1     -29.607  11.649 -29.923  1.00  0.00     0.293 HD
ENDBRANCH  75  79
BRANCH  76  81
ATOM     81  O   UNL     1     -29.861  14.840 -32.159  1.00  0.00    -0.502 OA
ATOM     82  H   UNL     1     -30.765  14.478 -31.909  1.00  0.00     0.293 HD
ENDBRANCH  76  81
ENDBRANCH  69  71
ENDBRANCH  68  69
ENDBRANCH   4  68
TORSDOF 31
ENDMDL
MODEL 2
REMARK VINA RESULT:     4.231      1.272      9.250
REMARK INTER + INTRA:           9.342
REMARK INTER:                   9.481
REMARK INTRA:                  -0.139
REMARK UNBOUND:                -0.702
REMARK SMILES O=C(OC[C@@H]1O[C@@H](OC(=O)c2cc(O)c(O)c(O)c2)[C@@H](OC(=O)c2cc(O)c(O)c(O)c2)[C@H](OC(=O)c2cc(O)c(O)c(O)c2)[C@@H]1OC(=O)c1cc(O)c(O)c(O)c1)c1cc(O)c(O)c(O)c1
REMARK SMILES IDX 5 1 46 2 33 3 20 4 7 5 6 6 4 7 3 8 2 9 1 10 59 11 60 12
REMARK SMILES IDX 61 13 67 14 63 15 65 16 62 17 64 19 66 21 47 23 48 24 49 25
REMARK SMILES IDX 50 26 58 27 51 28 56 29 52 30 54 31 57 32 53 34 55 36 34 38
REMARK SMILES IDX 35 39 36 40 37 41 45 42 38 43 43 44 39 45 41 46 44 47 40 49
REMARK SMILES IDX 42 51 8 53 9 54 10 55 11 56 19 57 12 58 17 59 13 60 15 61
REMARK SMILES IDX 18 62 14 64 16 66 21 68 22 69 23 70 24 71 32 72 25 73 30 74
REMARK SMILES IDX 26 75 28 76 31 77 27 79 29 81
REMARK H PARENT 62 18 64 20 66 22 57 33 53 35 55 37 44 48 40 50 42 52 18 63
REMARK H PARENT 14 65 16 67 31 78 27 80 29 82
REMARK Flexibility Score: inf
ROOT
ATOM      1  C   UNL     1     -21.572  14.065 -30.342  1.00  0.00     0.205 C 
ATOM      2  C   UNL     1     -22.591  12.917 -30.173  1.00  0.00     0.254 C 
ATOM      3  C   UNL     1     -21.860  11.668 -29.638  1.00  0.00     0.267 C 
ATOM      4  C   UNL     1     -20.646  11.345 -30.527  1.00  0.00     0.290 C 
ATOM      5  C   UNL     1     -19.778  12.601 -30.717  1.00  0.00     0.357 C 
ATOM      6  O   UNL     1     -20.536  13.683 -31.234  1.00  0.00    -0.329 OA
ENDROOT
BRANCH   1   7
ATOM      7  C   UNL     1     -22.255  15.336 -30.876  1.00  0.00     0.269 C 
BRANCH   7   8
ATOM      8  O   UNL     1     -23.514  15.538 -30.235  1.00  0.00    -0.459 OA
BRANCH   8   9
ATOM      9  C   UNL     1     -24.447  16.505 -30.626  1.00  0.00     0.338 C 
ATOM     10  O   UNL     1     -25.680  16.302 -30.455  1.00  0.00    -0.246 OA
BRANCH   9  11
ATOM     11  C   UNL     1     -23.978  17.781 -31.208  1.00  0.00     0.067 A 
ATOM     12  C   UNL     1     -23.115  18.613 -30.482  1.00  0.00     0.066 A 
ATOM     13  C   UNL     1     -22.678  19.827 -31.013  1.00  0.00     0.162 A 
ATOM     14  C   UNL     1     -24.392  18.180 -32.488  1.00  0.00     0.066 A 
ATOM     15  C   UNL     1     -23.102  20.233 -32.292  1.00  0.00     0.200 A 
ATOM     16  C   UNL     1     -23.964  19.392 -33.039  1.00  0.00     0.162 A 
BRANCH  13  17
ATOM     17  O   UNL     1     -21.832  20.632 -30.247  1.00  0.00    -0.504 OA
ATOM     18  H   UNL     1     -21.155  21.260 -30.664  1.00  0.00     0.293 HD
ENDBRANCH  13  17
BRANCH  15  19
ATOM     19  O   UNL     1     -22.658  21.466 -32.779  1.00  0.00    -0.502 OA
ATOM     20  H   UNL     1     -21.718  21.813 -32.667  1.00  0.00     0.293 HD
ENDBRANCH  15  19
BRANCH  16  21
ATOM     21  O   UNL     1     -24.408  19.715 -34.325  1.00  0.00    -0.504 OA
ATOM     22  H   UNL     1     -24.711  19.040 -35.007  1.00  0.00     0.293 HD
ENDBRANCH  16  21
ENDBRANCH   9  11
ENDBRANCH   8   9
ENDBRANCH   7   8
ENDBRANCH   1   7
BRANCH   2  23
ATOM     23  O   UNL     1     -23.190  12.623 -31.434  1.00  0.00    -0.452 OA
BRANCH  23  24
ATOM     24  C   UNL     1     -24.200  13.399 -32.022  1.00  0.00     0.338 C 
ATOM     25  O   UNL     1     -23.974  14.039 -33.085  1.00  0.00    -0.246 OA
BRANCH  24  26
ATOM     26  C   UNL     1     -25.533  13.460 -31.389  1.00  0.00     0.067 A 
ATOM     27  C   UNL     1     -25.694  13.153 -30.026  1.00  0.00     0.066 A 
ATOM     28  C   UNL     1     -26.654  13.835 -32.143  1.00  0.00     0.066 A 
ATOM     29  C   UNL     1     -26.954  13.220 -29.426  1.00  0.00     0.162 A 
ATOM     30  C   UNL     1     -27.919  13.898 -31.553  1.00  0.00     0.162 A 
ATOM     31  C   UNL     1     -28.075  13.589 -30.191  1.00  0.00     0.200 A 
BRANCH  29  32
ATOM     32  O   UNL     1     -27.073  12.937 -28.065  1.00  0.00    -0.504 OA
ATOM     33  H   UNL     1     -27.832  12.375 -27.699  1.00  0.00     0.293 HD
ENDBRANCH  29  32
BRANCH  30  34
ATOM     34  O   UNL     1     -29.030  14.262 -32.318  1.00  0.00    -0.504 OA
ATOM     35  H   UNL     1     -29.262  13.770 -33.174  1.00  0.00     0.293 HD
ENDBRANCH  30  34
BRANCH  31  36
ATOM     36  O   UNL     1     -29.331  13.653 -29.585  1.00  0.00    -0.502 OA
ATOM     37  H   UNL     1     -29.781  14.536 -29.363  1.00  0.00     0.293 HD
ENDBRANCH  31  36
ENDBRANCH  24  26
ENDBRANCH  23  24
ENDBRANCH   2  23
BRANCH   3  38
ATOM     38  O   UNL     1     -22.734  10.540 -29.616  1.00  0.00    -0.450 OA
BRANCH  38  39
ATOM     39  C   UNL     1     -23.612  10.237 -28.570  1.00  0.00     0.338 C 
ATOM     40  O   UNL     1     -23.168  10.065 -27.401  1.00  0.00    -0.246 OA
BRANCH  39  41
ATOM     41  C   UNL     1     -25.062  10.111 -28.845  1.00  0.00     0.067 A 
ATOM     42  C   UNL     1     -25.553  10.073 -30.161  1.00  0.00     0.066 A 
ATOM     43  C   UNL     1     -25.972  10.036 -27.779  1.00  0.00     0.066 A 
ATOM     44  C   UNL     1     -26.931   9.996 -30.411  1.00  0.00     0.162 A 
ATOM     45  C   UNL     1     -27.347   9.960 -28.016  1.00  0.00     0.162 A 
ATOM     46  C   UNL     1     -27.833   9.946 -29.334  1.00  0.00     0.200 A 
BRANCH  44  47
ATOM     47  O   UNL     1     -27.409   9.970 -31.724  1.00  0.00    -0.504 OA
ATOM     48  H   UNL     1     -27.306  10.764 -32.347  1.00  0.00     0.293 HD
ENDBRANCH  44  47
BRANCH  45  49
ATOM     49  O   UNL     1     -28.220   9.896 -26.930  1.00  0.00    -0.504 OA
ATOM     50  H   UNL     1     -29.222   9.973 -27.042  1.00  0.00     0.293 HD
ENDBRANCH  45  49
BRANCH  46  51
ATOM     51  O   UNL     1     -29.207   9.877 -29.558  1.00  0.00    -0.502 OA
ATOM     52  H   UNL     1     -29.633  10.166 -30.432  1.00  0.00     0.293 HD
ENDBRANCH  46  51
ENDBRANCH  39  41
ENDBRANCH  38  39
ENDBRANCH   3  38
BRANCH   5  53
ATOM     53  O   UNL     1     -19.143  12.971 -29.491  1.00  0.00    -0.428 OA
BRANCH  53  54
ATOM     54  C   UNL     1     -18.180  13.983 -29.395  1.00  0.00     0.340 C 
ATOM     55  O   UNL     1     -18.407  15.011 -28.700  1.00  0.00    -0.246 OA
BRANCH  54  56
ATOM     56  C   UNL     1     -16.908  13.850 -30.140  1.00  0.00     0.067 A 
ATOM     57  C   UNL     1     -16.904  13.311 -31.437  1.00  0.00     0.066 A 
ATOM     58  C   UNL     1     -15.697  14.271 -29.567  1.00  0.00     0.066 A 
ATOM     59  C   UNL     1     -15.704  13.184 -32.151  1.00  0.00     0.162 A 
ATOM     60  C   UNL     1     -14.495  14.154 -30.278  1.00  0.00     0.162 A 
ATOM     61  C   UNL     1     -14.494  13.602 -31.569  1.00  0.00     0.200 A 
BRANCH  59  62
ATOM     62  O   UNL     1     -15.706  12.644 -33.434  1.00  0.00    -0.504 OA
ATOM     63  H   UNL     1     -16.546  12.255 -33.847  1.00  0.00     0.293 HD
ENDBRANCH  59  62
BRANCH  60  64
ATOM     64  O   UNL     1     -13.305  14.575 -29.686  1.00  0.00    -0.504 OA
ATOM     65  H   UNL     1     -13.169  15.531 -29.378  1.00  0.00     0.293 HD
ENDBRANCH  60  64
BRANCH  61  66
ATOM     66  O   UNL     1     -13.287  13.481 -32.261  1.00  0.00    -0.502 OA
ATOM     67  H   UNL     1     -13.077  12.667 -32.839  1.00  0.00     0.293 HD
ENDBRANCH  61  66
ENDBRANCH  54  56
ENDBRANCH  53  54
ENDBRANCH   5  53
BRANCH   4  68
ATOM     68  O   UNL     1     -19.858  10.308 -29.933  1.00  0.00    -0.448 OA
BRANCH  68  69
ATOM     69  C   UNL     1     -19.206  10.442 -28.698  1.00  0.00     0.339 C 
ATOM     70  O   UNL     1     -19.866  10.387 -27.626  1.00  0.00    -0.246 OA
BRANCH  69  71
ATOM     71  C   UNL     1     -17.738  10.609 -28.651  1.00  0.00     0.067 A 
ATOM     72  C   UNL     1     -17.106  11.059 -27.477  1.00  0.00     0.066 A 
ATOM     73  C   UNL     1     -16.953  10.314 -29.777  1.00  0.00     0.066 A 
ATOM     74  C   UNL     1     -15.711  11.180 -27.421  1.00  0.00     0.162 A 
ATOM     75  C   UNL     1     -15.559  10.447 -29.740  1.00  0.00     0.162 A 
ATOM     76  C   UNL     1     -14.929  10.866 -28.542  1.00  0.00     0.200 A 
BRANCH  74  77
ATOM     77  O   UNL     1     -15.087  11.602 -26.247  1.00  0.00    -0.504 OA
ATOM     78  H   UNL     1     -14.490  12.414 -26.229  1.00  0.00     0.293 HD
ENDBRANCH  74  77
BRANCH  75  79
ATOM     79  O   UNL     1     -14.851  10.163 -30.912  1.00  0.00    -0.504 OA
ATOM     80  H   UNL     1     -14.000  10.629 -31.185  1.00  0.00     0.293 HD
ENDBRANCH  75  79
BRANCH  76  81
ATOM     81  O   UNL     1     -13.541  10.970 -28.427  1.00  0.00    -0.502 OA
ATOM     82  H   UNL     1     -13.070  11.183 -27.564  1.00  0.00     0.293 HD
ENDBRANCH  76  81
ENDBRANCH  69  71
ENDBRANCH  68  69
ENDBRANCH   4  68
TORSDOF 31
ENDMDL
