MODEL 1
REMARK VINA RESULT:    -7.303      0.000      0.000
REMARK INTER + INTRA:          -9.058
REMARK INTER:                  -8.797
REMARK INTRA:                  -0.261
REMARK UNBOUND:                -0.261
REMARK SMILES O=c1c(O)c(-c2ccc(O)c(O)c2)oc2cc(O)cc(O)c12
REMARK SMILES IDX 5 1 3 2 2 3 1 4 22 5 20 6 19 7 17 8 16 9 15 10 14 11 6 12
REMARK SMILES IDX 7 13 8 14 9 15 13 16 11 17 10 18 12 20 4 22 21 24 18 26
REMARK H PARENT 10 19 12 21 4 23 21 25 18 27
REMARK Flexibility Score: inf
ROOT
ATOM      1  C   UNL     1       4.733  -2.382  17.213  1.00  0.00     0.180 A 
ATOM      2  C   UNL     1       5.712  -2.320  16.205  1.00  0.00     0.208 A 
ATOM      3  C   UNL     1       5.338  -1.898  14.919  1.00  0.00     0.238 A 
ATOM      4  O   UNL     1       6.228  -1.793  14.036  1.00  0.00    -0.285 OA
ATOM      5  C   UNL     1       3.990  -1.558  14.654  1.00  0.00     0.111 A 
ATOM      6  C   UNL     1       3.492  -1.156  13.377  1.00  0.00     0.134 A 
ATOM      7  C   UNL     1       2.167  -0.717  13.260  1.00  0.00     0.093 A 
ATOM      8  C   UNL     1       1.305  -0.729  14.355  1.00  0.00     0.123 A 
ATOM      9  C   UNL     1       1.764  -1.176  15.594  1.00  0.00     0.094 A 
ATOM     10  C   UNL     1       3.091  -1.585  15.752  1.00  0.00     0.146 A 
ATOM     11  O   UNL     1       3.491  -1.994  16.949  1.00  0.00    -0.452 OA
ENDROOT
BRANCH   1  12
ATOM     12  C   UNL     1       5.045  -2.841  18.587  1.00  0.00     0.025 A 
ATOM     13  C   UNL     1       5.738  -2.022  19.491  1.00  0.00     0.016 A 
ATOM     14  C   UNL     1       6.043  -2.486  20.773  1.00  0.00     0.051 A 
ATOM     15  C   UNL     1       5.675  -3.775  21.172  1.00  0.00     0.157 A 
ATOM     16  C   UNL     1       4.695  -4.143  18.977  1.00  0.00     0.062 A 
ATOM     17  C   UNL     1       4.996  -4.617  20.260  1.00  0.00     0.158 A 
BRANCH  15  18
ATOM     18  O   UNL     1       6.005  -4.177  22.468  1.00  0.00    -0.504 OA
ATOM     19  H   UNL     1       6.213  -5.130  22.728  1.00  0.00     0.293 HD
ENDBRANCH  15  18
BRANCH  17  20
ATOM     20  O   UNL     1       4.606  -5.918  20.582  1.00  0.00    -0.504 OA
ATOM     21  H   UNL     1       4.980  -6.746  20.140  1.00  0.00     0.293 HD
ENDBRANCH  17  20
ENDBRANCH   1  12
BRANCH   2  22
ATOM     22  O   UNL     1       7.041  -2.639  16.496  1.00  0.00    -0.502 OA
ATOM     23  H   UNL     1       7.822  -2.164  16.060  1.00  0.00     0.293 HD
ENDBRANCH   2  22
BRANCH   6  24
ATOM     24  O   UNL     1       4.244  -1.194  12.199  1.00  0.00    -0.507 OA
ATOM     25  H   UNL     1       4.716  -2.013  11.846  1.00  0.00     0.293 HD
ENDBRANCH   6  24
BRANCH   8  26
ATOM     26  O   UNL     1      -0.011  -0.300  14.198  1.00  0.00    -0.508 OA
ATOM     27  H   UNL     1      -0.405  -0.121  13.282  1.00  0.00     0.293 HD
ENDBRANCH   8  26
TORSDOF 6
ENDMDL
MODEL 2
REMARK VINA RESULT:    -7.260      2.290      6.945
REMARK INTER + INTRA:          -9.006
REMARK INTER:                  -8.816
REMARK INTRA:                  -0.190
REMARK UNBOUND:                -0.261
REMARK SMILES O=c1c(O)c(-c2ccc(O)c(O)c2)oc2cc(O)cc(O)c12
REMARK SMILES IDX 5 1 3 2 2 3 1 4 22 5 20 6 19 7 17 8 16 9 15 10 14 11 6 12
REMARK SMILES IDX 7 13 8 14 9 15 13 16 11 17 10 18 12 20 4 22 21 24 18 26
REMARK H PARENT 10 19 12 21 4 23 21 25 18 27
REMARK Flexibility Score: inf
ROOT
ATOM      1  C   UNL     1       2.847  -2.520  15.579  1.00  0.00     0.180 A 
ATOM      2  C   UNL     1       2.635  -2.797  16.942  1.00  0.00     0.208 A 
ATOM      3  C   UNL     1       3.742  -2.860  17.803  1.00  0.00     0.238 A 
ATOM      4  O   UNL     1       3.542  -3.054  19.030  1.00  0.00    -0.285 OA
ATOM      5  C   UNL     1       5.046  -2.661  17.289  1.00  0.00     0.111 A 
ATOM      6  C   UNL     1       6.243  -2.743  18.064  1.00  0.00     0.134 A 
ATOM      7  C   UNL     1       7.469  -2.400  17.479  1.00  0.00     0.093 A 
ATOM      8  C   UNL     1       7.550  -2.044  16.134  1.00  0.00     0.123 A 
ATOM      9  C   UNL     1       6.394  -2.018  15.352  1.00  0.00     0.094 A 
ATOM     10  C   UNL     1       5.152  -2.320  15.915  1.00  0.00     0.146 A 
ATOM     11  O   UNL     1       4.075  -2.274  15.141  1.00  0.00    -0.452 OA
ENDROOT
BRANCH   1  12
ATOM     12  C   UNL     1       1.732  -2.462  14.605  1.00  0.00     0.025 A 
ATOM     13  C   UNL     1       0.762  -1.449  14.664  1.00  0.00     0.016 A 
ATOM     14  C   UNL     1      -0.293  -1.429  13.750  1.00  0.00     0.051 A 
ATOM     15  C   UNL     1      -0.409  -2.421  12.771  1.00  0.00     0.157 A 
ATOM     16  C   UNL     1       1.605  -3.471  13.638  1.00  0.00     0.062 A 
ATOM     17  C   UNL     1       0.551  -3.460  12.717  1.00  0.00     0.158 A 
BRANCH  15  18
ATOM     18  O   UNL     1      -1.486  -2.341  11.884  1.00  0.00    -0.504 OA
ATOM     19  H   UNL     1      -1.654  -3.002  11.140  1.00  0.00     0.293 HD
ENDBRANCH  15  18
BRANCH  17  20
ATOM     20  O   UNL     1       0.496  -4.489  11.776  1.00  0.00    -0.504 OA
ATOM     21  H   UNL     1       1.213  -5.191  11.664  1.00  0.00     0.293 HD
ENDBRANCH  17  20
ENDBRANCH   1  12
BRANCH   2  22
ATOM     22  O   UNL     1       1.337  -2.967  17.430  1.00  0.00    -0.502 OA
ATOM     23  H   UNL     1       0.806  -2.207  17.838  1.00  0.00     0.293 HD
ENDBRANCH   2  22
BRANCH   6  24
ATOM     24  O   UNL     1       6.285  -3.177  19.392  1.00  0.00    -0.507 OA
ATOM     25  H   UNL     1       5.797  -3.985  19.748  1.00  0.00     0.293 HD
ENDBRANCH   6  24
BRANCH   8  26
ATOM     26  O   UNL     1       8.788  -1.723  15.581  1.00  0.00    -0.508 OA
ATOM     27  H   UNL     1       9.654  -1.946  16.056  1.00  0.00     0.293 HD
ENDBRANCH   8  26
TORSDOF 6
ENDMDL
MODEL 3
REMARK VINA RESULT:    -7.256      1.404      3.259
REMARK INTER + INTRA:          -9.001
REMARK INTER:                  -8.788
REMARK INTRA:                  -0.213
REMARK UNBOUND:                -0.261
REMARK SMILES O=c1c(O)c(-c2ccc(O)c(O)c2)oc2cc(O)cc(O)c12
REMARK SMILES IDX 5 1 3 2 2 3 1 4 22 5 20 6 19 7 17 8 16 9 15 10 14 11 6 12
REMARK SMILES IDX 7 13 8 14 9 15 13 16 11 17 10 18 12 20 4 22 21 24 18 26
REMARK H PARENT 10 19 12 21 4 23 21 25 18 27
REMARK Flexibility Score: inf
ROOT
ATOM      1  C   UNL     1       3.380  -2.553  17.313  1.00  0.00     0.180 A 
ATOM      2  C   UNL     1       2.054  -2.092  17.394  1.00  0.00     0.208 A 
ATOM      3  C   UNL     1       1.468  -1.504  16.262  1.00  0.00     0.238 A 
ATOM      4  O   UNL     1       0.264  -1.142  16.324  1.00  0.00    -0.285 OA
ATOM      5  C   UNL     1       2.219  -1.371  15.069  1.00  0.00     0.111 A 
ATOM      6  C   UNL     1       1.738  -0.754  13.874  1.00  0.00     0.134 A 
ATOM      7  C   UNL     1       2.522  -0.794  12.714  1.00  0.00     0.093 A 
ATOM      8  C   UNL     1       3.792  -1.368  12.722  1.00  0.00     0.123 A 
ATOM      9  C   UNL     1       4.296  -1.920  13.900  1.00  0.00     0.094 A 
ATOM     10  C   UNL     1       3.524  -1.929  15.065  1.00  0.00     0.146 A 
ATOM     11  O   UNL     1       4.035  -2.473  16.162  1.00  0.00    -0.452 OA
ENDROOT
BRANCH   1  12
ATOM     12  C   UNL     1       4.074  -3.161  18.472  1.00  0.00     0.025 A 
ATOM     13  C   UNL     1       3.706  -4.423  18.964  1.00  0.00     0.016 A 
ATOM     14  C   UNL     1       4.360  -4.966  20.073  1.00  0.00     0.051 A 
ATOM     15  C   UNL     1       5.378  -4.258  20.719  1.00  0.00     0.157 A 
ATOM     16  C   UNL     1       5.081  -2.439  19.132  1.00  0.00     0.062 A 
ATOM     17  C   UNL     1       5.741  -2.975  20.245  1.00  0.00     0.158 A 
BRANCH  15  18
ATOM     18  O   UNL     1       5.994  -4.858  21.819  1.00  0.00    -0.504 OA
ATOM     19  H   UNL     1       6.760  -4.446  22.332  1.00  0.00     0.293 HD
ENDBRANCH  15  18
BRANCH  17  20
ATOM     20  O   UNL     1       6.740  -2.205  20.843  1.00  0.00    -0.504 OA
ATOM     21  H   UNL     1       7.544  -2.592  21.317  1.00  0.00     0.293 HD
ENDBRANCH  17  20
ENDBRANCH   1  12
BRANCH   2  22
ATOM     22  O   UNL     1       1.324  -2.254  18.575  1.00  0.00    -0.502 OA
ATOM     23  H   UNL     1       1.219  -3.154  19.029  1.00  0.00     0.293 HD
ENDBRANCH   2  22
BRANCH   6  24
ATOM     24  O   UNL     1       0.522  -0.072  13.782  1.00  0.00    -0.507 OA
ATOM     25  H   UNL     1      -0.341  -0.376  14.209  1.00  0.00     0.293 HD
ENDBRANCH   6  24
BRANCH   8  26
ATOM     26  O   UNL     1       4.550  -1.376  11.553  1.00  0.00    -0.508 OA
ATOM     27  H   UNL     1       5.551  -1.226  11.570  1.00  0.00     0.293 HD
ENDBRANCH   8  26
TORSDOF 6
ENDMDL
MODEL 4
REMARK VINA RESULT:    -7.210      2.179      7.008
REMARK INTER + INTRA:          -8.946
REMARK INTER:                  -8.885
REMARK INTRA:                  -0.061
REMARK UNBOUND:                -0.261
REMARK SMILES O=c1c(O)c(-c2ccc(O)c(O)c2)oc2cc(O)cc(O)c12
REMARK SMILES IDX 5 1 3 2 2 3 1 4 22 5 20 6 19 7 17 8 16 9 15 10 14 11 6 12
REMARK SMILES IDX 7 13 8 14 9 15 13 16 11 17 10 18 12 20 4 22 21 24 18 26
REMARK H PARENT 10 19 12 21 4 23 21 25 18 27
REMARK Flexibility Score: inf
ROOT
ATOM      1  C   UNL     1       2.978  -2.568  15.594  1.00  0.00     0.180 A 
ATOM      2  C   UNL     1       2.759  -2.829  16.958  1.00  0.00     0.208 A 
ATOM      3  C   UNL     1       3.860  -2.861  17.830  1.00  0.00     0.238 A 
ATOM      4  O   UNL     1       3.652  -3.041  19.058  1.00  0.00    -0.285 OA
ATOM      5  C   UNL     1       5.165  -2.647  17.325  1.00  0.00     0.111 A 
ATOM      6  C   UNL     1       6.355  -2.696  18.111  1.00  0.00     0.134 A 
ATOM      7  C   UNL     1       7.580  -2.340  17.532  1.00  0.00     0.093 A 
ATOM      8  C   UNL     1       7.667  -2.002  16.183  1.00  0.00     0.123 A 
ATOM      9  C   UNL     1       6.519  -2.007  15.390  1.00  0.00     0.094 A 
ATOM     10  C   UNL     1       5.276  -2.322  15.947  1.00  0.00     0.146 A 
ATOM     11  O   UNL     1       4.207  -2.307  15.163  1.00  0.00    -0.452 OA
ENDROOT
BRANCH   1  12
ATOM     12  C   UNL     1       1.872  -2.543  14.609  1.00  0.00     0.025 A 
ATOM     13  C   UNL     1       1.889  -3.363  13.470  1.00  0.00     0.016 A 
ATOM     14  C   UNL     1       0.845  -3.304  12.543  1.00  0.00     0.051 A 
ATOM     15  C   UNL     1      -0.224  -2.421  12.726  1.00  0.00     0.157 A 
ATOM     16  C   UNL     1       0.811  -1.640  14.783  1.00  0.00     0.062 A 
ATOM     17  C   UNL     1      -0.239  -1.574  13.860  1.00  0.00     0.158 A 
BRANCH  15  18
ATOM     18  O   UNL     1      -1.237  -2.415  11.765  1.00  0.00    -0.504 OA
ATOM     19  H   UNL     1      -2.222  -2.408  11.983  1.00  0.00     0.293 HD
ENDBRANCH  15  18
BRANCH  17  20
ATOM     20  O   UNL     1      -1.266  -0.661  14.104  1.00  0.00    -0.504 OA
ATOM     21  H   UNL     1      -1.699  -0.526  15.007  1.00  0.00     0.293 HD
ENDBRANCH  17  20
ENDBRANCH   1  12
BRANCH   2  22
ATOM     22  O   UNL     1       1.460  -3.015  17.438  1.00  0.00    -0.502 OA
ATOM     23  H   UNL     1       0.880  -3.792  17.147  1.00  0.00     0.293 HD
ENDBRANCH   2  22
BRANCH   6  24
ATOM     24  O   UNL     1       6.394  -3.111  19.445  1.00  0.00    -0.507 OA
ATOM     25  H   UNL     1       7.238  -3.260  19.976  1.00  0.00     0.293 HD
ENDBRANCH   6  24
BRANCH   8  26
ATOM     26  O   UNL     1       8.905  -1.667  15.636  1.00  0.00    -0.508 OA
ATOM     27  H   UNL     1       9.738  -1.608  16.208  1.00  0.00     0.293 HD
ENDBRANCH   8  26
TORSDOF 6
ENDMDL
MODEL 5
REMARK VINA RESULT:    -7.194      2.790      5.085
REMARK INTER + INTRA:          -8.926
REMARK INTER:                  -8.603
REMARK INTRA:                  -0.323
REMARK UNBOUND:                -0.261
REMARK SMILES O=c1c(O)c(-c2ccc(O)c(O)c2)oc2cc(O)cc(O)c12
REMARK SMILES IDX 5 1 3 2 2 3 1 4 22 5 20 6 19 7 17 8 16 9 15 10 14 11 6 12
REMARK SMILES IDX 7 13 8 14 9 15 13 16 11 17 10 18 12 20 4 22 21 24 18 26
REMARK H PARENT 10 19 12 21 4 23 21 25 18 27
REMARK Flexibility Score: inf
ROOT
ATOM      1  C   UNL     1       2.408  -2.288  14.796  1.00  0.00     0.180 A 
ATOM      2  C   UNL     1       1.576  -1.154  14.786  1.00  0.00     0.208 A 
ATOM      3  C   UNL     1       0.345  -1.219  14.115  1.00  0.00     0.238 A 
ATOM      4  O   UNL     1      -0.419  -0.220  14.156  1.00  0.00    -0.285 OA
ATOM      5  C   UNL     1      -0.033  -2.411  13.450  1.00  0.00     0.111 A 
ATOM      6  C   UNL     1      -1.239  -2.575  12.705  1.00  0.00     0.134 A 
ATOM      7  C   UNL     1      -1.571  -3.837  12.197  1.00  0.00     0.093 A 
ATOM      8  C   UNL     1      -0.711  -4.923  12.350  1.00  0.00     0.123 A 
ATOM      9  C   UNL     1       0.499  -4.760  13.025  1.00  0.00     0.094 A 
ATOM     10  C   UNL     1       0.842  -3.522  13.575  1.00  0.00     0.146 A 
ATOM     11  O   UNL     1       1.997  -3.411  14.219  1.00  0.00    -0.452 OA
ENDROOT
BRANCH   1  12
ATOM     12  C   UNL     1       3.732  -2.288  15.461  1.00  0.00     0.025 A 
ATOM     13  C   UNL     1       3.869  -2.635  16.814  1.00  0.00     0.016 A 
ATOM     14  C   UNL     1       5.125  -2.604  17.426  1.00  0.00     0.051 A 
ATOM     15  C   UNL     1       6.260  -2.216  16.707  1.00  0.00     0.157 A 
ATOM     16  C   UNL     1       4.866  -1.877  14.744  1.00  0.00     0.062 A 
ATOM     17  C   UNL     1       6.129  -1.843  15.348  1.00  0.00     0.158 A 
BRANCH  15  18
ATOM     18  O   UNL     1       7.486  -2.211  17.376  1.00  0.00    -0.504 OA
ATOM     19  H   UNL     1       8.207  -2.905  17.239  1.00  0.00     0.293 HD
ENDBRANCH  15  18
BRANCH  17  20
ATOM     20  O   UNL     1       7.214  -1.436  14.570  1.00  0.00    -0.504 OA
ATOM     21  H   UNL     1       7.126  -1.005  13.661  1.00  0.00     0.293 HD
ENDBRANCH  17  20
ENDBRANCH   1  12
BRANCH   2  22
ATOM     22  O   UNL     1       1.959   0.004  15.469  1.00  0.00    -0.502 OA
ATOM     23  H   UNL     1       2.191   0.865  14.990  1.00  0.00     0.293 HD
ENDBRANCH   2  22
BRANCH   6  24
ATOM     24  O   UNL     1      -2.125  -1.533  12.414  1.00  0.00    -0.507 OA
ATOM     25  H   UNL     1      -2.776  -1.532  11.644  1.00  0.00     0.293 HD
ENDBRANCH   6  24
BRANCH   8  26
ATOM     26  O   UNL     1      -1.066  -6.161  11.819  1.00  0.00    -0.508 OA
ATOM     27  H   UNL     1      -0.372  -6.872  11.620  1.00  0.00     0.293 HD
ENDBRANCH   8  26
TORSDOF 6
ENDMDL
MODEL 6
REMARK VINA RESULT:    -7.159      1.730      6.577
REMARK INTER + INTRA:          -8.884
REMARK INTER:                  -8.597
REMARK INTRA:                  -0.287
REMARK UNBOUND:                -0.261
REMARK SMILES O=c1c(O)c(-c2ccc(O)c(O)c2)oc2cc(O)cc(O)c12
REMARK SMILES IDX 5 1 3 2 2 3 1 4 22 5 20 6 19 7 17 8 16 9 15 10 14 11 6 12
REMARK SMILES IDX 7 13 8 14 9 15 13 16 11 17 10 18 12 20 4 22 21 24 18 26
REMARK H PARENT 10 19 12 21 4 23 21 25 18 27
REMARK Flexibility Score: inf
ROOT
ATOM      1  C   UNL     1       2.873  -2.200  15.849  1.00  0.00     0.180 A 
ATOM      2  C   UNL     1       4.118  -2.109  15.203  1.00  0.00     0.208 A 
ATOM      3  C   UNL     1       5.289  -2.302  15.953  1.00  0.00     0.238 A 
ATOM      4  O   UNL     1       6.398  -2.274  15.358  1.00  0.00    -0.285 OA
ATOM      5  C   UNL     1       5.202  -2.567  17.340  1.00  0.00     0.111 A 
ATOM      6  C   UNL     1       6.325  -2.739  18.204  1.00  0.00     0.134 A 
ATOM      7  C   UNL     1       6.120  -3.126  19.535  1.00  0.00     0.093 A 
ATOM      8  C   UNL     1       4.834  -3.282  20.049  1.00  0.00     0.123 A 
ATOM      9  C   UNL     1       3.727  -3.059  19.229  1.00  0.00     0.094 A 
ATOM     10  C   UNL     1       3.899  -2.708  17.888  1.00  0.00     0.146 A 
ATOM     11  O   UNL     1       2.821  -2.514  17.138  1.00  0.00    -0.452 OA
ENDROOT
BRANCH   1  12
ATOM     12  C   UNL     1       1.595  -1.984  15.131  1.00  0.00     0.025 A 
ATOM     13  C   UNL     1       0.886  -0.778  15.248  1.00  0.00     0.016 A 
ATOM     14  C   UNL     1      -0.329  -0.607  14.580  1.00  0.00     0.051 A 
ATOM     15  C   UNL     1      -0.865  -1.635  13.798  1.00  0.00     0.157 A 
ATOM     16  C   UNL     1       1.048  -3.025  14.365  1.00  0.00     0.062 A 
ATOM     17  C   UNL     1      -0.170  -2.863  13.693  1.00  0.00     0.158 A 
BRANCH  15  18
ATOM     18  O   UNL     1      -2.082  -1.399  13.154  1.00  0.00    -0.504 OA
ATOM     19  H   UNL     1      -2.192  -1.367  12.151  1.00  0.00     0.293 HD
ENDBRANCH  15  18
BRANCH  17  20
ATOM     20  O   UNL     1      -0.646  -3.937  12.939  1.00  0.00    -0.504 OA
ATOM     21  H   UNL     1      -0.259  -4.220  12.051  1.00  0.00     0.293 HD
ENDBRANCH  17  20
ENDBRANCH   1  12
BRANCH   2  22
ATOM     22  O   UNL     1       4.179  -1.870  13.827  1.00  0.00    -0.502 OA
ATOM     23  H   UNL     1       4.732  -2.441  13.200  1.00  0.00     0.293 HD
ENDBRANCH   2  22
BRANCH   6  24
ATOM     24  O   UNL     1       7.650  -2.518  17.817  1.00  0.00    -0.507 OA
ATOM     25  H   UNL     1       8.408  -2.318  18.451  1.00  0.00     0.293 HD
ENDBRANCH   6  24
BRANCH   8  26
ATOM     26  O   UNL     1       4.666  -3.653  21.381  1.00  0.00    -0.508 OA
ATOM     27  H   UNL     1       5.312  -4.284  21.841  1.00  0.00     0.293 HD
ENDBRANCH   8  26
TORSDOF 6
ENDMDL
MODEL 7
REMARK VINA RESULT:    -6.921      1.959      6.704
REMARK INTER + INTRA:          -8.597
REMARK INTER:                  -8.387
REMARK INTRA:                  -0.210
REMARK UNBOUND:                -0.261
REMARK SMILES O=c1c(O)c(-c2ccc(O)c(O)c2)oc2cc(O)cc(O)c12
REMARK SMILES IDX 5 1 3 2 2 3 1 4 22 5 20 6 19 7 17 8 16 9 15 10 14 11 6 12
REMARK SMILES IDX 7 13 8 14 9 15 13 16 11 17 10 18 12 20 4 22 21 24 18 26
REMARK H PARENT 10 19 12 21 4 23 21 25 18 27
REMARK Flexibility Score: inf
ROOT
ATOM      1  C   UNL     1       3.782  -2.277  15.228  1.00  0.00     0.180 A 
ATOM      2  C   UNL     1       5.179  -2.157  15.333  1.00  0.00     0.208 A 
ATOM      3  C   UNL     1       5.787  -2.353  16.583  1.00  0.00     0.238 A 
ATOM      4  O   UNL     1       7.042  -2.297  16.660  1.00  0.00    -0.285 OA
ATOM      5  C   UNL     1       4.990  -2.652  17.715  1.00  0.00     0.111 A 
ATOM      6  C   UNL     1       5.497  -2.830  19.038  1.00  0.00     0.134 A 
ATOM      7  C   UNL     1       4.633  -3.251  20.057  1.00  0.00     0.093 A 
ATOM      8  C   UNL     1       3.272  -3.435  19.817  1.00  0.00     0.123 A 
ATOM      9  C   UNL     1       2.756  -3.206  18.541  1.00  0.00     0.094 A 
ATOM     10  C   UNL     1       3.598  -2.821  17.495  1.00  0.00     0.146 A 
ATOM     11  O   UNL     1       3.070  -2.623  16.294  1.00  0.00    -0.452 OA
ENDROOT
BRANCH   1  12
ATOM     12  C   UNL     1       3.067  -2.060  13.950  1.00  0.00     0.025 A 
ATOM     13  C   UNL     1       3.021  -0.795  13.344  1.00  0.00     0.016 A 
ATOM     14  C   UNL     1       2.319  -0.609  12.150  1.00  0.00     0.051 A 
ATOM     15  C   UNL     1       1.642  -1.674  11.547  1.00  0.00     0.157 A 
ATOM     16  C   UNL     1       2.369  -3.125  13.358  1.00  0.00     0.062 A 
ATOM     17  C   UNL     1       1.663  -2.949  12.162  1.00  0.00     0.158 A 
BRANCH  15  18
ATOM     18  O   UNL     1       0.963  -1.423  10.352  1.00  0.00    -0.504 OA
ATOM     19  H   UNL     1       1.416  -1.325   9.456  1.00  0.00     0.293 HD
ENDBRANCH  15  18
BRANCH  17  20
ATOM     20  O   UNL     1       1.003  -4.055  11.625  1.00  0.00    -0.504 OA
ATOM     21  H   UNL     1       1.061  -4.332  10.655  1.00  0.00     0.293 HD
ENDBRANCH  17  20
ENDBRANCH   1  12
BRANCH   2  22
ATOM     22  O   UNL     1       5.948  -1.884  14.198  1.00  0.00    -0.502 OA
ATOM     23  H   UNL     1       6.912  -1.579  14.255  1.00  0.00     0.293 HD
ENDBRANCH   2  22
BRANCH   6  24
ATOM     24  O   UNL     1       6.823  -2.584  19.406  1.00  0.00    -0.507 OA
ATOM     25  H   UNL     1       7.514  -3.298  19.574  1.00  0.00     0.293 HD
ENDBRANCH   6  24
BRANCH   8  26
ATOM     26  O   UNL     1       2.439  -3.839  20.858  1.00  0.00    -0.508 OA
ATOM     27  H   UNL     1       2.708  -3.724  21.827  1.00  0.00     0.293 HD
ENDBRANCH   8  26
TORSDOF 6
ENDMDL
MODEL 8
REMARK VINA RESULT:    -6.907      2.886      3.544
REMARK INTER + INTRA:          -8.580
REMARK INTER:                  -8.738
REMARK INTRA:                   0.158
REMARK UNBOUND:                -0.261
REMARK SMILES O=c1c(O)c(-c2ccc(O)c(O)c2)oc2cc(O)cc(O)c12
REMARK SMILES IDX 5 1 3 2 2 3 1 4 22 5 20 6 19 7 17 8 16 9 15 10 14 11 6 12
REMARK SMILES IDX 7 13 8 14 9 15 13 16 11 17 10 18 12 20 4 22 21 24 18 26
REMARK H PARENT 10 19 12 21 4 23 21 25 18 27
REMARK Flexibility Score: inf
ROOT
ATOM      1  C   UNL     1       2.350  -3.566  18.299  1.00  0.00     0.180 A 
ATOM      2  C   UNL     1       3.743  -3.481  18.125  1.00  0.00     0.208 A 
ATOM      3  C   UNL     1       4.249  -2.756  17.034  1.00  0.00     0.238 A 
ATOM      4  O   UNL     1       5.496  -2.637  16.914  1.00  0.00    -0.285 OA
ATOM      5  C   UNL     1       3.357  -2.138  16.124  1.00  0.00     0.111 A 
ATOM      6  C   UNL     1       3.759  -1.412  14.963  1.00  0.00     0.134 A 
ATOM      7  C   UNL     1       2.796  -0.733  14.205  1.00  0.00     0.093 A 
ATOM      8  C   UNL     1       1.442  -0.808  14.528  1.00  0.00     0.123 A 
ATOM      9  C   UNL     1       1.032  -1.563  15.627  1.00  0.00     0.094 A 
ATOM     10  C   UNL     1       1.972  -2.222  16.424  1.00  0.00     0.146 A 
ATOM     11  O   UNL     1       1.542  -2.921  17.466  1.00  0.00    -0.452 OA
ENDROOT
BRANCH   1  12
ATOM     12  C   UNL     1       1.741  -4.333  19.411  1.00  0.00     0.025 A 
ATOM     13  C   UNL     1       2.300  -4.321  20.698  1.00  0.00     0.016 A 
ATOM     14  C   UNL     1       1.721  -5.073  21.724  1.00  0.00     0.051 A 
ATOM     15  C   UNL     1       0.588  -5.857  21.485  1.00  0.00     0.157 A 
ATOM     16  C   UNL     1       0.618  -5.137  19.162  1.00  0.00     0.062 A 
ATOM     17  C   UNL     1       0.031  -5.893  20.184  1.00  0.00     0.158 A 
BRANCH  15  18
ATOM     18  O   UNL     1       0.057  -6.580  22.555  1.00  0.00    -0.504 OA
ATOM     19  H   UNL     1      -0.859  -7.005  22.549  1.00  0.00     0.293 HD
ENDBRANCH  15  18
BRANCH  17  20
ATOM     20  O   UNL     1      -1.091  -6.659  19.866  1.00  0.00    -0.504 OA
ATOM     21  H   UNL     1      -2.014  -6.493  20.242  1.00  0.00     0.293 HD
ENDBRANCH  17  20
ENDBRANCH   1  12
BRANCH   2  22
ATOM     22  O   UNL     1       4.604  -4.079  19.048  1.00  0.00    -0.502 OA
ATOM     23  H   UNL     1       5.561  -3.771  19.178  1.00  0.00     0.293 HD
ENDBRANCH   2  22
BRANCH   6  24
ATOM     24  O   UNL     1       5.076  -1.350  14.498  1.00  0.00    -0.507 OA
ATOM     25  H   UNL     1       5.561  -0.499  14.259  1.00  0.00     0.293 HD
ENDBRANCH   6  24
BRANCH   8  26
ATOM     26  O   UNL     1       0.510  -0.132  13.743  1.00  0.00    -0.508 OA
ATOM     27  H   UNL     1       0.075  -0.571  12.941  1.00  0.00     0.293 HD
ENDBRANCH   8  26
TORSDOF 6
ENDMDL
MODEL 9
REMARK VINA RESULT:    -6.784      1.940      7.155
REMARK INTER + INTRA:          -8.433
REMARK INTER:                  -8.114
REMARK INTRA:                  -0.318
REMARK UNBOUND:                -0.261
REMARK SMILES O=c1c(O)c(-c2ccc(O)c(O)c2)oc2cc(O)cc(O)c12
REMARK SMILES IDX 5 1 3 2 2 3 1 4 22 5 20 6 19 7 17 8 16 9 15 10 14 11 6 12
REMARK SMILES IDX 7 13 8 14 9 15 13 16 11 17 10 18 12 20 4 22 21 24 18 26
REMARK H PARENT 10 19 12 21 4 23 21 25 18 27
REMARK Flexibility Score: inf
ROOT
ATOM      1  C   UNL     1       2.943  -2.785  17.379  1.00  0.00     0.180 A 
ATOM      2  C   UNL     1       2.443  -3.826  18.180  1.00  0.00     0.208 A 
ATOM      3  C   UNL     1       3.104  -4.140  19.378  1.00  0.00     0.238 A 
ATOM      4  O   UNL     1       2.620  -5.036  20.118  1.00  0.00    -0.285 OA
ATOM      5  C   UNL     1       4.264  -3.420  19.752  1.00  0.00     0.111 A 
ATOM      6  C   UNL     1       5.036  -3.681  20.924  1.00  0.00     0.134 A 
ATOM      7  C   UNL     1       6.090  -2.822  21.262  1.00  0.00     0.093 A 
ATOM      8  C   UNL     1       6.441  -1.754  20.438  1.00  0.00     0.123 A 
ATOM      9  C   UNL     1       5.731  -1.525  19.259  1.00  0.00     0.094 A 
ATOM     10  C   UNL     1       4.651  -2.342  18.913  1.00  0.00     0.146 A 
ATOM     11  O   UNL     1       3.995  -2.086  17.789  1.00  0.00    -0.452 OA
ENDROOT
BRANCH   1  12
ATOM     12  C   UNL     1       2.316  -2.412  16.090  1.00  0.00     0.025 A 
ATOM     13  C   UNL     1       1.242  -1.510  16.034  1.00  0.00     0.016 A 
ATOM     14  C   UNL     1       0.651  -1.192  14.809  1.00  0.00     0.051 A 
ATOM     15  C   UNL     1       1.107  -1.775  13.623  1.00  0.00     0.157 A 
ATOM     16  C   UNL     1       2.761  -3.015  14.903  1.00  0.00     0.062 A 
ATOM     17  C   UNL     1       2.175  -2.703  13.671  1.00  0.00     0.158 A 
BRANCH  15  18
ATOM     18  O   UNL     1       0.476  -1.412  12.431  1.00  0.00    -0.504 OA
ATOM     19  H   UNL     1      -0.374  -0.869  12.385  1.00  0.00     0.293 HD
ENDBRANCH  15  18
BRANCH  17  20
ATOM     20  O   UNL     1       2.678  -3.333  12.531  1.00  0.00    -0.504 OA
ATOM     21  H   UNL     1       2.680  -4.333  12.393  1.00  0.00     0.293 HD
ENDBRANCH  17  20
ENDBRANCH   1  12
BRANCH   2  22
ATOM     22  O   UNL     1       1.283  -4.507  17.803  1.00  0.00    -0.502 OA
ATOM     23  H   UNL     1       0.664  -4.941  18.477  1.00  0.00     0.293 HD
ENDBRANCH   2  22
BRANCH   6  24
ATOM     24  O   UNL     1       4.829  -4.775  21.769  1.00  0.00    -0.507 OA
ATOM     25  H   UNL     1       5.558  -5.263  22.267  1.00  0.00     0.293 HD
ENDBRANCH   6  24
BRANCH   8  26
ATOM     26  O   UNL     1       7.505  -0.929  20.797  1.00  0.00    -0.508 OA
ATOM     27  H   UNL     1       7.861  -0.906  21.745  1.00  0.00     0.293 HD
ENDBRANCH   8  26
TORSDOF 6
ENDMDL
